data_image0
_chemical_formula_structural       FeS2FeS2FeSFeS3FeS2FeS2FeHFeCS2HCFeS2FeSH5CHCH2CHCFeC3HC6H4C6H4NH2C4H3CH2NCHSH2CH5C2HSH2C2HCH2CH2C2H6C2S2H2CH3CSNSH2C2HC3HC2HCH4C3HC2H3C3HC4HCNH4CSHFeNHSHCHC2HNHC2H2C4HCNHCHCH2CHNC3HC4H2CHC2HCH3CH3CH3CHCH2CSCH2CHC4H2CHC2H2CFeSFeSFeS2FeSHFeS3C3H2C2H2CHC2H2C7H5CH3C2SHS2FeS2FeSHFeSC3H3NCSC3H3C6H5CHCHCNCH2CH2C5H2CH3C3NH2CHC2HCHCH5CHC2H4CHC3H3C3HCH3SHC2H4CHCHNH2C2HC2H3CSHC2HC2H3CNCH2C7H2CHCH3CH5C2HFeS2FeS2FeHFeS3FeS2FeS2FeCFeHS2CH3FeS2FeSCH2C3H5C2H7C6H4C6H3C2HNCHCH2CH3C5H2CH2SCH2SHCHC2HC2HCHC3HCSH2N2C5HCH4NCH2NSC2HCH3C3HSH2CH2CHC3H2CHFeCH2CHC2H3CH7CH3C2HC2HC2FeC2H2CSCHC3H5C2HCHCHFeS2FeS2FeSFeS3FeS2FeS2FeHFeHS2H2FeS2FeSHCH5SHNHCHSHFeCHC6H4C6H5C3HC2HC2HCSH4FeCH2CH3SC3H2CNH3CHC5NHCH3NHCH2CNH3C3HCHC2HC2H2SCH4CHC2H3CH2CHC5H2CH2CH2C2HC2SH2CH3CHC3H3CH3FeSFeSFeS2FeSHFeS3C3H4CH3CH3C6H4CHCHC4H2S2FeS2FeSCFeSC3H3C2H2C2H3C5H4CH2C5NC2H6CNHC3H2C4SC5H4C3H2SH3C3HCH4NCH4CH2C2HCH2CHCH2CH5C2N2HC2HCH2CH2C2H5C2H4C2H2C2H2C2FeS2FeS2FeSFeS3FeS2FeS2FeCFeHS2CH3CS2FeSH2CH2C2H3CHC2H3CH2C6H4C6H5CHCH2CHSNCHCSHCH2NC9H4CH10CHCH2FeHNH5C3H5C2SHCH4C2H3CH2C2SHCHNCHC2FeCHCH6SH2CHSCFeCHCH2C3H3CHC4HCHFeSCFeS2FeSFeHS2FeS2FeS2FeSFeHS2FeSH2FeS2H3CHC2SHNH2CHC2H2CHC6H4C2HSH4NHNCHCHC6H2C3H2C3H3SC4HC2H2FeH5FeHC2H2CHCSC5HC3H2FeHCH6C2H3NHCHNC9H18CSCH2CHCHCH2CHC2H2C2H3CHNCHSCSHCHC2H3FeSHFeCFeS2FeS2FeS3C5H2C6H3C2H3C2H4FeSCSFeS2FeSH6CHC3H3C4HCH2CHCH2C4HC4HC2HSH2CH2C2HC4H5CHCH3NC5HSH3CHC3H2NH4C2H4N2C2H3CH2CHCH3CHCH5SH3CH2CHSC2H4CHC2HNC2H3CH4C2HFeSHFeSCFeSFeHS2FeS2FeS2FeSFeS3FeSH6CHSHNCH2C2HC2H6C6H4C2H3C2HC3H4C4H2C3SFeCHCH2SHSNC4HCNH3C2H2CHCHC2H3CH3C3HNHCH9C2HC3SH3CH4FeCHNC2HCH3SC3HC3HC2HCHCHCH5C2HC2H2FeSCFeSHFeSFeS3FeS2FeS2FeSFeS3FeSCHFeS2HCH2C2H5CH3C4HC6H5CH3NH2CHCH2CHC6H7C2HCFeSCH2NH3CH4NH3C7H4CH3CH2CHCH3C3HCSHCNCSHCH2C2HC2HC2HNCHC2HSCHSCH4SH4C2H2C2SH2CHSCH3CH4CH2CHC3FeSCFeSFeS2FeS2FeS3CHC3H2C5HCH2CHC2HCH4CFeSCSFeS2FeSH2CH2C6H3C5H5CH2CH2CH4CH2C3NCH3C5H2CHCH8C5HCH2C2NCHCH7NHCHC2HNCHC2HC3HC2H2C2HC2HCH2CHCH2CH2SC3HCS2HCH5C2HCHCHC3H4FeS2FeSHFeSFeHS2FeS2FeS2FeSFeS3FeSCHCHCHFeS2H3NHC2H2SHC2SHC7H4FeC2H3C2H2SH3C5H5C3HC3NCH2CH3N2HCHSHCH3CHCHCH2CH3C2H3CHCHC2H2CH4CH2CH2C2H4CH2CHC2H2SCHFeHCH3C2H3CHNC9H4SC2H7C2HCHSC2HCHCHCNHC2H2CHNH2C3SCH2CH2FeCHS
_chemical_formula_sum              "Fe128 S256 H1152 C960 N64"
_cell_length_a       44.1106
_cell_length_b       31.1354
_cell_length_c       48.0481
_cell_angle_alpha    89.8906
_cell_angle_beta     90.0365
_cell_angle_gamma    89.7645

_space_group_name_H-M_alt    "P 1"
_space_group_IT_number       1

loop_
  _space_group_symop_operation_xyz
  'x, y, z'

loop_
  _atom_site_type_symbol
  _atom_site_label
  _atom_site_symmetry_multiplicity
  _atom_site_fract_x
  _atom_site_fract_y
  _atom_site_fract_z
  _atom_site_occupancy
  Fe  Fe1       1.0  0.46692  0.13699  0.24921  1.0000
  S   S1        1.0  0.47180  0.20830  0.25489  1.0000
  S   S2        1.0  0.50963  0.10291  0.23375  1.0000
  Fe  Fe2       1.0  0.39831  0.14284  0.25814  1.0000
  S   S3        1.0  0.39857  0.21417  0.26436  1.0000
  S   S4        1.0  0.35521  0.10399  0.25376  1.0000
  Fe  Fe3       1.0  0.43061  0.21506  0.22810  1.0000
  S   S5        1.0  0.42505  0.26847  0.19649  1.0000
  Fe  Fe4       1.0  0.43967  0.20152  0.29084  1.0000
  S   S6        1.0  0.45196  0.24643  0.32619  1.0000
  S   S7        1.0  0.42755  0.14466  0.21978  1.0000
  S   S8        1.0  0.43761  0.12927  0.28738  1.0000
  Fe  Fe5       1.0  0.11002  0.13137  0.26230  1.0000
  S   S9        1.0  0.10911  0.06394  0.24499  1.0000
  S   S10       1.0  0.06377  0.15969  0.27367  1.0000
  Fe  Fe6       1.0  0.17990  0.13349  0.26173  1.0000
  S   S11       1.0  0.18342  0.06719  0.24399  1.0000
  S   S12       1.0  0.22119  0.17229  0.27491  1.0000
  Fe  Fe7       1.0  0.14533  0.08688  0.21551  1.0000
  H   H1        1.0  0.51307  0.21125  0.09399  1.0000
  Fe  Fe8       1.0  0.14717  0.05061  0.27516  1.0000
  C   C1        1.0  0.05933  0.46699  0.29486  1.0000
  S   S13       1.0  0.14408  0.15520  0.23124  1.0000
  S   S14       1.0  0.14563  0.11587  0.29450  1.0000
  H   H2        1.0  0.13938  0.42125  0.13200  1.0000
  C   C2        1.0  0.41137  0.38437  0.33727  1.0000
  Fe  Fe9       1.0  0.44790  0.28786  0.03640  1.0000
  S   S15       1.0  0.45650  0.23665  0.06916  1.0000
  S   S16       1.0  0.44787  0.36019  0.03778  1.0000
  Fe  Fe10      1.0  0.15283  0.43555  0.06341  1.0000
  S   S17       1.0  0.15829  0.36442  0.06873  1.0000
  H   H3        1.0  0.22982  0.38776  0.10940  1.0000
  H   H4        1.0  0.05945  0.48912  0.13929  1.0000
  H   H5        1.0  0.28855  0.28518  0.02913  1.0000
  H   H6        1.0  0.09397  0.23571  0.25077  1.0000
  H   H7        1.0  0.06849  0.46648  0.27398  1.0000
  C   C3        1.0  0.47899  0.13867  0.02500  1.0000
  H   H8        1.0  0.48313  0.39013  0.32593  1.0000
  C   C4        1.0  0.10372  0.04718  0.01773  1.0000
  H   H9        1.0  0.22903  0.39722  0.07222  1.0000
  H   H10       1.0  0.07037  0.36204  0.29563  1.0000
  C   C5        1.0  0.13255  0.45166  0.17197  1.0000
  H   H11       1.0  0.07591  0.43273  0.20579  1.0000
  C   C6        1.0  0.28122  0.43358  0.09421  1.0000
  Fe  Fe11      1.0  0.18720  0.36728  0.03008  1.0000
  C   C7        1.0  0.14654  0.04398  0.11682  1.0000
  C   C8        1.0  0.51274  0.03455  0.27098  1.0000
  C   C9        1.0  0.06052  0.28681  0.25208  1.0000
  H   H12       1.0  0.46331  0.30501  0.23728  1.0000
  C   C10       1.0  0.43477  0.25951  0.16133  1.0000
  C   C11       1.0  0.44445  0.21917  0.15211  1.0000
  C   C12       1.0  0.45083  0.21260  0.12376  1.0000
  C   C13       1.0  0.44776  0.24628  0.10447  1.0000
  C   C14       1.0  0.43805  0.28661  0.11367  1.0000
  C   C15       1.0  0.43153  0.29315  0.14202  1.0000
  H   H13       1.0  0.44686  0.19296  0.16674  1.0000
  H   H14       1.0  0.45790  0.18121  0.11670  1.0000
  H   H15       1.0  0.43562  0.31277  0.09897  1.0000
  H   H16       1.0  0.42387  0.32438  0.14899  1.0000
  C   C16       1.0  0.31839  0.12497  0.25886  1.0000
  C   C17       1.0  0.31322  0.16365  0.27290  1.0000
  C   C18       1.0  0.28331  0.17832  0.27720  1.0000
  C   C19       1.0  0.25846  0.15466  0.26731  1.0000
  C   C20       1.0  0.26379  0.11668  0.25264  1.0000
  C   C21       1.0  0.29357  0.10168  0.24873  1.0000
  H   H17       1.0  0.33219  0.18186  0.28080  1.0000
  H   H18       1.0  0.27935  0.20793  0.28840  1.0000
  H   H19       1.0  0.24498  0.09854  0.24450  1.0000
  H   H20       1.0  0.29739  0.07182  0.23774  1.0000
  N   N1        1.0  0.04575  0.06673  0.07564  1.0000
  H   H21       1.0  0.07354  0.33413  0.11990  1.0000
  H   H22       1.0  0.51058  0.15280  0.16272  1.0000
  C   C22       1.0  0.34279  0.40850  0.08771  1.0000
  C   C23       1.0  0.30517  0.46382  0.09595  1.0000
  C   C24       1.0  0.05164  0.21343  0.26754  1.0000
  C   C25       1.0  0.07095  0.24438  0.25621  1.0000
  H   H23       1.0  0.30787  0.43968  0.01268  1.0000
  H   H24       1.0  0.49524  0.16581  0.31924  1.0000
  H   H25       1.0  0.08239  0.08111  0.10365  1.0000
  C   C26       1.0  0.14029  0.45102  0.14353  1.0000
  H   H26       1.0  0.24899  0.44532  0.14099  1.0000
  H   H27       1.0  0.28169  0.19204  0.18563  1.0000
  N   N2        1.0  0.42602  0.47265  0.28327  1.0000
  C   C27       1.0  0.26807  0.34773  0.02448  1.0000
  H   H28       1.0  0.21861  0.49029  0.07406  1.0000
  S   S18       1.0  0.15725  0.49061  0.09411  1.0000
  H   H29       1.0  0.10930  0.35858  0.28460  1.0000
  H   H30       1.0  0.12999  0.46568  0.31505  1.0000
  C   C28       1.0  0.22703  0.41275  0.09302  1.0000
  H   H31       1.0  0.05006  0.13826  0.04169  1.0000
  H   H32       1.0  0.35981  0.23478  0.19796  1.0000
  H   H33       1.0  0.37441  0.23945  0.15119  1.0000
  H   H34       1.0  0.37201  0.26936  0.10476  1.0000
  H   H35       1.0  0.35329  0.47520  0.09286  1.0000
  C   C29       1.0  0.30417  0.20301  0.13243  1.0000
  C   C30       1.0  0.24380  0.46820  0.12378  1.0000
  H   H36       1.0  0.28340  0.21661  0.09262  1.0000
  S   S19       1.0  0.12245  0.49011  0.22267  1.0000
  H   H37       1.0  0.12999  0.36938  0.33029  1.0000
  H   H38       1.0  0.32675  0.25884  0.07509  1.0000
  C   C31       1.0  0.05080  0.42438  0.15556  1.0000
  C   C32       1.0  0.26785  0.08809  0.32859  1.0000
  H   H39       1.0  0.37881  0.48193  0.27323  1.0000
  C   C33       1.0  0.40147  0.48206  0.26297  1.0000
  H   H40       1.0  0.42269  0.39387  0.25760  1.0000
  H   H41       1.0  0.35738  0.18421  0.21561  1.0000
  C   C34       1.0  0.48888  0.32401  0.27341  1.0000
  H   H42       1.0  0.20330  0.42465  0.09478  1.0000
  H   H43       1.0  0.21378  0.02326  0.30130  1.0000
  C   C35       1.0  0.04945  0.03387  0.16811  1.0000
  C   C36       1.0  0.35406  0.23337  0.13940  1.0000
  H   H44       1.0  0.47662  0.30182  0.28643  1.0000
  H   H45       1.0  0.02719  0.01719  0.10234  1.0000
  H   H46       1.0  0.14432  0.01562  0.07579  1.0000
  H   H47       1.0  0.37877  0.18780  0.18427  1.0000
  H   H48       1.0  0.22021  0.07923  0.29504  1.0000
  H   H49       1.0  0.25695  0.11907  0.32272  1.0000
  C   C37       1.0  0.42077  0.43025  0.29645  1.0000
  C   C38       1.0  0.05234  0.42031  0.20586  1.0000
  S   S20       1.0  0.07870  0.31739  0.05423  1.0000
  S   S21       1.0  0.23096  0.32804  0.03079  1.0000
  H   H50       1.0  0.08469  0.46602  0.09710  1.0000
  H   H51       1.0  0.30408  0.19056  0.21624  1.0000
  C   C39       1.0  0.06425  0.11166  0.03542  1.0000
  H   H52       1.0  0.50562  0.19430  0.20454  1.0000
  H   H53       1.0  0.24823  0.46712  0.05322  1.0000
  H   H54       1.0  0.07572  0.31047  0.24341  1.0000
  C   C40       1.0  0.51959  0.37874  0.23727  1.0000
  S   S22       1.0  0.14845  0.08214  0.16818  1.0000
  N   N3        1.0  0.24593  0.05205  0.32914  1.0000
  S   S23       1.0  0.11156  0.42926  0.03667  1.0000
  H   H55       1.0  0.33063  0.12510  0.19621  1.0000
  H   H56       1.0  0.08238  0.07962  0.18223  1.0000
  C   C41       1.0  0.51824  0.46402  0.01840  1.0000
  C   C42       1.0  0.32264  0.33342  0.02164  1.0000
  H   H57       1.0  0.50705  0.05807  0.05913  1.0000
  C   C43       1.0  0.52008  0.03639  0.04624  1.0000
  C   C44       1.0  0.05968  0.06693  0.18512  1.0000
  C   C45       1.0  0.28958  0.38991  0.08983  1.0000
  H   H58       1.0  0.30061  0.49752  0.09933  1.0000
  C   C46       1.0  0.24288  0.48029  0.07418  1.0000
  C   C47       1.0  0.45550  0.47226  0.26840  1.0000
  H   H59       1.0  0.51308  0.27950  0.31785  1.0000
  C   C48       1.0  0.06153  0.45505  0.13598  1.0000
  H   H60       1.0  0.34849  0.12929  0.16275  1.0000
  H   H61       1.0  0.41362  0.32368  0.27875  1.0000
  H   H62       1.0  0.12572  0.42221  0.18211  1.0000
  H   H63       1.0  0.47437  0.33406  0.32821  1.0000
  C   C49       1.0  0.49258  0.35801  0.33137  1.0000
  C   C50       1.0  0.07007  0.36790  0.12457  1.0000
  C   C51       1.0  0.06485  0.07239  0.05054  1.0000
  H   H64       1.0  0.48768  0.17205  0.02726  1.0000
  C   C52       1.0  0.05549  0.38036  0.14908  1.0000
  C   C53       1.0  0.51215  0.35027  0.28452  1.0000
  H   H65       1.0  0.30787  0.13011  0.16564  1.0000
  H   H66       1.0  0.49911  0.11786  0.02148  1.0000
  H   H67       1.0  0.20645  0.12049  0.33197  1.0000
  C   C54       1.0  0.03492  0.49461  0.30000  1.0000
  C   C55       1.0  0.52442  0.05381  0.24700  1.0000
  C   C56       1.0  0.31996  0.37781  0.08682  1.0000
  H   H68       1.0  0.30256  0.23894  0.19582  1.0000
  C   C57       1.0  0.49647  0.35275  0.22713  1.0000
  C   C58       1.0  0.08562  0.04043  0.04123  1.0000
  C   C59       1.0  0.48114  0.32548  0.24521  1.0000
  C   C60       1.0  0.32963  0.20867  0.15016  1.0000
  H   H69       1.0  0.36614  0.39914  0.08394  1.0000
  C   C61       1.0  0.51862  0.17632  0.32059  1.0000
  N   N4        1.0  0.33021  0.18877  0.17823  1.0000
  H   H70       1.0  0.05371  0.38467  0.20634  1.0000
  H   H71       1.0  0.50346  0.13880  0.11585  1.0000
  H   H72       1.0  0.28487  0.18427  0.13900  1.0000
  H   H73       1.0  0.49060  0.35336  0.20519  1.0000
  C   C62       1.0  0.07600  0.44220  0.11149  1.0000
  S   S24       1.0  0.18461  0.43900  0.02700  1.0000
  H   H74       1.0  0.15687  0.07336  0.10947  1.0000
  Fe  Fe12      1.0  0.11883  0.35770  0.03916  1.0000
  N   N5        1.0  0.09863  0.41337  0.31048  1.0000
  H   H75       1.0  0.06038  0.12689  0.09320  1.0000
  S   S25       1.0  0.36586  0.39726  0.01436  1.0000
  H   H76       1.0  0.24810  0.04085  0.28481  1.0000
  C   C63       1.0  0.32919  0.14134  0.17552  1.0000
  H   H77       1.0  0.28619  0.08265  0.31300  1.0000
  C   C64       1.0  0.35773  0.19952  0.19462  1.0000
  C   C65       1.0  0.30370  0.40589  0.01617  1.0000
  H   H78       1.0  0.08840  0.00998  0.05173  1.0000
  N   N6        1.0  0.03506  0.43664  0.18155  1.0000
  H   H79       1.0  0.14495  0.42034  0.29641  1.0000
  C   C66       1.0  0.32751  0.24509  0.09586  1.0000
  C   C67       1.0  0.30315  0.22120  0.10577  1.0000
  H   H80       1.0  0.11889  0.45548  0.27971  1.0000
  H   H81       1.0  0.06566  0.00859  0.09277  1.0000
  C   C68       1.0  0.41966  0.39248  0.27992  1.0000
  C   C69       1.0  0.35292  0.25106  0.11262  1.0000
  C   C70       1.0  0.30350  0.20326  0.19456  1.0000
  C   C71       1.0  0.23140  0.04874  0.30142  1.0000
  H   H82       1.0  0.49364  0.04903  0.28158  1.0000
  C   C72       1.0  0.41014  0.34812  0.32037  1.0000
  N   N7        1.0  0.24927  0.44808  0.09626  1.0000
  H   H83       1.0  0.04163  0.43011  0.22586  1.0000
  C   C73       1.0  0.41656  0.42495  0.32564  1.0000
  H   H84       1.0  0.45633  0.44821  0.25137  1.0000
  C   C74       1.0  0.03143  0.48380  0.18509  1.0000
  H   H85       1.0  0.40083  0.45867  0.24556  1.0000
  H   H86       1.0  0.49885  0.44999  0.02872  1.0000
  C   C75       1.0  0.05814  0.27568  0.03774  1.0000
  H   H87       1.0  0.06406  0.02094  0.15203  1.0000
  N   N8        1.0  0.51987  0.34818  0.31451  1.0000
  C   C76       1.0  0.41440  0.35212  0.29178  1.0000
  C   C77       1.0  0.10984  0.38958  0.33530  1.0000
  C   C78       1.0  0.07209  0.44125  0.31632  1.0000
  H   H88       1.0  0.09224  0.38891  0.08739  1.0000
  C   C79       1.0  0.03401  0.25629  0.05218  1.0000
  C   C80       1.0  0.33544  0.45138  0.09249  1.0000
  C   C81       1.0  0.32835  0.37709  0.01721  1.0000
  C   C82       1.0  0.05891  0.09217  0.09865  1.0000
  H   H89       1.0  0.08427  0.39651  0.26877  1.0000
  H   H90       1.0  0.04795  0.35525  0.16299  1.0000
  C   C83       1.0  0.09037  0.38131  0.28899  1.0000
  H   H91       1.0  0.05037  0.10823  0.21929  1.0000
  C   C84       1.0  0.14020  0.03914  0.14536  1.0000
  C   C85       1.0  0.29269  0.31893  0.02546  1.0000
  H   H92       1.0  0.32577  0.34466  0.08244  1.0000
  C   C86       1.0  0.08040  0.39878  0.10596  1.0000
  H   H93       1.0  0.11588  0.04825  0.33409  1.0000
  H   H94       1.0  0.42156  0.16461  0.02736  1.0000
  H   H95       1.0  0.25493  0.41354  0.01812  1.0000
  C   C87       1.0  0.12678  0.00114  0.15464  1.0000
  H   H96       1.0  0.27310  0.36457  0.08760  1.0000
  H   H97       1.0  0.47458  0.46516  0.28293  1.0000
  H   H98       1.0  0.02797  0.37467  0.04815  1.0000
  C   C88       1.0  0.13946  0.01129  0.09768  1.0000
  H   H99       1.0  0.02912  0.08502  0.26282  1.0000
  H   H100      1.0  0.40604  0.31674  0.32948  1.0000
  H   H101      1.0  0.28098  0.00678  0.31751  1.0000
  C   C89       1.0  0.04360  0.02122  0.08492  1.0000
  H   H102      1.0  0.46880  0.12936  0.04531  1.0000
  C   C90       1.0  0.27368  0.39125  0.01949  1.0000
  H   H103      1.0  0.04507  0.08963  0.11794  1.0000
  H   H104      1.0  0.34131  0.31091  0.02251  1.0000
  C   C91       1.0  0.12412  0.43983  0.29997  1.0000
  S   S26       1.0  0.40591  0.28272  0.01035  1.0000
  C   C92       1.0  0.08211  0.11773  0.01174  1.0000
  H   H105      1.0  0.31067  0.21223  0.33500  1.0000
  H   H106      1.0  0.25779  0.49735  0.12703  1.0000
  C   C93       1.0  0.52019  0.20613  0.18814  1.0000
  H   H107      1.0  0.21968  0.47858  0.12615  1.0000
  C   C94       1.0  0.04105  0.08330  0.20619  1.0000
  C   C95       1.0  0.26339  0.01177  0.33385  1.0000
  C   C96       1.0  0.14869  0.48899  0.13007  1.0000
  C   C97       1.0  0.13375  0.49005  0.18731  1.0000
  H   H108      1.0  0.03088  0.07115  0.32695  1.0000
  H   H109      1.0  0.02893  0.26636  0.07321  1.0000
  C   C98       1.0  0.03064  0.29874  0.25900  1.0000
  H   H110      1.0  0.41700  0.45164  0.33996  1.0000
  C   C99       1.0  0.52328  0.18233  0.16368  1.0000
  C   C100      1.0  0.06434  0.26263  0.01051  1.0000
  H   H111      1.0  0.11932  0.02250  0.01078  1.0000
  H   H112      1.0  0.03557  0.00018  0.06772  1.0000
  C   C101      1.0  0.05816  0.44374  0.34299  1.0000
  Fe  Fe13      1.0  0.44629  0.38807  0.48268  1.0000
  S   S27       1.0  0.48454  0.42528  0.46169  1.0000
  Fe  Fe14      1.0  0.37755  0.38098  0.49475  1.0000
  S   S28       1.0  0.33241  0.41520  0.48827  1.0000
  Fe  Fe15      1.0  0.41320  0.30242  0.47652  1.0000
  S   S29       1.0  0.40678  0.24148  0.45161  1.0000
  S   S30       1.0  0.40615  0.36705  0.45707  1.0000
  Fe  Fe16      1.0  0.11225  0.41417  0.49014  1.0000
  S   S31       1.0  0.12058  0.34381  0.49858  1.0000
  H   H113      1.0  0.21937  0.47587  0.62803  1.0000
  Fe  Fe17      1.0  0.09363  0.35386  0.53782  1.0000
  S   S32       1.0  0.05460  0.31491  0.55620  1.0000
  S   S33       1.0  0.15423  0.43699  0.51214  1.0000
  S   S34       1.0  0.08274  0.42294  0.52793  1.0000
  C   C102      1.0  0.29766  0.39283  0.49944  1.0000
  C   C103      1.0  0.27029  0.41240  0.49127  1.0000
  C   C104      1.0  0.24221  0.39522  0.49958  1.0000
  H   H114      1.0  0.27081  0.44084  0.47830  1.0000
  H   H115      1.0  0.22129  0.41016  0.49279  1.0000
  C   C105      1.0  0.14507  0.46296  0.42345  1.0000
  C   C106      1.0  0.12395  0.02280  0.34756  1.0000
  H   H116      1.0  0.06305  0.18289  0.49986  1.0000
  H   H117      1.0  0.49264  0.11247  0.52765  1.0000
  C   C107      1.0  0.47751  0.19027  0.54520  1.0000
  H   H118      1.0  0.26397  0.24771  0.35201  1.0000
  C   C108      1.0  0.22137  0.02587  0.57693  1.0000
  C   C109      1.0  0.50654  0.46513  0.47851  1.0000
  H   H119      1.0  0.34079  0.14232  0.64793  1.0000
  H   H120      1.0  0.06022  0.11945  0.35730  1.0000
  C   C110      1.0  0.43914  0.24347  0.36093  1.0000
  C   C111      1.0  0.44496  0.27827  0.37864  1.0000
  C   C112      1.0  0.43529  0.27771  0.40645  1.0000
  C   C113      1.0  0.41998  0.24206  0.41694  1.0000
  C   C114      1.0  0.41440  0.20689  0.39937  1.0000
  C   C115      1.0  0.42377  0.20768  0.37133  1.0000
  C   C116      1.0  0.06304  0.05175  0.64413  1.0000
  H   H121      1.0  0.43996  0.30478  0.41983  1.0000
  H   H122      1.0  0.40269  0.17906  0.40744  1.0000
  H   H123      1.0  0.19887  0.02935  0.58702  1.0000
  H   H124      1.0  0.09228  0.36742  0.34364  1.0000
  H   H125      1.0  0.23722  0.04805  0.58769  1.0000
  C   C117      1.0  0.28398  0.24672  0.36517  1.0000
  H   H126      1.0  0.12530  0.41883  0.66757  1.0000
  H   H127      1.0  0.05997  0.17623  0.64519  1.0000
  H   H128      1.0  0.20623  0.40541  0.60926  1.0000
  C   C118      1.0  0.20337  0.42086  0.58858  1.0000
  C   C119      1.0  0.04250  0.26428  0.54339  1.0000
  S   S35       1.0  0.44067  0.16395  0.65089  1.0000
  H   H129      1.0  0.27453  0.33164  0.43111  1.0000
  S   S36       1.0  0.45546  0.32170  0.49945  1.0000
  S   S37       1.0  0.38206  0.31481  0.51280  1.0000
  Fe  Fe18      1.0  0.42367  0.34037  0.53403  1.0000
  S   S38       1.0  0.43610  0.33566  0.57970  1.0000
  S   S39       1.0  0.41702  0.40822  0.51859  1.0000
  Fe  Fe19      1.0  0.12536  0.43945  0.55078  1.0000
  S   S40       1.0  0.13442  0.37142  0.56351  1.0000
  H   H130      1.0  0.05064  0.10697  0.45279  1.0000
  Fe  Fe20      1.0  0.16078  0.36750  0.52341  1.0000
  S   S41       1.0  0.20669  0.33437  0.52620  1.0000
  C   C120      1.0  0.24132  0.35825  0.51614  1.0000
  C   C121      1.0  0.26869  0.33882  0.52440  1.0000
  C   C122      1.0  0.29675  0.35608  0.51619  1.0000
  H   H131      1.0  0.26818  0.31028  0.53728  1.0000
  H   H132      1.0  0.31761  0.34102  0.52295  1.0000
  H   H133      1.0  0.06485  0.01719  0.64533  1.0000
  N   N9        1.0  0.22374  0.45812  0.58457  1.0000
  C   C123      1.0  0.12697  0.45284  0.62847  1.0000
  S   S42       1.0  0.12854  0.49796  0.57879  1.0000
  C   C124      1.0  0.13990  0.04393  0.61015  1.0000
  C   C125      1.0  0.13933  0.03875  0.63925  1.0000
  C   C126      1.0  0.02662  0.38166  0.46866  1.0000
  H   H134      1.0  0.12364  0.42427  0.61611  1.0000
  H   H135      1.0  0.14397  0.07541  0.60136  1.0000
  H   H136      1.0  0.05082  0.06402  0.47662  1.0000
  C   C127      1.0  0.43616  0.21309  0.63274  1.0000
  C   C128      1.0  0.42545  0.21189  0.60518  1.0000
  C   C129      1.0  0.42466  0.24935  0.58873  1.0000
  C   C130      1.0  0.43472  0.28826  0.59976  1.0000
  C   C131      1.0  0.44481  0.28966  0.62744  1.0000
  C   C132      1.0  0.44549  0.25233  0.64390  1.0000
  H   H137      1.0  0.41827  0.18165  0.59636  1.0000
  H   H138      1.0  0.41670  0.24804  0.56744  1.0000
  H   H139      1.0  0.45270  0.31972  0.63605  1.0000
  H   H140      1.0  0.34022  0.40410  0.59160  1.0000
  H   H141      1.0  0.46651  0.18142  0.52514  1.0000
  C   C133      1.0  0.03358  0.47128  0.34782  1.0000
  H   H142      1.0  0.49223  0.36375  0.55325  1.0000
  C   C134      1.0  0.52387  0.18206  0.57417  1.0000
  H   H143      1.0  0.11701  0.41206  0.35211  1.0000
  C   C135      1.0  0.13606  0.00850  0.59245  1.0000
  N   N10       1.0  0.50798  0.17026  0.54813  1.0000
  C   C136      1.0  0.29726  0.41009  0.61261  1.0000
  H   H144      1.0  0.37546  0.11194  0.64690  1.0000
  H   H145      1.0  0.04692  0.39038  0.48111  1.0000
  C   C137      1.0  0.03002  0.06706  0.34933  1.0000
  H   H146      1.0  0.02738  0.00040  0.46973  1.0000
  H   H147      1.0  0.15692  0.44783  0.44060  1.0000
  C   C138      1.0  0.22238  0.06027  0.35049  1.0000
  C   C139      1.0  0.33556  0.24386  0.39874  1.0000
  C   C140      1.0  0.02812  0.05610  0.40807  1.0000
  C   C141      1.0  0.02540  0.00482  0.44680  1.0000
  C   C142      1.0  0.09833  0.48298  0.40046  1.0000
  H   H148      1.0  0.48424  0.45986  0.51817  1.0000
  H   H149      1.0  0.07382  0.48386  0.40012  1.0000
  C   C143      1.0  0.25576  0.44368  0.58605  1.0000
  H   H150      1.0  0.06598  0.42518  0.36059  1.0000
  H   H151      1.0  0.18976  0.01792  0.40945  1.0000
  H   H152      1.0  0.18600  0.48113  0.40200  1.0000
  C   C144      1.0  0.16148  0.48181  0.40151  1.0000
  C   C145      1.0  0.07139  0.11911  0.66802  1.0000
  C   C146      1.0  0.36513  0.14266  0.65399  1.0000
  N   N11       1.0  0.30967  0.28404  0.43744  1.0000
  H   H153      1.0  0.07374  0.05967  0.44590  1.0000
  H   H154      1.0  0.03434  0.37962  0.44663  1.0000
  C   C147      1.0  0.33600  0.22533  0.37226  1.0000
  H   H155      1.0  0.15834  0.08320  0.40521  1.0000
  C   C148      1.0  0.12796  0.44983  0.65767  1.0000
  C   C149      1.0  0.05122  0.11914  0.62116  1.0000
  H   H156      1.0  0.09858  0.04475  0.38309  1.0000
  C   C150      1.0  0.28336  0.26556  0.39163  1.0000
  H   H157      1.0  0.21825  0.45549  0.54000  1.0000
  C   C151      1.0  0.04955  0.20061  0.51475  1.0000
  H   H158      1.0  0.51197  0.04017  0.48412  1.0000
  H   H159      1.0  0.51202  0.30887  0.58569  1.0000
  H   H160      1.0  0.41943  0.18050  0.35793  1.0000
  H   H161      1.0  0.45697  0.30594  0.37097  1.0000
  H   H162      1.0  0.17911  0.43061  0.58717  1.0000
  C   C152      1.0  0.30931  0.26465  0.40929  1.0000
  H   H163      1.0  0.26156  0.28105  0.44577  1.0000
  C   C153      1.0  0.11340  0.46324  0.42291  1.0000
  C   C154      1.0  0.26715  0.42413  0.61068  1.0000
  H   H164      1.0  0.08251  0.06011  0.57303  1.0000
  H   H165      1.0  0.28145  0.31867  0.46655  1.0000
  H   H166      1.0  0.19140  0.48914  0.55721  1.0000
  H   H167      1.0  0.21800  0.03763  0.55522  1.0000
  C   C155      1.0  0.51054  0.20847  0.59501  1.0000
  H   H168      1.0  0.37638  0.16865  0.64188  1.0000
  C   C156      1.0  0.28046  0.30461  0.44533  1.0000
  C   C157      1.0  0.18114  0.10582  0.36839  1.0000
  C   C158      1.0  0.05944  0.24127  0.52381  1.0000
  H   H169      1.0  0.26230  0.28061  0.39772  1.0000
  H   H170      1.0  0.35602  0.24177  0.41103  1.0000
  H   H171      1.0  0.45438  0.25398  0.66476  1.0000
  C   C159      1.0  0.06082  0.14144  0.64480  1.0000
  C   C160      1.0  0.50183  0.47584  0.50641  1.0000
  C   C161      1.0  0.04410  0.46559  0.63506  1.0000
  H   H172      1.0  0.29995  0.22373  0.45745  1.0000
  C   C162      1.0  0.21678  0.03176  0.37309  1.0000
  H   H173      1.0  0.05865  0.11160  0.40760  1.0000
  H   H174      1.0  0.32193  0.43822  0.54830  1.0000
  H   H175      1.0  0.22917  0.00211  0.37594  1.0000
  S   S43       1.0  0.09182  0.43858  0.44950  1.0000
  H   H176      1.0  0.08042  0.25447  0.51595  1.0000
  C   C163      1.0  0.21556  0.47846  0.55757  1.0000
  C   C164      1.0  0.31654  0.25050  0.45855  1.0000
  H   H177      1.0  0.32978  0.34301  0.42305  1.0000
  H   H178      1.0  0.33961  0.23645  0.45589  1.0000
  H   H179      1.0  0.46197  0.17933  0.56196  1.0000
  H   H180      1.0  0.49039  0.11137  0.56516  1.0000
  C   C165      1.0  0.33353  0.31743  0.43890  1.0000
  H   H181      1.0  0.35667  0.30401  0.43563  1.0000
  C   C166      1.0  0.07258  0.07442  0.66765  1.0000
  H   H182      1.0  0.51942  0.38131  0.51061  1.0000
  N   N12       1.0  0.04062  0.05078  0.59518  1.0000
  H   H183      1.0  0.48797  0.22150  0.59309  1.0000
  H   H184      1.0  0.30542  0.39503  0.63157  1.0000
  C   C167      1.0  0.50403  0.12297  0.54718  1.0000
  C   C168      1.0  0.13171  0.48667  0.67416  1.0000
  H   H185      1.0  0.33403  0.33326  0.45966  1.0000
  C   C169      1.0  0.05488  0.47829  0.66099  1.0000
  C   C170      1.0  0.31024  0.22670  0.35551  1.0000
  H   H186      1.0  0.31597  0.26375  0.48009  1.0000
  H   H187      1.0  0.20759  0.39575  0.57250  1.0000
  H   H188      1.0  0.04693  0.32502  0.63760  1.0000
  C   C171      1.0  0.31691  0.41522  0.59018  1.0000
  S   S44       1.0  0.14031  0.01566  0.55622  1.0000
  H   H189      1.0  0.47879  0.22602  0.54562  1.0000
  C   C172      1.0  0.27645  0.44840  0.56354  1.0000
  C   C173      1.0  0.11395  0.02059  0.37530  1.0000
  H   H190      1.0  0.35648  0.20981  0.36473  1.0000
  C   C174      1.0  0.05195  0.07355  0.62011  1.0000
  C   C175      1.0  0.21760  0.49001  0.60683  1.0000
  H   H191      1.0  0.27868  0.09249  0.34931  1.0000
  H   H192      1.0  0.51322  0.20162  0.36187  1.0000
  H   H193      1.0  0.14290  0.06608  0.65272  1.0000
  C   C176      1.0  0.04654  0.09427  0.36653  1.0000
  N   N13       1.0  0.02589  0.05099  0.43868  1.0000
  C   C177      1.0  0.51323  0.34706  0.54844  1.0000
  H   H194      1.0  0.27000  0.46231  0.54380  1.0000
  H   H195      1.0  0.51562  0.23913  0.63490  1.0000
  C   C178      1.0  0.17635  0.07734  0.39032  1.0000
  C   C179      1.0  0.19414  0.04049  0.39268  1.0000
  C   C180      1.0  0.04552  0.08925  0.39549  1.0000
  C   C181      1.0  0.30656  0.43451  0.56579  1.0000
  C   C182      1.0  0.02854  0.42682  0.63223  1.0000
  C   C183      1.0  0.20386  0.09762  0.34879  1.0000
  C   C184      1.0  0.05148  0.07130  0.45390  1.0000
  H   H196      1.0  0.25276  0.41938  0.62861  1.0000
  H   H197      1.0  0.04299  0.13786  0.60372  1.0000
  C   C185      1.0  0.05766  0.06488  0.57014  1.0000
  H   H198      1.0  0.05083  0.04670  0.55123  1.0000
  C   C186      1.0  0.04346  0.00326  0.59711  1.0000
  H   H199      1.0  0.49773  0.35780  0.35408  1.0000
  H   H200      1.0  0.16686  0.13405  0.36626  1.0000
  H   H201      1.0  0.27551  0.01231  0.35418  1.0000
  C   C187      1.0  0.12969  0.49282  0.61546  1.0000
  H   H202      1.0  0.05378  0.09932  0.56502  1.0000
  H   H203      1.0  0.04808  0.48572  0.61701  1.0000
  H   H204      1.0  0.51471  0.17632  0.50373  1.0000
  H   H205      1.0  0.40819  0.38095  0.35958  1.0000
  H   H206      1.0  0.03080  0.46940  0.47369  1.0000
  C   C188      1.0  0.52207  0.02175  0.50087  1.0000
  C   C189      1.0  0.52437  0.31609  0.56675  1.0000
  H   H207      1.0  0.27873  0.00054  0.56886  1.0000
  Fe  Fe21      1.0  0.46097  0.08081  0.77275  1.0000
  S   S45       1.0  0.47014  0.14707  0.75678  1.0000
  S   S46       1.0  0.50156  0.04188  0.78857  1.0000
  Fe  Fe22      1.0  0.39206  0.09559  0.76841  1.0000
  S   S47       1.0  0.39793  0.16294  0.75320  1.0000
  S   S48       1.0  0.34655  0.06095  0.76826  1.0000
  Fe  Fe23      1.0  0.43399  0.13748  0.72138  1.0000
  H   H208      1.0  0.49564  0.14695  0.69755  1.0000
  Fe  Fe24      1.0  0.43368  0.16802  0.78615  1.0000
  S   S49       1.0  0.44087  0.23002  0.81026  1.0000
  S   S50       1.0  0.42687  0.06785  0.73943  1.0000
  S   S51       1.0  0.42553  0.10220  0.80366  1.0000
  Fe  Fe25      1.0  0.10301  0.11433  0.74903  1.0000
  S   S52       1.0  0.09858  0.04234  0.74986  1.0000
  S   S53       1.0  0.05632  0.14552  0.74378  1.0000
  Fe  Fe26      1.0  0.17192  0.10757  0.75379  1.0000
  S   S54       1.0  0.17196  0.03564  0.75457  1.0000
  S   S55       1.0  0.21526  0.14656  0.75810  1.0000
  Fe  Fe27      1.0  0.13761  0.04096  0.72015  1.0000
  C   C190      1.0  0.43380  0.35910  0.80237  1.0000
  Fe  Fe28      1.0  0.13291  0.04238  0.78422  1.0000
  H   H209      1.0  0.46019  0.47732  0.77154  1.0000
  S   S56       1.0  0.14024  0.11291  0.71683  1.0000
  S   S57       1.0  0.13471  0.11452  0.78601  1.0000
  C   C191      1.0  0.15613  0.28526  0.74284  1.0000
  H   H210      1.0  0.25731  0.08578  0.84707  1.0000
  H   H211      1.0  0.09046  0.22515  0.75089  1.0000
  H   H212      1.0  0.22905  0.01659  0.79185  1.0000
  Fe  Fe29      1.0  0.43707  0.28478  0.97335  1.0000
  S   S58       1.0  0.43370  0.22954  0.94268  1.0000
  S   S59       1.0  0.43571  0.35670  0.96940  1.0000
  Fe  Fe30      1.0  0.14353  0.42825  0.00033  1.0000
  S   S60       1.0  0.47902  0.28521  0.99961  1.0000
  C   C192      1.0  0.03484  0.41327  0.68160  1.0000
  H   H213      1.0  0.09490  0.42805  0.80100  1.0000
  H   H214      1.0  0.46261  0.48495  0.80886  1.0000
  C   C193      1.0  0.40478  0.34315  0.80701  1.0000
  C   C194      1.0  0.14474  0.47301  0.87366  1.0000
  C   C195      1.0  0.06668  0.23316  0.74909  1.0000
  H   H215      1.0  0.27234  0.03284  0.84110  1.0000
  H   H216      1.0  0.07604  0.45088  0.94324  1.0000
  H   H217      1.0  0.49903  0.00240  0.73312  1.0000
  H   H218      1.0  0.45294  0.33704  0.80243  1.0000
  H   H219      1.0  0.05947  0.46191  0.70414  1.0000
  C   C196      1.0  0.14434  0.43511  0.88959  1.0000
  C   C197      1.0  0.14159  0.43671  0.91878  1.0000
  H   H220      1.0  0.26194  0.06715  0.81255  1.0000
  H   H221      1.0  0.32818  0.11511  0.69523  1.0000
  H   H222      1.0  0.17872  0.05950  0.82591  1.0000
  H   H223      1.0  0.14628  0.40431  0.87933  1.0000
  H   H224      1.0  0.14131  0.40732  0.93083  1.0000
  H   H225      1.0  0.11697  0.38811  0.81803  1.0000
  H   H226      1.0  0.20268  0.10039  0.84015  1.0000
  C   C198      1.0  0.43756  0.23018  0.84704  1.0000
  C   C199      1.0  0.44110  0.26882  0.86181  1.0000
  C   C200      1.0  0.43890  0.26964  0.89108  1.0000
  C   C201      1.0  0.43378  0.23159  0.90584  1.0000
  C   C202      1.0  0.42999  0.19312  0.89107  1.0000
  C   C203      1.0  0.43172  0.19242  0.86184  1.0000
  H   H227      1.0  0.44559  0.29823  0.85061  1.0000
  H   H228      1.0  0.44127  0.29960  0.90218  1.0000
  H   H229      1.0  0.42590  0.16354  0.90228  1.0000
  H   H230      1.0  0.42886  0.16251  0.85083  1.0000
  C   C204      1.0  0.31066  0.08605  0.76383  1.0000
  C   C205      1.0  0.30648  0.13024  0.76757  1.0000
  C   C206      1.0  0.27722  0.14844  0.76536  1.0000
  C   C207      1.0  0.25193  0.12280  0.75915  1.0000
  C   C208      1.0  0.25633  0.07888  0.75447  1.0000
  C   C209      1.0  0.28547  0.06058  0.75707  1.0000
  H   H231      1.0  0.32562  0.15022  0.77294  1.0000
  H   H232      1.0  0.27409  0.18248  0.76894  1.0000
  H   H233      1.0  0.23726  0.05897  0.74898  1.0000
  C   C210      1.0  0.03107  0.45756  0.95998  1.0000
  C   C211      1.0  0.06694  0.40363  0.97473  1.0000
  H   H234      1.0  0.07820  0.37632  0.74933  1.0000
  N   N14       1.0  0.45652  0.13528  0.00214  1.0000
  C   C212      1.0  0.03295  0.45682  0.84585  1.0000
  H   H235      1.0  0.51515  0.17672  0.83731  1.0000
  C   C213      1.0  0.35303  0.11448  0.69930  1.0000
  H   H236      1.0  0.04621  0.08079  0.78571  1.0000
  H   H237      1.0  0.06664  0.03220  0.94568  1.0000
  C   C214      1.0  0.41340  0.43243  0.79767  1.0000
  H   H238      1.0  0.06388  0.02161  0.86423  1.0000
  H   H239      1.0  0.50006  0.21426  0.92136  1.0000
  H   H240      1.0  0.05169  0.22041  0.97690  1.0000
  C   C215      1.0  0.04580  0.38753  0.99371  1.0000
  C   C216      1.0  0.12530  0.30882  0.79128  1.0000
  C   C217      1.0  0.03807  0.01324  0.97978  1.0000
  C   C218      1.0  0.04549  0.20046  0.74538  1.0000
  C   C219      1.0  0.04664  0.23040  0.99796  1.0000
  H   H241      1.0  0.49503  0.32424  0.90803  1.0000
  H   H242      1.0  0.16820  0.27595  0.72413  1.0000
  C   C220      1.0  0.05956  0.43853  0.95788  1.0000
  H   H243      1.0  0.40157  0.30905  0.81074  1.0000
  H   H244      1.0  0.16222  0.40581  0.78934  1.0000
  S   S61       1.0  0.14792  0.35579  0.00052  1.0000
  C   C221      1.0  0.44916  0.49265  0.78986  1.0000
  H   H245      1.0  0.13291  0.24328  0.80434  1.0000
  H   H246      1.0  0.41385  0.49342  0.83652  1.0000
  S   S62       1.0  0.52085  0.38949  0.98676  1.0000
  H   H247      1.0  0.11358  0.31561  0.81050  1.0000
  C   C222      1.0  0.50693  0.19137  0.88027  1.0000
  H   H248      1.0  0.07369  0.30116  0.75326  1.0000
  C   C223      1.0  0.50422  0.30854  0.92710  1.0000
  C   C224      1.0  0.05789  0.05219  0.82443  1.0000
  H   H249      1.0  0.08128  0.06255  0.82315  1.0000
  C   C225      1.0  0.13870  0.47632  0.93218  1.0000
  C   C226      1.0  0.13151  0.03911  0.86691  1.0000
  H   H250      1.0  0.13912  0.44829  0.77582  1.0000
  C   C227      1.0  0.43825  0.40305  0.79778  1.0000
  H   H251      1.0  0.40846  0.21982  0.70192  1.0000
  C   C228      1.0  0.47112  0.14707  0.69659  1.0000
  C   C229      1.0  0.02618  0.28737  0.74827  1.0000
  C   C230      1.0  0.44426  0.09106  0.00115  1.0000
  H   H252      1.0  0.35672  0.19816  0.71406  1.0000
  C   C231      1.0  0.13240  0.04281  0.89613  1.0000
  S   S63       1.0  0.13355  0.01178  0.94975  1.0000
  H   H253      1.0  0.06969  0.48834  0.88901  1.0000
  H   H254      1.0  0.20707  0.08479  0.80472  1.0000
  N   N15       1.0  0.41704  0.47913  0.79276  1.0000
  N   N16       1.0  0.11905  0.38548  0.77316  1.0000
  C   C232      1.0  0.10234  0.39387  0.79947  1.0000
  C   C233      1.0  0.14575  0.41424  0.77258  1.0000
  C   C234      1.0  0.09852  0.39733  0.74985  1.0000
  C   C235      1.0  0.12946  0.34041  0.77017  1.0000
  C   C236      1.0  0.14519  0.32724  0.74582  1.0000
  H   H255      1.0  0.08927  0.38916  0.97316  1.0000
  C   C237      1.0  0.51185  0.22022  0.90205  1.0000
  H   H256      1.0  0.35587  0.11740  0.72213  1.0000
  H   H257      1.0  0.36414  0.43518  0.80199  1.0000
  H   H258      1.0  0.28852  0.02644  0.75390  1.0000
  H   H259      1.0  0.22402  0.08481  0.88292  1.0000
  N   N17       1.0  0.22420  0.03836  0.83429  1.0000
  C   C238      1.0  0.13637  0.26692  0.78805  1.0000
  H   H260      1.0  0.14945  0.34958  0.72903  1.0000
  H   H261      1.0  0.07867  0.13647  0.68637  1.0000
  N   N18       1.0  0.36913  0.14934  0.68431  1.0000
  S   S64       1.0  0.14686  0.46920  0.83696  1.0000
  C   C239      1.0  0.45290  0.01358  0.99489  1.0000
  C   C240      1.0  0.05210  0.00736  0.95412  1.0000
  H   H262      1.0  0.02649  0.32415  0.68663  1.0000
  C   C241      1.0  0.25522  0.05674  0.83383  1.0000
  H   H263      1.0  0.11558  0.09015  0.98443  1.0000
  H   H264      1.0  0.32944  0.18998  0.68720  1.0000
  H   H265      1.0  0.46592  0.21710  0.70734  1.0000
  C   C242      1.0  0.03765  0.06212  0.80294  1.0000
  C   C243      1.0  0.41299  0.08168  0.00507  1.0000
  C   C244      1.0  0.42015  0.10725  0.68604  1.0000
  H   H266      1.0  0.46711  0.07767  0.68435  1.0000
  S   S65       1.0  0.13092  0.48102  0.71079  1.0000
  H   H267      1.0  0.46137  0.41307  0.79438  1.0000
  H   H268      1.0  0.08274  0.27733  0.99911  1.0000
  C   C245      1.0  0.13039  0.00621  0.91320  1.0000
  H   H269      1.0  0.15789  0.41340  0.75232  1.0000
  H   H270      1.0  0.10981  0.39531  0.72924  1.0000
  C   C246      1.0  0.42221  0.00551  0.99893  1.0000
  H   H271      1.0  0.40934  0.07833  0.67878  1.0000
  C   C247      1.0  0.51557  0.24472  0.75898  1.0000
  C   C248      1.0  0.38411  0.41493  0.80213  1.0000
  C   C249      1.0  0.05040  0.45215  0.68415  1.0000
  H   H272      1.0  0.36115  0.08197  0.69340  1.0000
  H   H273      1.0  0.41579  0.16923  0.98992  1.0000
  C   C250      1.0  0.21236  0.03731  0.91281  1.0000
  H   H274      1.0  0.21298  0.05975  0.93003  1.0000
  Fe  Fe31      1.0  0.40751  0.35461  0.00877  1.0000
  C   C251      1.0  0.52235  0.26646  0.73442  1.0000
  H   H275      1.0  0.09042  0.43115  0.75171  1.0000
  H   H276      1.0  0.08156  0.37381  0.80100  1.0000
  C   C252      1.0  0.22299  0.00411  0.81282  1.0000
  H   H277      1.0  0.48710  0.28489  0.93425  1.0000
  C   C253      1.0  0.21700  0.02284  0.86270  1.0000
  C   C254      1.0  0.05706  0.27632  0.75043  1.0000
  H   H278      1.0  0.35745  0.35838  0.81052  1.0000
  H   H279      1.0  0.13512  0.07409  0.90556  1.0000
  H   H280      1.0  0.50572  0.33349  0.94354  1.0000
  C   C255      1.0  0.15186  0.25520  0.76395  1.0000
  H   H281      1.0  0.48800  0.06006  0.99326  1.0000
  H   H282      1.0  0.40903  0.47207  0.74879  1.0000
  H   H283      1.0  0.49226  0.16391  0.88332  1.0000
  H   H284      1.0  0.16058  0.22272  0.76163  1.0000
  H   H285      1.0  0.45587  0.14154  0.95756  1.0000
  H   H286      1.0  0.44303  0.20151  0.00729  1.0000
  H   H287      1.0  0.49188  0.12470  0.97153  1.0000
  C   C256      1.0  0.35423  0.19068  0.69157  1.0000
  H   H288      1.0  0.36361  0.21780  0.67917  1.0000
  H   H289      1.0  0.47998  0.17923  0.97491  1.0000
  H   H290      1.0  0.13313  0.06753  0.85405  1.0000
  C   C257      1.0  0.40186  0.14841  0.69103  1.0000
  C   C258      1.0  0.41953  0.18920  0.69906  1.0000
  H   H291      1.0  0.37599  0.48725  0.76848  1.0000
  C   C259      1.0  0.45372  0.18816  0.70203  1.0000
  C   C260      1.0  0.45445  0.10664  0.68902  1.0000
  H   H292      1.0  0.50902  0.29420  0.72822  1.0000
  C   C261      1.0  0.46389  0.05562  0.99611  1.0000
  C   C262      1.0  0.04814  0.02910  0.84755  1.0000
  Fe  Fe32      1.0  0.47594  0.35734  0.99853  1.0000
  C   C263      1.0  0.20225  0.07224  0.82600  1.0000
  C   C264      1.0  0.40097  0.49144  0.76679  1.0000
  H   H293      1.0  0.49663  0.25519  0.77177  1.0000
  H   H294      1.0  0.03500  0.44458  0.86680  1.0000
  C   C265      1.0  0.37999  0.37099  0.80687  1.0000
  S   S66       1.0  0.13251  0.48006  0.96844  1.0000
  C   C266      1.0  0.47178  0.14545  0.97541  1.0000
  H   H295      1.0  0.04140  0.04303  0.99100  1.0000
  C   C267      1.0  0.10176  0.08549  0.00286  1.0000
  C   C268      1.0  0.43301  0.16878  0.00690  1.0000
  C   C269      1.0  0.21845  0.05132  0.88572  1.0000
  H   H296      1.0  0.37842  0.03265  0.00711  1.0000
  H   H297      1.0  0.08118  0.05710  0.68564  1.0000
  H   H298      1.0  0.03212  0.39472  0.70044  1.0000
  H   H299      1.0  0.52416  0.47394  0.72763  1.0000
  H   H300      1.0  0.05270  0.36063  0.00648  1.0000
  C   C270      1.0  0.51980  0.19861  0.85427  1.0000
  C   C271      1.0  0.40231  0.03941  0.00401  1.0000
  H   H301      1.0  0.08064  0.14771  0.00025  1.0000
  C   C272      1.0  0.02558  0.48293  0.79059  1.0000
  H   H302      1.0  0.02534  0.48486  0.94698  1.0000
  C   C273      1.0  0.52210  0.99941  0.77254  1.0000
  H   H303      1.0  0.39628  0.10636  0.00897  1.0000
  Fe  Fe33      1.0  0.46332  0.61517  0.28924  1.0000
  S   S67       1.0  0.47437  0.68477  0.28296  1.0000
  S   S68       1.0  0.49627  0.56859  0.30963  1.0000
  Fe  Fe34      1.0  0.39791  0.62696  0.26930  1.0000
  S   S69       1.0  0.40408  0.69762  0.26080  1.0000
  S   S70       1.0  0.35657  0.58399  0.26463  1.0000
  Fe  Fe35      1.0  0.44920  0.67875  0.24234  1.0000
  S   S71       1.0  0.47457  0.70419  0.20432  1.0000
  Fe  Fe36      1.0  0.42884  0.69804  0.30204  1.0000
  S   S72       1.0  0.11420  0.93275  0.08363  1.0000
  S   S73       1.0  0.44127  0.60764  0.24757  1.0000
  S   S74       1.0  0.41961  0.62902  0.31165  1.0000
  Fe  Fe37      1.0  0.11018  0.62400  0.28278  1.0000
  S   S75       1.0  0.10700  0.55255  0.29012  1.0000
  S   S76       1.0  0.06609  0.65966  0.29355  1.0000
  Fe  Fe38      1.0  0.17809  0.61663  0.26840  1.0000
  S   S77       1.0  0.17895  0.54531  0.27441  1.0000
  S   S78       1.0  0.22068  0.65582  0.25956  1.0000
  Fe  Fe39      1.0  0.13477  0.54579  0.25110  1.0000
  H   H304      1.0  0.15702  0.55670  0.13531  1.0000
  Fe  Fe40      1.0  0.15116  0.55768  0.31281  1.0000
  H   H305      1.0  0.29798  0.72024  0.31004  1.0000
  S   S79       1.0  0.13530  0.61684  0.24208  1.0000
  S   S80       1.0  0.15295  0.62943  0.30839  1.0000
  H   H306      1.0  0.40470  0.51272  0.31441  1.0000
  H   H307      1.0  0.50958  0.90463  0.26161  1.0000
  Fe  Fe41      1.0  0.42568  0.83296  0.06425  1.0000
  S   S81       1.0  0.41058  0.81198  0.10758  1.0000
  S   S82       1.0  0.42778  0.90362  0.05379  1.0000
  Fe  Fe42      1.0  0.12688  0.92357  0.03806  1.0000
  S   S83       1.0  0.13727  0.85490  0.02695  1.0000
  H   H308      1.0  0.45151  0.83086  0.31347  1.0000
  C   C274      1.0  0.43113  0.70761  0.07136  1.0000
  H   H309      1.0  0.44173  0.71504  0.02880  1.0000
  H   H310      1.0  0.08125  0.71470  0.24587  1.0000
  H   H311      1.0  0.08967  0.97704  0.30136  1.0000
  H   H312      1.0  0.26540  0.92844  0.06612  1.0000
  H   H313      1.0  0.10159  0.85949  0.31066  1.0000
  S   S84       1.0  0.46477  0.81479  0.03644  1.0000
  H   H314      1.0  0.46787  0.64504  0.11842  1.0000
  N   N19       1.0  0.50370  0.85473  0.21284  1.0000
  H   H315      1.0  0.46024  0.50397  0.25857  1.0000
  C   C275      1.0  0.28189  0.84736  0.01758  1.0000
  H   H316      1.0  0.21962  0.95773  0.08040  1.0000
  S   S85       1.0  0.42101  0.75288  0.33228  1.0000
  H   H317      1.0  0.10837  0.93972  0.14273  1.0000
  Fe  Fe43      1.0  0.39523  0.88745  0.01918  1.0000
  C   C276      1.0  0.49495  0.87711  0.26324  1.0000
  H   H318      1.0  0.43106  0.53995  0.29277  1.0000
  C   C277      1.0  0.45677  0.73455  0.17762  1.0000
  C   C278      1.0  0.42623  0.74623  0.17930  1.0000
  C   C279      1.0  0.41274  0.77045  0.15781  1.0000
  C   C280      1.0  0.42951  0.78314  0.13435  1.0000
  C   C281      1.0  0.46025  0.77203  0.13281  1.0000
  C   C282      1.0  0.47380  0.74783  0.15439  1.0000
  H   H319      1.0  0.41289  0.73645  0.19709  1.0000
  H   H320      1.0  0.38898  0.77899  0.15923  1.0000
  H   H321      1.0  0.47342  0.78160  0.11487  1.0000
  H   H322      1.0  0.49751  0.73909  0.15294  1.0000
  C   C283      1.0  0.31898  0.60459  0.26270  1.0000
  C   C284      1.0  0.31300  0.64868  0.26099  1.0000
  C   C285      1.0  0.28284  0.66373  0.25930  1.0000
  C   C286      1.0  0.25831  0.63503  0.25977  1.0000
  C   C287      1.0  0.26432  0.59090  0.26127  1.0000
  C   C288      1.0  0.29447  0.57581  0.26270  1.0000
  H   H323      1.0  0.33159  0.67122  0.26085  1.0000
  H   H324      1.0  0.27847  0.69789  0.25800  1.0000
  H   H325      1.0  0.24574  0.56837  0.26131  1.0000
  H   H326      1.0  0.29883  0.54165  0.26379  1.0000
  H   H327      1.0  0.12177  0.99703  0.17652  1.0000
  C   C289      1.0  0.12552  0.97367  0.10691  1.0000
  C   C290      1.0  0.08165  0.61084  0.01221  1.0000
  C   C291      1.0  0.49114  0.61255  0.01865  1.0000
  H   H328      1.0  0.05608  0.78005  0.22685  1.0000
  C   C292      1.0  0.05038  0.70827  0.28023  1.0000
  C   C293      1.0  0.06167  0.72814  0.25629  1.0000
  H   H329      1.0  0.05383  0.50016  0.18630  1.0000
  C   C294      1.0  0.07272  0.56733  0.05316  1.0000
  C   C295      1.0  0.11924  0.96874  0.13543  1.0000
  H   H330      1.0  0.40408  0.51447  0.25332  1.0000
  C   C296      1.0  0.06359  0.88711  0.26986  1.0000
  S   S86       1.0  0.51129  0.91470  0.01527  1.0000
  H   H331      1.0  0.18375  0.93370  0.07357  1.0000
  H   H332      1.0  0.20067  0.82676  0.10122  1.0000
  H   H333      1.0  0.20504  0.88058  0.13835  1.0000
  H   H334      1.0  0.25296  0.67589  0.31566  1.0000
  Fe  Fe44      1.0  0.46482  0.88494  0.02378  1.0000
  C   C297      1.0  0.14296  0.52776  0.17399  1.0000
  H   H335      1.0  0.24303  0.83257  0.12888  1.0000
  H   H336      1.0  0.21569  0.93481  0.13023  1.0000
  C   C298      1.0  0.52061  0.53528  0.26107  1.0000
  H   H337      1.0  0.50460  0.55537  0.24995  1.0000
  H   H338      1.0  0.14403  0.55750  0.18556  1.0000
  H   H339      1.0  0.21580  0.91774  0.05319  1.0000
  S   S87       1.0  0.16674  0.95080  0.01500  1.0000
  C   C299      1.0  0.25877  0.85051  0.11619  1.0000
  C   C300      1.0  0.42676  0.50880  0.30341  1.0000
  C   C301      1.0  0.27142  0.67131  0.33024  1.0000
  H   H340      1.0  0.46459  0.83316  0.18947  1.0000
  H   H341      1.0  0.48633  0.89212  0.30626  1.0000
  C   C302      1.0  0.10473  0.89239  0.30200  1.0000
  N   N20       1.0  0.21556  0.89234  0.09494  1.0000
  H   H342      1.0  0.20828  0.84109  0.06575  1.0000
  H   H343      1.0  0.25618  0.51019  0.07679  1.0000
  H   H344      1.0  0.05920  0.85304  0.27566  1.0000
  C   C303      1.0  0.24840  0.88265  0.09739  1.0000
  H   H345      1.0  0.31850  0.91084  0.07191  1.0000
  C   C304      1.0  0.09020  0.56113  0.07777  1.0000
  C   C305      1.0  0.28962  0.84061  0.11885  1.0000
  C   C306      1.0  0.52431  0.67161  0.02968  1.0000
  C   C307      1.0  0.05434  0.91216  0.31814  1.0000
  C   C308      1.0  0.48149  0.87039  0.28921  1.0000
  N   N21       1.0  0.08621  0.56782  0.02492  1.0000
  H   H346      1.0  0.49879  0.62858  0.07752  1.0000
  C   C309      1.0  0.19909  0.85334  0.08585  1.0000
  H   H347      1.0  0.05863  0.97186  0.27763  1.0000
  H   H348      1.0  0.09080  0.63666  0.02582  1.0000
  H   H349      1.0  0.11698  0.91162  0.31776  1.0000
  N   N22       1.0  0.49239  0.65937  0.02418  1.0000
  H   H350      1.0  0.07628  0.77991  0.02238  1.0000
  C   C310      1.0  0.20336  0.90618  0.12230  1.0000
  H   H351      1.0  0.50686  0.78682  0.20368  1.0000
  H   H352      1.0  0.25937  0.57125  0.32135  1.0000
  C   C311      1.0  0.52157  0.53630  0.29015  1.0000
  N   N23       1.0  0.07518  0.91185  0.29398  1.0000
  H   H353      1.0  0.44537  0.50492  0.31891  1.0000
  H   H354      1.0  0.07298  0.50266  0.01652  1.0000
  H   H355      1.0  0.50061  0.59333  0.03611  1.0000
  C   C312      1.0  0.50870  0.99499  0.04074  1.0000
  C   C313      1.0  0.48952  0.84891  0.24054  1.0000
  C   C314      1.0  0.46936  0.81423  0.24542  1.0000
  H   H356      1.0  0.03517  0.56974  0.12720  1.0000
  C   C315      1.0  0.45585  0.80800  0.27144  1.0000
  H   H357      1.0  0.17444  0.85991  0.08271  1.0000
  C   C316      1.0  0.46199  0.83592  0.29331  1.0000
  C   C317      1.0  0.30172  0.89422  0.08442  1.0000
  H   H358      1.0  0.24835  0.98310  0.33315  1.0000
  C   C318      1.0  0.27091  0.90417  0.08141  1.0000
  C   C319      1.0  0.04336  0.72855  0.02081  1.0000
  H   H359      1.0  0.09061  0.55748  0.12255  1.0000
  H   H360      1.0  0.08003  0.88643  0.25229  1.0000
  S   S88       1.0  0.15411  0.99080  0.30163  1.0000
  C   C320      1.0  0.20857  0.92695  0.07460  1.0000
  H   H361      1.0  0.27819  0.81451  0.02410  1.0000
  H   H362      1.0  0.46381  0.79165  0.22915  1.0000
  H   H363      1.0  0.46739  0.60177  0.01522  1.0000
  H   H364      1.0  0.44047  0.78140  0.27475  1.0000
  C   C321      1.0  0.47348  0.66975  0.04877  1.0000
  H   H365      1.0  0.46521  0.88959  0.19692  1.0000
  C   C322      1.0  0.44844  0.69868  0.04766  1.0000
  C   C323      1.0  0.47974  0.86147  0.19156  1.0000
  H   H366      1.0  0.41243  0.73035  0.07025  1.0000
  H   H367      1.0  0.42446  0.69507  0.11494  1.0000
  H   H368      1.0  0.33498  0.85448  0.10494  1.0000
  C   C324      1.0  0.23821  0.58816  0.32775  1.0000
  H   H369      1.0  0.34191  0.71186  0.34166  1.0000
  H   H370      1.0  0.23128  0.60956  0.31038  1.0000
  C   C325      1.0  0.43795  0.68791  0.09664  1.0000
  H   H371      1.0  0.04868  0.71698  0.04151  1.0000
  C   C326      1.0  0.31106  0.86241  0.10299  1.0000
  C   C327      1.0  0.48000  0.65066  0.07501  1.0000
  C   C328      1.0  0.52134  0.81575  0.20545  1.0000
  C   C329      1.0  0.14369  0.99148  0.33720  1.0000
  C   C330      1.0  0.11928  0.55840  0.02468  1.0000
  H   H372      1.0  0.51700  0.98219  0.30027  1.0000
  H   H373      1.0  0.17884  0.91498  0.12090  1.0000
  C   C331      1.0  0.04559  0.56878  0.10678  1.0000
  H   H374      1.0  0.09667  0.95811  0.26699  1.0000
  H   H375      1.0  0.29701  0.81577  0.13322  1.0000
  C   C332      1.0  0.15029  0.52720  0.14548  1.0000
  H   H376      1.0  0.21995  0.56381  0.32947  1.0000
  H   H377      1.0  0.12434  0.52618  0.03372  1.0000
  C   C333      1.0  0.08022  0.95661  0.28455  1.0000
  C   C334      1.0  0.07670  0.56197  0.10411  1.0000
  H   H378      1.0  0.12051  0.89005  0.28396  1.0000
  C   C335      1.0  0.46243  0.65970  0.09853  1.0000
  C   C336      1.0  0.04728  0.76518  0.24552  1.0000
  S   S89       1.0  0.39118  0.81844  0.03112  1.0000
  H   H379      1.0  0.51797  0.52109  0.04367  1.0000
  H   H380      1.0  0.51786  0.65053  0.33702  1.0000
  C   C337      1.0  0.04116  0.57438  0.05673  1.0000
  H   H381      1.0  0.13233  0.58305  0.03632  1.0000
  H   H382      1.0  0.32991  0.84487  0.02563  1.0000
  H   H383      1.0  0.11439  0.55591  0.07731  1.0000
  C   C338      1.0  0.05904  0.76429  0.01004  1.0000
  H   H384      1.0  0.48952  0.86715  0.17051  1.0000
  C   C339      1.0  0.29712  0.69694  0.32683  1.0000
  C   C340      1.0  0.31135  0.86444  0.01829  1.0000
  C   C341      1.0  0.52480  0.89183  0.21147  1.0000
  H   H385      1.0  0.48718  0.98514  0.04940  1.0000
  H   H386      1.0  0.21058  0.66152  0.34164  1.0000
  H   H387      1.0  0.02653  0.58049  0.03912  1.0000
  C   C342      1.0  0.02786  0.57493  0.08312  1.0000
  H   H388      1.0  0.51290  0.92279  0.21560  1.0000
  H   H389      1.0  0.02593  0.51445  0.28339  1.0000
  H   H390      1.0  0.04231  0.90126  0.26130  1.0000
  Fe  Fe45      1.0  0.46138  0.87500  0.53039  1.0000
  S   S90       1.0  0.50448  0.91050  0.54357  1.0000
  Fe  Fe46      1.0  0.39336  0.86886  0.51841  1.0000
  S   S91       1.0  0.35072  0.91049  0.51554  1.0000
  Fe  Fe47      1.0  0.43640  0.80256  0.49310  1.0000
  S   S92       1.0  0.44779  0.74881  0.46262  1.0000
  S   S93       1.0  0.43452  0.87504  0.49033  1.0000
  Fe  Fe48      1.0  0.12585  0.94464  0.46369  1.0000
  S   S94       1.0  0.13133  0.87277  0.46791  1.0000
  H   H391      1.0  0.31729  0.76093  0.55867  1.0000
  Fe  Fe49      1.0  0.10361  0.87886  0.50713  1.0000
  S   S95       1.0  0.06474  0.83863  0.52465  1.0000
  S   S96       1.0  0.16781  0.96046  0.48825  1.0000
  S   S97       1.0  0.09509  0.94949  0.50097  1.0000
  C   C343      1.0  0.31368  0.89304  0.50677  1.0000
  C   C344      1.0  0.29010  0.92351  0.50565  1.0000
  C   C345      1.0  0.25980  0.91081  0.50136  1.0000
  H   H392      1.0  0.29540  0.95713  0.50829  1.0000
  H   H393      1.0  0.24181  0.93449  0.50080  1.0000
  H   H394      1.0  0.03498  0.98713  0.57796  1.0000
  H   H395      1.0  0.04458  0.98700  0.43705  1.0000
  C   C346      1.0  0.14384  0.95643  0.38288  1.0000
  H   H396      1.0  0.04686  0.61284  0.45048  1.0000
  H   H397      1.0  0.28303  0.81399  0.55192  1.0000
  H   H398      1.0  0.36548  0.82344  0.57664  1.0000
  C   C347      1.0  0.04958  0.60335  0.49481  1.0000
  H   H399      1.0  0.15145  0.93064  0.39635  1.0000
  H   H400      1.0  0.31005  0.73574  0.59173  1.0000
  H   H401      1.0  0.47329  0.79151  0.66991  1.0000
  C   C348      1.0  0.42806  0.75066  0.36857  1.0000
  C   C349      1.0  0.42309  0.78767  0.38468  1.0000
  C   C350      1.0  0.42864  0.78746  0.41355  1.0000
  C   C351      1.0  0.43952  0.75026  0.42655  1.0000
  C   C352      1.0  0.44457  0.71323  0.41045  1.0000
  C   C353      1.0  0.43859  0.71326  0.38163  1.0000
  H   H402      1.0  0.41478  0.81667  0.37478  1.0000
  H   H403      1.0  0.42458  0.81613  0.42571  1.0000
  H   H404      1.0  0.45286  0.68426  0.42038  1.0000
  H   H405      1.0  0.44186  0.68433  0.36959  1.0000
  C   C354      1.0  0.29535  0.63600  0.36953  1.0000
  H   H406      1.0  0.06164  0.52234  0.56078  1.0000
  C   C355      1.0  0.14645  0.50131  0.37895  1.0000
  H   H407      1.0  0.46984  0.57011  0.40409  1.0000
  C   C356      1.0  0.52197  0.65073  0.39509  1.0000
  C   C357      1.0  0.15367  0.95837  0.35498  1.0000
  C   C358      1.0  0.05090  0.78475  0.48036  1.0000
  C   C359      1.0  0.04673  0.79426  0.50852  1.0000
  H   H408      1.0  0.51338  0.77436  0.60313  1.0000
  H   H409      1.0  0.06628  0.80388  0.46799  1.0000
  S   S98       1.0  0.46637  0.80297  0.53096  1.0000
  S   S99       1.0  0.39365  0.79695  0.51819  1.0000
  Fe  Fe50      1.0  0.42358  0.80144  0.55597  1.0000
  S   S100      1.0  0.41177  0.75052  0.58833  1.0000
  S   S101      1.0  0.42020  0.87332  0.55832  1.0000
  Fe  Fe51      1.0  0.13730  0.96006  0.52582  1.0000
  S   S102      1.0  0.14418  0.89008  0.53485  1.0000
  C   C360      1.0  0.03484  0.75064  0.46804  1.0000
  Fe  Fe52      1.0  0.17158  0.88923  0.49531  1.0000
  S   S103      1.0  0.21502  0.84917  0.49437  1.0000
  C   C361      1.0  0.25289  0.86742  0.49769  1.0000
  C   C362      1.0  0.27665  0.83715  0.49753  1.0000
  C   C363      1.0  0.30690  0.84981  0.50215  1.0000
  H   H410      1.0  0.27155  0.80357  0.49424  1.0000
  H   H411      1.0  0.32488  0.82609  0.50232  1.0000
  H   H412      1.0  0.25620  0.99048  0.53867  1.0000
  C   C364      1.0  0.12986  0.96291  0.63306  1.0000
  C   C365      1.0  0.13060  0.96804  0.60398  1.0000
  H   H413      1.0  0.11010  0.51666  0.47794  1.0000
  H   H414      1.0  0.49425  0.56659  0.45038  1.0000
  C   C366      1.0  0.13474  0.52665  0.66117  1.0000
  C   C367      1.0  0.27362  0.82097  0.57213  1.0000
  H   H415      1.0  0.12743  0.94055  0.59056  1.0000
  H   H416      1.0  0.13589  0.56075  0.62201  1.0000
  H   H417      1.0  0.51615  0.51516  0.54085  1.0000
  C   C368      1.0  0.03050  0.62093  0.55038  1.0000
  C   C369      1.0  0.32094  0.66192  0.36593  1.0000
  C   C370      1.0  0.41291  0.71420  0.64038  1.0000
  C   C371      1.0  0.42482  0.74656  0.62315  1.0000
  C   C372      1.0  0.44656  0.77449  0.63396  1.0000
  H   H418      1.0  0.03806  0.74370  0.44617  1.0000
  H   H419      1.0  0.10290  0.51719  0.36138  1.0000
  H   H420      1.0  0.39612  0.69236  0.63218  1.0000
  H   H421      1.0  0.45591  0.79954  0.62094  1.0000
  C   C373      1.0  0.49499  0.62416  0.53009  1.0000
  H   H422      1.0  0.21814  0.65890  0.37830  1.0000
  H   H423      1.0  0.18796  0.95307  0.57538  1.0000
  C   C374      1.0  0.50797  0.98355  0.50991  1.0000
  C   C375      1.0  0.04413  0.93265  0.36667  1.0000
  C   C376      1.0  0.29145  0.81675  0.59657  1.0000
  C   C377      1.0  0.52004  0.74571  0.59182  1.0000
  C   C378      1.0  0.26613  0.95173  0.61689  1.0000
  N   N24       1.0  0.32338  0.80204  0.59465  1.0000
  C   C379      1.0  0.23773  0.96713  0.60682  1.0000
  C   C380      1.0  0.51665  0.68222  0.34771  1.0000
  H   H424      1.0  0.34031  0.65848  0.37969  1.0000
  H   H425      1.0  0.47180  0.62204  0.58216  1.0000
  H   H426      1.0  0.08542  0.55696  0.43974  1.0000
  H   H427      1.0  0.48668  0.82533  0.43507  1.0000
  H   H428      1.0  0.48267  0.70742  0.51320  1.0000
  H   H429      1.0  0.10014  0.57829  0.56255  1.0000
  C   C381      1.0  0.51995  0.50728  0.51921  1.0000
  N   N25       1.0  0.23280  0.98095  0.57762  1.0000
  H   H430      1.0  0.28860  0.82434  0.64201  1.0000
  C   C382      1.0  0.05758  0.59481  0.46721  1.0000
  C   C383      1.0  0.24462  0.58016  0.37699  1.0000
  C   C384      1.0  0.21359  0.96903  0.62627  1.0000
  H   H431      1.0  0.49243  0.69099  0.35092  1.0000
  H   H432      1.0  0.03768  0.65293  0.54240  1.0000
  C   C385      1.0  0.48809  0.59204  0.40906  1.0000
  C   C386      1.0  0.06291  0.58028  0.51729  1.0000
  C   C387      1.0  0.46043  0.64324  0.56661  1.0000
  C   C388      1.0  0.08508  0.54885  0.51038  1.0000
  S   S104      1.0  0.16843  0.52368  0.35178  1.0000
  C   C389      1.0  0.09310  0.54079  0.48272  1.0000
  C   C390      1.0  0.07925  0.56352  0.46116  1.0000
  C   C391      1.0  0.08168  0.60269  0.56233  1.0000
  C   C392      1.0  0.02659  0.76900  0.52425  1.0000
  C   C393      1.0  0.46647  0.68961  0.52672  1.0000
  H   H433      1.0  0.47701  0.60716  0.51820  1.0000
  H   H434      1.0  0.48656  0.62112  0.36926  1.0000
  H   H435      1.0  0.23371  0.51738  0.60562  1.0000
  H   H436      1.0  0.07620  0.60956  0.58450  1.0000
  C   C394      1.0  0.32465  0.75946  0.58079  1.0000
  C   C395      1.0  0.49836  0.72252  0.57689  1.0000
  C   C396      1.0  0.13366  0.52968  0.63190  1.0000
  H   H437      1.0  0.29628  0.61312  0.38640  1.0000
  H   H438      1.0  0.12610  0.93137  0.64190  1.0000
  S   S105      1.0  0.10944  0.98617  0.42747  1.0000
  H   H439      1.0  0.22996  0.83551  0.55418  1.0000
  H   H440      1.0  0.47525  0.73411  0.57742  1.0000
  H   H441      1.0  0.05188  0.94722  0.38590  1.0000
  C   C397      1.0  0.11475  0.50198  0.37853  1.0000
  C   C398      1.0  0.52037  0.78830  0.45695  1.0000
  C   C399      1.0  0.24318  0.83346  0.57325  1.0000
  H   H442      1.0  0.34015  0.86594  0.58688  1.0000
  C   C400      1.0  0.34117  0.83307  0.57789  1.0000
  H   H443      1.0  0.32701  0.77352  0.63555  1.0000
  H   H444      1.0  0.22377  0.56003  0.37817  1.0000
  H   H445      1.0  0.20590  0.85183  0.59955  1.0000
  H   H446      1.0  0.16881  0.93383  0.34708  1.0000
  N   N26       1.0  0.05464  0.58792  0.54675  1.0000
  C   C401      1.0  0.51360  0.86470  0.46222  1.0000
  H   H447      1.0  0.33985  0.82884  0.63322  1.0000
  H   H448      1.0  0.33305  0.83550  0.55604  1.0000
  H   H449      1.0  0.36247  0.78621  0.61991  1.0000
  H   H450      1.0  0.44250  0.62421  0.55602  1.0000
  C   C402      1.0  0.27700  0.82663  0.62227  1.0000
  H   H451      1.0  0.34813  0.74619  0.58039  1.0000
  H   H452      1.0  0.21803  0.91890  0.56334  1.0000
  C   C403      1.0  0.42251  0.70979  0.66823  1.0000
  C   C404      1.0  0.45633  0.76988  0.66176  1.0000
  H   H453      1.0  0.29183  0.92882  0.65221  1.0000
  C   C405      1.0  0.24651  0.83930  0.62317  1.0000
  H   H454      1.0  0.45086  0.67182  0.51267  1.0000
  H   H455      1.0  0.13759  0.55524  0.67366  1.0000
  C   C406      1.0  0.21539  0.63915  0.35919  1.0000
  H   H456      1.0  0.26972  0.94604  0.55867  1.0000
  C   C407      1.0  0.33860  0.79758  0.62212  1.0000
  H   H457      1.0  0.09644  0.53028  0.52635  1.0000
  H   H458      1.0  0.09109  0.63251  0.55290  1.0000
  C   C408      1.0  0.52070  0.95949  0.53161  1.0000
  H   H459      1.0  0.22948  0.50749  0.55341  1.0000
  H   H460      1.0  0.50148  0.89401  0.45702  1.0000
  H   H461      1.0  0.51215  0.63513  0.51465  1.0000
  H   H462      1.0  0.44857  0.66910  0.57839  1.0000
  H   H463      1.0  0.45194  0.71352  0.53756  1.0000
  C   C409      1.0  0.22962  0.84256  0.59873  1.0000
  C   C410      1.0  0.26994  0.94001  0.64485  1.0000
  N   N27       1.0  0.48266  0.66073  0.54644  1.0000
  N   N28       1.0  0.24263  0.61216  0.35407  1.0000
  H   H464      1.0  0.48729  0.97276  0.50009  1.0000
  C   C411      1.0  0.50176  0.59005  0.43519  1.0000
  C   C412      1.0  0.24572  0.94278  0.66340  1.0000
  H   H465      1.0  0.03509  0.55237  0.58095  1.0000
  C   C413      1.0  0.12375  0.98750  0.39309  1.0000
  H   H466      1.0  0.19140  0.98015  0.62015  1.0000
  H   H467      1.0  0.23575  0.84625  0.64296  1.0000
  C   C414      1.0  0.49797  0.62174  0.38917  1.0000
  H   H468      1.0  0.20501  0.96308  0.54252  1.0000
  H   H469      1.0  0.03279  0.62819  0.49789  1.0000
  C   C415      1.0  0.26068  0.97940  0.56036  1.0000
  C   C416      1.0  0.21755  0.95709  0.65407  1.0000
  H   H470      1.0  0.28579  0.94859  0.60367  1.0000
  H   H471      1.0  0.24690  0.59605  0.39760  1.0000
  H   H472      1.0  0.50873  0.73442  0.39249  1.0000
  H   H473      1.0  0.19463  0.61915  0.36176  1.0000
  H   H474      1.0  0.51336  0.75821  0.44771  1.0000
  C   C417      1.0  0.21003  0.95275  0.56425  1.0000
  C   C418      1.0  0.04362  0.54732  0.55939  1.0000
  H   H475      1.0  0.26392  0.55757  0.37381  1.0000
  H   H476      1.0  0.19419  0.50346  0.60526  1.0000
  H   H477      1.0  0.19860  0.95935  0.66849  1.0000
  H   H478      1.0  0.06755  0.99316  0.59971  1.0000
  C   C419      1.0  0.13458  0.99810  0.65079  1.0000
  C   C420      1.0  0.26978  0.63980  0.35157  1.0000
  H   H479      1.0  0.02976  0.99013  0.61463  1.0000
  H   H480      1.0  0.50571  0.59948  0.54377  1.0000
  C   C421      1.0  0.50527  0.82611  0.44984  1.0000
  C   C422      1.0  0.50622  0.68496  0.56177  1.0000
  H   H481      1.0  0.06726  0.50813  0.66306  1.0000
  H   H482      1.0  0.08541  0.94593  0.34587  1.0000
  C   C423      1.0  0.06336  0.93148  0.34359  1.0000
  C   C424      1.0  0.32188  0.69216  0.34456  1.0000
  Fe  Fe53      1.0  0.46850  0.61875  0.78846  1.0000
  S   S106      1.0  0.47631  0.68920  0.78356  1.0000
  S   S107      1.0  0.50879  0.57885  0.80338  1.0000
  Fe  Fe54      1.0  0.40016  0.63073  0.78157  1.0000
  S   S108      1.0  0.40303  0.70273  0.77663  1.0000
  S   S109      1.0  0.35921  0.58637  0.78263  1.0000
  Fe  Fe55      1.0  0.44257  0.68812  0.74849  1.0000
  S   S110      1.0  0.45755  0.73342  0.71381  1.0000
  Fe  Fe56      1.0  0.43671  0.69946  0.81189  1.0000
  S   S111      1.0  0.44478  0.75399  0.84242  1.0000
  S   S112      1.0  0.43793  0.61592  0.75100  1.0000
  S   S113      1.0  0.43078  0.62890  0.81924  1.0000
  Fe  Fe57      1.0  0.10980  0.60092  0.78175  1.0000
  S   S114      1.0  0.10643  0.52916  0.77869  1.0000
  S   S115      1.0  0.06473  0.63334  0.79298  1.0000
  Fe  Fe58      1.0  0.17863  0.59724  0.77471  1.0000
  S   S116      1.0  0.17998  0.52532  0.77127  1.0000
  S   S117      1.0  0.21976  0.64145  0.77232  1.0000
  Fe  Fe59      1.0  0.13939  0.53285  0.74329  1.0000
  C   C425      1.0  0.40379  0.50367  0.81631  1.0000
  Fe  Fe60      1.0  0.14682  0.52573  0.80683  1.0000
  H   H483      1.0  0.06855  0.87114  0.91608  1.0000
  S   S118      1.0  0.13988  0.60532  0.74389  1.0000
  S   S119      1.0  0.14827  0.59729  0.81269  1.0000
  C   C426      1.0  0.07491  0.86198  0.84502  1.0000
  H   H484      1.0  0.24336  0.93475  0.99374  1.0000
  H   H485      1.0  0.40754  0.53882  0.81394  1.0000
  H   H486      1.0  0.41313  0.68480  0.68128  1.0000
  C   C427      1.0  0.50946  0.82871  0.78219  1.0000
  S   S120      1.0  0.42638  0.74888  0.97386  1.0000
  S   S121      1.0  0.43238  0.87544  0.98791  1.0000
  Fe  Fe61      1.0  0.13552  0.95293  0.97769  1.0000
  S   S122      1.0  0.14760  0.88683  0.96283  1.0000
  H   H487      1.0  0.02709  0.90821  0.93816  1.0000
  H   H488      1.0  0.03455  0.92868  0.83437  1.0000
  C   C428      1.0  0.14240  0.51263  0.88715  1.0000
  H   H489      1.0  0.12343  0.93090  0.86233  1.0000
  H   H490      1.0  0.49039  0.91039  0.76699  1.0000
  C   C429      1.0  0.44431  0.73764  0.67905  1.0000
  C   C430      1.0  0.20264  0.96599  0.89569  1.0000
  H   H491      1.0  0.51092  0.86016  0.73057  1.0000
  H   H492      1.0  0.09560  0.87751  0.79136  1.0000
  H   H493      1.0  0.45908  0.67294  0.99241  1.0000
  C   C431      1.0  0.02929  0.93697  0.95043  1.0000
  H   H494      1.0  0.51553  0.88830  0.80610  1.0000
  C   C432      1.0  0.12663  0.96597  0.90084  1.0000
  C   C433      1.0  0.07952  0.54932  0.85124  1.0000
  H   H495      1.0  0.08166  0.53358  0.98608  1.0000
  H   H496      1.0  0.46836  0.98699  0.99109  1.0000
  H   H497      1.0  0.29562  0.96475  0.99434  1.0000
  C   C434      1.0  0.45721  0.81278  0.77087  1.0000
  H   H498      1.0  0.05944  0.96453  0.91987  1.0000
  H   H499      1.0  0.14335  0.54206  0.87519  1.0000
  C   C435      1.0  0.43996  0.75142  0.87896  1.0000
  C   C436      1.0  0.42823  0.71504  0.89215  1.0000
  C   C437      1.0  0.42441  0.71464  0.92126  1.0000
  C   C438      1.0  0.43201  0.75067  0.93738  1.0000
  C   C439      1.0  0.44378  0.78701  0.92418  1.0000
  C   C440      1.0  0.44776  0.78731  0.89511  1.0000
  H   H500      1.0  0.42176  0.68740  0.87993  1.0000
  H   H501      1.0  0.41514  0.68646  0.93129  1.0000
  H   H502      1.0  0.44988  0.81488  0.93635  1.0000
  H   H503      1.0  0.45679  0.81564  0.88506  1.0000
  C   C441      1.0  0.32058  0.60253  0.77999  1.0000
  C   C442      1.0  0.31212  0.64555  0.77640  1.0000
  C   C443      1.0  0.28119  0.65686  0.77417  1.0000
  C   C444      1.0  0.25838  0.62543  0.77554  1.0000
  C   C445      1.0  0.26687  0.58244  0.77926  1.0000
  C   C446      1.0  0.29780  0.57111  0.78144  1.0000
  H   H504      1.0  0.32935  0.67007  0.77521  1.0000
  H   H505      1.0  0.27486  0.69017  0.77130  1.0000
  H   H506      1.0  0.24962  0.55793  0.78041  1.0000
  H   H507      1.0  0.30404  0.53777  0.78426  1.0000
  H   H508      1.0  0.07808  0.82463  0.79207  1.0000
  C   C447      1.0  0.20843  0.97969  0.86847  1.0000
  H   H509      1.0  0.03302  0.81222  0.82218  1.0000
  C   C448      1.0  0.06624  0.70515  0.75860  1.0000
  H   H510      1.0  0.49441  0.62647  0.85892  1.0000
  H   H511      1.0  0.04095  0.88871  0.87327  1.0000
  C   C449      1.0  0.07823  0.86301  0.89607  1.0000
  H   H512      1.0  0.45116  0.52798  0.78667  1.0000
  S   S123      1.0  0.22096  0.84837  0.00700  1.0000
  N   N29       1.0  0.48294  0.84209  0.76530  1.0000
  C   C450      1.0  0.05242  0.77953  0.98332  1.0000
  H   H513      1.0  0.40440  0.52598  0.76158  1.0000
  C   C451      1.0  0.51953  0.65767  0.71510  1.0000
  S   S124      1.0  0.35380  0.92801  0.00821  1.0000
  H   H514      1.0  0.48109  0.66738  0.88243  1.0000
  C   C452      1.0  0.05234  0.68445  0.78102  1.0000
  H   H515      1.0  0.08931  0.57093  0.86732  1.0000
  H   H516      1.0  0.04675  0.54231  0.00376  1.0000
  N   N30       1.0  0.33836  0.80748  0.94196  1.0000
  C   C453      1.0  0.36430  0.83756  0.94456  1.0000
  C   C454      1.0  0.31006  0.83340  0.94328  1.0000
  C   C455      1.0  0.33950  0.77801  0.96624  1.0000
  C   C456      1.0  0.33865  0.78207  0.91592  1.0000
  C   C457      1.0  0.31495  0.75255  0.91028  1.0000
  C   C458      1.0  0.36181  0.78583  0.89548  1.0000
  C   C459      1.0  0.31443  0.72845  0.88573  1.0000
  C   C460      1.0  0.36095  0.76173  0.87093  1.0000
  C   C461      1.0  0.33739  0.73305  0.86609  1.0000
  H   H517      1.0  0.36462  0.86140  0.92729  1.0000
  H   H518      1.0  0.36317  0.85641  0.96427  1.0000
  H   H519      1.0  0.38633  0.82001  0.94508  1.0000
  H   H520      1.0  0.30712  0.85317  0.92413  1.0000
  C   C462      1.0  0.52232  0.78716  0.77874  1.0000
  H   H521      1.0  0.28947  0.81331  0.94584  1.0000
  H   H522      1.0  0.35989  0.75677  0.96524  1.0000
  H   H523      1.0  0.34065  0.79593  0.98623  1.0000
  H   H524      1.0  0.31925  0.75704  0.96761  1.0000
  H   H525      1.0  0.29660  0.74788  0.92487  1.0000
  H   H526      1.0  0.38100  0.80689  0.89797  1.0000
  H   H527      1.0  0.49575  0.64959  0.71717  1.0000
  H   H528      1.0  0.48379  0.71735  0.00064  1.0000
  H   H529      1.0  0.19554  0.93324  0.89964  1.0000
  H   H530      1.0  0.49623  0.80680  0.72837  1.0000
  C   C463      1.0  0.26219  0.91510  0.00070  1.0000
  H   H531      1.0  0.07848  0.56849  0.83180  1.0000
  C   C464      1.0  0.07378  0.85986  0.79332  1.0000
  H   H532      1.0  0.51212  0.73703  0.88556  1.0000
  H   H533      1.0  0.47175  0.85109  0.72184  1.0000
  Fe  Fe62      1.0  0.10814  0.86514  0.98920  1.0000
  H   H534      1.0  0.23924  0.97765  0.81754  1.0000
  N   N31       1.0  0.05756  0.87162  0.81935  1.0000
  H   H535      1.0  0.12861  0.55798  0.00313  1.0000
  H   H536      1.0  0.33698  0.71425  0.84709  1.0000
  H   H537      1.0  0.45263  0.89576  0.75801  1.0000
  H   H538      1.0  0.13676  0.54498  0.92648  1.0000
  H   H539      1.0  0.19969  0.99061  0.81085  1.0000
  C   C465      1.0  0.05424  0.74411  0.74834  1.0000
  C   C466      1.0  0.29183  0.93201  0.00104  1.0000
  C   C467      1.0  0.51637  0.98629  0.74522  1.0000
  H   H540      1.0  0.43665  0.82195  0.75877  1.0000
  H   H541      1.0  0.12477  0.93762  0.91371  1.0000
  H   H542      1.0  0.07175  0.93774  0.82017  1.0000
  H   H543      1.0  0.06498  0.75968  0.73078  1.0000
  H   H544      1.0  0.46494  0.89001  0.79329  1.0000
  C   C468      1.0  0.13889  0.51420  0.91623  1.0000
  C   C469      1.0  0.05070  0.91832  0.81795  1.0000
  S   S125      1.0  0.09468  0.93189  0.00208  1.0000
  H   H545      1.0  0.51126  0.70392  0.68260  1.0000
  C   C470      1.0  0.04790  0.96921  0.93956  1.0000
  H   H546      1.0  0.09287  0.61347  0.99154  1.0000
  H   H547      1.0  0.49910  0.53715  0.74943  1.0000
  H   H548      1.0  0.06014  0.86791  0.77444  1.0000
  H   H549      1.0  0.49729  0.67333  0.98026  1.0000
  C   C471      1.0  0.02985  0.75883  0.96762  1.0000
  C   C472      1.0  0.48267  0.68178  0.99834  1.0000
  H   H550      1.0  0.08597  0.69087  0.74888  1.0000
  H   H551      1.0  0.48475  0.67799  0.84593  1.0000
  H   H552      1.0  0.19931  0.98416  0.93875  1.0000
  C   C473      1.0  0.10605  0.84185  0.89515  1.0000
  H   H553      1.0  0.46243  0.77915  0.76497  1.0000
  H   H554      1.0  0.11452  0.83092  0.82574  1.0000
  C   C474      1.0  0.20471  0.99466  0.91780  1.0000
  C   C475      1.0  0.11872  0.83083  0.86958  1.0000
  S   S126      1.0  0.07147  0.82438  0.96869  1.0000
  H   H555      1.0  0.37886  0.76503  0.85561  1.0000
  C   C476      1.0  0.47232  0.88649  0.77126  1.0000
  H   H556      1.0  0.11760  0.83364  0.91440  1.0000
  N   N32       1.0  0.04951  0.53237  0.85955  1.0000
  C   C477      1.0  0.49077  0.83997  0.73529  1.0000
  H   H557      1.0  0.45119  0.81257  0.79339  1.0000
  C   C478      1.0  0.51698  0.52030  0.76040  1.0000
  C   C479      1.0  0.12584  0.96226  0.87168  1.0000
  Fe  Fe63      1.0  0.17569  0.88275  0.00196  1.0000
  C   C480      1.0  0.10350  0.84064  0.84478  1.0000
  H   H558      1.0  0.20548  0.95602  0.85233  1.0000
  C   C481      1.0  0.06276  0.87294  0.87146  1.0000
  H   H559      1.0  0.37877  0.50009  0.81778  1.0000
  H   H560      1.0  0.51630  0.73691  0.84866  1.0000
  H   H561      1.0  0.31011  0.85591  0.96120  1.0000
  H   H562      1.0  0.51337  0.76507  0.76349  1.0000
  H   H563      1.0  0.06021  0.53948  0.90323  1.0000
  H   H564      1.0  0.29613  0.70604  0.88188  1.0000
  S   S127      1.0  0.13592  0.98913  0.68704  1.0000
  H   H565      1.0  0.14035  0.81421  0.86900  1.0000
  H   H566      1.0  0.03999  0.92747  0.79782  1.0000
  C   C482      1.0  0.49555  0.66129  0.86388  1.0000
  H   H567      1.0  0.24872  0.93392  0.68507  1.0000
  S   S128      1.0  0.12857  0.99150  0.81805  1.0000
  C   C483      1.0  0.52327  0.85590  0.80227  1.0000
  Fe  Fe64      1.0  0.43027  0.80706  0.00221  1.0000
  C   C484      1.0  0.02872  0.84732  0.81990  1.0000
  H   H568      1.0  0.03294  0.87619  0.00794  1.0000
  C   C485      1.0  0.31661  0.90662  0.00957  1.0000
  H   H569      1.0  0.41376  0.97288  0.99819  1.0000
  H   H570      1.0  0.50474  0.60346  0.00001  1.0000
  C   C486      1.0  0.02828  0.76274  0.76033  1.0000
  C   C487      1.0  0.05249  0.51466  0.88817  1.0000
  C   C488      1.0  0.12866  0.99865  0.85458  1.0000
  H   H571      1.0  0.02638  0.58662  0.84064  1.0000
  H   H572      1.0  0.09584  0.52269  0.84754  1.0000
  H   H573      1.0  0.04018  0.54473  0.80368  1.0000
  C   C489      1.0  0.25720  0.87245  0.00866  1.0000
  H   H574      1.0  0.03385  0.59250  0.87684  1.0000
  C   C490      1.0  0.02759  0.56859  0.86063  1.0000
  C   C491      1.0  0.02666  0.70348  0.79333  1.0000
  C   C492      1.0  0.03546  0.51235  0.81055  1.0000
  C   C493      1.0  0.03926  0.50033  0.83885  1.0000
  H   H575      1.0  0.03031  0.50257  0.89602  1.0000
  C   C494      1.0  0.07118  0.53526  0.00714  1.0000
  H   H576      1.0  0.05728  0.61836  0.00874  1.0000
  Fe  Fe65      1.0  0.93883  0.45969  0.28630  1.0000
  S   S129      1.0  0.93743  0.38794  0.29156  1.0000
  C   C495      1.0  0.57869  0.20383  0.32426  1.0000
  Fe  Fe66      1.0  0.94054  0.45517  0.22236  1.0000
  S   S130      1.0  0.93840  0.38288  0.22218  1.0000
  S   S131      1.0  0.85375  0.15960  0.04254  1.0000
  Fe  Fe67      1.0  0.90339  0.39110  0.25630  1.0000
  S   S132      1.0  0.86148  0.34893  0.25904  1.0000
  Fe  Fe68      1.0  0.97236  0.38433  0.25723  1.0000
  H   H577      1.0  0.53501  0.10939  0.13106  1.0000
  S   S133      1.0  0.90278  0.46312  0.25341  1.0000
  S   S134      1.0  0.97641  0.45619  0.25533  1.0000
  Fe  Fe69      1.0  0.61779  0.39942  0.26082  1.0000
  S   S135      1.0  0.60328  0.33165  0.26973  1.0000
  S   S136      1.0  0.58604  0.44850  0.24093  1.0000
  Fe  Fe70      1.0  0.68330  0.38098  0.27823  1.0000
  S   S137      1.0  0.67380  0.31194  0.28928  1.0000
  S   S138      1.0  0.72752  0.41833  0.27988  1.0000
  Fe  Fe71      1.0  0.64671  0.31148  0.24948  1.0000
  S   S139      1.0  0.64862  0.25193  0.22260  1.0000
  Fe  Fe72      1.0  0.63098  0.33722  0.30894  1.0000
  H   H578      1.0  0.59696  0.36428  0.06077  1.0000
  S   S140      1.0  0.65923  0.37844  0.23701  1.0000
  S   S141      1.0  0.64245  0.40676  0.30131  1.0000
  Fe  Fe73      1.0  0.94089  0.05029  0.04113  1.0000
  S   S142      1.0  0.93977  0.12076  0.05140  1.0000
  H   H579      1.0  0.56947  0.11335  0.26459  1.0000
  H   H580      1.0  0.79132  0.45433  0.32812  1.0000
  Fe  Fe74      1.0  0.63830  0.21091  0.06099  1.0000
  S   S143      1.0  0.64064  0.13933  0.06645  1.0000
  S   S144      1.0  0.63134  0.26550  0.09164  1.0000
  H   H581      1.0  0.80591  0.30563  0.27144  1.0000
  H   H582      1.0  0.53191  0.39965  0.22316  1.0000
  H   H583      1.0  0.53306  0.26307  0.21045  1.0000
  C   C496      1.0  0.98929  0.34180  0.01075  1.0000
  H   H584      1.0  0.99222  0.08543  0.27822  1.0000
  C   C497      1.0  0.01430  0.08209  0.07031  1.0000
  C   C498      1.0  0.54790  0.05000  0.03495  1.0000
  S   S145      1.0  0.67524  0.21295  0.02890  1.0000
  H   H585      1.0  0.92198  0.42760  0.10375  1.0000
  N   N33       1.0  0.99436  0.38807  0.01640  1.0000
  H   H586      1.0  0.75328  0.33154  0.27983  1.0000
  H   H587      1.0  0.55577  0.18184  0.24361  1.0000
  C   C499      1.0  0.54216  0.19671  0.14158  1.0000
  H   H588      1.0  0.65756  0.32456  0.01231  1.0000
  C   C500      1.0  0.56276  0.48351  0.28945  1.0000
  C   C501      1.0  0.65600  0.48671  0.01659  1.0000
  H   H589      1.0  0.60777  0.11912  0.25380  1.0000
  H   H590      1.0  0.59588  0.43697  0.04534  1.0000
  C   C502      1.0  0.80706  0.43043  0.33773  1.0000
  H   H591      1.0  0.87256  0.48667  0.33155  1.0000
  C   C503      1.0  0.64368  0.25605  0.18625  1.0000
  C   C504      1.0  0.64797  0.21950  0.16960  1.0000
  C   C505      1.0  0.64468  0.22194  0.14050  1.0000
  C   C506      1.0  0.63688  0.26099  0.12792  1.0000
  C   C507      1.0  0.63252  0.29749  0.14461  1.0000
  C   C508      1.0  0.63595  0.29510  0.17367  1.0000
  H   H592      1.0  0.65411  0.18923  0.17921  1.0000
  H   H593      1.0  0.64824  0.19366  0.12785  1.0000
  H   H594      1.0  0.62636  0.32777  0.13501  1.0000
  H   H595      1.0  0.63249  0.32342  0.18631  1.0000
  C   C509      1.0  0.59164  0.12715  0.27086  1.0000
  C   C510      1.0  0.52739  0.37756  0.26550  1.0000
  H   H596      1.0  0.63191  0.17438  0.29882  1.0000
  S   S146      1.0  0.60131  0.20770  0.02918  1.0000
  H   H597      1.0  0.97202  0.32777  0.02499  1.0000
  H   H598      1.0  0.96635  0.44458  0.02040  1.0000
  H   H599      1.0  0.55869  0.04931  0.21511  1.0000
  H   H600      1.0  0.56695  0.28922  0.17301  1.0000
  N   N34       1.0  0.54612  0.17241  0.11536  1.0000
  H   H601      1.0  0.94628  0.08337  0.24944  1.0000
  N   N35       1.0  0.58981  0.17414  0.27580  1.0000
  C   C511      1.0  0.61645  0.43947  0.03329  1.0000
  H   H602      1.0  0.90660  0.05310  0.15199  1.0000
  C   C512      1.0  0.81568  0.14147  0.04141  1.0000
  H   H603      1.0  0.92980  0.43380  0.15481  1.0000
  C   C513      1.0  0.82425  0.36872  0.26412  1.0000
  C   C514      1.0  0.81748  0.41256  0.26242  1.0000
  C   C515      1.0  0.78768  0.42714  0.26717  1.0000
  C   C516      1.0  0.76433  0.39808  0.27340  1.0000
  C   C517      1.0  0.77098  0.35418  0.27475  1.0000
  C   C518      1.0  0.80083  0.33962  0.27010  1.0000
  H   H604      1.0  0.83518  0.43522  0.25740  1.0000
  H   H605      1.0  0.78266  0.46115  0.26592  1.0000
  C   C519      1.0  0.00568  0.07251  0.26048  1.0000
  C   C520      1.0  0.00651  0.39288  0.04503  1.0000
  C   C521      1.0  0.55778  0.23597  0.14572  1.0000
  H   H606      1.0  0.81261  0.40670  0.32116  1.0000
  H   H607      1.0  0.59369  0.19111  0.23231  1.0000
  C   C522      1.0  0.79195  0.17157  0.04366  1.0000
  C   C523      1.0  0.77809  0.08519  0.03564  1.0000
  C   C524      1.0  0.92096  0.02790  0.14374  1.0000
  H   H608      1.0  0.01113  0.42722  0.04985  1.0000
  H   H609      1.0  0.00682  0.03695  0.26283  1.0000
  H   H610      1.0  0.59911  0.10971  0.28995  1.0000
  S   S147      1.0  0.92941  0.48649  0.05840  1.0000
  C   C525      1.0  0.59002  0.35624  0.03911  1.0000
  C   C526      1.0  0.53569  0.24467  0.19147  1.0000
  C   C527      1.0  0.62981  0.48014  0.03217  1.0000
  C   C528      1.0  0.53065  0.30433  0.32152  1.0000
  H   H611      1.0  0.01917  0.49177  0.20469  1.0000
  C   C529      1.0  0.96050  0.06850  0.23288  1.0000
  C   C530      1.0  0.02054  0.01711  0.17201  1.0000
  H   H612      1.0  0.97986  0.01835  0.19507  1.0000
  H   H613      1.0  0.98823  0.27643  0.27557  1.0000
  Fe  Fe75      1.0  0.67477  0.14105  0.03144  1.0000
  H   H614      1.0  0.54581  0.39781  0.27187  1.0000
  H   H615      1.0  0.55144  0.22815  0.08872  1.0000
  H   H616      1.0  0.85430  0.45150  0.30774  1.0000
  H   H617      1.0  0.99029  0.38084  0.06097  1.0000
  H   H618      1.0  0.82660  0.07455  0.03619  1.0000
  Fe  Fe76      1.0  0.89465  0.12010  0.02880  1.0000
  H   H619      1.0  0.99861  0.07407  0.08772  1.0000
  C   C531      1.0  0.62927  0.40393  0.01881  1.0000
  C   C532      1.0  0.76143  0.15869  0.04147  1.0000
  H   H620      1.0  0.94833  0.39651  0.03127  1.0000
  H   H621      1.0  0.92300  0.05623  0.10270  1.0000
  C   C533      1.0  0.75437  0.11543  0.03718  1.0000
  H   H622      1.0  0.58115  0.32279  0.03974  1.0000
  C   C534      1.0  0.63919  0.32832  0.02795  1.0000
  S   S148      1.0  0.71657  0.09790  0.03216  1.0000
  C   C535      1.0  0.93437  0.46096  0.14140  1.0000
  C   C536      1.0  0.93029  0.02980  0.11577  1.0000
  C   C537      1.0  0.57795  0.19528  0.25028  1.0000
  C   C538      1.0  0.80859  0.09810  0.03770  1.0000
  C   C539      1.0  0.92994  0.45753  0.11244  1.0000
  H   H623      1.0  0.01274  0.14788  0.23534  1.0000
  C   C540      1.0  0.56169  0.48229  0.26038  1.0000
  C   C541      1.0  0.53845  0.16944  0.29835  1.0000
  C   C542      1.0  0.93525  0.49271  0.09470  1.0000
  H   H624      1.0  0.52956  0.15314  0.28028  1.0000
  H   H625      1.0  0.58721  0.14308  0.13057  1.0000
  Fe  Fe77      1.0  0.60562  0.13577  0.03233  1.0000
  H   H626      1.0  0.64970  0.33702  0.04826  1.0000
  C   C543      1.0  0.99053  0.13230  0.23145  1.0000
  H   H627      1.0  0.94919  0.07541  0.21260  1.0000
  H   H628      1.0  0.01762  0.49806  0.16795  1.0000
  H   H629      1.0  0.53161  0.11475  0.09427  1.0000
  H   H630      1.0  0.00663  0.20172  0.28330  1.0000
  H   H631      1.0  0.62172  0.22541  0.28299  1.0000
  H   H632      1.0  0.79723  0.20517  0.04659  1.0000
  C   C544      1.0  0.01131  0.06730  0.21060  1.0000
  C   C545      1.0  0.85004  0.47355  0.32558  1.0000
  H   H633      1.0  0.74343  0.18229  0.04271  1.0000
  H   H634      1.0  0.63616  0.18267  0.26225  1.0000
  H   H635      1.0  0.57504  0.23045  0.25353  1.0000
  N   N36       1.0  0.99216  0.08469  0.23333  1.0000
  H   H636      1.0  0.99785  0.20940  0.05095  1.0000
  C   C546      1.0  0.55460  0.25945  0.17035  1.0000
  H   H637      1.0  0.01269  0.11750  0.06783  1.0000
  N   N37       1.0  0.74109  0.33582  0.19051  1.0000
  C   C547      1.0  0.71854  0.36848  0.18131  1.0000
  C   C548      1.0  0.72872  0.31269  0.21498  1.0000
  C   C549      1.0  0.76861  0.35929  0.19972  1.0000
  C   C550      1.0  0.74700  0.30477  0.16778  1.0000
  C   C551      1.0  0.72262  0.28248  0.15508  1.0000
  C   C552      1.0  0.77667  0.29520  0.15784  1.0000
  C   C553      1.0  0.72746  0.25347  0.13333  1.0000
  C   C554      1.0  0.78127  0.26592  0.13614  1.0000
  C   C555      1.0  0.75673  0.24526  0.12383  1.0000
  H   H638      1.0  0.69575  0.35452  0.17755  1.0000
  H   H639      1.0  0.71511  0.39394  0.19732  1.0000
  H   H640      1.0  0.72598  0.38450  0.16175  1.0000
  H   H641      1.0  0.70693  0.29637  0.21021  1.0000
  H   H642      1.0  0.72416  0.33496  0.23264  1.0000
  H   H643      1.0  0.74485  0.28762  0.22249  1.0000
  H   H644      1.0  0.77931  0.37706  0.18219  1.0000
  H   H645      1.0  0.76320  0.38363  0.21595  1.0000
  H   H646      1.0  0.78573  0.33733  0.20925  1.0000
  H   H647      1.0  0.69956  0.28722  0.16193  1.0000
  H   H648      1.0  0.79674  0.30981  0.16646  1.0000
  H   H649      1.0  0.70837  0.23723  0.12380  1.0000
  H   H650      1.0  0.80404  0.25916  0.12876  1.0000
  H   H651      1.0  0.76042  0.22267  0.10697  1.0000
  H   H652      1.0  0.55092  0.29547  0.30894  1.0000
  H   H653      1.0  0.58193  0.13938  0.09356  1.0000
  H   H654      1.0  0.59314  0.18901  0.10862  1.0000
  H   H655      1.0  0.62939  0.29567  0.03040  1.0000
  C   C556      1.0  0.02217  0.49689  0.32646  1.0000
  S   S149      1.0  0.55987  0.10369  0.04094  1.0000
  C   C557      1.0  0.56450  0.02140  0.01846  1.0000
  H   H656      1.0  0.95947  0.03328  0.23676  1.0000
  H   H657      1.0  0.57053  0.37701  0.03283  1.0000
  C   C558      1.0  0.53676  0.19951  0.09139  1.0000
  H   H658      1.0  0.99144  0.42642  0.16270  1.0000
  C   C559      1.0  0.57848  0.16052  0.11195  1.0000
  H   H659      1.0  0.53796  0.18153  0.07138  1.0000
  C   C560      1.0  0.00173  0.03328  0.19298  1.0000
  H   H660      1.0  0.56569  0.37234  0.31230  1.0000
  H   H661      1.0  0.97487  0.14617  0.24726  1.0000
  C   C561      1.0  0.62119  0.18987  0.28036  1.0000
  H   H662      1.0  0.57924  0.46409  0.30050  1.0000
  C   C562      1.0  0.56917  0.18278  0.29949  1.0000
  C   C563      1.0  0.01630  0.22406  0.03961  1.0000
  H   H663      1.0  0.53696  0.41270  0.31906  1.0000
  H   H664      1.0  0.00496  0.38175  0.18325  1.0000
  C   C564      1.0  0.00438  0.41738  0.18175  1.0000
  C   C565      1.0  0.01121  0.26768  0.27002  1.0000
  H   H665      1.0  0.99095  0.42854  0.19985  1.0000
  H   H666      1.0  0.98247  0.14276  0.21053  1.0000
  H   H667      1.0  0.57266  0.24875  0.12990  1.0000
  C   C566      1.0  0.54386  0.37886  0.32308  1.0000
  H   H668      1.0  0.77282  0.05166  0.03240  1.0000
  N   N38       1.0  0.61589  0.36037  0.01948  1.0000
  C   C567      1.0  0.54940  0.03458  0.23363  1.0000
  H   H669      1.0  0.00491  0.06709  0.05117  1.0000
  S   S150      1.0  0.89442  0.04887  0.02168  1.0000
  C   C568      1.0  0.02173  0.22531  0.27438  1.0000
  S   S151      1.0  0.01936  0.35318  0.25438  1.0000
  H   H670      1.0  0.60146  0.21575  0.32715  1.0000
  C   C569      1.0  0.52818  0.13214  0.11427  1.0000
  H   H671      1.0  0.85966  0.39201  0.34279  1.0000
  C   C570      1.0  0.02258  0.21089  0.01240  1.0000
  C   C571      1.0  0.96433  0.40980  0.01552  1.0000
  H   H672      1.0  0.85582  0.00379  0.08046  1.0000
  H   H673      1.0  0.80673  0.01428  0.10434  1.0000
  H   H674      1.0  0.01013  0.32221  0.01365  1.0000
  Fe  Fe78      1.0  0.93173  0.02326  0.49210  1.0000
  S   S152      1.0  0.92774  0.09525  0.49047  1.0000
  H   H675      1.0  0.70886  0.08049  0.45957  1.0000
  Fe  Fe79      1.0  0.96668  0.09678  0.52095  1.0000
  C   C572      1.0  0.93046  0.01655  0.40829  1.0000
  Fe  Fe80      1.0  0.89846  0.08762  0.52888  1.0000
  S   S153      1.0  0.85663  0.12936  0.53549  1.0000
  S   S154      1.0  0.89962  0.01539  0.52827  1.0000
  Fe  Fe81      1.0  0.65500  0.17975  0.48365  1.0000
  S   S155      1.0  0.65274  0.10791  0.48688  1.0000
  S   S156      1.0  0.67377  0.20867  0.44363  1.0000
  Fe  Fe82      1.0  0.61054  0.11712  0.51245  1.0000
  S   S157      1.0  0.56532  0.08533  0.50148  1.0000
  S   S158      1.0  0.61110  0.18910  0.50632  1.0000
  S   S159      1.0  0.68332  0.18708  0.52236  1.0000
  C   C573      1.0  0.54918  0.03615  0.51316  1.0000
  C   C574      1.0  0.02244  0.18273  0.52482  1.0000
  C   C575      1.0  0.81852  0.11138  0.53610  1.0000
  C   C576      1.0  0.79533  0.14123  0.54171  1.0000
  C   C577      1.0  0.76465  0.12881  0.54151  1.0000
  H   H676      1.0  0.80113  0.17424  0.54617  1.0000
  H   H677      1.0  0.74707  0.15218  0.54582  1.0000
  C   C578      1.0  0.62542  0.28554  0.37467  1.0000
  C   C579      1.0  0.60929  0.27299  0.39859  1.0000
  C   C580      1.0  0.62361  0.24924  0.41994  1.0000
  C   C581      1.0  0.65430  0.23824  0.41758  1.0000
  C   C582      1.0  0.67041  0.25116  0.39379  1.0000
  C   C583      1.0  0.65606  0.27458  0.37240  1.0000
  H   H678      1.0  0.58559  0.28146  0.40056  1.0000
  H   H679      1.0  0.61098  0.23933  0.43812  1.0000
  H   H680      1.0  0.69418  0.24301  0.39187  1.0000
  C   C584      1.0  0.55574  0.20383  0.62354  1.0000
  C   C585      1.0  0.01075  0.02994  0.38990  1.0000
  H   H681      1.0  0.79468  0.41222  0.35408  1.0000
  H   H682      1.0  0.77885  0.47609  0.37316  1.0000
  H   H683      1.0  0.59518  0.40318  0.47393  1.0000
  C   C586      1.0  0.93304  0.46563  0.39449  1.0000
  C   C587      1.0  0.93630  0.46891  0.36540  1.0000
  H   H684      1.0  0.99469  0.05307  0.61020  1.0000
  H   H685      1.0  0.77811  0.05694  0.41267  1.0000
  H   H686      1.0  0.93080  0.43434  0.40406  1.0000
  H   H687      1.0  0.88713  0.46799  0.61484  1.0000
  Fe  Fe83      1.0  0.94044  0.02245  0.55593  1.0000
  S   S160      1.0  0.93747  0.09433  0.55929  1.0000
  C   C588      1.0  0.79342  0.07366  0.42640  1.0000
  S   S161      1.0  0.97247  0.02515  0.51982  1.0000
  Fe  Fe84      1.0  0.63905  0.19055  0.54560  1.0000
  S   S162      1.0  0.63582  0.11925  0.55324  1.0000
  S   S163      1.0  0.62686  0.24462  0.57546  1.0000
  Fe  Fe85      1.0  0.67853  0.11576  0.52699  1.0000
  S   S164      1.0  0.71840  0.06983  0.53325  1.0000
  H   H688      1.0  0.54915  0.37621  0.34572  1.0000
  H   H689      1.0  0.02059  0.41849  0.61169  1.0000
  H   H690      1.0  0.98442  0.19257  0.55215  1.0000
  H   H691      1.0  0.75290  0.17951  0.46205  1.0000
  H   H692      1.0  0.99490  0.06927  0.47106  1.0000
  H   H693      1.0  0.74872  0.13960  0.48919  1.0000
  C   C589      1.0  0.56750  0.30448  0.53641  1.0000
  H   H694      1.0  0.73543  0.27115  0.65024  1.0000
  C   C590      1.0  0.75681  0.08636  0.53543  1.0000
  C   C591      1.0  0.78003  0.05632  0.53022  1.0000
  C   C592      1.0  0.81074  0.06875  0.53045  1.0000
  H   H695      1.0  0.77420  0.02338  0.52560  1.0000
  H   H696      1.0  0.82834  0.04549  0.52597  1.0000
  H   H697      1.0  0.96755  0.48152  0.66444  1.0000
  C   C593      1.0  0.65155  0.20661  0.65355  1.0000
  C   C594      1.0  0.64713  0.20724  0.62453  1.0000
  C   C595      1.0  0.63366  0.24293  0.61179  1.0000
  C   C596      1.0  0.62482  0.27802  0.62835  1.0000
  H   H698      1.0  0.66878  0.28422  0.35420  1.0000
  C   C597      1.0  0.78250  0.10464  0.44567  1.0000
  H   H699      1.0  0.65404  0.18003  0.61203  1.0000
  H   H700      1.0  0.61430  0.30572  0.61866  1.0000
  C   C598      1.0  0.81524  0.33504  0.66952  1.0000
  H   H701      1.0  0.99668  0.10618  0.44254  1.0000
  C   C599      1.0  0.95467  0.48910  0.64589  1.0000
  H   H702      1.0  0.93682  0.44028  0.35268  1.0000
  H   H703      1.0  0.62262  0.30477  0.66989  1.0000
  C   C600      1.0  0.97185  0.45281  0.50894  1.0000
  C   C601      1.0  0.90946  0.48147  0.61787  1.0000
  C   C602      1.0  0.01542  0.24637  0.55355  1.0000
  C   C603      1.0  0.52970  0.48600  0.46363  1.0000
  H   H704      1.0  0.95621  0.42180  0.45706  1.0000
  C   C604      1.0  0.73759  0.12773  0.42010  1.0000
  C   C605      1.0  0.97549  0.39887  0.45593  1.0000
  C   C606      1.0  0.00296  0.39271  0.52353  1.0000
  C   C607      1.0  0.01199  0.03516  0.36100  1.0000
  H   H705      1.0  0.53735  0.30163  0.34382  1.0000
  C   C608      1.0  0.99369  0.39927  0.55103  1.0000
  C   C609      1.0  0.55367  0.16664  0.57941  1.0000
  H   H706      1.0  0.58851  0.28715  0.53341  1.0000
  S   S165      1.0  0.60642  0.31409  0.34786  1.0000
  H   H707      1.0  0.00416  0.09562  0.58633  1.0000
  H   H708      1.0  0.84485  0.39961  0.37742  1.0000
  C   C610      1.0  0.93146  0.01861  0.66492  1.0000
  H   H709      1.0  0.74262  0.06262  0.47684  1.0000
  H   H710      1.0  0.01822  0.36611  0.52000  1.0000
  C   C611      1.0  0.80437  0.12426  0.46326  1.0000
  C   C612      1.0  0.96278  0.45919  0.53648  1.0000
  H   H711      1.0  0.96702  0.36756  0.46392  1.0000
  C   C613      1.0  0.92572  0.47174  0.64225  1.0000
  C   C614      1.0  0.52633  0.21902  0.61931  1.0000
  C   C615      1.0  0.93171  0.01893  0.37901  1.0000
  C   C616      1.0  0.01272  0.45517  0.46041  1.0000
  H   H712      1.0  0.98118  0.39506  0.43349  1.0000
  H   H713      1.0  0.83409  0.32193  0.65775  1.0000
  H   H714      1.0  0.71317  0.13712  0.42140  1.0000
  H   H715      1.0  0.59218  0.16575  0.60694  1.0000
  H   H716      1.0  0.87751  0.42870  0.36591  1.0000
  C   C617      1.0  0.85505  0.41642  0.35924  1.0000
  H   H717      1.0  0.66192  0.17875  0.66320  1.0000
  C   C618      1.0  0.74204  0.14851  0.46774  1.0000
  H   H718      1.0  0.71721  0.15463  0.46875  1.0000
  H   H719      1.0  0.97573  0.38366  0.62078  1.0000
  H   H720      1.0  0.54841  0.16714  0.52278  1.0000
  N   N39       1.0  0.57314  0.34741  0.49140  1.0000
  C   C619      1.0  0.55319  0.34096  0.46688  1.0000
  C   C620      1.0  0.55152  0.29498  0.56080  1.0000
  C   C621      1.0  0.60114  0.32158  0.48684  1.0000
  C   C622      1.0  0.55665  0.33583  0.51720  1.0000
  C   C623      1.0  0.82855  0.48197  0.37180  1.0000
  H   H721      1.0  0.97723  0.05596  0.43874  1.0000
  S   S166      1.0  0.01155  0.13094  0.51308  1.0000
  H   H722      1.0  0.99817  0.04258  0.57375  1.0000
  H   H723      1.0  0.53318  0.36282  0.46698  1.0000
  H   H724      1.0  0.56063  0.27151  0.57534  1.0000
  C   C624      1.0  0.00532  0.20590  0.54422  1.0000
  H   H725      1.0  0.00210  0.26390  0.56865  1.0000
  C   C625      1.0  0.99265  0.41981  0.50163  1.0000
  C   C626      1.0  0.00807  0.06111  0.59123  1.0000
  C   C627      1.0  0.64287  0.24175  0.67009  1.0000
  H   H726      1.0  0.00198  0.37799  0.56719  1.0000
  H   H727      1.0  0.61283  0.33057  0.46711  1.0000
  N   N40       1.0  0.00191  0.41380  0.47225  1.0000
  H   H728      1.0  0.54452  0.30745  0.46614  1.0000
  H   H729      1.0  0.99423  0.47933  0.45808  1.0000
  H   H730      1.0  0.96222  0.33769  0.63914  1.0000
  H   H731      1.0  0.75012  0.15618  0.41214  1.0000
  C   C628      1.0  0.78760  0.31312  0.67061  1.0000
  C   C629      1.0  0.73353  0.07457  0.45660  1.0000
  H   H732      1.0  0.96344  0.38894  0.65607  1.0000
  H   H733      1.0  0.59622  0.39979  0.51135  1.0000
  H   H734      1.0  0.93062  0.04995  0.36885  1.0000
  H   H735      1.0  0.73900  0.10202  0.40420  1.0000
  N   N41       1.0  0.00694  0.35838  0.65169  1.0000
  N   N42       1.0  0.74959  0.11398  0.44760  1.0000
  C   C630      1.0  0.52902  0.35686  0.52403  1.0000
  C   C631      1.0  0.82424  0.06300  0.42487  1.0000
  H   H736      1.0  0.93005  0.04233  0.62255  1.0000
  H   H737      1.0  0.92791  0.04553  0.42044  1.0000
  H   H738      1.0  0.53358  0.47785  0.44204  1.0000
  C   C632      1.0  0.62949  0.27755  0.65739  1.0000
  H   H739      1.0  0.79838  0.14761  0.47894  1.0000
  H   H740      1.0  0.83208  0.03901  0.41017  1.0000
  C   C633      1.0  0.84502  0.08272  0.44248  1.0000
  H   H741      1.0  0.61795  0.32643  0.50386  1.0000
  C   C634      1.0  0.56926  0.17747  0.60370  1.0000
  H   H742      1.0  0.96654  0.43782  0.57884  1.0000
  H   H743      1.0  0.56530  0.34744  0.44697  1.0000
  H   H744      1.0  0.96215  0.47374  0.49336  1.0000
  C   C635      1.0  0.97378  0.43264  0.55755  1.0000
  H   H745      1.0  0.73569  0.04804  0.44133  1.0000
  C   C636      1.0  0.58203  0.39329  0.49264  1.0000
  H   H746      1.0  0.58263  0.02282  0.54464  1.0000
  H   H747      1.0  0.86884  0.07401  0.44155  1.0000
  H   H748      1.0  0.53075  0.21905  0.52432  1.0000
  H   H749      1.0  0.56819  0.21259  0.64214  1.0000
  H   H750      1.0  0.85131  0.12833  0.47545  1.0000
  S   S167      1.0  0.90915  0.43661  0.66688  1.0000
  H   H751      1.0  0.56525  0.14607  0.56468  1.0000
  H   H752      1.0  0.78645  0.28335  0.65921  1.0000
  H   H753      1.0  0.56658  0.22583  0.36526  1.0000
  C   C637      1.0  0.93596  0.01559  0.63593  1.0000
  H   H754      1.0  0.59604  0.28665  0.48530  1.0000
  H   H755      1.0  0.71212  0.34368  0.65646  1.0000
  C   C638      1.0  0.99740  0.07146  0.44812  1.0000
  H   H756      1.0  0.56207  0.41519  0.49373  1.0000
  S   S168      1.0  0.92551  0.49754  0.44722  1.0000
  C   C639      1.0  0.83512  0.11335  0.46153  1.0000
  C   C640      1.0  0.56194  0.01205  0.53482  1.0000
  H   H757      1.0  0.70991  0.24943  0.67530  1.0000
  H   H758      1.0  0.92219  0.04785  0.67365  1.0000
  H   H759      1.0  0.94698  0.48482  0.54146  1.0000
  H   H760      1.0  0.02337  0.47310  0.36832  1.0000
  C   C641      1.0  0.55871  0.21010  0.34651  1.0000
  H   H761      1.0  0.01937  0.34875  0.47472  1.0000
  C   C642      1.0  0.97586  0.36751  0.64139  1.0000
  C   C643      1.0  0.52874  0.19645  0.34468  1.0000
  H   H762      1.0  0.01187  0.29929  0.62845  1.0000
  N   N43       1.0  0.83477  0.45117  0.34898  1.0000
  C   C644      1.0  0.73228  0.26561  0.67296  1.0000
  C   C645      1.0  0.79884  0.49066  0.38198  1.0000
  H   H763      1.0  0.79585  0.00326  0.62311  1.0000
  H   H764      1.0  0.84228  0.00162  0.59441  1.0000
  H   H765      1.0  0.99157  0.30235  0.67440  1.0000
  C   C646      1.0  0.02345  0.39935  0.65540  1.0000
  H   H766      1.0  0.02252  0.45109  0.43923  1.0000
  H   H767      1.0  0.99565  0.00558  0.39775  1.0000
  H   H768      1.0  0.99855  0.01458  0.34763  1.0000
  H   H769      1.0  0.02387  0.34574  0.61004  1.0000
  C   C647      1.0  0.02304  0.33104  0.63111  1.0000
  C   C648      1.0  0.52622  0.18393  0.52375  1.0000
  H   H770      1.0  0.52602  0.10546  0.54786  1.0000
  Fe  Fe86      1.0  0.93487  0.45003  0.77167  1.0000
  S   S169      1.0  0.93855  0.38224  0.78728  1.0000
  H   H771      1.0  0.97332  0.12027  0.79976  1.0000
  Fe  Fe87      1.0  0.92443  0.42162  0.71105  1.0000
  S   S170      1.0  0.92767  0.35166  0.72253  1.0000
  C   C649      1.0  0.73734  0.18960  0.94029  1.0000
  Fe  Fe88      1.0  0.89835  0.36972  0.75922  1.0000
  S   S171      1.0  0.85794  0.32847  0.77143  1.0000
  Fe  Fe89      1.0  0.96738  0.37042  0.74922  1.0000
  H   H772      1.0  0.54144  0.12545  0.78398  1.0000
  S   S172      1.0  0.89291  0.43831  0.74619  1.0000
  S   S173      1.0  0.96609  0.43975  0.73511  1.0000
  Fe  Fe90      1.0  0.61019  0.37349  0.76036  1.0000
  S   S174      1.0  0.60098  0.30248  0.76282  1.0000
  S   S175      1.0  0.57169  0.41730  0.74527  1.0000
  Fe  Fe91      1.0  0.67772  0.35979  0.77225  1.0000
  S   S176      1.0  0.67320  0.28824  0.77579  1.0000
  S   S177      1.0  0.72158  0.39827  0.77346  1.0000
  Fe  Fe92      1.0  0.64336  0.29325  0.73788  1.0000
  S   S178      1.0  0.64940  0.23918  0.70644  1.0000
  Fe  Fe93      1.0  0.63110  0.30220  0.80062  1.0000
  S   S179      1.0  0.61509  0.25476  0.83367  1.0000
  S   S180      1.0  0.65083  0.36393  0.73245  1.0000
  S   S181      1.0  0.63741  0.37423  0.80009  1.0000
  Fe  Fe94      1.0  0.91830  0.06404  0.98139  1.0000
  S   S182      1.0  0.91565  0.13550  0.98735  1.0000
  H   H773      1.0  0.55245  0.27075  0.69938  1.0000
  H   H774      1.0  0.80083  0.28558  0.77856  1.0000
  H   H775      1.0  0.70730  0.27578  0.72119  1.0000
  H   H776      1.0  0.74745  0.31166  0.78015  1.0000
  H   H777      1.0  0.85232  0.08383  0.96919  1.0000
  H   H778      1.0  0.79632  0.16404  0.89840  1.0000
  C   C650      1.0  0.91899  0.00616  0.91572  1.0000
  H   H779      1.0  0.81914  0.47776  0.93927  1.0000
  S   S183      1.0  0.63953  0.25835  0.96423  1.0000
  H   H780      1.0  0.77861  0.44070  0.76774  1.0000
  N   N44       1.0  0.98593  0.06022  0.78084  1.0000
  C   C651      1.0  0.65569  0.41204  0.00276  1.0000
  H   H781      1.0  0.86999  0.13046  0.93412  1.0000
  H   H782      1.0  0.83180  0.41465  0.76611  1.0000
  C   C652      1.0  0.79600  0.31945  0.77601  1.0000
  C   C653      1.0  0.76572  0.33415  0.77685  1.0000
  H   H783      1.0  0.84057  0.39012  0.68321  1.0000
  C   C654      1.0  0.81895  0.37355  0.68381  1.0000
  C   C655      1.0  0.56454  0.21796  0.72634  1.0000
  H   H784      1.0  0.62319  0.34901  0.97560  1.0000
  H   H785      1.0  0.01963  0.06199  0.74792  1.0000
  H   H786      1.0  0.80068  0.06241  0.92778  1.0000
  H   H787      1.0  0.81667  0.09468  0.90047  1.0000
  H   H788      1.0  0.54844  0.34315  0.89751  1.0000
  H   H789      1.0  0.88456  0.45268  0.83385  1.0000
  C   C656      1.0  0.62387  0.25527  0.86964  1.0000
  C   C657      1.0  0.63782  0.29044  0.88225  1.0000
  C   C658      1.0  0.64292  0.29043  0.91120  1.0000
  C   C659      1.0  0.63454  0.25509  0.92773  1.0000
  C   C660      1.0  0.62092  0.21968  0.91508  1.0000
  C   C661      1.0  0.61537  0.22000  0.88619  1.0000
  H   H790      1.0  0.64434  0.31785  0.86976  1.0000
  H   H791      1.0  0.65339  0.31804  0.92083  1.0000
  H   H792      1.0  0.61418  0.19240  0.92757  1.0000
  H   H793      1.0  0.60432  0.19280  0.87662  1.0000
  C   C662      1.0  0.53127  0.48452  0.74806  1.0000
  C   C663      1.0  0.82002  0.08366  0.92226  1.0000
  H   H794      1.0  0.00422  0.12409  0.77583  1.0000
  H   H795      1.0  0.84981  0.17629  0.94746  1.0000
  H   H796      1.0  0.59449  0.31662  0.99097  1.0000
  C   C664      1.0  0.01463  0.21151  0.74274  1.0000
  C   C665      1.0  0.60470  0.34925  0.99133  1.0000
  H   H797      1.0  0.54419  0.11190  0.74785  1.0000
  C   C666      1.0  0.98235  0.10757  0.77976  1.0000
  C   C667      1.0  0.53820  0.23428  0.85010  1.0000
  C   C668      1.0  0.84169  0.49357  0.93841  1.0000
  H   H798      1.0  0.54814  0.28930  0.96456  1.0000
  H   H799      1.0  0.59111  0.13615  0.72078  1.0000
  H   H800      1.0  0.96697  0.43891  0.88591  1.0000
  H   H801      1.0  0.95654  0.44076  0.83523  1.0000
  C   C669      1.0  0.82010  0.34827  0.77197  1.0000
  C   C670      1.0  0.81358  0.39205  0.76904  1.0000
  C   C671      1.0  0.78336  0.40677  0.77008  1.0000
  C   C672      1.0  0.75924  0.37793  0.77368  1.0000
  H   H802      1.0  0.97483  0.01367  0.83047  1.0000
  H   H803      1.0  0.60668  0.20003  0.78448  1.0000
  C   C673      1.0  0.54371  0.26298  0.87186  1.0000
  C   C674      1.0  0.77446  0.14761  0.96576  1.0000
  C   C675      1.0  0.95924  0.46847  0.87632  1.0000
  S   S184      1.0  0.00183  0.16957  0.99565  1.0000
  Fe  Fe95      1.0  0.63815  0.20548  0.99710  1.0000
  C   C676      1.0  0.79495  0.39051  0.69910  1.0000
  H   H804      1.0  0.74961  0.38293  0.71316  1.0000
  C   C677      1.0  0.54674  0.25307  0.71813  1.0000
  H   H805      1.0  0.95623  0.00570  0.78477  1.0000
  H   H806      1.0  0.57887  0.30958  0.91067  1.0000
  S   S185      1.0  0.89965  0.03820  0.94053  1.0000
  H   H807      1.0  0.94022  0.04976  0.76604  1.0000
  S   S186      1.0  0.96468  0.05938  0.00010  1.0000
  N   N45       1.0  0.57708  0.15859  0.76128  1.0000
  C   C678      1.0  0.83731  0.44001  0.84067  1.0000
  C   C679      1.0  0.70842  0.33428  0.67855  1.0000
  C   C680      1.0  0.54463  0.26615  0.94722  1.0000
  C   C681      1.0  0.95520  0.04138  0.78397  1.0000
  H   H808      1.0  0.66630  0.38689  0.99067  1.0000
  C   C682      1.0  0.74678  0.16964  0.96477  1.0000
  N   N46       1.0  0.82241  0.11996  0.94207  1.0000
  H   H809      1.0  0.58357  0.21021  0.71308  1.0000
  H   H810      1.0  0.52810  0.24230  0.95512  1.0000
  H   H811      1.0  0.73248  0.17090  0.98316  1.0000
  C   C683      1.0  0.79356  0.14459  0.94203  1.0000
  C   C684      1.0  0.83046  0.10180  0.96973  1.0000
  H   H812      1.0  0.98115  0.26266  0.74244  1.0000
  H   H813      1.0  0.58203  0.45973  0.79892  1.0000
  C   C685      1.0  0.01810  0.01581  0.84923  1.0000
  H   H814      1.0  0.54838  0.24000  0.82991  1.0000
  C   C686      1.0  0.59239  0.17092  0.78755  1.0000
  H   H815      1.0  0.56653  0.24911  0.94353  1.0000
  C   C687      1.0  0.84787  0.14799  0.93341  1.0000
  C   C688      1.0  0.60100  0.14540  0.74122  1.0000
  H   H816      1.0  0.79803  0.42021  0.71048  1.0000
  H   H817      1.0  0.83529  0.41941  0.82258  1.0000
  H   H818      1.0  0.96669  0.11771  0.76276  1.0000
  C   C689      1.0  0.66886  0.45282  0.00185  1.0000
  H   H819      1.0  0.70596  0.36423  0.69092  1.0000
  H   H820      1.0  0.74737  0.27847  0.72782  1.0000
  H   H821      1.0  0.61783  0.17152  0.73780  1.0000
  C   C690      1.0  0.55599  0.32297  0.91537  1.0000
  C   C691      1.0  0.01932  0.44074  0.79819  1.0000
  C   C692      1.0  0.75557  0.18751  0.91663  1.0000
  H   H822      1.0  0.58716  0.37255  0.98419  1.0000
  N   N47       1.0  0.53402  0.28818  0.92154  1.0000
  H   H823      1.0  0.98787  0.45744  0.97871  1.0000
  C   C693      1.0  0.95334  0.46942  0.84756  1.0000
  H   H824      1.0  0.56952  0.44322  0.96743  1.0000
  H   H825      1.0  0.99804  0.18653  0.73954  1.0000
  H   H826      1.0  0.55862  0.34526  0.93334  1.0000
  H   H827      1.0  0.99091  0.35092  0.69384  1.0000
  H   H828      1.0  0.61423  0.11723  0.74891  1.0000
  H   H829      1.0  0.85932  0.46785  0.93896  1.0000
  H   H830      1.0  0.83333  0.12764  0.98550  1.0000
  H   H831      1.0  0.68612  0.31763  0.67983  1.0000
  H   H832      1.0  0.94354  0.05337  0.80298  1.0000
  C   C694      1.0  0.81490  0.47363  0.88121  1.0000
  C   C695      1.0  0.55827  0.19509  0.75136  1.0000
  H   H833      1.0  0.98223  0.05093  0.73633  1.0000
  C   C696      1.0  0.00497  0.25471  0.74428  1.0000
  C   C697      1.0  0.55813  0.46017  0.98406  1.0000
  C   C698      1.0  0.55477  0.46230  0.76184  1.0000
  S   S187      1.0  0.01550  0.34241  0.75013  1.0000
  H   H834      1.0  0.60743  0.14489  0.79556  1.0000
  H   H835      1.0  0.72387  0.32534  0.73128  1.0000
  H   H836      1.0  0.81316  0.07858  0.97724  1.0000
  C   C699      1.0  0.78322  0.16526  0.91738  1.0000
  H   H837      1.0  0.95329  0.40641  0.99480  1.0000
  H   H838      1.0  0.78025  0.13301  0.98538  1.0000
  H   H839      1.0  0.98144  0.33668  0.98897  1.0000
  H   H840      1.0  0.55847  0.28958  0.86710  1.0000
  Fe  Fe96      1.0  0.96074  0.13018  0.00913  1.0000
  C   C700      1.0  0.55770  0.12049  0.76660  1.0000
  H   H841      1.0  0.57127  0.09163  0.77254  1.0000
  N   N48       1.0  0.73346  0.30650  0.68885  1.0000
  C   C701      1.0  0.01636  0.40576  0.99615  1.0000
  C   C702      1.0  0.00963  0.44145  0.97864  1.0000
  H   H842      1.0  0.71579  0.20657  0.93965  1.0000
  C   C703      1.0  0.76727  0.36886  0.70045  1.0000
  H   H843      1.0  0.84538  0.16004  0.91178  1.0000
  H   H844      1.0  0.79499  0.47766  0.89405  1.0000
  H   H845      1.0  0.68917  0.45843  0.98965  1.0000
  S   S188      1.0  0.63979  0.13300  0.99725  1.0000
  C   C704      1.0  0.72780  0.29609  0.71852  1.0000
  C   C705      1.0  0.99838  0.04517  0.75382  1.0000
  C   C706      1.0  0.56397  0.47647  0.78812  1.0000
  H   H846      1.0  0.74807  0.20300  0.89758  1.0000
  C   C707      1.0  0.00695  0.04867  0.80377  1.0000
  C   C708      1.0  0.86506  0.45869  0.84712  1.0000
  C   C709      1.0  0.53331  0.20975  0.76744  1.0000
  H   H847      1.0  0.84093  0.06346  0.92230  1.0000
  C   C710      1.0  0.99770  0.02518  0.82772  1.0000
  C   C711      1.0  0.76273  0.32938  0.68633  1.0000
  H   H848      1.0  0.74963  0.24227  0.68049  1.0000
  C   C712      1.0  0.81229  0.44741  0.85770  1.0000
  H   H849      1.0  0.57610  0.17857  0.80447  1.0000
  C   C713      1.0  0.53275  0.44156  0.99704  1.0000
  H   H850      1.0  0.01788  0.39481  0.83146  1.0000
  C   C714      1.0  0.53051  0.25691  0.89857  1.0000
  H   H851      1.0  0.79078  0.43247  0.85263  1.0000
  H   H852      1.0  0.52738  0.19442  0.78685  1.0000
  H   H853      1.0  0.88150  0.00813  0.88692  1.0000
  H   H854      1.0  0.00324  0.01006  0.75437  1.0000
  H   H855      1.0  0.01123  0.41815  0.78282  1.0000
  C   C715      1.0  0.86794  0.48487  0.87060  1.0000
  C   C716      1.0  0.02313  0.42765  0.82568  1.0000
  H   H856      1.0  0.89019  0.49749  0.87459  1.0000
  C   C717      1.0  0.84276  0.49372  0.88819  1.0000
  C   C718      1.0  0.00397  0.33299  0.67777  1.0000
  H   H857      1.0  0.02252  0.49294  0.76916  1.0000
  H   H858      1.0  0.58590  0.03138  0.00960  1.0000
  Fe  Fe97      1.0  0.93277  0.93596  0.29250  1.0000
  S   S189      1.0  0.93072  0.86336  0.29261  1.0000
  C   C719      1.0  0.57552  0.89941  0.07564  1.0000
  Fe  Fe98      1.0  0.92604  0.94179  0.22870  1.0000
  S   S190      1.0  0.92347  0.87035  0.22394  1.0000
  H   H859      1.0  0.72885  0.89357  0.30847  1.0000
  Fe  Fe99      1.0  0.89269  0.87218  0.26125  1.0000
  S   S191      1.0  0.85000  0.83150  0.25851  1.0000
  Fe  Fe100     1.0  0.96158  0.86697  0.25522  1.0000
  S   S192      1.0  0.00437  0.82940  0.24372  1.0000
  S   S193      1.0  0.89268  0.94387  0.26397  1.0000
  S   S194      1.0  0.96628  0.93905  0.25722  1.0000
  Fe  Fe101     1.0  0.60546  0.88814  0.26617  1.0000
  S   S195      1.0  0.59471  0.81810  0.26043  1.0000
  S   S196      1.0  0.56700  0.92997  0.28281  1.0000
  Fe  Fe102     1.0  0.67202  0.87387  0.25011  1.0000
  S   S197      1.0  0.66559  0.80337  0.24220  1.0000
  S   S198      1.0  0.71672  0.91030  0.24903  1.0000
  Fe  Fe103     1.0  0.62207  0.82298  0.22108  1.0000
  S   S199      1.0  0.59783  0.79350  0.18387  1.0000
  Fe  Fe104     1.0  0.63869  0.80437  0.28210  1.0000
  S   S200      1.0  0.64859  0.74871  0.31145  1.0000
  S   S201      1.0  0.63034  0.89405  0.22563  1.0000
  S   S202      1.0  0.64757  0.87376  0.29123  1.0000
  Fe  Fe105     1.0  0.93239  0.53948  0.02567  1.0000
  S   S203      1.0  0.92220  0.61005  0.02927  1.0000
  C   C720      1.0  0.94542  0.53130  0.10619  1.0000
  H   H860      1.0  0.54371  0.88833  0.22676  1.0000
  Fe  Fe106     1.0  0.65189  0.67634  0.04270  1.0000
  S   S204      1.0  0.65252  0.60423  0.04134  1.0000
  S   S205      1.0  0.66794  0.71588  0.07960  1.0000
  H   H861      1.0  0.79291  0.79378  0.24368  1.0000
  C   C721      1.0  0.52607  0.99665  0.28156  1.0000
  H   H862      1.0  0.57612  0.73512  0.22853  1.0000
  H   H863      1.0  0.63189  0.76563  0.04210  1.0000
  C   C722      1.0  0.63840  0.79132  0.02718  1.0000
  C   C723      1.0  0.01044  0.89008  0.01366  1.0000
  H   H864      1.0  0.60928  0.70013  0.19430  1.0000
  H   H865      1.0  0.63893  0.81307  0.07807  1.0000
  H   H866      1.0  0.93373  0.57716  0.26628  1.0000
  H   H867      1.0  0.99572  0.63832  0.29955  1.0000
  H   H868      1.0  0.74058  0.82337  0.23979  1.0000
  C   C724      1.0  0.85057  0.98532  0.09900  1.0000
  H   H869      1.0  0.61955  0.50694  0.04315  1.0000
  H   H870      1.0  0.58191  0.98217  0.23373  1.0000
  H   H871      1.0  0.88825  0.70456  0.28506  1.0000
  C   C725      1.0  0.55113  0.97752  0.26830  1.0000
  C   C726      1.0  0.00536  0.89661  0.34024  1.0000
  C   C727      1.0  0.01043  0.76332  0.28266  1.0000
  C   C728      1.0  0.59083  0.67674  0.19014  1.0000
  H   H872      1.0  0.99070  0.77654  0.29297  1.0000
  C   C729      1.0  0.61750  0.77145  0.15513  1.0000
  C   C730      1.0  0.64911  0.77210  0.15374  1.0000
  C   C731      1.0  0.66408  0.75442  0.13057  1.0000
  C   C732      1.0  0.64770  0.73540  0.10877  1.0000
  C   C733      1.0  0.61603  0.73445  0.11021  1.0000
  C   C734      1.0  0.60100  0.75268  0.13326  1.0000
  H   H873      1.0  0.66207  0.78647  0.17040  1.0000
  H   H874      1.0  0.68858  0.75547  0.12952  1.0000
  H   H875      1.0  0.60317  0.72027  0.09343  1.0000
  H   H876      1.0  0.57649  0.75237  0.13409  1.0000
  H   H877      1.0  0.97194  0.93781  0.11368  1.0000
  C   C735      1.0  0.95776  0.96311  0.12205  1.0000
  H   H878      1.0  0.88298  0.91201  0.14170  1.0000
  H   H879      1.0  0.78263  0.90947  0.16873  1.0000
  H   H880      1.0  0.01444  0.91465  0.03002  1.0000
  N   N49       1.0  0.61395  0.82399  0.02419  1.0000
  H   H881      1.0  0.57745  0.69032  0.17253  1.0000
  H   H882      1.0  0.87659  0.92059  0.18983  1.0000
  C   C736      1.0  0.98157  0.61157  0.29138  1.0000
  H   H883      1.0  0.79565  0.95203  0.19154  1.0000
  C   C737      1.0  0.94821  0.96106  0.15003  1.0000
  H   H884      1.0  0.83600  0.50083  0.31778  1.0000
  H   H885      1.0  0.70326  0.88850  0.33726  1.0000
  C   C738      1.0  0.59013  0.88914  0.10051  1.0000
  H   H886      1.0  0.95519  0.93447  0.16311  1.0000
  C   C739      1.0  0.81310  0.85386  0.25586  1.0000
  C   C740      1.0  0.80744  0.89722  0.26149  1.0000
  C   C741      1.0  0.77780  0.91389  0.25926  1.0000
  C   C742      1.0  0.75345  0.88741  0.25162  1.0000
  C   C743      1.0  0.75906  0.84402  0.24600  1.0000
  C   C744      1.0  0.78876  0.82737  0.24812  1.0000
  H   H887      1.0  0.82586  0.91794  0.26769  1.0000
  H   H888      1.0  0.77370  0.94753  0.26357  1.0000
  H   H889      1.0  0.64268  0.60202  0.29594  1.0000
  H   H890      1.0  0.85045  0.96157  0.20000  1.0000
  H   H891      1.0  0.53950  0.50729  0.22377  1.0000
  H   H892      1.0  0.95803  0.56459  0.14380  1.0000
  H   H893      1.0  0.53906  0.66527  0.01133  1.0000
  C   C745      1.0  0.95026  0.53455  0.13512  1.0000
  C   C746      1.0  0.79991  0.91847  0.18455  1.0000
  H   H894      1.0  0.01281  0.58911  0.24624  1.0000
  C   C747      1.0  0.81624  0.96780  0.13667  1.0000
  Fe  Fe107     1.0  0.61071  0.60947  0.01460  1.0000
  S   S206      1.0  0.93884  0.98680  0.32620  1.0000
  C   C748      1.0  0.58661  0.80170  0.01358  1.0000
  H   H895      1.0  0.53017  0.63515  0.22394  1.0000
  H   H896      1.0  0.54360  0.51096  0.32676  1.0000
  N   N50       1.0  0.73538  0.83663  0.33362  1.0000
  H   H897      1.0  0.66637  0.51820  0.01577  1.0000
  H   H898      1.0  0.53300  0.81928  0.18501  1.0000
  H   H899      1.0  0.65289  0.67453  0.27727  1.0000
  C   C749      1.0  0.62111  0.83681  0.07624  1.0000
  H   H900      1.0  0.58387  0.90535  0.11961  1.0000
  H   H901      1.0  0.72001  0.82356  0.29169  1.0000
  H   H902      1.0  0.56732  0.58844  0.24144  1.0000
  H   H903      1.0  0.62416  0.84990  0.12021  1.0000
  N   N51       1.0  0.57163  0.66912  0.21498  1.0000
  H   H904      1.0  0.57775  0.77873  0.02936  1.0000
  H   H905      1.0  0.99696  0.86386  0.02338  1.0000
  H   H906      1.0  0.95595  0.76280  0.23368  1.0000
  C   C750      1.0  0.59046  0.65043  0.23752  1.0000
  C   C751      1.0  0.61534  0.67370  0.24854  1.0000
  C   C752      1.0  0.58537  0.60873  0.24865  1.0000
  C   C753      1.0  0.63390  0.65624  0.26931  1.0000
  C   C754      1.0  0.60400  0.59168  0.26953  1.0000
  C   C755      1.0  0.83576  0.86613  0.16863  1.0000
  C   C756      1.0  0.62819  0.61540  0.27986  1.0000
  H   H907      1.0  0.89323  0.95195  0.09909  1.0000
  H   H908      1.0  0.91779  0.63796  0.28716  1.0000
  H   H909      1.0  0.54460  0.70656  0.24335  1.0000
  H   H910      1.0  0.85967  0.85795  0.16358  1.0000
  C   C757      1.0  0.54264  0.51022  0.30426  1.0000
  H   H911      1.0  0.99491  0.62574  0.22252  1.0000
  H   H912      1.0  0.66002  0.80583  0.03447  1.0000
  H   H913      1.0  0.62085  0.70552  0.24105  1.0000
  C   C758      1.0  0.55306  0.98003  0.01289  1.0000
  H   H914      1.0  0.53452  0.65287  0.04708  1.0000
  H   H915      1.0  0.77161  0.83986  0.30361  1.0000
  C   C759      1.0  0.95335  0.58347  0.25238  1.0000
  H   H916      1.0  0.57137  0.88736  0.03236  1.0000
  C   C760      1.0  0.86535  0.93299  0.13382  1.0000
  H   H917      1.0  0.82127  0.85484  0.15114  1.0000
  H   H918      1.0  0.79563  0.89774  0.20299  1.0000
  H   H919      1.0  0.94441  0.58949  0.23102  1.0000
  C   C761      1.0  0.54043  0.50809  0.24628  1.0000
  C   C762      1.0  0.58351  0.87838  0.05104  1.0000
  C   C763      1.0  0.90963  0.70229  0.27403  1.0000
  H   H920      1.0  0.54356  0.72490  0.20786  1.0000
  C   C764      1.0  0.83727  0.93763  0.14797  1.0000
  S   S207      1.0  0.95127  0.50515  0.18910  1.0000
  H   H921      1.0  0.01587  0.71124  0.31198  1.0000
  C   C765      1.0  0.92971  0.99351  0.16094  1.0000
  N   N52       1.0  0.83123  0.91277  0.17371  1.0000
  C   C766      1.0  0.55849  0.71067  0.22418  1.0000
  S   S208      1.0  0.91747  0.99333  0.19601  1.0000
  H   H922      1.0  0.96181  0.60776  0.30552  1.0000
  C   C767      1.0  0.76763  0.83080  0.32568  1.0000
  H   H923      1.0  0.90683  0.76704  0.25839  1.0000
  H   H924      1.0  0.55779  0.92370  0.07531  1.0000
  C   C768      1.0  0.94761  0.73501  0.24497  1.0000
  C   C769      1.0  0.96486  0.69718  0.24577  1.0000
  H   H925      1.0  0.83012  0.84656  0.18741  1.0000
  C   C770      1.0  0.82296  0.99119  0.11254  1.0000
  C   C771      1.0  0.61287  0.85796  0.10079  1.0000
  H   H926      1.0  0.53909  0.80894  0.22135  1.0000
  C   C772      1.0  0.95475  0.66042  0.26072  1.0000
  C   C773      1.0  0.71671  0.81211  0.31344  1.0000
  H   H927      1.0  0.84874  0.90893  0.21561  1.0000
  N   N53       1.0  0.97232  0.61979  0.26215  1.0000
  C   C774      1.0  0.54599  0.64132  0.20630  1.0000
  H   H928      1.0  0.94932  0.55869  0.09280  1.0000
  C   C775      1.0  0.92667  0.66430  0.27499  1.0000
  C   C776      1.0  0.60647  0.84629  0.05054  1.0000
  H   H929      1.0  0.55411  0.61013  0.19776  1.0000
  S   S209      1.0  0.00230  0.66251  0.01981  1.0000
  C   C777      1.0  0.85259  0.92652  0.19574  1.0000
  H   H930      1.0  0.60176  0.64647  0.18290  1.0000
  S   S210      1.0  0.56650  0.57483  0.02477  1.0000
  C   C778      1.0  0.72709  0.88265  0.33052  1.0000
  H   H931      1.0  0.72242  0.77724  0.31361  1.0000
  H   H932      1.0  0.52605  0.70628  0.03505  1.0000
  H   H933      1.0  0.52598  0.70620  0.33280  1.0000
  H   H934      1.0  0.79453  0.97427  0.14617  1.0000
  S   S211      1.0  0.60821  0.68155  0.01907  1.0000
  H   H935      1.0  0.96635  0.55279  0.25171  1.0000
  H   H936      1.0  0.59981  0.55965  0.27754  1.0000
  H   H937      1.0  0.00340  0.51854  0.33047  1.0000
  H   H938      1.0  0.98624  0.69797  0.23485  1.0000
  C   C779      1.0  0.87163  0.95611  0.10954  1.0000
  C   C780      1.0  0.92006  0.73756  0.25901  1.0000
  H   H939      1.0  0.01647  0.64512  0.25205  1.0000
  H   H940      1.0  0.00370  0.58091  0.08513  1.0000
  C   C781      1.0  0.00027  0.62014  0.24489  1.0000
  C   C782      1.0  0.02148  0.78281  0.25849  1.0000
  S   S212      1.0  0.96017  0.99839  0.06950  1.0000
  H   H941      1.0  0.99514  0.58156  0.29336  1.0000
  H   H942      1.0  0.69212  0.81580  0.31794  1.0000
  C   C783      1.0  0.55446  0.52315  0.01381  1.0000
  H   H943      1.0  0.53558  0.89483  0.19061  1.0000
  S   S213      1.0  0.94030  0.51551  0.31640  1.0000
  C   C784      1.0  0.94867  0.99735  0.10478  1.0000
  H   H944      1.0  0.77490  0.79672  0.32824  1.0000
  H   H945      1.0  0.01553  0.87952  0.29871  1.0000
  H   H946      1.0  0.01265  0.99109  0.15891  1.0000
  C   C785      1.0  0.56263  0.99652  0.24413  1.0000
  H   H947      1.0  0.96766  0.95016  0.01518  1.0000
  H   H948      1.0  0.78321  0.85103  0.33815  1.0000
  H   H949      1.0  0.74204  0.90411  0.34276  1.0000
  H   H950      1.0  0.53208  0.65674  0.18963  1.0000
  C   C786      1.0  0.52911  0.50450  0.02677  1.0000
  H   H951      1.0  0.98272  0.88332  0.33895  1.0000
  H   H952      1.0  0.01042  0.98643  0.01150  1.0000
  C   C787      1.0  0.02474  0.72617  0.29336  1.0000
  H   H953      1.0  0.64381  0.87431  0.01077  1.0000
  C   C788      1.0  0.02457  0.89480  0.31710  1.0000
  C   C789      1.0  0.52496  0.96674  0.02372  1.0000
  C   C790      1.0  0.94455  0.49953  0.15288  1.0000
  Fe  Fe108     1.0  0.92712  0.55581  0.47552  1.0000
  S   S214      1.0  0.91662  0.62368  0.46310  1.0000
  C   C791      1.0  0.74359  0.83133  0.41248  1.0000
  Fe  Fe109     1.0  0.95864  0.64132  0.48714  1.0000
  S   S215      1.0  0.99409  0.68417  0.46693  1.0000
  Fe  Fe110     1.0  0.89234  0.62742  0.50422  1.0000
  S   S216      1.0  0.84854  0.66627  0.50747  1.0000
  S   S217      1.0  0.90002  0.55784  0.51540  1.0000
  Fe  Fe111     1.0  0.62312  0.68568  0.46899  1.0000
  S   S218      1.0  0.63073  0.61404  0.46765  1.0000
  S   S219      1.0  0.60440  0.73245  0.43688  1.0000
  Fe  Fe112     1.0  0.60328  0.61115  0.50713  1.0000
  S   S220      1.0  0.56437  0.56843  0.52164  1.0000
  S   S221      1.0  0.59271  0.68158  0.50633  1.0000
  S   S222      1.0  0.66462  0.70010  0.49448  1.0000
  C   C792      1.0  0.01048  0.73498  0.51192  1.0000
  H   H954      1.0  0.96434  0.85764  0.56342  1.0000
  C   C793      1.0  0.81201  0.64518  0.50055  1.0000
  C   C794      1.0  0.78710  0.67345  0.49881  1.0000
  C   C795      1.0  0.75734  0.65772  0.49578  1.0000
  H   H955      1.0  0.79083  0.70769  0.50032  1.0000
  H   H956      1.0  0.73837  0.67979  0.49480  1.0000
  C   C796      1.0  0.54771  0.97406  0.54401  1.0000
  C   C797      1.0  0.64689  0.71116  0.36299  1.0000
  C   C798      1.0  0.63802  0.70745  0.39102  1.0000
  C   C799      1.0  0.61850  0.73798  0.40266  1.0000
  C   C800      1.0  0.60825  0.77243  0.38616  1.0000
  H   H957      1.0  0.95474  0.76138  0.45574  1.0000
  C   C801      1.0  0.61747  0.77647  0.35823  1.0000
  H   H958      1.0  0.64583  0.68056  0.40345  1.0000
  H   H959      1.0  0.59304  0.79610  0.39501  1.0000
  C   C802      1.0  0.95048  0.52640  0.60110  1.0000
  H   H960      1.0  0.62364  0.80706  0.51563  1.0000
  C   C803      1.0  0.93786  0.54628  0.36955  1.0000
  C   C804      1.0  0.93478  0.54299  0.39859  1.0000
  H   H961      1.0  0.63796  0.79226  0.66145  1.0000
  C   C805      1.0  0.97984  0.86934  0.54690  1.0000
  H   H962      1.0  0.99901  0.84616  0.54522  1.0000
  H   H963      1.0  0.75845  0.57597  0.58955  1.0000
  H   H964      1.0  0.93408  0.57173  0.41119  1.0000
  H   H965      1.0  0.94743  0.93830  0.52897  1.0000
  C   C806      1.0  0.55858  0.69501  0.57802  1.0000
  Fe  Fe113     1.0  0.94325  0.58062  0.53546  1.0000
  S   S223      1.0  0.93380  0.65073  0.52738  1.0000
  C   C807      1.0  0.53704  0.86567  0.48182  1.0000
  S   S224      1.0  0.97086  0.57274  0.49644  1.0000
  Fe  Fe114     1.0  0.63460  0.69114  0.53185  1.0000
  S   S225      1.0  0.64341  0.62042  0.53564  1.0000
  S   S226      1.0  0.63232  0.74360  0.56457  1.0000
  Fe  Fe115     1.0  0.67052  0.62835  0.49613  1.0000
  S   S227      1.0  0.71518  0.59173  0.49226  1.0000
  H   H966      1.0  0.60170  0.77267  0.49446  1.0000
  H   H967      1.0  0.58277  0.80181  0.55279  1.0000
  C   C808      1.0  0.93033  0.81090  0.52620  1.0000
  H   H968      1.0  0.81481  0.56059  0.43447  1.0000
  H   H969      1.0  0.54729  0.73014  0.40437  1.0000
  C   C809      1.0  0.71568  0.75654  0.62677  1.0000
  C   C810      1.0  0.93457  0.98157  0.36276  1.0000
  C   C811      1.0  0.84785  0.53170  0.40732  1.0000
  C   C812      1.0  0.75224  0.61347  0.49428  1.0000
  C   C813      1.0  0.77723  0.58528  0.49522  1.0000
  C   C814      1.0  0.80696  0.60100  0.49835  1.0000
  H   H970      1.0  0.77353  0.55100  0.49396  1.0000
  H   H971      1.0  0.82590  0.57888  0.49964  1.0000
  H   H972      1.0  0.93952  0.57769  0.36001  1.0000
  C   C815      1.0  0.64029  0.76504  0.64763  1.0000
  C   C816      1.0  0.63442  0.76982  0.61897  1.0000
  C   C817      1.0  0.63817  0.73512  0.60061  1.0000
  C   C818      1.0  0.64711  0.69517  0.61122  1.0000
  C   C819      1.0  0.65317  0.69045  0.63986  1.0000
  H   H973      1.0  0.00920  0.61151  0.53964  1.0000
  H   H974      1.0  0.62745  0.80083  0.61095  1.0000
  H   H975      1.0  0.65002  0.66822  0.59731  1.0000
  H   H976      1.0  0.66089  0.65978  0.64781  1.0000
  H   H977      1.0  0.92592  0.90946  0.50341  1.0000
  C   C820      1.0  0.73513  0.68370  0.62833  1.0000
  H   H978      1.0  0.75630  0.84736  0.42872  1.0000
  H   H979      1.0  0.55437  0.75855  0.48169  1.0000
  C   C821      1.0  0.95516  0.94337  0.64209  1.0000
  H   H980      1.0  0.00681  0.87301  0.49732  1.0000
  H   H981      1.0  0.00383  0.98868  0.44111  1.0000
  C   C822      1.0  0.01445  0.72577  0.48368  1.0000
  H   H982      1.0  0.90085  0.75576  0.52962  1.0000
  H   H983      1.0  0.60950  0.80320  0.34574  1.0000
  H   H984      1.0  0.99536  0.92542  0.50804  1.0000
  H   H985      1.0  0.93769  0.91266  0.36390  1.0000
  C   C823      1.0  0.72571  0.72111  0.64197  1.0000
  H   H986      1.0  0.54187  0.89656  0.49092  1.0000
  H   H987      1.0  0.56577  0.88600  0.53235  1.0000
  C   C824      1.0  0.73101  0.82303  0.36290  1.0000
  C   C825      1.0  0.53710  0.67169  0.56294  1.0000
  C   C826      1.0  0.54373  0.78886  0.47658  1.0000
  N   N54       1.0  0.53369  0.68188  0.37440  1.0000
  C   C827      1.0  0.93304  0.97676  0.42166  1.0000
  H   H988      1.0  0.76922  0.67934  0.55299  1.0000
  H   H989      1.0  0.76293  0.86927  0.38027  1.0000
  H   H990      1.0  0.56554  0.53342  0.46477  1.0000
  C   C828      1.0  0.70744  0.77758  0.39869  1.0000
  C   C829      1.0  0.93542  0.93937  0.40541  1.0000
  C   C830      1.0  0.94789  0.97791  0.62442  1.0000
  C   C831      1.0  0.95050  0.94630  0.67101  1.0000
  C   C832      1.0  0.84154  0.98410  0.61396  1.0000
  H   H991      1.0  0.60386  0.86880  0.53711  1.0000
  H   H992      1.0  0.78065  0.62434  0.55507  1.0000
  C   C833      1.0  0.92610  0.75494  0.49155  1.0000
  H   H993      1.0  0.72514  0.72222  0.66455  1.0000
  C   C834      1.0  0.83985  0.93890  0.66541  1.0000
  H   H994      1.0  0.77099  0.61154  0.61607  1.0000
  H   H995      1.0  0.56700  0.74990  0.60391  1.0000
  H   H996      1.0  0.74215  0.65736  0.64147  1.0000
  H   H997      1.0  0.73148  0.59557  0.61439  1.0000
  H   H998      1.0  0.79343  0.96507  0.66705  1.0000
  H   H999      1.0  0.69194  0.75200  0.40424  1.0000
  H   H1000     1.0  0.91623  0.72501  0.48449  1.0000
  H   H1001     1.0  0.72389  0.71829  0.56147  1.0000
  C   C835      1.0  0.72471  0.71784  0.58395  1.0000
  C   C836      1.0  0.96702  0.51620  0.62530  1.0000
  C   C837      1.0  0.75166  0.60480  0.60184  1.0000
  C   C838      1.0  0.71098  0.78944  0.37078  1.0000
  C   C839      1.0  0.79410  0.51882  0.40429  1.0000
  H   H1002     1.0  0.69879  0.62388  0.57449  1.0000
  C   C840      1.0  0.98662  0.89424  0.50016  1.0000
  H   H1003     1.0  0.72089  0.78887  0.44104  1.0000
  H   H1004     1.0  0.70651  0.78213  0.58609  1.0000
  C   C841      1.0  0.54297  0.52840  0.50433  1.0000
  C   C842      1.0  0.56567  0.67110  0.36784  1.0000
  N   N55       1.0  0.74481  0.64207  0.58349  1.0000
  C   C843      1.0  0.77272  0.65223  0.56769  1.0000
  H   H1005     1.0  0.59283  0.89154  0.50431  1.0000
  C   C844      1.0  0.73474  0.68088  0.59877  1.0000
  H   H1006     1.0  0.55394  0.66846  0.42792  1.0000
  H   H1007     1.0  0.61271  0.82370  0.48095  1.0000
  H   H1008     1.0  0.92283  0.82330  0.54603  1.0000
  H   H1009     1.0  0.88706  0.96032  0.61019  1.0000
  H   H1010     1.0  0.54536  0.64330  0.55250  1.0000
  H   H1011     1.0  0.72675  0.59745  0.55321  1.0000
  H   H1012     1.0  0.86693  0.54733  0.41734  1.0000
  N   N56       1.0  0.96438  0.87486  0.51968  1.0000
  H   H1013     1.0  0.79158  0.66163  0.58180  1.0000
  C   C845      1.0  0.94761  0.77574  0.47525  1.0000
  H   H1014     1.0  0.53629  0.61584  0.46185  1.0000
  C   C846      1.0  0.85278  0.50391  0.38494  1.0000
  C   C847      1.0  0.56605  0.80161  0.53543  1.0000
  H   H1015     1.0  0.77132  0.52487  0.41191  1.0000
  N   N57       1.0  0.57683  0.82695  0.51125  1.0000
  C   C848      1.0  0.53228  0.72602  0.38600  1.0000
  H   H1016     1.0  0.92306  0.89638  0.53979  1.0000
  C   C849      1.0  0.60487  0.80684  0.50008  1.0000
  C   C850      1.0  0.55286  0.82760  0.48964  1.0000
  H   H1017     1.0  0.53978  0.75053  0.37058  1.0000
  C   C851      1.0  0.74722  0.84359  0.38466  1.0000
  C   C852      1.0  0.55013  0.73197  0.59236  1.0000
  C   C853      1.0  0.81856  0.53909  0.41703  1.0000
  H   H1018     1.0  0.71726  0.65160  0.54645  1.0000
  C   C854      1.0  0.52537  0.61789  0.44163  1.0000
  C   C855      1.0  0.72370  0.79840  0.41947  1.0000
  H   H1019     1.0  0.96445  0.91412  0.63339  1.0000
  H   H1020     1.0  0.93711  0.90837  0.41554  1.0000
  C   C856      1.0  0.91754  0.77237  0.51703  1.0000
  C   C857      1.0  0.93580  0.94167  0.37611  1.0000
  H   H1021     1.0  0.55769  0.95590  0.56093  1.0000
  C   C858      1.0  0.93908  0.90594  0.52309  1.0000
  C   C859      1.0  0.58515  0.87030  0.52156  1.0000
  H   H1022     1.0  0.99471  0.71630  0.52414  1.0000
  C   C860      1.0  0.63670  0.74566  0.34651  1.0000
  H   H1023     1.0  0.00017  0.91641  0.38285  1.0000
  H   H1024     1.0  0.57576  0.69439  0.35287  1.0000
  C   C861      1.0  0.72088  0.62831  0.56369  1.0000
  H   H1025     1.0  0.58202  0.68429  0.57858  1.0000
  C   C862      1.0  0.95218  0.83318  0.51001  1.0000
  H   H1026     1.0  0.54428  0.81491  0.54358  1.0000
  H   H1027     1.0  0.56221  0.76735  0.53007  1.0000
  C   C863      1.0  0.65024  0.72550  0.65810  1.0000
  H   H1028     1.0  0.97615  0.90099  0.47949  1.0000
  H   H1029     1.0  0.97766  0.82784  0.47077  1.0000
  S   S228      1.0  0.95360  0.97210  0.58813  1.0000
  C   C864      1.0  0.86608  0.93873  0.64827  1.0000
  C   C865      1.0  0.54786  0.51752  0.47646  1.0000
  C   C866      1.0  0.81439  0.96280  0.65557  1.0000
  H   H1030     1.0  0.69774  0.77175  0.35582  1.0000
  C   C867      1.0  0.96070  0.81412  0.48427  1.0000
  S   S229      1.0  0.96695  0.56020  0.57564  1.0000
  S   S230      1.0  0.93487  0.97195  0.45843  1.0000
  H   H1031     1.0  0.98940  0.52951  0.62821  1.0000
  C   C868      1.0  0.71514  0.75490  0.59783  1.0000
  H   H1032     1.0  0.66178  0.68717  0.35404  1.0000
  H   H1033     1.0  0.58028  0.67141  0.38666  1.0000
  H   H1034     1.0  0.98933  0.90022  0.55462  1.0000
  H   H1035     1.0  0.82825  0.85532  0.67220  1.0000
  H   H1036     1.0  0.70745  0.78487  0.63752  1.0000
  C   C869      1.0  0.92165  0.50887  0.59747  1.0000
  C   C870      1.0  0.81542  0.98502  0.63022  1.0000
  H   H1037     1.0  0.88644  0.92173  0.65444  1.0000
  C   C871      1.0  0.93827  0.50936  0.35285  1.0000
  H   H1038     1.0  0.90869  0.51642  0.57896  1.0000
  C   C872      1.0  0.53533  0.64787  0.42199  1.0000
  H   H1039     1.0  0.56757  0.63841  0.35862  1.0000
  C   C873      1.0  0.86675  0.96086  0.62291  1.0000
  C   C874      1.0  0.01514  0.91532  0.36498  1.0000
  C   C875      1.0  0.93194  0.50270  0.41113  1.0000
  H   H1040     1.0  0.02428  0.62529  0.57267  1.0000
  H   H1041     1.0  0.02336  0.77584  0.54610  1.0000
  H   H1042     1.0  0.02448  0.53380  0.54706  1.0000
  H   H1043     1.0  0.87586  0.49950  0.37812  1.0000
  Fe  Fe116     1.0  0.94696  0.90308  0.80787  1.0000
  S   S231      1.0  0.94215  0.83272  0.79754  1.0000
  S   S232      1.0  0.96659  0.92244  0.84992  1.0000
  Fe  Fe117     1.0  0.93699  0.93042  0.74698  1.0000
  S   S233      1.0  0.93230  0.86258  0.73247  1.0000
  H   H1044     1.0  0.86176  0.96661  0.71387  1.0000
  Fe  Fe118     1.0  0.90294  0.85421  0.77041  1.0000
  S   S234      1.0  0.86073  0.81432  0.76217  1.0000
  Fe  Fe119     1.0  0.97162  0.84715  0.76073  1.0000
  H   H1045     1.0  0.01360  0.85739  0.83723  1.0000
  S   S235      1.0  0.90542  0.92348  0.78364  1.0000
  S   S236      1.0  0.97853  0.91630  0.77219  1.0000
  Fe  Fe120     1.0  0.61443  0.84517  0.74941  1.0000
  S   S237      1.0  0.60783  0.77342  0.74793  1.0000
  S   S238      1.0  0.57445  0.88572  0.73381  1.0000
  Fe  Fe121     1.0  0.68106  0.83511  0.76614  1.0000
  S   S239      1.0  0.67902  0.76326  0.76584  1.0000
  S   S240      1.0  0.72313  0.87161  0.78015  1.0000
  Fe  Fe122     1.0  0.65258  0.77066  0.72603  1.0000
  S   S241      1.0  0.66117  0.71927  0.69334  1.0000
  Fe  Fe123     1.0  0.63447  0.77106  0.78775  1.0000
  S   S242      1.0  0.62244  0.71933  0.81934  1.0000
  S   S243      1.0  0.65794  0.84245  0.72450  1.0000
  S   S244      1.0  0.63781  0.84295  0.79119  1.0000
  Fe  Fe124     1.0  0.94757  0.54690  0.96307  1.0000
  S   S245      1.0  0.93939  0.61814  0.96222  1.0000
  C   C876      1.0  0.84536  0.86864  0.68683  1.0000
  H   H1046     1.0  0.80463  0.77815  0.74377  1.0000
  C   C877      1.0  0.52635  0.72409  0.86833  1.0000
  H   H1047     1.0  0.75077  0.80005  0.74967  1.0000
  C   C878      1.0  0.55121  0.68345  0.91671  1.0000
  H   H1048     1.0  0.82092  0.57307  0.89376  1.0000
  Fe  Fe125     1.0  0.63690  0.68358  0.98046  1.0000
  S   S246      1.0  0.63635  0.61190  0.97408  1.0000
  S   S247      1.0  0.62695  0.73892  0.95090  1.0000
  H   H1049     1.0  0.77937  0.90923  0.79728  1.0000
  H   H1050     1.0  0.84436  0.84939  0.70642  1.0000
  H   H1051     1.0  0.58841  0.51471  0.98212  1.0000
  N   N58       1.0  0.59514  0.62649  0.74794  1.0000
  H   H1052     1.0  0.83329  0.88771  0.79099  1.0000
  C   C879      1.0  0.79919  0.80691  0.75540  1.0000
  C   C880      1.0  0.76863  0.81924  0.75871  1.0000
  H   H1053     1.0  0.93021  0.57472  0.75305  1.0000
  H   H1054     1.0  0.77701  0.52707  0.00170  1.0000
  S   S248      1.0  0.01359  0.81102  0.74598  1.0000
  H   H1055     1.0  0.95642  0.91954  0.68435  1.0000
  C   C881      1.0  0.55562  0.93042  0.74903  1.0000
  C   C882      1.0  0.56159  0.94391  0.77622  1.0000
  S   S249      1.0  0.90497  0.53114  0.98643  1.0000
  H   H1056     1.0  0.57885  0.92766  0.78834  1.0000
  C   C883      1.0  0.81660  0.61708  0.98424  1.0000
  C   C884      1.0  0.62534  0.72566  0.85579  1.0000
  C   C885      1.0  0.62684  0.68886  0.87271  1.0000
  C   C886      1.0  0.62790  0.69243  0.90188  1.0000
  C   C887      1.0  0.62697  0.73291  0.91437  1.0000
  C   C888      1.0  0.62541  0.76974  0.89746  1.0000
  C   C889      1.0  0.62490  0.76620  0.86827  1.0000
  H   H1057     1.0  0.62724  0.65735  0.86325  1.0000
  H   H1058     1.0  0.62901  0.66384  0.91468  1.0000
  H   H1059     1.0  0.62468  0.80118  0.90701  1.0000
  H   H1060     1.0  0.62384  0.79483  0.85552  1.0000
  Fe  Fe126     1.0  0.89796  0.60249  0.98818  1.0000
  C   C890      1.0  0.53307  0.95200  0.73357  1.0000
  C   C891      1.0  0.93866  0.98398  0.68257  1.0000
  H   H1061     1.0  0.55685  0.52270  0.82090  1.0000
  H   H1062     1.0  0.84398  0.51261  0.95786  1.0000
  H   H1063     1.0  0.80547  0.95241  0.71329  1.0000
  C   C892      1.0  0.90417  0.99606  0.89065  1.0000
  C   C893      1.0  0.94503  0.54330  0.88013  1.0000
  H   H1064     1.0  0.81124  0.90010  0.72743  1.0000
  H   H1065     1.0  0.63469  0.63647  0.72212  1.0000
  S   S250      1.0  0.93252  0.98880  0.71889  1.0000
  H   H1066     1.0  0.93229  0.57408  0.84149  1.0000
  H   H1067     1.0  0.94198  0.57196  0.89254  1.0000
  H   H1068     1.0  0.73047  0.72999  0.81716  1.0000
  C   C894      1.0  0.93974  0.54447  0.85117  1.0000
  C   C895      1.0  0.82272  0.83145  0.76696  1.0000
  C   C896      1.0  0.81542  0.86858  0.78190  1.0000
  C   C897      1.0  0.78483  0.88070  0.78544  1.0000
  C   C898      1.0  0.76128  0.85604  0.77398  1.0000
  H   H1069     1.0  0.97723  0.88435  0.95010  1.0000
  H   H1070     1.0  0.69562  0.69376  0.92007  1.0000
  H   H1071     1.0  0.99776  0.61457  0.71401  1.0000
  H   H1072     1.0  0.02459  0.77030  0.94690  1.0000
  H   H1073     1.0  0.01587  0.68802  0.81086  1.0000
  C   C899      1.0  0.94757  0.95428  0.87504  1.0000
  C   C900      1.0  0.58718  0.63375  0.77757  1.0000
  C   C901      1.0  0.78108  0.56007  0.99575  1.0000
  H   H1074     1.0  0.62846  0.67718  0.74828  1.0000
  C   C902      1.0  0.94828  0.99025  0.92036  1.0000
  C   C903      1.0  0.54623  0.66189  0.84515  1.0000
  C   C904      1.0  0.54722  0.77360  0.79450  1.0000
  N   N59       1.0  0.99498  0.90840  0.98891  1.0000
  C   C905      1.0  0.55953  0.62066  0.94568  1.0000
  H   H1075     1.0  0.58488  0.66870  0.78196  1.0000
  H   H1076     1.0  0.60026  0.57288  0.72009  1.0000
  C   C906      1.0  0.52596  0.53409  0.78681  1.0000
  H   H1077     1.0  0.94469  0.58589  0.71886  1.0000
  H   H1078     1.0  0.54957  0.98817  0.80900  1.0000
  H   H1079     1.0  0.54723  0.56011  0.92776  1.0000
  N   N60       1.0  0.84510  0.52098  0.91338  1.0000
  N   N61       1.0  0.97214  0.61085  0.75220  1.0000
  H   H1080     1.0  0.87491  0.56613  0.93388  1.0000
  C   C907      1.0  0.98828  0.87248  0.96953  1.0000
  H   H1081     1.0  0.91717  0.76619  0.74719  1.0000
  S   S251      1.0  0.93727  0.51019  0.79846  1.0000
  H   H1082     1.0  0.91812  0.63626  0.77560  1.0000
  C   C908      1.0  0.76188  0.63069  0.98428  1.0000
  H   H1083     1.0  0.60481  0.62074  0.79193  1.0000
  H   H1084     1.0  0.61216  0.56222  0.75530  1.0000
  H   H1085     1.0  0.64305  0.62568  0.75781  1.0000
  C   C909      1.0  0.00114  0.60781  0.73656  1.0000
  H   H1086     1.0  0.01050  0.99799  0.86729  1.0000
  C   C910      1.0  0.81111  0.57480  0.99272  1.0000
  H   H1087     1.0  0.78357  0.74968  0.86720  1.0000
  C   C911      1.0  0.79183  0.64493  0.98013  1.0000
  H   H1088     1.0  0.88700  0.92567  0.70180  1.0000
  H   H1089     1.0  0.56588  0.95845  0.99974  1.0000
  C   C912      1.0  0.62661  0.64219  0.74378  1.0000
  H   H1090     1.0  0.56536  0.72332  0.67772  1.0000
  H   H1091     1.0  0.82354  0.57730  0.93096  1.0000
  H   H1092     1.0  0.89381  0.52117  0.91893  1.0000
  C   C913      1.0  0.91503  0.70151  0.76271  1.0000
  C   C914      1.0  0.54490  0.97819  0.78787  1.0000
  H   H1093     1.0  0.60588  0.87905  0.99752  1.0000
  H   H1094     1.0  0.68636  0.74247  0.88174  1.0000
  H   H1095     1.0  0.74780  0.67164  0.93244  1.0000
  C   C915      1.0  0.96542  0.92714  0.99765  1.0000
  H   H1096     1.0  0.95801  0.59953  0.79473  1.0000
  C   C916      1.0  0.96238  0.96416  0.90017  1.0000
  H   H1097     1.0  0.79144  0.70026  0.90624  1.0000
  C   C917      1.0  0.97068  0.68899  0.73610  1.0000
  C   C918      1.0  0.95135  0.57798  0.74064  1.0000
  H   H1098     1.0  0.52976  0.59118  0.88376  1.0000
  H   H1099     1.0  0.55378  0.71783  0.91487  1.0000
  C   C919      1.0  0.58053  0.67944  0.70958  1.0000
  H   H1100     1.0  0.96186  0.54538  0.74067  1.0000
  H   H1101     1.0  0.86375  0.91532  0.73130  1.0000
  H   H1102     1.0  0.01555  0.85189  0.80041  1.0000
  H   H1103     1.0  0.99460  0.75630  0.79242  1.0000
  C   C920      1.0  0.91841  0.97043  0.87034  1.0000
  H   H1104     1.0  0.73677  0.78215  0.80245  1.0000
  H   H1105     1.0  0.63086  0.83961  0.98327  1.0000
  C   C921      1.0  0.59510  0.57963  0.74236  1.0000
  H   H1106     1.0  0.56998  0.67303  0.84768  1.0000
  H   H1107     1.0  0.57120  0.68495  0.95766  1.0000
  C   C922      1.0  0.01464  0.74239  0.78303  1.0000
  C   C923      1.0  0.92833  0.73514  0.74810  1.0000
  H   H1108     1.0  0.99682  0.70751  0.96615  1.0000
  H   H1109     1.0  0.57991  0.79082  0.82560  1.0000
  H   H1110     1.0  0.55697  0.74203  0.79118  1.0000
  H   H1111     1.0  0.00916  0.85422  0.96397  1.0000
  C   C924      1.0  0.95603  0.72889  0.73482  1.0000
  H   H1112     1.0  0.76637  0.75649  0.82146  1.0000
  H   H1113     1.0  0.53762  0.67440  0.82489  1.0000
  C   C925      1.0  0.54810  0.59463  0.92466  1.0000
  H   H1114     1.0  0.95426  0.94443  0.98005  1.0000
  C   C926      1.0  0.57252  0.64803  0.72979  1.0000
  C   C927      1.0  0.95761  0.65378  0.75064  1.0000
  H   H1115     1.0  0.60357  0.68952  0.70626  1.0000
  H   H1116     1.0  0.74252  0.84629  0.83532  1.0000
  S   S252      1.0  0.68067  0.68354  0.00432  1.0000
  C   C928      1.0  0.97876  0.60006  0.78166  1.0000
  H   H1117     1.0  0.94944  0.90209  0.00519  1.0000
  Fe  Fe127     1.0  0.67841  0.61186  0.00119  1.0000
  H   H1118     1.0  0.99469  0.62356  0.79098  1.0000
  C   C929      1.0  0.92934  0.66137  0.76399  1.0000
  H   H1119     1.0  0.79584  0.67779  0.97380  1.0000
  H   H1120     1.0  0.73977  0.83678  0.87213  1.0000
  H   H1121     1.0  0.57287  0.56462  0.74703  1.0000
  C   C930      1.0  0.87452  0.54387  0.91570  1.0000
  C   C931      1.0  0.01446  0.94206  0.97652  1.0000
  H   H1122     1.0  0.82996  0.55340  0.99674  1.0000
  H   H1123     1.0  0.54957  0.73786  0.86975  1.0000
  H   H1124     1.0  0.54694  0.62631  0.84332  1.0000
  C   C932      1.0  0.52820  0.68838  0.69558  1.0000
  H   H1125     1.0  0.74306  0.65256  0.98133  1.0000
  N   N62       1.0  0.72979  0.78166  0.84682  1.0000
  C   C933      1.0  0.69755  0.79351  0.84188  1.0000
  C   C934      1.0  0.74667  0.82204  0.85201  1.0000
  C   C935      1.0  0.74142  0.76162  0.82095  1.0000
  C   C936      1.0  0.73419  0.75163  0.87045  1.0000
  C   C937      1.0  0.70967  0.73453  0.88611  1.0000
  C   C938      1.0  0.76384  0.73825  0.87825  1.0000
  C   C939      1.0  0.71468  0.70615  0.90826  1.0000
  C   C940      1.0  0.76860  0.70983  0.90044  1.0000
  C   C941      1.0  0.74406  0.69376  0.91535  1.0000
  H   H1126     1.0  0.69517  0.81684  0.82438  1.0000
  H   H1127     1.0  0.68374  0.76500  0.83609  1.0000
  H   H1128     1.0  0.68731  0.80919  0.86046  1.0000
  H   H1129     1.0  0.77162  0.81705  0.85253  1.0000
  S   S253      1.0  0.71882  0.56765  0.99363  1.0000
  C   C942      1.0  0.94381  0.50748  0.83478  1.0000
  C   C943      1.0  0.82078  0.55418  0.91345  1.0000
  H   H1130     1.0  0.89349  0.70679  0.77308  1.0000
  H   H1131     1.0  0.79133  0.90520  0.69541  1.0000
  H   H1132     1.0  0.00442  0.55682  0.86542  1.0000
  H   H1133     1.0  0.79780  0.54036  0.91624  1.0000
  H   H1134     1.0  0.90675  0.96300  0.85114  1.0000
  H   H1135     1.0  0.53342  0.61403  0.74679  1.0000
  H   H1136     1.0  0.01837  0.63045  0.74493  1.0000
  C   C944      1.0  0.86401  0.93134  0.71053  1.0000
  C   C945      1.0  0.56133  0.66489  0.94162  1.0000
  H   H1137     1.0  0.56557  0.61801  0.78350  1.0000
  C   C946      1.0  0.81061  0.91852  0.70757  1.0000
  H   H1138     1.0  0.01144  0.57520  0.73821  1.0000
  S   S254      1.0  0.85361  0.63545  0.97613  1.0000
  C   C947      1.0  0.55862  0.69926  0.69285  1.0000
  C   C948      1.0  0.56025  0.80109  0.81388  1.0000
  H   H1139     1.0  0.87906  0.56379  0.89692  1.0000
  C   C949      1.0  0.54127  0.63769  0.73199  1.0000
  H   H1140     1.0  0.98495  0.95182  0.90397  1.0000
  C   C950      1.0  0.75631  0.58793  0.99152  1.0000
  H   H1141     1.0  0.96650  0.75539  0.72377  1.0000
  C   C951      1.0  0.54963  0.51220  0.80050  1.0000
  N   N63       1.0  0.52702  0.67632  0.86867  1.0000
  H   H1142     1.0  0.86819  0.86261  0.67783  1.0000
  C   C952      1.0  0.53807  0.61278  0.89961  1.0000
  C   C953      1.0  0.01408  0.72316  0.97845  1.0000
  H   H1143     1.0  0.56744  0.60637  0.96499  1.0000
  H   H1144     1.0  0.99241  0.68694  0.72584  1.0000
  C   C954      1.0  0.53880  0.65788  0.89503  1.0000
  H   H1145     1.0  0.98911  0.56758  0.78369  1.0000
  N   N64       1.0  0.83969  0.91494  0.69211  1.0000
  H   H1146     1.0  0.59162  0.78330  0.99424  1.0000
  H   H1147     1.0  0.97279  0.84840  0.97905  1.0000
  C   C955      1.0  0.62402  0.85565  0.00306  1.0000
  C   C956      1.0  0.95498  0.50524  0.89276  1.0000
  C   C957      1.0  0.02080  0.70780  0.00514  1.0000
  S   S255      1.0  0.97564  0.54936  0.00210  1.0000
  C   C958      1.0  0.54837  0.84212  0.81773  1.0000
  H   H1148     1.0  0.55895  0.86374  0.83246  1.0000
  H   H1149     1.0  0.96005  0.99808  0.93944  1.0000
  C   C959      1.0  0.01999  0.98086  0.99112  1.0000
  H   H1150     1.0  0.64355  0.77505  0.00707  1.0000
  H   H1151     1.0  0.52837  0.94193  0.71246  1.0000
  Fe  Fe128     1.0  0.96427  0.61994  0.00322  1.0000
  C   C960      1.0  0.56889  0.50082  0.99230  1.0000
  H   H1152     1.0  0.56793  0.82445  0.00831  1.0000
  S   S256      1.0  0.96378  0.50225  0.92863  1.0000
