data_image0
_chemical_formula_structural       CNSHFeS2HSNFeSFeS3CHSHC6H10C8H4C3H2SCH5CHCSCHFeHC2HC2HC2HCHCFeCHCFeH2C3H5CHC2HCH2CHSH4C3HNH2SHNH2CHC2H2CH4CHC2FeC3FeC3H2S2H3SC3HCH2S2Fe2SCH2C2HC7H3C2HC2H2C2HSH3C3H2SHCFeH2C2H2CH3CH2SH2C3H2CNHC2NHC2HCH6CH2C2HCH3NC3H2SCH3C2HCHCHSHFeH2SFeS2H2FeSC3FeHSC4SCH3CSHC2NHSH2CH2CHSC2FeH4FeS2CHSCHS2C2HCS2NCH2CFeC3HFe2C2HCHCH2C3HCH4CHCHCH3C2HNCH6FeCS2HCHFeHCSHC2HCH2SH3CH2C2HCHCSFeS2HCHCHCHCFeHNCH3C2SCH3SHC6H2CH2CSH2CH2NHCHC2HCH2SHCH3C2HCH2C2H2SCFeHSC2H6C2HCHCHSFeS2FeS2FeS3HSCS2C6H5CH2C6H5CSCH3C4HCH2CHC2H5C2HCHCH2C4HC2NHNHCFeH4C2HCFeHC5H2CH2CFeCHCHCH3CHCHNC2SNH5C3HNHCH3CH3CH2CHSCH6SH2FeH3CH5FeS2FeS2FeSFeS3CHSH3C6H4C4H4C5H3CSHCH2C3NHFeH3CHC3H4C2H2CHSHNC4H6C2H3C4H2CH2C2H2CHC2H2CSH2SFeSH6CHSHCSCFeSHCFeHFeSCSC7H3FeCSH3CH2C2HCHC2HCH2FeHC2SHC2H3NC9H15CFeHS2C2HS2HCFeC4HCHCFeSCFeSC2NC3SHCNH4CH2C2HC2HCH2CH5SHSHC3HSH2NCH11C2H3CHCH2CH2NHCH3CHCFeS3H2CSH3FeH2FeS2CFeSHCSFeSFeHCHSC6H3CH2C2H4C2H4FeHC6H4CH4CHSHCNCH4FeC2H2CHFeHC3NHCHC3HC2HCH4C2FeCSHNCFeC2H2SHCSHCHC2HFeH3C2HC4H2C2NCHS2H3C2H2NS2CFeS2FeS2FeSFeS3C4SC6H4C2HC3H4C4H4CHC2SCH2CH3FeC2HC3HCNHSC2HCH2C4HCH5C2H3CH5C2H3CHNC3HCH4C2HC2HCNH3C2H
_chemical_formula_sum              "C480 N32 S128 H576 Fe64"
_cell_length_a       29.8987
_cell_length_b       29.4257
_cell_length_c       65.211
_cell_angle_alpha    92.4299
_cell_angle_beta     87.6188
_cell_angle_gamma    86.6056

_space_group_name_H-M_alt    "P 1"
_space_group_IT_number       1

loop_
  _space_group_symop_operation_xyz
  'x, y, z'

loop_
  _atom_site_type_symbol
  _atom_site_label
  _atom_site_symmetry_multiplicity
  _atom_site_fract_x
  _atom_site_fract_y
  _atom_site_fract_z
  _atom_site_occupancy
  C   C1        1.0  0.22008  0.02725  0.08584  1.0000
  N   N1        1.0  0.27163  0.17229  0.09860  1.0000
  S   S1        1.0  0.33104  0.41665  0.05689  1.0000
  H   H1        1.0  0.13045  0.10196  0.09874  1.0000
  Fe  Fe1       1.0  0.10265  0.15495  0.14111  1.0000
  S   S2        1.0  0.15012  0.21081  0.14103  1.0000
  S   S3        1.0  0.13447  0.08367  0.14203  1.0000
  H   H2        1.0  0.05090  0.35758  0.23892  1.0000
  S   S4        1.0  0.06110  0.28226  0.14391  1.0000
  N   N2        1.0  0.35196  0.33526  0.12712  1.0000
  Fe  Fe2       1.0  0.10352  0.24308  0.11915  1.0000
  S   S5        1.0  0.13730  0.27023  0.09093  1.0000
  Fe  Fe3       1.0  0.10434  0.24467  0.16574  1.0000
  S   S6        1.0  0.13279  0.28104  0.19293  1.0000
  S   S7        1.0  0.05831  0.18429  0.11733  1.0000
  S   S8        1.0  0.06014  0.18617  0.16790  1.0000
  C   C2        1.0  0.07031  0.26365  0.26665  1.0000
  H   H3        1.0  0.26340  0.35994  0.13665  1.0000
  S   S9        1.0  0.22052  0.15330  0.25795  1.0000
  H   H4        1.0  0.40318  0.23478  0.07436  1.0000
  C   C3        1.0  0.15878  0.24513  0.21037  1.0000
  C   C4        1.0  0.17705  0.26442  0.22792  1.0000
  C   C5        1.0  0.19566  0.23648  0.24269  1.0000
  C   C6        1.0  0.19713  0.18905  0.23971  1.0000
  C   C7        1.0  0.18021  0.16978  0.22181  1.0000
  C   C8        1.0  0.16067  0.19774  0.20724  1.0000
  H   H5        1.0  0.17683  0.30108  0.23005  1.0000
  H   H6        1.0  0.20974  0.25165  0.25612  1.0000
  H   H7        1.0  0.18163  0.13312  0.21933  1.0000
  H   H8        1.0  0.14704  0.18256  0.19364  1.0000
  H   H9        1.0  0.26472  0.15757  0.13070  1.0000
  H   H10       1.0  0.32191  0.22872  0.07556  1.0000
  H   H11       1.0  0.41066  0.30930  0.14211  1.0000
  H   H12       1.0  0.26663  0.10781  0.11314  1.0000
  H   H13       1.0  0.21207  0.02147  0.13791  1.0000
  H   H14       1.0  0.31764  0.20422  0.26855  1.0000
  C   C9        1.0  0.29754  0.24161  0.15679  1.0000
  C   C10       1.0  0.18414  0.05918  0.08349  1.0000
  C   C11       1.0  0.21746  0.39674  0.10114  1.0000
  C   C12       1.0  0.18735  0.38366  0.11657  1.0000
  C   C13       1.0  0.16316  0.34454  0.11369  1.0000
  C   C14       1.0  0.16798  0.31891  0.09510  1.0000
  C   C15       1.0  0.19777  0.33215  0.07957  1.0000
  C   C16       1.0  0.22270  0.37076  0.08262  1.0000
  H   H15       1.0  0.18302  0.40363  0.13091  1.0000
  H   H16       1.0  0.14021  0.33470  0.12573  1.0000
  H   H17       1.0  0.20138  0.31262  0.06510  1.0000
  H   H18       1.0  0.24540  0.38075  0.07055  1.0000
  C   C17       1.0  0.16804  0.06364  0.12034  1.0000
  C   C18       1.0  0.15843  0.07771  0.10071  1.0000
  C   C19       1.0  0.41555  0.18240  0.09573  1.0000
  H   H19       1.0  0.43031  0.03044  0.08108  1.0000
  H   H20       1.0  0.27504  0.11582  0.07632  1.0000
  S   S10       1.0  0.24941  0.44435  0.10602  1.0000
  C   C20       1.0  0.25481  0.14434  0.11542  1.0000
  H   H21       1.0  0.21750  0.14439  0.11614  1.0000
  H   H22       1.0  0.22195  0.14811  0.07844  1.0000
  H   H23       1.0  0.26901  0.17090  0.06551  1.0000
  H   H24       1.0  0.48057  0.45200  0.98407  1.0000
  H   H25       1.0  0.33775  0.12132  0.11904  1.0000
  C   C21       1.0  0.25895  0.15092  0.07886  1.0000
  H   H26       1.0  0.35867  0.14361  0.24678  1.0000
  C   C22       1.0  0.25411  0.26097  0.16052  1.0000
  S   S11       1.0  0.32456  0.49220  0.00767  1.0000
  C   C23       1.0  0.34154  0.20725  0.08529  1.0000
  H   H27       1.0  0.25928  0.23734  0.11504  1.0000
  Fe  Fe4       1.0  0.30503  0.46201  0.08365  1.0000
  H   H28       1.0  0.04698  0.38244  0.29538  1.0000
  C   C24       1.0  0.32091  0.17596  0.09815  1.0000
  C   C25       1.0  0.45971  0.03747  0.08937  1.0000
  H   H29       1.0  0.47978  0.42000  0.09844  1.0000
  C   C26       1.0  0.39836  0.31389  0.12641  1.0000
  C   C27       1.0  0.38810  0.21065  0.08431  1.0000
  H   H30       1.0  0.46226  0.29962  0.00281  1.0000
  C   C28       1.0  0.24791  0.21814  0.10138  1.0000
  C   C29       1.0  0.36884  0.36980  0.00023  1.0000
  H   H31       1.0  0.25189  0.23934  0.08780  1.0000
  C   C30       1.0  0.36532  0.36981  0.97890  1.0000
  H   H32       1.0  0.21100  0.21584  0.10356  1.0000
  C   C31       1.0  0.34999  0.14730  0.10943  1.0000
  Fe  Fe5       1.0  0.39870  0.42635  0.06945  1.0000
  C   C32       1.0  0.27410  0.32701  0.14207  1.0000
  H   H33       1.0  0.41825  0.12796  0.11661  1.0000
  C   C33       1.0  0.39654  0.15072  0.10819  1.0000
  Fe  Fe6       1.0  0.21734  0.18170  0.29059  1.0000
  H   H34       1.0  0.13360  0.32179  0.26271  1.0000
  H   H35       1.0  0.44045  0.25936  0.28503  1.0000
  C   C34       1.0  0.10223  0.33596  0.27103  1.0000
  C   C35       1.0  0.35337  0.38157  0.13703  1.0000
  C   C36       1.0  0.44799  0.46590  0.97997  1.0000
  H   H36       1.0  0.50000  0.23242  0.23361  1.0000
  H   H37       1.0  0.40094  0.28051  0.11765  1.0000
  H   H38       1.0  0.34478  0.39032  0.01016  1.0000
  H   H39       1.0  0.36251  0.35971  0.09670  1.0000
  H   H40       1.0  0.33677  0.30618  0.09757  1.0000
  C   C37       1.0  0.48343  0.07577  0.08480  1.0000
  H   H41       1.0  0.20831  0.31818  0.15579  1.0000
  C   C38       1.0  0.50275  0.30679  0.08739  1.0000
  C   C39       1.0  0.33848  0.33995  0.10567  1.0000
  H   H42       1.0  0.42250  0.33534  0.11843  1.0000
  C   C40       1.0  0.24231  0.30338  0.15299  1.0000
  H   H43       1.0  0.17586  0.06936  0.06828  1.0000
  H   H44       1.0  0.30513  0.35836  0.10487  1.0000
  C   C41       1.0  0.49229  0.08106  0.01526  1.0000
  H   H45       1.0  0.50621  0.12237  0.25918  1.0000
  S   S12       1.0  0.43948  0.35921  0.06886  1.0000
  H   H46       1.0  0.38100  0.40073  0.13025  1.0000
  H   H47       1.0  0.44067  0.13960  0.24345  1.0000
  H   H48       1.0  0.32215  0.40324  0.13503  1.0000
  H   H49       1.0  0.36249  0.24784  0.14339  1.0000
  C   C42       1.0  0.31888  0.30885  0.13835  1.0000
  C   C43       1.0  0.48231  0.35065  0.08624  1.0000
  C   C44       1.0  0.32956  0.26484  0.14574  1.0000
  H   H50       1.0  0.35849  0.37980  0.15379  1.0000
  N   N3        1.0  0.06219  0.31325  0.26390  1.0000
  H   H51       1.0  0.34308  0.03396  0.99116  1.0000
  H   H52       1.0  0.45178  0.18433  0.09463  1.0000
  S   S13       1.0  0.41137  0.48731  0.05098  1.0000
  H   H53       1.0  0.07133  0.25628  0.28324  1.0000
  N   N4        1.0  0.49901  0.19617  0.26159  1.0000
  H   H54       1.0  0.10289  0.25014  0.25915  1.0000
  H   H55       1.0  0.04428  0.24320  0.25975  1.0000
  C   C45       1.0  0.37729  0.16878  0.25489  1.0000
  H   H56       1.0  0.47991  0.11117  0.00776  1.0000
  C   C46       1.0  0.42419  0.16682  0.25313  1.0000
  C   C47       1.0  0.40387  0.34489  0.00878  1.0000
  H   H57       1.0  0.22941  0.24327  0.16931  1.0000
  H   H58       1.0  0.40697  0.34591  0.02533  1.0000
  C   C48       1.0  0.44934  0.19919  0.26371  1.0000
  H   H59       1.0  0.10720  0.33089  0.28763  1.0000
  H   H60       1.0  0.09081  0.31057  0.23285  1.0000
  H   H61       1.0  0.35930  0.26170  0.28738  1.0000
  H   H62       1.0  0.45638  0.03527  0.99641  1.0000
  C   C49       1.0  0.37757  0.23542  0.27764  1.0000
  H   H63       1.0  0.30650  0.20856  0.16272  1.0000
  C   C50       1.0  0.42451  0.23366  0.27611  1.0000
  C   C51       1.0  0.43508  0.31900  0.99604  1.0000
  Fe  Fe7       1.0  0.34151  0.48100  0.04060  1.0000
  C   C52       1.0  0.47898  0.03832  0.00893  1.0000
  C   C53       1.0  0.41201  0.46869  0.99457  1.0000
  C   C54       1.0  0.35403  0.20300  0.26714  1.0000
  Fe  Fe8       1.0  0.01914  0.22093  0.14416  1.0000
  C   C55       1.0  0.05889  0.32096  0.24165  1.0000
  C   C56       1.0  0.36975  0.48653  0.98942  1.0000
  C   C57       1.0  0.20432  0.03214  0.12272  1.0000
  H   H64       1.0  0.41698  0.45638  0.00969  1.0000
  H   H65       1.0  0.47231  0.09753  0.07281  1.0000
  S   S14       1.0  0.22262  0.25532  0.29987  1.0000
  S   S15       1.0  0.37237  0.46846  0.09727  1.0000
  H   H66       1.0  0.49251  0.27919  0.07750  1.0000
  H   H67       1.0  0.09974  0.37313  0.26841  1.0000
  H   H68       1.0  0.03281  0.30101  0.23444  1.0000
  S   S16       1.0  0.15617  0.17367  0.31072  1.0000
  C   C58       1.0  0.49555  0.38609  0.09918  1.0000
  C   C59       1.0  0.23058  0.01434  0.10555  1.0000
  C   C60       1.0  0.01978  0.33028  0.27499  1.0000
  H   H69       1.0  0.50257  0.17146  0.22970  1.0000
  C   C61       1.0  0.01756  0.36633  0.29034  1.0000
  H   H70       1.0  0.50500  0.14687  0.28489  1.0000
  H   H71       1.0  0.10474  0.47061  0.63840  1.0000
  S   S17       1.0  0.20855  0.22509  0.34752  1.0000
  S   S18       1.0  0.09597  0.28243  0.32440  1.0000
  Fe  Fe9       1.0  0.20356  0.15363  0.33479  1.0000
  Fe  Fe10      1.0  0.26660  0.22761  0.32436  1.0000
  S   S19       1.0  0.33054  0.26106  0.33275  1.0000
  C   C62       1.0  0.43641  0.16716  0.32325  1.0000
  H   H72       1.0  0.27566  0.13366  0.40073  1.0000
  H   H73       1.0  0.08276  0.37676  0.47064  1.0000
  C   C63       1.0  0.47352  0.19301  0.32691  1.0000
  C   C64       1.0  0.13901  0.07328  0.35261  1.0000
  H   H74       1.0  0.36807  0.25114  0.38453  1.0000
  C   C65       1.0  0.06270  0.41205  0.36464  1.0000
  C   C66       1.0  0.04058  0.35151  0.34153  1.0000
  C   C67       1.0  0.46494  0.18683  0.37725  1.0000
  C   C68       1.0  0.08442  0.33177  0.34036  1.0000
  C   C69       1.0  0.11754  0.35193  0.35153  1.0000
  C   C70       1.0  0.10662  0.39207  0.36370  1.0000
  C   C71       1.0  0.39261  0.18778  0.32412  1.0000
  H   H75       1.0  0.49481  0.26031  0.33393  1.0000
  H   H76       1.0  0.15154  0.33695  0.35063  1.0000
  H   H77       1.0  0.13230  0.40791  0.37221  1.0000
  C   C72       1.0  0.38535  0.23436  0.32929  1.0000
  C   C73       1.0  0.42260  0.26044  0.33242  1.0000
  H   H78       1.0  0.32437  0.15094  0.41377  1.0000
  C   C74       1.0  0.43528  0.22486  0.38094  1.0000
  C   C75       1.0  0.37114  0.17631  0.38079  1.0000
  H   H79       1.0  0.05156  0.02479  0.37701  1.0000
  H   H80       1.0  0.27160  0.14409  0.36306  1.0000
  C   C76       1.0  0.29432  0.21261  0.38687  1.0000
  C   C77       1.0  0.31237  0.13808  0.39880  1.0000
  H   H81       1.0  0.02870  0.19569  0.35271  1.0000
  S   S20       1.0  0.18820  0.10094  0.35789  1.0000
  H   H82       1.0  0.01494  0.33600  0.33294  1.0000
  H   H83       1.0  0.05767  0.35476  0.50476  1.0000
  H   H84       1.0  0.08138  0.35744  0.41135  1.0000
  C   C78       1.0  0.08088  0.15573  0.56932  1.0000
  C   C79       1.0  0.44854  0.14367  0.37520  1.0000
  C   C80       1.0  0.10897  0.28629  0.61627  1.0000
  H   H85       1.0  0.12274  0.06099  0.38433  1.0000
  H   H86       1.0  0.39137  0.10419  0.37488  1.0000
  S   S21       1.0  0.04581  0.42233  0.61261  1.0000
  H   H87       1.0  0.09941  0.12104  0.61726  1.0000
  C   C81       1.0  0.08346  0.20270  0.57273  1.0000
  Fe  Fe11      1.0  0.16455  0.24543  0.32202  1.0000
  H   H88       1.0  0.02882  0.45378  0.44484  1.0000
  H   H89       1.0  0.11036  0.28817  0.56433  1.0000
  C   C82       1.0  0.07238  0.03633  0.36453  1.0000
  C   C83       1.0  0.38903  0.21999  0.38256  1.0000
  H   H90       1.0  0.01326  0.10340  0.31528  1.0000
  H   H91       1.0  0.02376  0.27815  0.60552  1.0000
  C   C84       1.0  0.46655  0.24001  0.33102  1.0000
  H   H92       1.0  0.04587  0.32972  0.59670  1.0000
  H   H93       1.0  0.30286  0.22949  0.40166  1.0000
  H   H94       1.0  0.06288  0.44023  0.42190  1.0000
  C   C85       1.0  0.12318  0.29150  0.58005  1.0000
  H   H95       1.0  0.25792  0.20635  0.38805  1.0000
  H   H96       1.0  0.03415  0.28496  0.57862  1.0000
  S   S22       1.0  0.04912  0.46207  0.37998  1.0000
  H   H97       1.0  0.41740  0.29656  0.33626  1.0000
  H   H98       1.0  0.12600  0.32881  0.58309  1.0000
  C   C86       1.0  0.08824  0.48114  0.58751  1.0000
  C   C87       1.0  0.09584  0.14401  0.60478  1.0000
  C   C88       1.0  0.01867  0.36883  0.45640  1.0000
  H   H99       1.0  0.14332  0.27142  0.61874  1.0000
  H   H100      1.0  0.08427  0.42779  0.44618  1.0000
  C   C89       1.0  0.09309  0.22180  0.59231  1.0000
  N   N5        1.0  0.09346  0.27187  0.59575  1.0000
  H   H101      1.0  0.31483  0.17279  0.34994  1.0000
  C   C90       1.0  0.08604  0.04675  0.32826  1.0000
  C   C91       1.0  0.30813  0.14968  0.36258  1.0000
  N   N6        1.0  0.32237  0.16967  0.38230  1.0000
  H   H102      1.0  0.32831  0.10335  0.39544  1.0000
  C   C92       1.0  0.06956  0.34873  0.42710  1.0000
  C   C93       1.0  0.40240  0.13829  0.37700  1.0000
  H   H103      1.0  0.07594  0.22399  0.56005  1.0000
  C   C94       1.0  0.12578  0.06773  0.33240  1.0000
  H   H104      1.0  0.09953  0.34696  0.43662  1.0000
  H   H105      1.0  0.08250  0.09030  0.58283  1.0000
  H   H106      1.0  0.47179  0.11447  0.37152  1.0000
  H   H107      1.0  0.29822  0.23701  0.37437  1.0000
  H   H108      1.0  0.15756  0.27466  0.57973  1.0000
  H   H109      1.0  0.05312  0.14603  0.33904  1.0000
  C   C95       1.0  0.04735  0.29205  0.59405  1.0000
  H   H110      1.0  0.44151  0.13086  0.31990  1.0000
  H   H111      1.0  0.44819  0.25854  0.38168  1.0000
  C   C96       1.0  0.02977  0.39163  0.35349  1.0000
  C   C97       1.0  0.11260  0.05687  0.36866  1.0000
  H   H112      1.0  0.01066  0.39638  0.40570  1.0000
  C   C98       1.0  0.05339  0.42788  0.43732  1.0000
  H   H113      1.0  0.32578  0.11617  0.35825  1.0000
  H   H114      1.0  0.08570  0.27665  0.62891  1.0000
  H   H115      1.0  0.07246  0.14207  0.55435  1.0000
  N   N7        1.0  0.03426  0.38246  0.43579  1.0000
  C   C99       1.0  0.09927  0.19092  0.60831  1.0000
  C   C100      1.0  0.08658  0.12649  0.58535  1.0000
  C   C101      1.0  0.08314  0.46508  0.60730  1.0000
  H   H116      1.0  0.11004  0.32414  0.61805  1.0000
  H   H117      1.0  0.06885  0.46769  0.57525  1.0000
  S   S23       1.0  0.01843  0.37726  0.55573  1.0000
  C   C102      1.0  0.10850  0.48287  0.62305  1.0000
  H   H118      1.0  0.05677  0.31396  0.42597  1.0000
  H   H119      1.0  0.36461  0.16742  0.32099  1.0000
  H   H120      1.0  0.14659  0.07892  0.31987  1.0000
  C   C103      1.0  0.03470  0.35453  0.49233  1.0000
  C   C104      1.0  0.04853  0.36751  0.47278  1.0000
  H   H121      1.0  0.10586  0.20210  0.62380  1.0000
  C   C105      1.0  0.02845  0.17567  0.33785  1.0000
  H   H122      1.0  0.04197  0.19656  0.32542  1.0000
  C   C106      1.0  0.05897  0.03153  0.34429  1.0000
  H   H123      1.0  0.50062  0.19098  0.37508  1.0000
  S   S24       1.0  0.26481  0.15432  0.31358  1.0000
  H   H124      1.0  0.07627  0.04241  0.31254  1.0000
  Fe  Fe12      1.0  0.46671  0.46944  0.90930  1.0000
  H   H125      1.0  0.32420  0.36501  0.94108  1.0000
  H   H126      1.0  0.38121  0.29438  0.91834  1.0000
  S   S25       1.0  0.44045  0.45381  0.85154  1.0000
  Fe  Fe13      1.0  0.42874  0.40646  0.87748  1.0000
  S   S26       1.0  0.39164  0.34125  0.87696  1.0000
  S   S27       1.0  0.39688  0.46209  0.89916  1.0000
  H   H127      1.0  0.48626  0.30920  0.87322  1.0000
  H   H128      1.0  0.35448  0.28426  0.94278  1.0000
  Fe  Fe14      1.0  0.40562  0.03220  0.91807  1.0000
  S   S28       1.0  0.47756  0.04622  0.91257  1.0000
  C   C107      1.0  0.43156  0.31822  0.97469  1.0000
  C   C108      1.0  0.43703  0.35593  0.93306  1.0000
  C   C109      1.0  0.44173  0.48020  0.96004  1.0000
  Fe  Fe15      1.0  0.45427  0.07868  0.88396  1.0000
  H   H129      1.0  0.41358  0.27106  0.93814  1.0000
  S   S29       1.0  0.38119  0.06885  0.89072  1.0000
  C   C110      1.0  0.41945  0.28635  0.87680  1.0000
  C   C111      1.0  0.39387  0.24808  0.87884  1.0000
  C   C112      1.0  0.41474  0.20388  0.87890  1.0000
  C   C113      1.0  0.46143  0.19753  0.87659  1.0000
  S   S30       1.0  0.48909  0.14246  0.87547  1.0000
  C   C114      1.0  0.46619  0.28008  0.87490  1.0000
  H   H130      1.0  0.35768  0.25259  0.88024  1.0000
  H   H131      1.0  0.39465  0.17470  0.88029  1.0000
  H   H132      1.0  0.26227  0.03939  0.91988  1.0000
  C   C115      1.0  0.35795  0.37438  0.93552  1.0000
  S   S31       1.0  0.49768  0.41109  0.88940  1.0000
  H   H133      1.0  0.46558  0.33128  0.93559  1.0000
  C   C116      1.0  0.38551  0.29614  0.93525  1.0000
  C   C117      1.0  0.36344  0.50065  0.96943  1.0000
  N   N8        1.0  0.39412  0.34295  0.94276  1.0000
  H   H134      1.0  0.35738  0.37337  0.91841  1.0000
  S   S32       1.0  0.48723  0.47611  0.94198  1.0000
  H   H135      1.0  0.19484  0.01405  0.96832  1.0000
  H   H136      1.0  0.44592  0.38999  0.93911  1.0000
  C   C118      1.0  0.48702  0.23582  0.87463  1.0000
  H   H137      1.0  0.45630  0.29724  0.96548  1.0000
  H   H138      1.0  0.43513  0.35743  0.91607  1.0000
  C   C119      1.0  0.39690  0.34414  0.96542  1.0000
  H   H139      1.0  0.36279  0.41036  0.94053  1.0000
  S   S33       1.0  0.37246  0.04597  0.94941  1.0000
  C   C120      1.0  0.39935  0.49747  0.95476  1.0000
  C   C121      1.0  0.25504  0.03011  0.93602  1.0000
  Fe  Fe16      1.0  0.50699  0.46318  0.86556  1.0000
  H   H140      1.0  0.22188  0.04723  0.94067  1.0000
  H   H141      1.0  0.39444  0.50923  0.93950  1.0000
  H   H142      1.0  0.28042  0.04589  0.94562  1.0000
  H   H143      1.0  0.33793  0.39095  0.97346  1.0000
  Fe  Fe17      1.0  0.41454  0.50954  0.87440  1.0000
  S   S34       1.0  0.46536  0.01329  0.86456  1.0000
  S   S35       1.0  0.31416  0.88836  0.04786  1.0000
  C   C122      1.0  0.44210  0.61752  0.03395  1.0000
  H   H144      1.0  0.36116  0.97343  0.01527  1.0000
  S   S36       1.0  0.32830  0.91837  0.09617  1.0000
  C   C123      1.0  0.23001  0.87147  0.12012  1.0000
  H   H145      1.0  0.27466  0.69863  0.08237  1.0000
  S   S37       1.0  0.41111  0.86456  0.06835  1.0000
  S   S38       1.0  0.40971  0.59526  0.08617  1.0000
  C   C124      1.0  0.40897  0.69002  0.99575  1.0000
  C   C125      1.0  0.38102  0.73213  0.08579  1.0000
  H   H146      1.0  0.37058  0.68976  0.04578  1.0000
  C   C126      1.0  0.31069  0.69607  0.08355  1.0000
  S   S39       1.0  0.30838  0.52634  0.06618  1.0000
  S   S40       1.0  0.30460  0.78933  0.08275  1.0000
  N   N9        1.0  0.40666  0.62210  0.01880  1.0000
  C   C127      1.0  0.33446  0.73586  0.08415  1.0000
  H   H147      1.0  0.36994  0.56537  0.02889  1.0000
  H   H148      1.0  0.39969  0.76250  0.08641  1.0000
  C   C128      1.0  0.40349  0.68887  0.08689  1.0000
  Fe  Fe18      1.0  0.33862  0.85434  0.07587  1.0000
  C   C129      1.0  0.37977  0.64902  0.08600  1.0000
  C   C130      1.0  0.33324  0.65283  0.08432  1.0000
  C   C131      1.0  0.37940  0.70164  0.03082  1.0000
  H   H149      1.0  0.17965  0.92582  0.14337  1.0000
  Fe  Fe19      1.0  0.38573  0.90332  0.04185  1.0000
  Fe  Fe20      1.0  0.30928  0.95306  0.06753  1.0000
  C   C132      1.0  0.08984  0.95764  0.10451  1.0000
  C   C133      1.0  0.39785  0.67099  0.01487  1.0000
  H   H150      1.0  0.24545  0.90436  0.12346  1.0000
  C   C134      1.0  0.25022  0.95205  0.00278  1.0000
  H   H151      1.0  0.20212  0.80511  0.09673  1.0000
  C   C135      1.0  0.15522  0.93294  0.13204  1.0000
  H   H152      1.0  0.35902  0.77094  0.04059  1.0000
  H   H153      1.0  0.24475  0.86672  0.08053  1.0000
  C   C136      1.0  0.17530  0.83185  0.10169  1.0000
  C   C137      1.0  0.37722  0.97175  0.00010  1.0000
  C   C138      1.0  0.40231  0.73690  0.99307  1.0000
  H   H154      1.0  0.42797  0.55729  0.00381  1.0000
  C   C139      1.0  0.21554  0.89028  0.08554  1.0000
  H   H155      1.0  0.15035  0.83231  0.08952  1.0000
  H   H156      1.0  0.21724  0.85794  0.13477  1.0000
  H   H157      1.0  0.24950  0.94667  0.01916  1.0000
  H   H158      1.0  0.44850  0.58147  0.03817  1.0000
  C   C140      1.0  0.42197  0.59369  0.00017  1.0000
  H   H159      1.0  0.39637  0.59474  0.98824  1.0000
  C   C141      1.0  0.36535  0.60284  0.02732  1.0000
  H   H160      1.0  0.22763  0.92518  0.08711  1.0000
  C   C142      1.0  0.40725  0.93502  0.99389  1.0000
  H   H161      1.0  0.48298  0.96710  0.01330  1.0000
  H   H162      1.0  0.15834  0.82071  0.11598  1.0000
  H   H163      1.0  0.43948  0.68626  0.08827  1.0000
  C   C143      1.0  0.47468  0.00808  0.10428  1.0000
  C   C144      1.0  0.12136  0.96645  0.13775  1.0000
  H   H164      1.0  0.33665  0.60886  0.01724  1.0000
  N   N10       1.0  0.19411  0.87689  0.10514  1.0000
  C   C145      1.0  0.15771  0.91114  0.11209  1.0000
  H   H165      1.0  0.43283  0.63724  0.04856  1.0000
  H   H166      1.0  0.25773  0.84677  0.11418  1.0000
  H   H167      1.0  0.12233  0.90803  0.08346  1.0000
  H   H168      1.0  0.30788  0.90598  0.99612  1.0000
  H   H169      1.0  0.47423  0.63018  0.02797  1.0000
  H   H170      1.0  0.19269  0.88985  0.07259  1.0000
  Fe  Fe21      1.0  0.39895  0.93200  0.08605  1.0000
  C   C146      1.0  0.12325  0.92372  0.09869  1.0000
  S   S41       1.0  0.42004  0.89142  0.01064  1.0000
  S   S42       1.0  0.37910  0.97125  0.05880  1.0000
  H   H171      1.0  0.31451  0.62252  0.08381  1.0000
  C   C147      1.0  0.37278  0.74832  0.02799  1.0000
  H   H172      1.0  0.45447  0.60403  0.99351  1.0000
  Fe  Fe22      1.0  0.37786  0.52930  0.07758  1.0000
  H   H173      1.0  0.35527  0.61697  0.04301  1.0000
  C   C148      1.0  0.38440  0.76597  0.00917  1.0000
  S   S43       1.0  0.44941  0.95627  0.10832  1.0000
  H   H174      1.0  0.37985  0.80233  0.00713  1.0000
  C   C149      1.0  0.21866  0.98233  0.99478  1.0000
  C   C150      1.0  0.08917  0.97924  0.12394  1.0000
  H   H175      1.0  0.42317  0.66954  0.98270  1.0000
  C   C151      1.0  0.28308  0.92924  0.98978  1.0000
  H   H176      1.0  0.25861  0.99039  0.10760  1.0000
  H   H177      1.0  0.47886  0.92445  0.04139  1.0000
  S   S44       1.0  0.25061  0.00369  0.06381  1.0000
  H   H178      1.0  0.19319  0.00000  0.00502  1.0000
  H   H179      1.0  0.06481  0.96792  0.09379  1.0000
  H   H180      1.0  0.12113  0.98423  0.15269  1.0000
  C   C152      1.0  0.50024  0.93715  0.05364  1.0000
  H   H181      1.0  0.06428  0.00668  0.12824  1.0000
  H   H182      1.0  0.47866  0.96068  0.06411  1.0000
  C   C153      1.0  0.36691  0.00599  0.98641  1.0000
  C   C154      1.0  0.49441  0.99943  0.01872  1.0000
  H   H183      1.0  0.41154  0.75100  0.97851  1.0000
  C   C155      1.0  0.08226  0.85911  0.39637  1.0000
  H   H184      1.0  0.04302  0.80503  0.56764  1.0000
  C   C156      1.0  0.46843  0.62653  0.63892  1.0000
  S   S45       1.0  0.21446  0.78073  0.61887  1.0000
  Fe  Fe23      1.0  0.21771  0.61007  0.61874  1.0000
  S   S46       1.0  0.18484  0.57155  0.59311  1.0000
  S   S47       1.0  0.27061  0.65755  0.60950  1.0000
  H   H185      1.0  0.12309  0.95546  0.37708  1.0000
  C   C157      1.0  0.14566  0.75514  0.53407  1.0000
  H   H186      1.0  0.15299  0.87138  0.33340  1.0000
  C   C158      1.0  0.11550  0.78769  0.52637  1.0000
  H   H187      1.0  0.10977  0.81146  0.33897  1.0000
  C   C159      1.0  0.10040  0.88689  0.38112  1.0000
  H   H188      1.0  0.13080  0.74684  0.63405  1.0000
  C   C160      1.0  0.10222  0.85236  0.60244  1.0000
  Fe  Fe24      1.0  0.23028  0.70981  0.62984  1.0000
  H   H189      1.0  0.23000  0.73819  0.54923  1.0000
  N   N11       1.0  0.10432  0.87234  0.35903  1.0000
  C   C161      1.0  0.21582  0.72799  0.56424  1.0000
  H   H190      1.0  0.11355  0.98083  0.41304  1.0000
  H   H191      1.0  0.21135  0.75936  0.57453  1.0000
  H   H192      1.0  0.05172  0.77238  0.62978  1.0000
  C   C162      1.0  0.42106  0.69201  0.63061  1.0000
  C   C163      1.0  0.45958  0.71663  0.62741  1.0000
  S   S48       1.0  0.37835  0.61366  0.63993  1.0000
  C   C164      1.0  0.14509  0.53149  0.59911  1.0000
  H   H193      1.0  0.15891  0.52949  0.63121  1.0000
  H   H194      1.0  0.38809  0.70798  0.62860  1.0000
  H   H195      1.0  0.45595  0.75163  0.62296  1.0000
  S   S49       1.0  0.00792  0.00831  0.33839  1.0000
  H   H196      1.0  0.12737  0.67236  0.58244  1.0000
  C   C165      1.0  0.10098  0.75748  0.56599  1.0000
  C   C166      1.0  0.07844  0.80524  0.53842  1.0000
  C   C167      1.0  0.14690  0.88647  0.34929  1.0000
  C   C168      1.0  0.12317  0.77617  0.62529  1.0000
  C   C169      1.0  0.15786  0.79956  0.61643  1.0000
  C   C170      1.0  0.14726  0.83789  0.60508  1.0000
  H   H197      1.0  0.20273  0.63829  0.55464  1.0000
  H   H198      1.0  0.17390  0.85619  0.59812  1.0000
  C   C171      1.0  0.07831  0.79078  0.62286  1.0000
  H   H199      1.0  0.19585  0.67269  0.53305  1.0000
  H   H200      1.0  0.01582  0.88276  0.46870  1.0000
  C   C172      1.0  0.11143  0.93133  0.38779  1.0000
  S   S50       1.0  0.03121  0.95100  0.56994  1.0000
  H   H201      1.0  0.14679  0.92392  0.34752  1.0000
  H   H202      1.0  0.05559  0.83111  0.53255  1.0000
  C   C173      1.0  0.08834  0.91820  0.42297  1.0000
  H   H203      1.0  0.17614  0.87591  0.35839  1.0000
  H   H204      1.0  0.09427  0.88167  0.59349  1.0000
  N   N12       1.0  0.17277  0.70594  0.56225  1.0000
  H   H205      1.0  0.17453  0.74350  0.52434  1.0000
  C   C174      1.0  0.15943  0.68970  0.58272  1.0000
  H   H206      1.0  0.08279  0.93047  0.43886  1.0000
  C   C175      1.0  0.07661  0.87467  0.41695  1.0000
  C   C176      1.0  0.10571  0.94647  0.40842  1.0000
  H   H207      1.0  0.06175  0.85334  0.42823  1.0000
  C   C177      1.0  0.07124  0.79020  0.55815  1.0000
  H   H208      1.0  0.14781  0.64924  0.54527  1.0000
  H   H209      1.0  0.15668  0.71782  0.59461  1.0000
  S   S51       1.0  0.17569  0.66369  0.63719  1.0000
  H   H210      1.0  0.18501  0.66470  0.58821  1.0000
  C   C178      1.0  0.18007  0.66501  0.54811  1.0000
  H   H211      1.0  0.07070  0.82578  0.39271  1.0000
  H   H212      1.0  0.06501  0.93191  0.35061  1.0000
  H   H213      1.0  0.09377  0.74821  0.58156  1.0000
  C   C179      1.0  0.13928  0.73890  0.55413  1.0000
  C   C180      1.0  0.06768  0.82875  0.61136  1.0000
  H   H214      1.0  0.24174  0.70500  0.57095  1.0000
  C   C181      1.0  0.11938  0.51395  0.58341  1.0000
  H   H215      1.0  0.06987  0.80961  0.35959  1.0000
  H   H216      1.0  0.12902  0.80374  0.36444  1.0000
  C   C182      1.0  0.10337  0.82213  0.35547  1.0000
  C   C183      1.0  0.13918  0.51625  0.61902  1.0000
  H   H217      1.0  0.06835  0.88579  0.33166  1.0000
  H   H218      1.0  0.12381  0.52553  0.56798  1.0000
  S   S52       1.0  0.01085  0.84435  0.60808  1.0000
  C   C184      1.0  0.42535  0.64675  0.63631  1.0000
  Fe  Fe25      1.0  0.30475  0.63794  0.63819  1.0000
  H   H219      1.0  0.03361  0.88281  0.35462  1.0000
  S   S53       1.0  0.02289  0.90896  0.51137  1.0000
  C   C185      1.0  0.06628  0.89412  0.34850  1.0000
  C   C186      1.0  0.50264  0.69622  0.62979  1.0000
  H   H220      1.0  0.12115  0.80016  0.51111  1.0000
  H   H221      1.0  0.48637  0.59634  0.57358  1.0000
  H   H222      1.0  0.47196  0.59158  0.64343  1.0000
  H   H223      1.0  0.50321  0.56791  0.60526  1.0000
  H   H224      1.0  0.50219  0.65117  0.56597  1.0000
  H   H225      1.0  0.50122  0.63913  0.59242  1.0000
  C   C187      1.0  0.50694  0.65100  0.63557  1.0000
  C   C188      1.0  0.46897  0.82628  0.87906  1.0000
  H   H226      1.0  0.28420  0.53225  0.78275  1.0000
  C   C189      1.0  0.17134  0.68808  0.93073  1.0000
  H   H227      1.0  0.16112  0.65641  0.93787  1.0000
  C   C190      1.0  0.39352  0.72386  0.85060  1.0000
  H   H228      1.0  0.33081  0.51446  0.96536  1.0000
  S   S54       1.0  0.41232  0.96312  0.90200  1.0000
  Fe  Fe26      1.0  0.16524  0.68290  0.83345  1.0000
  S   S55       1.0  0.12762  0.73448  0.85509  1.0000
  S   S56       1.0  0.18055  0.60913  0.84074  1.0000
  Fe  Fe27      1.0  0.18100  0.75147  0.80084  1.0000
  S   S57       1.0  0.14624  0.80931  0.81999  1.0000
  S   S58       1.0  0.22068  0.76006  0.77121  1.0000
  Fe  Fe28      1.0  0.18235  0.78043  0.84646  1.0000
  S   S59       1.0  0.21858  0.81466  0.87217  1.0000
  S   S60       1.0  0.22178  0.72735  0.82659  1.0000
  S   S61       1.0  0.12686  0.70292  0.80592  1.0000
  H   H229      1.0  0.08131  0.84398  0.68575  1.0000
  S   S62       1.0  0.35014  0.96916  0.85048  1.0000
  C   C191      1.0  0.29752  0.96011  0.92678  1.0000
  S   S63       1.0  0.17797  0.63635  0.69362  1.0000
  S   S64       1.0  0.38025  0.57744  0.86800  1.0000
  C   C192      1.0  0.19141  0.66948  0.71530  1.0000
  C   C193      1.0  0.16281  0.67095  0.73292  1.0000
  C   C194      1.0  0.17160  0.69859  0.75015  1.0000
  C   C195      1.0  0.20889  0.72509  0.74983  1.0000
  C   C196      1.0  0.23776  0.72324  0.73230  1.0000
  C   C197      1.0  0.22930  0.69512  0.71514  1.0000
  H   H230      1.0  0.13351  0.65106  0.73313  1.0000
  H   H231      1.0  0.14906  0.70005  0.76351  1.0000
  H   H232      1.0  0.26686  0.74345  0.73203  1.0000
  H   H233      1.0  0.25205  0.69343  0.70180  1.0000
  H   H234      1.0  0.43389  0.96605  0.94538  1.0000
  C   C198      1.0  0.02749  0.69670  0.76642  1.0000
  H   H235      1.0  0.48380  0.70569  0.70206  1.0000
  H   H236      1.0  0.45861  0.73737  0.86031  1.0000
  C   C199      1.0  0.25526  0.85720  0.86583  1.0000
  C   C200      1.0  0.25498  0.87671  0.84666  1.0000
  C   C201      1.0  0.28415  0.91112  0.84218  1.0000
  C   C202      1.0  0.31384  0.92612  0.85678  1.0000
  C   C203      1.0  0.31475  0.90584  0.87578  1.0000
  C   C204      1.0  0.28528  0.87180  0.88036  1.0000
  H   H237      1.0  0.23201  0.86564  0.83534  1.0000
  H   H238      1.0  0.28351  0.92636  0.82737  1.0000
  H   H239      1.0  0.33840  0.91602  0.88685  1.0000
  H   H240      1.0  0.28606  0.85635  0.89511  1.0000
  H   H241      1.0  0.34362  0.56878  0.91698  1.0000
  C   C205      1.0  0.33203  0.59677  0.80416  1.0000
  S   S65       1.0  0.26898  0.69475  0.65790  1.0000
  C   C206      1.0  0.25572  0.55698  0.78760  1.0000
  H   H242      1.0  0.18137  0.77209  0.66360  1.0000
  H   H243      1.0  0.23874  0.58880  0.75163  1.0000
  H   H244      1.0  0.24928  0.55578  0.80453  1.0000
  C   C207      1.0  0.23547  0.59882  0.84901  1.0000
  C   C208      1.0  0.26047  0.63539  0.85482  1.0000
  C   C209      1.0  0.30481  0.62793  0.86036  1.0000
  C   C210      1.0  0.32430  0.58369  0.86091  1.0000
  H   H245      1.0  0.19130  0.88491  0.74286  1.0000
  C   C211      1.0  0.25465  0.55420  0.84972  1.0000
  H   H246      1.0  0.24545  0.66951  0.85555  1.0000
  H   H247      1.0  0.32382  0.65660  0.86476  1.0000
  C   C212      1.0  0.20204  0.72304  0.90116  1.0000
  H   H248      1.0  0.35040  0.64743  0.90633  1.0000
  C   C213      1.0  0.14453  0.83772  0.75348  1.0000
  C   C214      1.0  0.38694  0.00380  0.96658  1.0000
  H   H249      1.0  0.47576  0.90093  0.85833  1.0000
  H   H250      1.0  0.17026  0.74374  0.89904  1.0000
  H   H251      1.0  0.03568  0.62923  0.75240  1.0000
  H   H252      1.0  0.15057  0.62362  0.90328  1.0000
  H   H253      1.0  0.45128  0.90501  0.96934  1.0000
  C   C215      1.0  0.35834  0.68211  0.79290  1.0000
  C   C216      1.0  0.22026  0.99048  0.97378  1.0000
  H   H254      1.0  0.22526  0.54447  0.78049  1.0000
  C   C217      1.0  0.28554  0.93776  0.96881  1.0000
  H   H255      1.0  0.22755  0.66917  0.78347  1.0000
  C   C218      1.0  0.16951  0.85837  0.73840  1.0000
  H   H256      1.0  0.13241  0.67706  0.89382  1.0000
  H   H257      1.0  0.32344  0.56410  0.80960  1.0000
  C   C219      1.0  0.42293  0.80027  0.85173  1.0000
  C   C220      1.0  0.27907  0.66471  0.90835  1.0000
  C   C221      1.0  0.11457  0.78862  0.72735  1.0000
  C   C222      1.0  0.38172  0.81690  0.84383  1.0000
  H   H258      1.0  0.36819  0.71555  0.78880  1.0000
  C   C223      1.0  0.27162  0.57563  0.92076  1.0000
  C   C224      1.0  0.31375  0.59136  0.91625  1.0000
  N   N13       1.0  0.13697  0.79565  0.68946  1.0000
  H   H259      1.0  0.30001  0.68660  0.77533  1.0000
  N   N14       1.0  0.45926  0.83026  0.85705  1.0000
  H   H260      1.0  0.29891  0.58258  0.75272  1.0000
  C   C225      1.0  0.44815  0.87928  0.85377  1.0000
  Fe  Fe29      1.0  0.48257  0.98042  0.89377  1.0000
  H   H261      1.0  0.32667  0.71911  0.83989  1.0000
  H   H262      1.0  0.21917  0.71829  0.88565  1.0000
  H   H263      1.0  0.11047  0.74469  0.66921  1.0000
  H   H264      1.0  0.37472  0.85240  0.84086  1.0000
  C   C226      1.0  0.23299  0.60418  0.91900  1.0000
  C   C227      1.0  0.21726  0.96164  0.92810  1.0000
  H   H265      1.0  0.31291  0.92009  0.95984  1.0000
  C   C228      1.0  0.42761  0.93308  0.97412  1.0000
  Fe  Fe30      1.0  0.09403  0.75888  0.82694  1.0000
  H   H266      1.0  0.22230  0.63651  0.80566  1.0000
  C   C229      1.0  0.26839  0.60322  0.75872  1.0000
  C   C230      1.0  0.16286  0.65502  0.89674  1.0000
  C   C231      1.0  0.31748  0.63590  0.91030  1.0000
  C   C232      1.0  0.29913  0.54657  0.85575  1.0000
  C   C233      1.0  0.37094  0.61414  0.81176  1.0000
  H   H267      1.0  0.23526  0.52560  0.84553  1.0000
  H   H268      1.0  0.18491  0.97701  0.93499  1.0000
  C   C234      1.0  0.35339  0.74140  0.84311  1.0000
  H   H269      1.0  0.43855  0.83585  0.88910  1.0000
  H   H270      1.0  0.11180  0.82563  0.66223  1.0000
  C   C235      1.0  0.13978  0.80891  0.71153  1.0000
  Fe  Fe31      1.0  0.21698  0.64417  0.66371  1.0000
  C   C236      1.0  0.31940  0.66508  0.78519  1.0000
  H   H271      1.0  0.20098  0.75807  0.68831  1.0000
  C   C237      1.0  0.16698  0.84457  0.71772  1.0000
  H   H272      1.0  0.22249  0.74461  0.91106  1.0000
  C   C238      1.0  0.41760  0.96752  0.96051  1.0000
  H   H273      1.0  0.32828  0.97130  0.93402  1.0000
  H   H274      1.0  0.20115  0.59034  0.92273  1.0000
  H   H275      1.0  0.17960  0.64500  0.88156  1.0000
  C   C239      1.0  0.23543  0.64935  0.91232  1.0000
  H   H276      1.0  0.13517  0.86500  0.67964  1.0000
  C   C240      1.0  0.34764  0.78769  0.83963  1.0000
  H   H277      1.0  0.19396  0.70500  0.94142  1.0000
  N   N15       1.0  0.19390  0.67858  0.91021  1.0000
  C   C241      1.0  0.11539  0.83419  0.67884  1.0000
  C   C242      1.0  0.11697  0.80313  0.74797  1.0000
  S   S66       1.0  0.25462  0.58588  0.64591  1.0000
  N   N16       1.0  0.25637  0.97994  0.93817  1.0000
  H   H278      1.0  0.48144  0.79138  0.88269  1.0000
  H   H279      1.0  0.07481  0.76173  0.69102  1.0000
  H   H280      1.0  0.12502  0.72503  0.69365  1.0000
  H   H281      1.0  0.31630  0.80116  0.83380  1.0000
  H   H282      1.0  0.28454  0.69834  0.90313  1.0000
  C   C243      1.0  0.42798  0.75267  0.85469  1.0000
  C   C244      1.0  0.18254  0.78482  0.67990  1.0000
  C   C245      1.0  0.30547  0.62144  0.79026  1.0000
  H   H283      1.0  0.18659  0.86210  0.70661  1.0000
  N   N17       1.0  0.26458  0.60383  0.78151  1.0000
  H   H284      1.0  0.14037  0.71081  0.92987  1.0000
  C   C246      1.0  0.22519  0.63401  0.78865  1.0000
  H   H285      1.0  0.09322  0.76105  0.72430  1.0000
  H   H286      1.0  0.41778  0.89248  0.86314  1.0000
  H   H287      1.0  0.19329  0.62150  0.78302  1.0000
  C   C247      1.0  0.11057  0.75507  0.68579  1.0000
  H   H288      1.0  0.27020  0.63795  0.75275  1.0000
  H   H289      1.0  0.14731  0.84779  0.76956  1.0000
  H   H290      1.0  0.09825  0.78679  0.75988  1.0000
  C   C248      1.0  0.38436  0.65641  0.80595  1.0000
  H   H291      1.0  0.20329  0.81484  0.67949  1.0000
  H   H292      1.0  0.39063  0.59472  0.82240  1.0000
  C   C249      1.0  0.25445  0.96933  0.96021  1.0000
  H   H293      1.0  0.41471  0.66948  0.81180  1.0000
  S   S67       1.0  0.02207  0.78703  0.82452  1.0000
  C   C250      1.0  0.50059  0.81624  0.84439  1.0000
  H   H294      1.0  0.29882  0.92222  0.92588  1.0000
  H   H295      1.0  0.06313  0.70169  0.76607  1.0000
  H   H296      1.0  0.29941  0.97108  0.91064  1.0000
  H   H297      1.0  0.39797  0.68768  0.85324  1.0000
  H   H298      1.0  0.44236  0.88554  0.83735  1.0000
  H   H299      1.0  0.26893  0.54088  0.92538  1.0000
  S   S68       1.0  0.48189  0.52164  0.88670  1.0000
  H   H300      1.0  0.21689  0.92405  0.92948  1.0000
  H   H301      1.0  0.50200  0.68531  0.67673  1.0000
  Fe  Fe32      1.0  0.39417  0.00026  0.87404  1.0000
  H   H302      1.0  0.21785  0.96837  0.91138  1.0000
  H   H303      1.0  0.49441  0.81750  0.82770  1.0000
  H   H304      1.0  0.49554  0.84899  0.88374  1.0000
  C   C251      1.0  0.01192  0.65591  0.75877  1.0000
  H   H305      1.0  0.50485  0.64694  0.69703  1.0000
  H   H306      1.0  0.50576  0.66542  0.73118  1.0000
  H   H307      1.0  0.31401  0.51222  0.85623  1.0000
  H   H308      1.0  0.00944  0.76212  0.78135  1.0000
  H   H309      1.0  0.54052  0.40524  0.12273  1.0000
  Fe  Fe33      1.0  0.69904  0.18248  0.11847  1.0000
  S   S69       1.0  0.67662  0.22206  0.14755  1.0000
  S   S70       1.0  0.77171  0.17366  0.10620  1.0000
  Fe  Fe34      1.0  0.60235  0.15829  0.10963  1.0000
  S   S71       1.0  0.57325  0.19552  0.13827  1.0000
  S   S72       1.0  0.55387  0.13035  0.08733  1.0000
  Fe  Fe35      1.0  0.61907  0.24971  0.12961  1.0000
  S   S73       1.0  0.59448  0.32370  0.13070  1.0000
  Fe  Fe36      1.0  0.63299  0.16412  0.15318  1.0000
  S   S74       1.0  0.63110  0.13208  0.18382  1.0000
  S   S75       1.0  0.64485  0.21486  0.09993  1.0000
  S   S76       1.0  0.65889  0.12195  0.12519  1.0000
  C   C252      1.0  0.78316  0.32178  0.16146  1.0000
  H   H310      1.0  0.81409  0.36456  0.12621  1.0000
  S   S77       1.0  0.63719  0.27516  0.25839  1.0000
  H   H311      1.0  0.77140  0.06312  0.19241  1.0000
  H   H312      1.0  0.81703  0.32173  0.15501  1.0000
  H   H313      1.0  0.79641  0.34358  0.10191  1.0000
  C   C253      1.0  0.63258  0.17215  0.20437  1.0000
  C   C254      1.0  0.62255  0.21851  0.20168  1.0000
  C   C255      1.0  0.62464  0.25012  0.21830  1.0000
  C   C256      1.0  0.63741  0.23553  0.23750  1.0000
  C   C257      1.0  0.64879  0.18937  0.23991  1.0000
  C   C258      1.0  0.64576  0.15765  0.22347  1.0000
  H   H314      1.0  0.61241  0.22990  0.18692  1.0000
  H   H315      1.0  0.61573  0.28582  0.21638  1.0000
  H   H316      1.0  0.66039  0.17805  0.25435  1.0000
  H   H317      1.0  0.65418  0.12190  0.22551  1.0000
  C   C259      1.0  0.81944  0.19126  0.11898  1.0000
  C   C260      1.0  0.86248  0.18079  0.10986  1.0000
  C   C261      1.0  0.85404  0.22727  0.14805  1.0000
  C   C262      1.0  0.81541  0.21500  0.13803  1.0000
  H   H318      1.0  0.86596  0.16256  0.09506  1.0000
  H   H319      1.0  0.85078  0.24440  0.16307  1.0000
  H   H320      1.0  0.78254  0.22377  0.14504  1.0000
  H   H321      1.0  0.75732  0.18626  0.20410  1.0000
  C   C263      1.0  0.97659  0.38259  0.29992  1.0000
  C   C264      1.0  0.53670  0.29835  0.10120  1.0000
  C   C265      1.0  0.55074  0.33384  0.11385  1.0000
  C   C266      1.0  0.51350  0.19984  0.23971  1.0000
  C   C267      1.0  0.93690  0.36339  0.29475  1.0000
  H   H322      1.0  0.76609  0.10755  0.21228  1.0000
  H   H323      1.0  0.55228  0.26437  0.10186  1.0000
  H   H324      1.0  0.97764  0.28428  0.25852  1.0000
  C   C268      1.0  0.52031  0.23241  0.27363  1.0000
  S   S78       1.0  0.63450  0.17142  0.29484  1.0000
  H   H325      1.0  0.51256  0.23052  0.29040  1.0000
  C   C269      1.0  0.53560  0.05760  0.11103  1.0000
  H   H326      1.0  0.71526  0.11806  0.16244  1.0000
  H   H327      1.0  0.91403  0.11127  0.14769  1.0000
  C   C270      1.0  0.89709  0.21685  0.13897  1.0000
  C   C271      1.0  0.93793  0.32773  0.27996  1.0000
  C   C272      1.0  0.82098  0.13080  0.18035  1.0000
  N   N18       1.0  0.77140  0.13084  0.18125  1.0000
  H   H328      1.0  0.67183  0.33599  0.15203  1.0000
  Fe  Fe37      1.0  0.64392  0.24490  0.28937  1.0000
  H   H329      1.0  0.50984  0.26704  0.26868  1.0000
  H   H330      1.0  0.90530  0.37629  0.30228  1.0000
  H   H331      1.0  0.66508  0.32052  0.18833  1.0000
  C   C273      1.0  0.52188  0.08548  0.09533  1.0000
  H   H332      1.0  0.99647  0.15183  0.30087  1.0000
  C   C274      1.0  0.91569  0.13489  0.17919  1.0000
  C   C275      1.0  0.52991  0.37769  0.11292  1.0000
  C   C276      1.0  0.75191  0.17710  0.18773  1.0000
  H   H333      1.0  0.83351  0.10717  0.14799  1.0000
  H   H334      1.0  0.71502  0.18007  0.18613  1.0000
  H   H335      1.0  0.71935  0.09649  0.19711  1.0000
  H   H336      1.0  0.76110  0.14170  0.14918  1.0000
  C   C277      1.0  0.51208  0.01887  0.11544  1.0000
  C   C278      1.0  0.69816  0.32087  0.18084  1.0000
  H   H337      1.0  0.90690  0.31295  0.27596  1.0000
  H   H338      1.0  0.55409  0.14897  0.26822  1.0000
  C   C279      1.0  0.97863  0.31145  0.27014  1.0000
  H   H339      1.0  0.76647  0.20356  0.17829  1.0000
  S   S79       1.0  0.94419  0.23284  0.15262  1.0000
  H   H340      1.0  0.55757  0.22919  0.27161  1.0000
  N   N19       1.0  0.74820  0.33805  0.12723  1.0000
  C   C280      1.0  0.72541  0.30238  0.11561  1.0000
  C   C281      1.0  0.72580  0.38309  0.12342  1.0000
  C   C282      1.0  0.79511  0.33755  0.11867  1.0000
  C   C283      1.0  0.74495  0.32979  0.14951  1.0000
  H   H341      1.0  0.68896  0.30288  0.11976  1.0000
  H   H342      1.0  0.72808  0.30665  0.09872  1.0000
  H   H343      1.0  0.74031  0.26779  0.11841  1.0000
  H   H344      1.0  0.68901  0.38427  0.12713  1.0000
  H   H345      1.0  0.72946  0.39152  0.10697  1.0000
  H   H346      1.0  0.81336  0.30382  0.12033  1.0000
  C   C284      1.0  0.90119  0.19362  0.11976  1.0000
  C   C285      1.0  0.70239  0.32972  0.15998  1.0000
  H   H347      1.0  0.74001  0.41072  0.13284  1.0000
  H   H348      1.0  0.73260  0.30555  0.20821  1.0000
  H   H349      1.0  0.93413  0.18533  0.11260  1.0000
  C   C286      1.0  0.84393  0.14498  0.19792  1.0000
  C   C287      1.0  0.77860  0.31300  0.18236  1.0000
  C   C288      1.0  0.73617  0.31234  0.19201  1.0000
  C   C289      1.0  0.89437  0.11965  0.16185  1.0000
  H   H350      1.0  0.56514  0.06498  0.11930  1.0000
  H   H351      1.0  0.53151  0.11830  0.03642  1.0000
  C   C290      1.0  0.84773  0.11764  0.16227  1.0000
  H   H352      1.0  0.55069  0.19890  0.23763  1.0000
  H   H353      1.0  0.82582  0.15518  0.21222  1.0000
  C   C291      1.0  0.75657  0.09811  0.19643  1.0000
  C   C292      1.0  0.75249  0.11774  0.16127  1.0000
  H   H354      1.0  0.80823  0.30671  0.19112  1.0000
  H   H355      1.0  0.95167  0.13820  0.17843  1.0000
  C   C293      1.0  0.89057  0.14722  0.19724  1.0000
  H   H356      1.0  0.76424  0.08255  0.15583  1.0000
  C   C294      1.0  0.53736  0.04624  0.04106  1.0000
  C   C295      1.0  0.52144  0.08498  0.03128  1.0000
  H   H357      1.0  0.55953  0.05211  0.05344  1.0000
  H   H358      1.0  0.90738  0.15936  0.21063  1.0000
  C   C296      1.0  0.51673  0.15166  0.26872  1.0000
  S   S80       1.0  0.70697  0.24635  0.30655  1.0000
  H   H359      1.0  0.97557  0.41016  0.31158  1.0000
  H   H360      1.0  0.95580  0.11489  0.31096  1.0000
  S   S81       1.0  0.97391  0.07193  0.59231  1.0000
  Fe  Fe38      1.0  0.89957  0.40421  0.58046  1.0000
  S   S82       1.0  0.94821  0.35277  0.59312  1.0000
  H   H361      1.0  0.76946  0.08986  0.59369  1.0000
  H   H362      1.0  0.98376  0.35179  0.41788  1.0000
  H   H363      1.0  0.76148  0.10025  0.56701  1.0000
  H   H364      1.0  0.85347  0.41673  0.48167  1.0000
  H   H365      1.0  0.82967  0.14856  0.57077  1.0000
  H   H366      1.0  0.83438  0.13010  0.59652  1.0000
  C   C297      1.0  0.77642  0.49475  0.60721  1.0000
  H   H367      1.0  0.70050  0.07979  0.33677  1.0000
  S   S83       1.0  0.90990  0.37642  0.54792  1.0000
  H   H368      1.0  0.88173  0.11944  0.54436  1.0000
  C   C298      1.0  0.90467  0.19072  0.32617  1.0000
  S   S84       1.0  0.65244  0.19518  0.34317  1.0000
  C   C299      1.0  0.82355  0.02257  0.54257  1.0000
  Fe  Fe39      1.0  0.66247  0.26698  0.33408  1.0000
  S   S85       1.0  0.68604  0.31570  0.35861  1.0000
  H   H369      1.0  0.87025  0.02394  0.49418  1.0000
  C   C300      1.0  0.86719  0.08875  0.53884  1.0000
  Fe  Fe40      1.0  0.89489  0.47209  0.41118  1.0000
  H   H370      1.0  0.96417  0.16520  0.60684  1.0000
  Fe  Fe41      1.0  0.88438  0.46874  0.36494  1.0000
  S   S86       1.0  0.85477  0.43055  0.33845  1.0000
  C   C301      1.0  0.73472  0.06654  0.33822  1.0000
  S   S87       1.0  0.92689  0.42735  0.38549  1.0000
  C   C302      1.0  0.88273  0.27138  0.32757  1.0000
  C   C303      1.0  0.73237  0.34829  0.35268  1.0000
  C   C304      1.0  0.75247  0.37222  0.36858  1.0000
  C   C305      1.0  0.79016  0.39737  0.36442  1.0000
  C   C306      1.0  0.80773  0.39913  0.34427  1.0000
  C   C307      1.0  0.78764  0.37527  0.32838  1.0000
  C   C308      1.0  0.75015  0.34994  0.33256  1.0000
  H   H371      1.0  0.73884  0.37135  0.38418  1.0000
  H   H372      1.0  0.80536  0.41569  0.37679  1.0000
  H   H373      1.0  0.99190  0.25597  0.33840  1.0000
  Fe  Fe42      1.0  0.96385  0.42619  0.54588  1.0000
  C   C309      1.0  0.76985  0.08639  0.32777  1.0000
  S   S88       1.0  0.86999  0.44100  0.44012  1.0000
  H   H374      1.0  0.88681  0.03918  0.58387  1.0000
  H   H375      1.0  0.84265  0.04946  0.60319  1.0000
  H   H376      1.0  0.88119  0.12105  0.57898  1.0000
  C   C310      1.0  0.90023  0.45008  0.46227  1.0000
  H   H377      1.0  0.85741  0.29896  0.32615  1.0000
  H   H378      1.0  0.85851  0.06769  0.41747  1.0000
  C   C311      1.0  0.94820  0.46310  0.49798  1.0000
  C   C312      1.0  0.90823  0.44075  0.49881  1.0000
  H   H379      1.0  0.73442  0.33270  0.32010  1.0000
  C   C313      1.0  0.93978  0.47310  0.46153  1.0000
  H   H380      1.0  0.99608  0.40713  0.35377  1.0000
  C   C314      1.0  0.77905  0.07735  0.57766  1.0000
  C   C315      1.0  0.83944  0.06297  0.55161  1.0000
  H   H381      1.0  0.84129  0.08411  0.32151  1.0000
  C   C316      1.0  0.96366  0.47973  0.47936  1.0000
  H   H382      1.0  0.92694  0.33308  0.48344  1.0000
  H   H383      1.0  0.60320  0.47449  0.62664  1.0000
  Fe  Fe43      1.0  0.59312  0.19877  0.32275  1.0000
  H   H384      1.0  0.82878  0.46769  0.56060  1.0000
  C   C317      1.0  0.97217  0.12301  0.57893  1.0000
  C   C318      1.0  0.94925  0.19935  0.33130  1.0000
  S   S89       1.0  0.94898  0.45805  0.57741  1.0000
  H   H385      1.0  0.89956  0.09452  0.50895  1.0000
  C   C319      1.0  0.96628  0.20639  0.58025  1.0000
  C   C320      1.0  0.96715  0.16489  0.59024  1.0000
  H   H386      1.0  0.91358  0.46048  0.62111  1.0000
  H   H387      1.0  0.86468  0.48095  0.63573  1.0000
  H   H388      1.0  0.96230  0.23833  0.58912  1.0000
  N   N20       1.0  0.77122  0.20541  0.38015  1.0000
  C   C321      1.0  0.72494  0.21053  0.38937  1.0000
  C   C322      1.0  0.79144  0.25018  0.38247  1.0000
  C   C323      1.0  0.76887  0.19458  0.35779  1.0000
  C   C324      1.0  0.79641  0.16807  0.39008  1.0000
  C   C325      1.0  0.83194  0.17588  0.40342  1.0000
  C   C326      1.0  0.78443  0.12230  0.38719  1.0000
  C   C327      1.0  0.85399  0.13988  0.41308  1.0000
  C   C328      1.0  0.80682  0.08663  0.39686  1.0000
  C   C329      1.0  0.84137  0.09543  0.40986  1.0000
  H   H389      1.0  0.70650  0.17913  0.38695  1.0000
  H   H390      1.0  0.72502  0.21837  0.40621  1.0000
  H   H391      1.0  0.70480  0.23864  0.38248  1.0000
  H   H392      1.0  0.79049  0.26305  0.39879  1.0000
  H   H393      1.0  0.77254  0.27696  0.37419  1.0000
  H   H394      1.0  0.82657  0.24849  0.37601  1.0000
  H   H395      1.0  0.74716  0.16611  0.35446  1.0000
  H   H396      1.0  0.75417  0.22389  0.34948  1.0000
  H   H397      1.0  0.80260  0.18472  0.35061  1.0000
  H   H398      1.0  0.84315  0.20947  0.40678  1.0000
  H   H399      1.0  0.75741  0.11364  0.37752  1.0000
  H   H400      1.0  0.88096  0.14631  0.42325  1.0000
  H   H401      1.0  0.79730  0.05185  0.39427  1.0000
  H   H402      1.0  0.76531  0.04316  0.57590  1.0000
  H   H403      1.0  0.89544  0.42885  0.51319  1.0000
  C   C330      1.0  0.84974  0.04123  0.58651  1.0000
  Fe  Fe44      1.0  0.97500  0.48232  0.38226  1.0000
  H   H404      1.0  0.94878  0.35633  0.44954  1.0000
  S   S90       1.0  0.97887  0.47179  0.52000  1.0000
  S   S91       1.0  0.52740  0.16466  0.32766  1.0000
  C   C331      1.0  0.96809  0.13299  0.35065  1.0000
  C   C332      1.0  0.97434  0.35565  0.46077  1.0000
  H   H405      1.0  0.97919  0.09087  0.54861  1.0000
  S   S92       1.0  0.97519  0.25754  0.54571  1.0000
  S   S93       1.0  0.83509  0.42111  0.59883  1.0000
  H   H406      1.0  0.97046  0.41055  0.42639  1.0000
  C   C333      1.0  0.99113  0.34173  0.49607  1.0000
  Fe  Fe45      1.0  0.69422  0.17487  0.31450  1.0000
  C   C334      1.0  0.86144  0.03502  0.50998  1.0000
  C   C335      1.0  0.97549  0.16446  0.54750  1.0000
  C   C336      1.0  0.87783  0.07479  0.51834  1.0000
  C   C337      1.0  0.88431  0.43421  0.48097  1.0000
  H   H407      1.0  0.99348  0.10496  0.35347  1.0000
  C   C338      1.0  0.97136  0.20636  0.55884  1.0000
  H   H408      1.0  0.96240  0.15403  0.36521  1.0000
  C   C339      1.0  0.89364  0.49229  0.62645  1.0000
  Fe  Fe46      1.0  0.96335  0.32912  0.56023  1.0000
  S   S94       1.0  0.84747  0.50903  0.39100  1.0000
  C   C340      1.0  0.82326  0.03158  0.34178  1.0000
  Fe  Fe47      1.0  0.99883  0.40499  0.58759  1.0000
  S   S95       1.0  0.59940  0.27245  0.31625  1.0000
  C   C341      1.0  0.97555  0.12290  0.55748  1.0000
  C   C342      1.0  0.80445  0.47071  0.59221  1.0000
  N   N21       1.0  0.82836  0.07577  0.57355  1.0000
  C   C343      1.0  0.84399  0.12092  0.58012  1.0000
  C   C344      1.0  0.81407  0.06895  0.32964  1.0000
  C   C345      1.0  0.95899  0.24583  0.33454  1.0000
  S   S96       1.0  0.76012  0.13277  0.31208  1.0000
  H   H409      1.0  0.95213  0.48563  0.44727  1.0000
  C   C346      1.0  0.96111  0.34218  0.48032  1.0000
  N   N22       1.0  0.98289  0.16096  0.33351  1.0000
  H   H410      1.0  0.52572  0.50965  0.62845  1.0000
  H   H411      1.0  0.94754  0.03985  0.48017  1.0000
  H   H412      1.0  0.93654  0.11620  0.34751  1.0000
  H   H413      1.0  0.89453  0.15630  0.32367  1.0000
  C   C347      1.0  0.99807  0.38534  0.42090  1.0000
  H   H414      1.0  0.97931  0.16413  0.53092  1.0000
  H   H415      1.0  0.93385  0.31634  0.33553  1.0000
  C   C348      1.0  0.92594  0.28109  0.33283  1.0000
  C   C349      1.0  0.74386  0.02855  0.35010  1.0000
  H   H416      1.0  0.99433  0.49748  0.47873  1.0000
  C   C350      1.0  0.87219  0.22629  0.32410  1.0000
  C   C351      1.0  0.98714  0.13174  0.31431  1.0000
  H   H417      1.0  0.77397  0.48269  0.62264  1.0000
  C   C352      1.0  0.80745  0.48638  0.57227  1.0000
  H   H418      1.0  0.83862  0.21882  0.31971  1.0000
  H   H419      1.0  0.98044  0.33181  0.51126  1.0000
  C   C353      1.0  0.59350  0.50029  0.61601  1.0000
  H   H420      1.0  0.85744  0.01807  0.34293  1.0000
  H   H421      1.0  0.65871  0.49854  0.60068  1.0000
  H   H422      1.0  0.98082  0.50062  0.61999  1.0000
  H   H423      1.0  0.80074  0.37687  0.31272  1.0000
  H   H424      1.0  0.87979  0.50819  0.61269  1.0000
  S   S97       1.0  0.93725  0.01307  0.43812  1.0000
  H   H425      1.0  0.71660  0.01271  0.35790  1.0000
  S   S98       1.0  0.91156  0.01430  0.38181  1.0000
  H   H426      1.0  0.64847  0.10647  0.88182  1.0000
  C   C354      1.0  0.57961  0.05900  0.84791  1.0000
  C   C355      1.0  0.62565  0.10516  0.86878  1.0000
  C   C356      1.0  0.64752  0.02518  0.86158  1.0000
  H   H427      1.0  0.90978  0.48941  0.66621  1.0000
  S   S99       1.0  0.57411  0.46862  0.84891  1.0000
  H   H428      1.0  0.52314  0.23124  0.87276  1.0000
  H   H429      1.0  0.56939  0.02415  0.84393  1.0000
  N   N23       1.0  0.60911  0.05894  0.86569  1.0000
  C   C357      1.0  0.58115  0.04980  0.88425  1.0000
  H   H430      1.0  0.54840  0.08122  0.85110  1.0000
  H   H431      1.0  0.59733  0.13125  0.87220  1.0000
  H   H432      1.0  0.59155  0.46327  0.91285  1.0000
  H   H433      1.0  0.65971  0.44215  0.89421  1.0000
  H   H434      1.0  0.60064  0.05100  0.89840  1.0000
  H   H435      1.0  0.55272  0.07574  0.88694  1.0000
  H   H436      1.0  0.67094  0.05466  0.83320  1.0000
  H   H437      1.0  0.64994  0.47740  0.87292  1.0000
  H   H438      1.0  0.64430  0.11618  0.85495  1.0000
  H   H439      1.0  0.65746  0.48076  0.93028  1.0000
  H   H440      1.0  0.59599  0.07192  0.83391  1.0000
  C   C358      1.0  0.66298  0.47713  0.88868  1.0000
  C   C359      1.0  0.67619  0.02786  0.84381  1.0000
  H   H441      1.0  0.56628  0.01610  0.88276  1.0000
  H   H442      1.0  0.69939  0.48246  0.88719  1.0000
  H   H443      1.0  0.57476  0.49356  0.89118  1.0000
  C   C360      1.0  0.59182  0.49721  0.90592  1.0000
  H   H444      1.0  0.96019  0.47078  0.65193  1.0000
  C   C361      1.0  0.93750  0.50145  0.65635  1.0000
  H   H445      1.0  0.65513  0.50984  0.83568  1.0000
  H   H446      1.0  0.54358  0.91703  0.01762  1.0000
  C   C362      1.0  0.56488  0.92883  0.03016  1.0000
  H   H447      1.0  0.57844  0.89760  0.03739  1.0000
  H   H448      1.0  0.57913  0.93740  0.07039  1.0000
  N   N24       1.0  0.53940  0.96034  0.04537  1.0000
  H   H449      1.0  0.52365  0.99656  0.12715  1.0000
  C   C363      1.0  0.56883  0.96923  0.06273  1.0000
  H   H450      1.0  0.59351  0.94569  0.02290  1.0000
  H   H451      1.0  0.55118  0.99222  0.07486  1.0000
  H   H452      1.0  0.60013  0.98484  0.05754  1.0000
  C   C364      1.0  0.52383  0.00216  0.03521  1.0000
  H   H453      1.0  0.51041  0.90716  0.06260  1.0000
  C   C365      1.0  0.56869  0.56907  0.58863  1.0000
  Fe  Fe48      1.0  0.90386  0.92992  0.56784  1.0000
  S   S100      1.0  0.83148  0.91245  0.56626  1.0000
  S   S101      1.0  0.95736  0.87579  0.55890  1.0000
  S   S102      1.0  0.97808  0.81208  0.37637  1.0000
  H   H454      1.0  0.60259  0.58040  0.54934  1.0000
  H   H455      1.0  0.83236  0.87386  0.37117  1.0000
  C   C366      1.0  0.75362  0.54954  0.58232  1.0000
  S   S103      1.0  0.55004  0.72817  0.62514  1.0000
  H   H456      1.0  0.88679  0.77279  0.32087  1.0000
  H   H457      1.0  0.96010  0.64706  0.37187  1.0000
  H   H458      1.0  0.73009  0.55284  0.61407  1.0000
  Fe  Fe49      1.0  0.71953  0.72534  0.62853  1.0000
  H   H459      1.0  0.84153  0.83832  0.63194  1.0000
  H   H460      1.0  0.75890  0.81663  0.33482  1.0000
  Fe  Fe50      1.0  0.69720  0.63981  0.60463  1.0000
  S   S104      1.0  0.72183  0.59876  0.57609  1.0000
  S   S105      1.0  0.67503  0.71347  0.60219  1.0000
  C   C367      1.0  0.98002  0.98236  0.49416  1.0000
  Fe  Fe51      1.0  0.93536  0.97345  0.40797  1.0000
  S   S106      1.0  0.89130  0.91537  0.40217  1.0000
  H   H461      1.0  0.62207  0.63524  0.57633  1.0000
  C   C368      1.0  0.77395  0.83148  0.34873  1.0000
  S   S107      1.0  0.92552  0.91937  0.35364  1.0000
  Fe  Fe52      1.0  0.87171  0.95420  0.37459  1.0000
  S   S108      1.0  0.79924  0.96315  0.36656  1.0000
  Fe  Fe53      1.0  0.94891  0.88506  0.38172  1.0000
  H   H462      1.0  0.83550  0.65084  0.43460  1.0000
  C   C369      1.0  0.75157  0.53448  0.60237  1.0000
  H   H463      1.0  0.99840  0.71775  0.36464  1.0000
  S   S109      1.0  0.87664  0.63288  0.39529  1.0000
  C   C370      1.0  0.94988  0.76249  0.38216  1.0000
  C   C371      1.0  0.83402  0.77123  0.34532  1.0000
  C   C372      1.0  0.94620  0.67964  0.37826  1.0000
  C   C373      1.0  0.90635  0.68191  0.39036  1.0000
  C   C374      1.0  0.88866  0.72455  0.39851  1.0000
  C   C375      1.0  0.91047  0.76461  0.39458  1.0000
  H   H464      1.0  0.96272  0.78638  0.58063  1.0000
  H   H465      1.0  0.85792  0.72660  0.40794  1.0000
  H   H466      1.0  0.58004  0.65807  0.59499  1.0000
  C   C376      1.0  0.85683  0.67600  0.34209  1.0000
  H   H467      1.0  0.88596  0.80495  0.57558  1.0000
  H   H468      1.0  0.87708  0.53471  0.52066  1.0000
  C   C377      1.0  0.87818  0.76834  0.57553  1.0000
  C   C378      1.0  0.90081  0.60720  0.45357  1.0000
  H   H469      1.0  0.89704  0.79704  0.40132  1.0000
  H   H470      1.0  0.81245  0.62455  0.59605  1.0000
  H   H471      1.0  0.80361  0.00033  0.55144  1.0000
  H   H472      1.0  0.54796  0.55798  0.54958  1.0000
  C   C379      1.0  0.96779  0.71981  0.37417  1.0000
  C   C380      1.0  0.96194  0.98382  0.45814  1.0000
  H   H473      1.0  0.55587  0.61519  0.54194  1.0000
  H   H474      1.0  0.53983  0.63478  0.63741  1.0000
  H   H475      1.0  0.90516  0.69138  0.31858  1.0000
  H   H476      1.0  0.78242  0.53642  0.55166  1.0000
  Fe  Fe54      1.0  0.99183  0.93039  0.54267  1.0000
  H   H477      1.0  0.94292  0.58549  0.56919  1.0000
  C   C381      1.0  0.81360  0.87581  0.58523  1.0000
  C   C382      1.0  0.77627  0.84992  0.58217  1.0000
  C   C383      1.0  0.76317  0.81886  0.59681  1.0000
  C   C384      1.0  0.78696  0.81435  0.61472  1.0000
  C   C385      1.0  0.82333  0.84128  0.61801  1.0000
  C   C386      1.0  0.83698  0.87141  0.60322  1.0000
  H   H478      1.0  0.75795  0.85328  0.56830  1.0000
  H   H479      1.0  0.73494  0.79835  0.59420  1.0000
  H   H480      1.0  0.88457  0.68245  0.64066  1.0000
  H   H481      1.0  0.86550  0.89136  0.60586  1.0000
  C   C387      1.0  0.99942  0.93807  0.49097  1.0000
  H   H482      1.0  0.83322  0.88499  0.33402  1.0000
  H   H483      1.0  0.87785  0.83116  0.36789  1.0000
  H   H484      1.0  0.84322  0.76787  0.58194  1.0000
  H   H485      1.0  0.80777  0.67069  0.36664  1.0000
  C   C388      1.0  0.90689  0.75814  0.60918  1.0000
  H   H486      1.0  0.79764  0.66114  0.52566  1.0000
  S   S110      1.0  0.93563  0.95132  0.59683  1.0000
  H   H487      1.0  0.86619  0.63975  0.34127  1.0000
  C   C389      1.0  0.81710  0.63520  0.51622  1.0000
  N   N25       1.0  0.91049  0.74101  0.58741  1.0000
  C   C390      1.0  0.62468  0.51378  0.60139  1.0000
  H   H488      1.0  0.87844  0.75556  0.55922  1.0000
  H   H489      1.0  0.87256  0.75609  0.61619  1.0000
  H   H490      1.0  0.84472  0.68113  0.45813  1.0000
  H   H491      1.0  0.83164  0.70394  0.59950  1.0000
  Fe  Fe55      1.0  0.97161  0.00066  0.57752  1.0000
  C   C391      1.0  0.96181  0.00533  0.47772  1.0000
  C   C392      1.0  0.89287  0.56599  0.64454  1.0000
  H   H492      1.0  0.86737  0.56507  0.58120  1.0000
  H   H493      1.0  0.85013  0.53536  0.45294  1.0000
  C   C393      1.0  0.84651  0.60515  0.48220  1.0000
  H   H494      1.0  0.98185  0.92289  0.43976  1.0000
  Fe  Fe56      1.0  0.62186  0.69903  0.62629  1.0000
  H   H495      1.0  0.98266  0.73170  0.58807  1.0000
  C   C394      1.0  0.93085  0.65716  0.57760  1.0000
  C   C395      1.0  0.87664  0.60013  0.58270  1.0000
  C   C396      1.0  0.61255  0.54754  0.58787  1.0000
  N   N26       1.0  0.85233  0.60793  0.45960  1.0000
  H   H496      1.0  0.80530  0.66897  0.48881  1.0000
  C   C397      1.0  0.83045  0.64985  0.45160  1.0000
  H   H497      1.0  0.96417  0.66378  0.57194  1.0000
  C   C398      1.0  0.98154  0.93960  0.45486  1.0000
  C   C399      1.0  0.83713  0.59785  0.52548  1.0000
  C   C400      1.0  0.89989  0.69241  0.58602  1.0000
  H   H498      1.0  0.79352  0.65170  0.45478  1.0000
  C   C401      1.0  0.83290  0.56828  0.44923  1.0000
  C   C402      1.0  0.85703  0.67915  0.59287  1.0000
  H   H499      1.0  0.91480  0.79472  0.61076  1.0000
  C   C403      1.0  0.86778  0.75217  0.33090  1.0000
  H   H500      1.0  0.78832  0.75233  0.37015  1.0000
  H   H501      1.0  0.93061  0.73860  0.61868  1.0000
  H   H502      1.0  0.75655  0.81868  0.36250  1.0000
  H   H503      1.0  0.88491  0.54013  0.48356  1.0000
  C   C404      1.0  0.86160  0.56400  0.51349  1.0000
  C   C405      1.0  0.84069  0.83688  0.36797  1.0000
  Fe  Fe57      1.0  0.96757  0.97638  0.36335  1.0000
  C   C406      1.0  0.82167  0.63912  0.49491  1.0000
  S   S111      1.0  0.77475  0.77352  0.63277  1.0000
  H   H504      1.0  0.88048  0.84544  0.33161  1.0000
  N   N27       1.0  0.82324  0.82095  0.34820  1.0000
  C   C407      1.0  0.86607  0.56744  0.49219  1.0000
  Fe  Fe58      1.0  0.90140  0.55909  0.38780  1.0000
  C   C408      1.0  0.84570  0.63373  0.59110  1.0000
  C   C409      1.0  0.91912  0.61178  0.57598  1.0000
  H   H505      1.0  0.91902  0.57449  0.45691  1.0000
  H   H506      1.0  0.96103  0.73921  0.56266  1.0000
  S   S112      1.0  0.64076  0.62416  0.62656  1.0000
  H   H507      1.0  0.76542  0.86901  0.34944  1.0000
  C   C410      1.0  0.95628  0.74947  0.57927  1.0000
  S   S113      1.0  0.74516  0.65242  0.62926  1.0000
  H   H508      1.0  0.90635  0.61140  0.43675  1.0000
  C   C411      1.0  0.82371  0.69354  0.35636  1.0000
  H   H509      1.0  0.91732  0.63517  0.46176  1.0000
  C   C412      1.0  0.90346  0.61028  0.63864  1.0000
  C   C413      1.0  0.84319  0.84788  0.33174  1.0000
  H   H510      1.0  0.82651  0.81896  0.38119  1.0000
  Fe  Fe59      1.0  0.99170  0.90026  0.58675  1.0000
  H   H511      1.0  0.83335  0.59503  0.54197  1.0000
  H   H512      1.0  0.63824  0.55726  0.57706  1.0000
  H   H513      1.0  0.82283  0.97726  0.51578  1.0000
  C   C414      1.0  0.81268  0.74041  0.35815  1.0000
  C   C415      1.0  0.58559  0.64478  0.57881  1.0000
  H   H514      1.0  0.98391  0.55511  0.63259  1.0000
  C   C416      1.0  0.87881  0.70522  0.32939  1.0000
  C   C417      1.0  0.78134  0.52531  0.56725  1.0000
  C   C418      1.0  0.54995  0.52019  0.61703  1.0000
  C   C419      1.0  0.96067  0.53282  0.62461  1.0000
  H   H515      1.0  0.95069  0.54827  0.61008  1.0000
  H   H516      1.0  0.57778  0.67375  0.56885  1.0000
  C   C420      1.0  0.53745  0.55395  0.60353  1.0000
  C   C421      1.0  0.00071  0.91696  0.47123  1.0000
  N   N28       1.0  0.55736  0.60595  0.57460  1.0000
  C   C422      1.0  0.56631  0.58910  0.55295  1.0000
  H   H517      1.0  0.83819  0.00649  0.58324  1.0000
  S   S114      1.0  0.99499  0.94032  0.39005  1.0000
  S   S115      1.0  0.94626  0.52424  0.40982  1.0000
  H   H518      1.0  0.83576  0.56983  0.43217  1.0000
  H   H519      1.0  0.93231  0.61599  0.62881  1.0000
  H   H520      1.0  0.83220  0.83663  0.31633  1.0000
  C   C423      1.0  0.78814  0.01098  0.35186  1.0000
  C   C424      1.0  0.50969  0.62366  0.57675  1.0000
  H   H521      1.0  0.97988  0.99929  0.50919  1.0000
  H   H522      1.0  0.79680  0.56644  0.45379  1.0000
  N   N29       1.0  0.92090  0.52421  0.63802  1.0000
  S   S116      1.0  0.93503  0.98316  0.54909  1.0000
  S   S117      1.0  0.93483  0.52173  0.35975  1.0000
  C   C425      1.0  0.83447  0.00892  0.52210  1.0000
  Fe  Fe60      1.0  0.67599  0.69832  0.81676  1.0000
  S   S118      1.0  0.66889  0.75659  0.79576  1.0000
  S   S119      1.0  0.60834  0.66934  0.82277  1.0000
  Fe  Fe61      1.0  0.77416  0.71641  0.82406  1.0000
  S   S120      1.0  0.77241  0.77722  0.80456  1.0000
  S   S121      1.0  0.83955  0.68730  0.83639  1.0000
  Fe  Fe62      1.0  0.70454  0.79536  0.81956  1.0000
  S   S122      1.0  0.67785  0.86829  0.82499  1.0000
  Fe  Fe63      1.0  0.73674  0.73289  0.78259  1.0000
  S   S123      1.0  0.76019  0.73729  0.74950  1.0000
  S   S124      1.0  0.70882  0.73854  0.84150  1.0000
  S   S125      1.0  0.74132  0.67062  0.80121  1.0000
  C   C426      1.0  0.60032  0.58405  0.88863  1.0000
  C   C427      1.0  0.58760  0.66365  0.68555  1.0000
  C   C428      1.0  0.60319  0.62639  0.87984  1.0000
  C   C429      1.0  0.68386  0.61801  0.87955  1.0000
  S   S126      1.0  0.69326  0.60541  0.67984  1.0000
  C   C430      1.0  0.74172  0.69933  0.73067  1.0000
  C   C431      1.0  0.72175  0.65923  0.73576  1.0000
  C   C432      1.0  0.70746  0.62980  0.72010  1.0000
  C   C433      1.0  0.71281  0.64074  0.69946  1.0000
  C   C434      1.0  0.73308  0.68062  0.69447  1.0000
  C   C435      1.0  0.74776  0.70964  0.71002  1.0000
  H   H523      1.0  0.71710  0.65105  0.75170  1.0000
  H   H524      1.0  0.69164  0.59898  0.72401  1.0000
  H   H525      1.0  0.73771  0.68914  0.67860  1.0000
  H   H526      1.0  0.76330  0.74058  0.70604  1.0000
  C   C436      1.0  0.89017  0.71569  0.83387  1.0000
  C   C437      1.0  0.93153  0.69117  0.83579  1.0000
  H   H527      1.0  0.65032  0.72459  0.75108  1.0000
  C   C438      1.0  0.61862  0.71208  0.74648  1.0000
  C   C439      1.0  0.93071  0.78302  0.82686  1.0000
  C   C440      1.0  0.89001  0.76182  0.82950  1.0000
  H   H528      1.0  0.93203  0.65553  0.83925  1.0000
  H   H529      1.0  0.87581  0.68779  0.73806  1.0000
  H   H530      1.0  0.93015  0.81873  0.82348  1.0000
  H   H531      1.0  0.85851  0.78129  0.82822  1.0000
  C   C441      1.0  0.60290  0.91553  0.84188  1.0000
  C   C442      1.0  0.63501  0.87958  0.84411  1.0000
  C   C443      1.0  0.63464  0.85582  0.86223  1.0000
  C   C444      1.0  0.65729  0.98865  0.87465  1.0000
  H   H532      1.0  0.60313  0.93393  0.82786  1.0000
  H   H533      1.0  0.65952  0.82826  0.86409  1.0000
  H   H534      1.0  0.69868  0.92787  0.87953  1.0000
  H   H535      1.0  0.84286  0.63054  0.78631  1.0000
  C   C445      1.0  0.96597  0.64901  0.75973  1.0000
  H   H536      1.0  0.86456  0.72469  0.79365  1.0000
  C   C446      1.0  0.60022  0.61271  0.82917  1.0000
  C   C447      1.0  0.63954  0.55735  0.89324  1.0000
  S   S127      1.0  0.66443  0.71839  0.65249  1.0000
  C   C448      1.0  0.60757  0.71223  0.72586  1.0000
  H   H537      1.0  0.57296  0.64553  0.87580  1.0000
  H   H538      1.0  0.74591  0.93332  0.84791  1.0000
  C   C449      1.0  0.97236  0.71239  0.83307  1.0000
  H   H539      1.0  0.79625  0.59886  0.67327  1.0000
  H   H540      1.0  0.53865  0.76853  0.69847  1.0000
  H   H541      1.0  0.52885  0.62627  0.83403  1.0000
  Fe  Fe64      1.0  0.68704  0.64430  0.65110  1.0000
  C   C450      1.0  0.87634  0.64894  0.64533  1.0000
  C   C451      1.0  0.82660  0.60196  0.66379  1.0000
  H   H542      1.0  0.95668  0.52495  0.66596  1.0000
  C   C452      1.0  0.87907  0.63680  0.78387  1.0000
  C   C453      1.0  0.69291  0.95651  0.86984  1.0000
  C   C454      1.0  0.99721  0.73078  0.77493  1.0000
  H   H543      1.0  0.58622  0.62861  0.69128  1.0000
  C   C455      1.0  0.71966  0.95956  0.85202  1.0000
  N   N30       1.0  0.55565  0.69629  0.69730  1.0000
  H   H544      1.0  0.00396  0.69314  0.83444  1.0000
  S   S128      1.0  0.53721  0.92573  0.89766  1.0000
  C   C456      1.0  0.63584  0.57975  0.82963  1.0000
  C   C457      1.0  0.95121  0.72434  0.77589  1.0000
  H   H545      1.0  0.52704  0.66486  0.76671  1.0000
  C   C458      1.0  0.85347  0.56309  0.65726  1.0000
  H   H546      1.0  0.71618  0.63102  0.87560  1.0000
  H   H547      1.0  0.95557  0.61640  0.75412  1.0000
  C   C459      1.0  0.54841  0.55690  0.84045  1.0000
  C   C460      1.0  0.53738  0.67914  0.73466  1.0000
  C   C461      1.0  0.83818  0.64482  0.65793  1.0000
  C   C462      1.0  0.62759  0.53530  0.83541  1.0000
  H   H548      1.0  0.54659  0.95592  0.85604  1.0000
  C   C463      1.0  0.54914  0.67858  0.75522  1.0000
  H   H549      1.0  0.81706  0.67490  0.66291  1.0000
  H   H550      1.0  0.51457  0.54833  0.84445  1.0000
  H   H551      1.0  0.89650  0.60412  0.77810  1.0000
  H   H552      1.0  0.69512  0.52117  0.92124  1.0000
  H   H553      1.0  0.57102  0.52122  0.91660  1.0000
  C   C464      1.0  0.85688  0.71430  0.77771  1.0000
  C   C465      1.0  0.93412  0.68310  0.76826  1.0000
  H   H554      1.0  0.88595  0.62823  0.74284  1.0000
  H   H555      1.0  0.63708  0.98302  0.88832  1.0000
  H   H556      1.0  0.60497  0.85252  0.89281  1.0000
  C   C466      1.0  0.68143  0.57582  0.88853  1.0000
  H   H557      1.0  0.59517  0.75302  0.68922  1.0000
  H   H558      1.0  0.58097  0.66207  0.66886  1.0000
  H   H559      1.0  0.52834  0.83889  0.84762  1.0000
  H   H560      1.0  0.82100  0.70650  0.77845  1.0000
  H   H561      1.0  0.89189  0.64529  0.79930  1.0000
  C   C467      1.0  0.57267  0.90656  0.87646  1.0000
  C   C468      1.0  0.97206  0.75850  0.82860  1.0000
  H   H562      1.0  0.62276  0.67318  0.68692  1.0000
  H   H563      1.0  0.71270  0.55748  0.89147  1.0000
  H   H564      1.0  0.83290  0.65653  0.74984  1.0000
  C   C469      1.0  0.86977  0.66095  0.74923  1.0000
  H   H565      1.0  0.63222  0.72414  0.71506  1.0000
  N   N31       1.0  0.88585  0.67426  0.76975  1.0000
  C   C470      1.0  0.64479  0.64319  0.87519  1.0000
  C   C471      1.0  0.60385  0.86971  0.87848  1.0000
  C   C472      1.0  0.55653  0.60099  0.83442  1.0000
  H   H566      1.0  0.64667  0.67525  0.86767  1.0000
  C   C473      1.0  0.57121  0.92836  0.85787  1.0000
  H   H567      1.0  0.66960  0.58854  0.82561  1.0000
  H   H568      1.0  0.85959  0.74393  0.76775  1.0000
  H   H569      1.0  0.59867  0.69425  0.77707  1.0000
  H   H570      1.0  0.56701  0.57257  0.89111  1.0000
  C   C474      1.0  0.56627  0.69636  0.71932  1.0000
  C   C475      1.0  0.58389  0.52390  0.84098  1.0000
  H   H571      1.0  0.92993  0.75193  0.78311  1.0000
  C   C476      1.0  0.58959  0.69509  0.76112  1.0000
  C   C477      1.0  0.65912  0.51380  0.92263  1.0000
  H   H572      1.0  0.84283  0.53065  0.66218  1.0000
  C   C478      1.0  0.56013  0.74236  0.68922  1.0000
  N   N32       1.0  0.63801  0.51223  0.90245  1.0000
  H   H573      1.0  0.55035  0.74378  0.67291  1.0000
  H   H574      1.0  0.73198  0.99691  0.82506  1.0000
  H   H575      1.0  0.51379  0.78108  0.84729  1.0000
  C   C479      1.0  0.50954  0.68295  0.69326  1.0000
  C   C480      1.0  0.71148  0.99526  0.83908  1.0000
  H   H576      1.0  0.64183  0.54073  0.93315  1.0000
