data_image0
_chemical_formula_structural       FeSHFeS2FeSCS2C3SH2SH2C2HCHS2HCFeSCFeCFeH2C5HCH2SHCH3C2H2SHFeCSFeCSCH2NS2CHSHCH2CH3FeHFeHSHCFeSH2SHSHCSCHC3FeHCH3CNHCH4CFeC2HC2H2C3H2CH2CSCFeH2NCHC2HSCH4CH4FeCNCNHSHCH2C3H2FeH3C7H5CHFeH3CH3NCHFeC2SH3SH2C4H2C8H4FeC3H3CSCHSCHC3H4CHC2FeH7CH5C2H2C2H3CH3NC2SHNHCHC3H2SHCHCH3CH3C2HCH5CHNC6H2CH9CS2H2CSC2H2CH2CHC2FeSHCNC2H2CSCH3C2H2CSCH2CSC2HCH4FeSFeS2FeS2FeSFeCS2HC5H2FeS2FeSHFeCFeCS2C2H2C2NH2CH6CSCH2CH2C3H4SHSCH2CH3NH3C3H2C2SHC2HCHC6H4C6H7SCHC6H6FeCH2CHC2SCHCHCH5C2SCH3SHCH2CH2C2H2CNCHSCHC2HCHCHC3HCH3CHC2FeHCSHCH2C2HC6HC2H2CH2C2SC2FeH2SCHSCHC2HCH2CH2C2HCH2CSCHCHCNH4SH4CHSH3CHCHCHCH4CNH2CFeCSCS2CS2NSHNC9H14CSC2H4CHCSCHNHSFeHC5H2C2FeC3H4C3HCHC3H5CSCH5CH2CHC2H2C3HCH3NC5H8C4H2C2S2C2H3C2H2SC4FeCSH7CHC2HCNCHC2NFeCH2CH8CHC2HCHCHCHFeSFeS3HFeS2FeSHS2C2H2CH2CHC2FeC2FeS2FeSHS2FeS2FeS2FeSFeS3FeS2H2CFeSHSHCFeCSCFeC3SH4SH2SH2C6H4C6H4C6H4SH2C3H2C3FeHFeH2C2HCHC2HC7H4CHC6H4C2FeHCFeH4CH3SH2NFeCHC3Fe2CH2SH3SH2SC2SCH2CHCFeSHSHC2SH3CFeH2CH2CH5NC8H6CH5C2H7CHCFeHCSC4H4SCHNC2SC6H2CH5CH7C2SH5NH3CHCHC2HCH2NC2HCSCH4NHCNH3C2HCH2S2CNH5SHNFeH2FeCHCHCSC2HCHCH5FeHSHNH4CH3C2HCSNC2HC6H6C2H7CHCSHC10H2C2HC2H4CHCNC9H9CHCHFeH3C2HCHC2Fe2S2FeS2FeHFeSCSFeS2H3FeSFeCS2FeHNCFeS2FeS2FeSFeS3HFeS2FeS2FeSHFeSFeS5HCSH2NCHC3HCH4C2H2CNSC2SHSHCH2C7H4C6H9C6H2SCHFeCFeCHC6H5CHC3H2SCHCH3SCSHC2HCHCHCH5SHC3H2CHC6H4C6H4CNC9H14C2NC9H14CH5C2H2C3H4CHC2H2SH2CHCHNC3NHC2HNHCH2CH3CH3C2H3CH2NC9H14C2HC2HCH3C9H2C5H2CH10CH4NHCH4CHC2H2CH2C2HC2H2CHCHCNH3CSFeC2H4SFeS2FeSFeS2CHCSHFeS2FeS2FeCFeS3HCHSHCH2S2CH2CH3C2FeCSFeCSNCH2S2HSC2S2CHFe2S2H3SHNHCFeSHSNFeSCSFeS2FeS2FeSFeCS2NC3HSHCHC7H4CHC5H3SC6H4S2CSFeHCH2CSCH2FeC6H8CH4C2H3FeC2H2C2H4CHC2SC2HSHCHC6H4CSHCNCHC2H3CHC7H4C6H4C6H6NHFe2SCFeH3C2HNFeCH2CH2CHNC9H17C2FeHSC4H2FeHC2HSH2CHC2HCSC2NHCH2CHCHCH2SH3CHCHC2NC2H5FeHNCHNC2HC2HCH7C2H7FeC2HC2HCHSHCH3C2HC2H3CH2C4NHC2SH2CHNHC2H2CH5SHC3H6CH2CFeHC3H2CSH3SH3FeH2CHSHFeHFeS2FeSFeSFeS3H2CHCH2SHC3FeS2CHFeSHSNCHC2NHCSFeS2Fe2HFeS3FeSFeSFeCS2C6H2SHCHSH2C4H6C2H2C9HSH2CHCH2CH2CSCH2C6H4FeSH4SH2C6H2C7H4C6H4C6H6S2CSFeC2H2CH3C5HC2H4CH3CHCH3CH2CNC3HCSHC3HC2H3NH3C2HCNC8H8CNC9H14NC9H14C2HCH2CH6FeHNCSH2C2H2CHSHSCHC2H5FeSCH2NH2CSCH3CSC3HCSH5C2H4C2HCH2S2NH4CH4CFeC2H2SHFeCHCH3CH7CNH2NHCHC2HCHC2H4CHCHCH2CH3CHCH4CHCHCH3C3HCHSCHFeSHCHFeH2SFeS2FeS2FeSFeS3HS2FeSFeHSFeS2FeS2FeSCS2FeS2FeS2FeSFeS3CHSH3FeHSHCHC3NHCH3CH2S2HC2H2SCH2CFeC4HC6H4C6H4C6H4C6H3CH2C2H6C6H4CHSH2C5HCH3CH3SCSH6CSH3C2HC2HC3SCH8CHCHCHCHCH5C3HC3HC2SH2CHCFeH2NH3C2SC2NH2SHC2SH3CHSCFeC2HC2H2CNC9H14NC2HCHCH5SC2FeHC2HC2H3NCHC3H2CH6C2H2CHCFeC2H2C6H3CNCNC7H3CHCSH5FeSH2NC9H17CHSHCH2C2HCHCFeC2HSHC2HC5HNH5C3FeH3CHCH4CNH4SHC2SCSHC2HSCSH5C2HNSNHC2H3CH3CHFeS2HNSHSNC2SCHSCFeSFeSCHFeS2FeS2FeSFeS3HFeSNSHSFeSFeS2FeS2FeS2FeSFeS3CSHFeS2C6H4CH3CHC6H4C2H2C5H3C6H4C6H4C6H6C2H4C2H2C6H4C4H3CSCHC6H2CH2CH2CH5FeC2HCHNC9H17FeHCH2CHC4H2FeH2CSHCH5C2H8FeC2H6NHSHNCHCH2CSHCHCHSCNH4C2H3NC6H9CHCH2C2FeH4SC2NHCH3CH3CH2NH2CNCH2C5HCH2C2H2CH4CHCHC2H2C3HSFe2HCH3C3HSCH2CH2CH2C2SCHCSFeHCHC5HCHC3HCFeH4CH2NH3FeC5HC4HC2H2NH2C2H2CH2SHSC2H2SHC2H2CNHS3CH4FeS2FeS2FeSFeS3HFeS2FeS2FeSFeS3FeC2Fe2S2FeS4FeH4C2HCSHFeHSHSH3CSH5CHC2H2C4SC3H2CHC6H5C2NHC2H4C6SH3C6H4C6H4C6H4C6H4C5NH2C2NH2C2HSH7NCH2C3H2C2HCH3C2HCHC2H2NH2C2HC2HCH6NCHCHC2H2FeHCHCH3NHNC9H11CHSH2CSFeCHFeHCHC5SHCSH2CH4CH2C2FeCH4SC3H5SNHCHCH2NCFeC2NC2H3C2HC2HSHC2SH6CH3CHCHFeH2CHCH2C2H3CH2CHSCH4CHC2H3C2HCHNHC2H9CH2C2HCSHFeSFeHFeH2FeS2FeS2FeSFeHS2FeS2FeS2FeSFeS3HCSFeCSCH2CFeS2H3C3NCSH3FeS2C2FeSHSFeSHFeHSHFeSHSHCHCHC6H2CH2CHCHC2H4CH2CHSCSCH8C2FeHSCHC6H4C6H4C2H2C2HCH2C6H4C6H4SCH3SNHCHC6H4C6H4SCHC3FeH2C3HC4HC3HSC2H2NHCH2CH2CHS2CH3C2HCNH5NC2HC2H3CSHFeH2C2HFeC2H4CNC9H14NH3C3H5CH2C2H2CHCHNC4H3SCHC3H2CHC2HCNC5H8FeC3HC2HCH3CSHC5H3CHCHCHCH4CH2FeC2H2SNHCHCHS2CH3CHNHFeHCHC4HC2H2CH2SCH7CHC2HSCH3NSHFeCHC2H4C2HC2HCSHC2HNCHCH2C3SCHSH2CSCHSFeS2FeSHFe2S2FeS2FeSHFeSFeS4C2NCH3CHSCHCHSH2C4H3C3H4C3HC6H5CH2NC3H3CNCH2CSC6HCH2C2H3C2HC7H4SCSCFeCHCH3C3NHC2HCHSCHSCH2FeH2FeHC2H3SH6CHCH5C2H3CHC3H3CHC2HC3HC2SCHNFeSCSH2NC6H2CH11FeHSHFeHCHCH6C2H2C2HCS2CSNC9H14NC9HC2H11NC9H14SCSH2CH2CH2C2HCH2NSCSHCH2CHCH3C2SHCFeH2SCSHC2H4CH3C3H4C2HC3H2CFeHCHC3H4CH2CH3FeHFeS2FeS2FeSFeS3C2HSCFeSCH2CS2CSH2SHFeSH2SH2FeSFeS2FeS2FeHFeS3H2C2HCH2Fe2HC6H4C6FeH3C6H3CHNHC2H2SHC5HC2FeHC6HCH2C5H3SHC6H4C6H6C3H2CSH3CSHSH2CHC2HCHCH2CHS2H3C3HCHCH2FeHSC2H3Fe2H2SCH4CHCHNC3HNHFeNH2CH2SHNC9H14SC4HCH5SCHC3HSHCH2CH3CH4CHCH4C2SNHC6NFeHCHCH5CH2CH2FeCH3CHC2SC3SHNCHC4H2CH7CH2SH2C2H2CHCHC2H2C2HCH2CSCHCHSC2H2CFeSCSHSCHFeH3CSCFeSFeSHCSNH2FeS2FeS2FeSFeS2FeSFeS3FeS2FeS2FeSFeS3H2CHC3H4C6H4C6H4C6H5NCFe2C3H2NH3CH2FeC2H4CHC7H7SC5H4C6H2FeC2H2SCNC4HC2NHCHFeH4CH3CHCH6C3HCSC3H2C2H4CSHC2HSCH2CH2CHCHCFeH2SCSH2C2H4CHCHC2SC2HSH2CH4CHCH2CH4C3H2C2HCNH2CHCHC3HC2NH4CH3SH3CH3CHCH3CH2C2H3C3HCH3NC4NCHC3SC3H2CHCH9CHCHCHCSH2CH2C2NCSHCH3C2H3C5SC3HCHCH2C2H2C2H8SH9C5H5S2FeHFeHSFeSFeS2FeSFeHSFeSHFeS2FeSFeS3CSHC2H2CH3FeHSHFeS2FeSFeSFeHS2FeS2FeHSFeHFeS3H3C2HC3SCSHNH2C6H6C8H5C9H4CS2HC7H5C2H2C2HSC7H5FeHCHC4H4C4H2CH3CH5C2H4CHNCSC7H4CSH4CHCHNC5H3SH9CSHCSC2HSH2CH3SH2C4H2CHCH5C3HCH2C2H2SHCNC6HFe2HSC3HCH2CFeC4HCFeC2H5CH5CHCHCH3FeSHCNC2SCHNHCH2C2H2CH2C5HNCHCH2NC9H14SC3H2SCHCHC2HC4SCHCFeH6C3HCFeH2C2H2CH4SH5C4HNHC2H2C2SCH2CHCH2CH2CN2C3H4SH5CHC2H2C2SHC2H3NCHC2SHCHSCNH3SH3Fe2HS2HCH2SCHFeS2FeS2FeSFeS3HCHCHFeS2FeH2FeSFeS4FeHFeS2FeSFeHS2HCHCH2FeC2HCH2CS2HCH2C6H3C8H4C2H4SC2HSHC7H4C6H4C6H4C7H7CSCH3CH3CH2SH2CNCH2C3H4CHC2H6C2H5NC3HCH2FeHCHCHC2H2CHCH8FeCH2CH2FeC3S2HNC9HCH3CHC2H5CHCHC4H2CHCHCH2FeC2SH2SC3H3SH2C2H2CH7SC3H2CNC5H12SCHSH3NH2NCHC6HCH2C2SHCHCHCSHNC2H2C6H2CHC3H2CH2FeH2CH3C4HCH3C2HC3HC2HC2H5C2FeHCHCH2SFeSCHFeSFeS2CHCH4FeCSFeS2FeSCS2H2CFe2S2HCH3C2HCSH3C4HC2H3CHC2NFeCSH2C6HSH7SNC2HC2H4CHCHC6H4C3H2C4H2C3H2NHNCHCH3CH4CH4SC4HFeHCHSHCHC3H4CHFeH6SC3HSCH2CHCHNCHSCHCFeCH2C6SNHSH6CFeHC2SC2FeHCNSCNSNHCHC2SC2H2SH2CFeHCH3CH5CH3CH4C2SH4C2HFeS2HSCHCNCH2CHSCH2CH2C2HC3HC3SH3C3H3CH6FeH2C2HCHCHSHNH4FeS2CH2CSC2H2CHCH2SH2C2HCSH2C3HCFeS2FeS2FeSFeS3HCH3NCFeS2FeS2FeSFeS3FeS2HFeSFeS2FeSHCHCH2C6H4CH2C3HNH2C6H4C6H3C3H4C6HCHC7H4FeC2HC5SH4C3H4C5H2SH4CNCH2C4HNH3C2HCHC2HCFeH2FeH2NHCSHSC3HCH2SC2H3C3H2CHNC9H14SHCSCFeHSHCHNH2CH2CHFeH4C3H2SH2C3SH2CSH6CNH3CHC2FeH4C2H3C2HC4H2CHCHCH3N2FeC2SH6CH4CHFeSHCH5C2HFeHC2H2CHCHC2H2C2H2SNSHCH2CH3CH3C3H3CHC2HC2H2CH2C2H2CH2C2H4CH2SHC2HCSHC2SH2C2H2SHCNHC2H2CH2C2HNH2C4HC2NCHC3HFeHC3H2C2H2CH3CFeSNFeS2HFeHS2FeSCFeSHCHFeSHSHCHCFeCH3FeS2CFeHSFeSCFeS2Fe2S3FeSCFeS2FeSFeS3CHCSHCHCH4C6H4C7H3CHC5H4C4HFeC6H5CH2CSCSC4SHCHCHFeH4CH2C7H2CHSHCHCSHCH2CHC4HSCHCHNH2C2H3C2HCH2C2FeC2H5SHNC5H8NC8H15CHCSCH2CHCHS2CHCHC3SHSCHCHSCHCH2SC2HSC2HCH3CH2NH4NCH2SHCFeH4FeC2HSNC2H4CHCSCH3CH2FeH7CHCSH2C3HSHC4H2CHC3FeHCHC2H5C2H3C2N2CNSHC2HCHC3H2C2H3CNC7H13FeCHC2HCH3CHC2HSH2CH2CH2C2H6CH2SH3FeSFeSC2SHSHFeSCFeCFeSHSFeS2FeS2Fe2S3H2CFeS2FeCFeSFeS3FeS2HFeSFeS2HFeS2FeS2FeSFeS3HFeCSH2CH2C6H4CH5C6H4NH5C6H3CHC4H3C7H4SCH2CH3CHC6H4NH4C7H5C4H4C7H4C2H3CNC2SHC2H3CH3SHC2HCHC4H5CFeCH3NHNCNHCH2C4HS2HCFeH4C2HCHC2HCH4CHC2HCHC2HCHCH6CSHCH2C3HCHC2S2C2H3CSC2H3NC6H8CHCH3CH2C3HFeH2SCNCHC2H2CHCH3CH3CH2CHC2HFeHSHC2SHCHCHSC2HC3H2CH2CH2NC2H2SHCHFeC2HCH3C3HCHCH2SHCNCHNH4CHC6SH2C2SCHCH7CH2FeC2HCH4CFeSH2NHCFe2S2FeSHSCH3FeH4SC3S2CH2FeH3CFeS2FeS2FeSFeS3HFe2S2FeSHFeSFeHS2HC7H6SC4H4SC5H2CH2C2HC2HSC7H4C3HCHCH2C4SCHNH2C5HCHC4H6SC3HC2H2SHFeSCHSCH5SHC2SCFeCSC2HC3HSCSHFeHCH2CHCHCHNH2SHCHNH2C2H2FeC2H2C2SCNC9H7CH5CNHCHSH3CH3CH2CH2CH5C4H2SH5SH2NC9H17CNH2CNC2NC9H11SC2SC2HCFeHC2SHFeCHCH2CHCHCHC2HCH3C3SCH2FeH3SCH2CH2CFeH2C2HCHCSCH2CHC2H3SHC2FeS2FeS2FeSFeS3C4FeHCFeSHSH2SH2S2FeS2CH2FeSHSCHFeCSCHCS2FeSHSFeCFeHC4H2C3H3S2FeC7H3FeC4H3C3H5C6H3FeNCNCHC6H4C6H3C6H4C5H4CFeNC5H2CNH12C2HS3C2HCSH2C2HSHC2HCH4NC4H3C2H11C2FeHC2NC9H15CH2CHC4HC3H2SCH3CH2CH3C2H3SH2CH2SC2SCHNH2NC9H7CH3C2H2FeH3SH3SNCHSH3CHCHCFeC2H4C2SH2C3SHCHSFeH7CH4C2HC2NC2SH2FeHCHCSHCH2CSCHNCHSC3H2C2H2C3H4CH2SH2SHC2HFeH2CH2FeC2NCH2CHCH5NH2CHC2FeCHC2H6SCFeSFeS2FeS2Fe2S3HSHFeSHFeSFeS3FeS2FeS2FeSFeS3CH3FeHSCHSH3NH2SH3CSHCHC3SCSH3NHCHCHCHC6H4CHFeH2SC3H2C4HCHC9H3C7H4C3H3CH2C6H5C8HCHFeHCSHC3HC2H2C4HCHCHCHC2HSH3CH2C4H3C2HCHCHCHSCNHSHCNHCH2C2H4CH6C3NC9H16CHFeCHC5H2SH2CHSH3CNC9H14NC9H14C2SC5FeHFeHCSFeCHCHC3H3CH2SHC7HCNC2SCH2C2H6CHCNH2CHSHSHC2SFeHSH3CH5C2HCH2CHCH3C2H2FeH2CHC4H7C2NCH2SCH2CH6C3H2FeS2FeS2FeSFeS3H2SHFeSHFeSFeS2FeS2HFeS2FeS2FeSFeS3CHSCHCFeC2FeH2SCHSCHSCS2CSCHC2H2CHCHC4SC2SH2SHCHC2H2CHCHC6H5C6H5CH2CH3CHNHC6H4C2H2C2HC2H2C2FeHC2H4C6H4C2HC2H2SC7H6CHFeC4HSFeC4H2CH5SNC7H10C2HC4H8SCSHCH3SH3CH4CNHCH2C3SHNC9H16SC2H2CHN3H3CH2CHSC3H3CFeCSCHC2HC2HNC9H14SHC2HFeH3CFeCHCHCH2FeHFeH2CH2CHCH2SHCHSCHC3HSNHNFeC3H3CH3C3HC2HC3HCH11CHCFeCH2C2H2C2HC4HCH2CHCHCHC4H2NCHSH2SC2SCHSFeSHSCH3C2SHSH3SCFeHSHSFeS2FeSFeS3FeS2FeS2FeSFeS3CH2CHFeSHSCH2C3HC3H4C6H4C6H4C6H4C6H5CH4Fe2H2CHC3H4FeH3C6H4FeSHCSH5C4H3CFeC4NH2C2HC2H3C3HC2HC3H2C3HC2H3C2NCHFeH3SCFeHCNCHCHCHCNH2SCHNH8CH2NSC2HC2H2NH2C3H2CHC4SHCHCHSNH3C2H2CHCHC5HC2HCHCHNC6H12NC9H8CH2CH2CHSH2CHCH3FeHCH3CSHSCH2NHCH6C4H3FeHFeHSHC2H10C2HCH2CHC2HCHCSFeHCH2CH
_chemical_formula_sum              "Fe544 S1088 H4896 C4080 N272"
_cell_length_a       76.3512
_cell_length_b       76.6942
_cell_length_c       76.6787
_cell_angle_alpha    75.4694
_cell_angle_beta     75.4933
_cell_angle_gamma    75.63

_space_group_name_H-M_alt    "P 1"
_space_group_IT_number       1

loop_
  _space_group_symop_operation_xyz
  'x, y, z'

loop_
  _atom_site_type_symbol
  _atom_site_label
  _atom_site_symmetry_multiplicity
  _atom_site_fract_x
  _atom_site_fract_y
  _atom_site_fract_z
  _atom_site_occupancy
  Fe  Fe1       1.0  0.08017  0.44714  0.01117  1.0000
  S   S1        1.0  0.06278  0.46037  0.03456  1.0000
  H   H1        1.0  0.04944  0.00499  0.19115  1.0000
  Fe  Fe2       1.0  0.11152  0.42959  0.03200  1.0000
  S   S2        1.0  0.09632  0.44083  0.05711  1.0000
  S   S3        1.0  0.14010  0.41201  0.03141  1.0000
  Fe  Fe3       1.0  0.07170  0.43323  0.05244  1.0000
  S   S4        1.0  0.05141  0.41875  0.07416  1.0000
  C   C1        1.0  0.19900  0.13498  0.25655  1.0000
  S   S5        1.0  0.08740  0.41944  0.02900  1.0000
  S   S6        1.0  0.10585  0.45624  0.01195  1.0000
  C   C2        1.0  0.01097  0.41443  0.05005  1.0000
  C   C3        1.0  0.98741  0.40315  0.25497  1.0000
  C   C4        1.0  0.98710  0.03868  0.23433  1.0000
  S   S7        1.0  0.23333  0.34838  0.09514  1.0000
  H   H2        1.0  0.98728  0.20285  0.28951  1.0000
  H   H3        1.0  0.16950  0.29812  0.25746  1.0000
  S   S8        1.0  0.20695  0.02532  0.09239  1.0000
  H   H4        1.0  0.22565  0.24386  0.97735  1.0000
  H   H5        1.0  0.22251  0.43430  0.18219  1.0000
  C   C5        1.0  0.03618  0.45401  0.10936  1.0000
  C   C6        1.0  0.14398  0.99304  0.06442  1.0000
  H   H6        1.0  0.15467  0.45642  0.01220  1.0000
  C   C7        1.0  0.01830  0.36619  0.23895  1.0000
  H   H7        1.0  0.01202  0.12095  0.28980  1.0000
  S   S9        1.0  0.14658  0.03577  0.01705  1.0000
  S   S10       1.0  0.05891  0.01782  0.27060  1.0000
  H   H8        1.0  0.11496  0.97692  0.15423  1.0000
  C   C8        1.0  0.06386  0.97679  0.19602  1.0000
  Fe  Fe4       1.0  0.00582  0.02244  0.28762  1.0000
  S   S11       1.0  0.01859  0.04249  0.26434  1.0000
  C   C9        1.0  0.03071  0.98021  0.02308  1.0000
  Fe  Fe5       1.0  0.03856  0.04091  0.28199  1.0000
  C   C10       1.0  0.99306  0.42662  0.07742  1.0000
  Fe  Fe6       1.0  0.23030  0.03416  0.09886  1.0000
  H   H9        1.0  0.08862  0.40326  0.30015  1.0000
  H   H10       1.0  0.14702  0.00354  0.10503  1.0000
  C   C11       1.0  0.14691  0.97562  0.11972  1.0000
  C   C12       1.0  0.05371  0.99597  0.21900  1.0000
  C   C13       1.0  0.03480  0.43071  0.02882  1.0000
  C   C14       1.0  0.99323  0.07141  0.29755  1.0000
  C   C15       1.0  0.10796  0.99159  0.19410  1.0000
  H   H11       1.0  0.20084  0.32197  0.03161  1.0000
  C   C16       1.0  0.99052  0.35389  0.25551  1.0000
  H   H12       1.0  0.01199  0.02170  0.20792  1.0000
  H   H13       1.0  0.98819  0.37455  0.21059  1.0000
  S   S12       1.0  0.04291  0.01733  0.22489  1.0000
  H   H14       1.0  0.99077  0.43621  0.08643  1.0000
  C   C17       1.0  0.01525  0.43273  0.11922  1.0000
  H   H15       1.0  0.09056  0.42683  0.29762  1.0000
  H   H16       1.0  0.07328  0.37840  0.28276  1.0000
  H   H17       1.0  0.00361  0.42777  0.12865  1.0000
  C   C18       1.0  0.17089  0.30871  0.24515  1.0000
  C   C19       1.0  0.23056  0.41999  0.18273  1.0000
  H   H18       1.0  0.20736  0.15198  0.22166  1.0000
  H   H19       1.0  0.00771  0.42482  0.01485  1.0000
  S   S13       1.0  0.15311  0.01577  0.97320  1.0000
  H   H20       1.0  0.99558  0.31804  0.27043  1.0000
  Fe  Fe7       1.0  0.20929  0.41771  0.08589  1.0000
  C   C20       1.0  0.15544  0.46691  0.99977  1.0000
  S   S14       1.0  0.19033  0.43907  0.06928  1.0000
  Fe  Fe8       1.0  0.21007  0.40096  0.12619  1.0000
  C   C21       1.0  0.11280  0.46537  0.08518  1.0000
  S   S15       1.0  0.19149  0.40186  0.15409  1.0000
  C   C22       1.0  0.02106  0.44767  0.12175  1.0000
  H   H21       1.0  0.20438  0.31975  0.20803  1.0000
  H   H22       1.0  0.13085  0.01171  0.16977  1.0000
  N   N1        1.0  0.98816  0.45723  0.27915  1.0000
  S   S16       1.0  0.21747  0.42691  0.10777  1.0000
  S   S17       1.0  0.19951  0.39319  0.10501  1.0000
  C   C23       1.0  0.12148  0.36278  0.29589  1.0000
  H   H23       1.0  0.01880  0.37975  0.21069  1.0000
  S   S18       1.0  0.02185  0.40795  0.25550  1.0000
  H   H24       1.0  0.12092  0.34210  0.23694  1.0000
  C   C24       1.0  0.10215  0.37987  0.27419  1.0000
  H   H25       1.0  0.20653  0.35634  0.07070  1.0000
  H   H26       1.0  0.17954  0.99647  0.05191  1.0000
  C   C25       1.0  0.21847  0.28955  0.06498  1.0000
  H   H27       1.0  0.21361  0.01735  0.00731  1.0000
  H   H28       1.0  0.15742  0.46498  0.10072  1.0000
  H   H29       1.0  0.13352  0.11386  0.98268  1.0000
  Fe  Fe9       1.0  0.04294  0.99965  0.29351  1.0000
  H   H30       1.0  0.16571  0.99043  0.03091  1.0000
  Fe  Fe10      1.0  0.20747  0.36051  0.25058  1.0000
  H   H31       1.0  0.01284  0.18211  0.29976  1.0000
  S   S19       1.0  0.18387  0.34749  0.25215  1.0000
  H   H32       1.0  0.23144  0.41619  0.16938  1.0000
  C   C26       1.0  0.11958  0.37433  0.27892  1.0000
  Fe  Fe11      1.0  0.22716  0.01924  0.06678  1.0000
  S   S20       1.0  0.06743  0.45241  0.98604  1.0000
  H   H33       1.0  0.14602  0.00676  0.05594  1.0000
  H   H34       1.0  0.12976  0.35495  0.24847  1.0000
  S   S21       1.0  0.12909  0.05794  0.97106  1.0000
  H   H35       1.0  0.00308  0.32875  0.28484  1.0000
  S   S22       1.0  0.21629  0.34139  0.27578  1.0000
  H   H36       1.0  0.05293  0.39734  0.02577  1.0000
  C   C27       1.0  0.99466  0.16493  0.29742  1.0000
  S   S23       1.0  0.00964  0.45843  0.14041  1.0000
  C   C28       1.0  0.15084  0.08886  0.99356  1.0000
  H   H37       1.0  0.22528  0.27521  0.06748  1.0000
  C   C29       1.0  0.20130  0.39039  0.17340  1.0000
  C   C30       1.0  0.19053  0.39063  0.19111  1.0000
  C   C31       1.0  0.19833  0.38227  0.20669  1.0000
  Fe  Fe12      1.0  0.08898  0.46699  0.03696  1.0000
  H   H38       1.0  0.00808  0.06552  0.29727  1.0000
  C   C32       1.0  0.21981  0.38144  0.17136  1.0000
  H   H39       1.0  0.17619  0.39752  0.19281  1.0000
  H   H40       1.0  0.19004  0.38287  0.22031  1.0000
  H   H41       1.0  0.03141  0.36920  0.23911  1.0000
  C   C33       1.0  0.19096  0.32070  0.21718  1.0000
  N   N2        1.0  0.02628  0.41425  0.03373  1.0000
  H   H42       1.0  0.04069  0.46559  0.11122  1.0000
  C   C34       1.0  0.17685  0.33570  0.21345  1.0000
  H   H43       1.0  0.14980  0.97554  0.03702  1.0000
  H   H44       1.0  0.01554  0.40027  0.01853  1.0000
  H   H45       1.0  0.00986  0.00548  0.24058  1.0000
  H   H46       1.0  0.99080  0.44809  0.25396  1.0000
  C   C35       1.0  0.21317  0.15666  0.23125  1.0000
  Fe  Fe13      1.0  0.15053  0.03944  0.98629  1.0000
  C   C36       1.0  0.21490  0.25213  0.27532  1.0000
  C   C37       1.0  0.00735  0.42711  0.06187  1.0000
  H   H47       1.0  0.98513  0.43166  0.27430  1.0000
  C   C38       1.0  0.05511  0.99368  0.20111  1.0000
  C   C39       1.0  0.14190  0.32647  0.27349  1.0000
  H   H48       1.0  0.18639  0.37202  0.06474  1.0000
  H   H49       1.0  0.18952  0.06445  0.02320  1.0000
  C   C40       1.0  0.17420  0.34940  0.05125  1.0000
  C   C41       1.0  0.22036  0.28839  0.26619  1.0000
  C   C42       1.0  0.19828  0.11596  0.26126  1.0000
  H   H50       1.0  0.15721  0.13265  0.97706  1.0000
  H   H51       1.0  0.06007  0.98303  0.24566  1.0000
  C   C43       1.0  0.23163  0.25612  0.26444  1.0000
  H   H52       1.0  0.17944  0.34642  0.20137  1.0000
  H   H53       1.0  0.01438  0.99311  0.97851  1.0000
  C   C44       1.0  0.08669  0.37400  0.28645  1.0000
  S   S24       1.0  0.04480  0.06797  0.28292  1.0000
  C   C45       1.0  0.02228  0.98044  0.97447  1.0000
  Fe  Fe14      1.0  0.03766  0.01775  0.25507  1.0000
  H   H54       1.0  0.18766  0.11883  0.98333  1.0000
  H   H55       1.0  0.18198  0.16202  0.25939  1.0000
  N   N3        1.0  0.19334  0.34722  0.05374  1.0000
  C   C46       1.0  0.17303  0.99079  0.11319  1.0000
  H   H56       1.0  0.11637  0.99634  0.20125  1.0000
  C   C47       1.0  0.98729  0.32556  0.97313  1.0000
  C   C48       1.0  0.18328  0.97491  0.12225  1.0000
  H   H57       1.0  0.00204  0.39048  0.04728  1.0000
  S   S25       1.0  0.12454  0.97625  0.11695  1.0000
  C   C49       1.0  0.00194  0.01399  0.20668  1.0000
  H   H58       1.0  0.22830  0.08615  0.99520  1.0000
  H   H59       1.0  0.12986  0.00354  0.14982  1.0000
  H   H60       1.0  0.02444  0.44364  0.02633  1.0000
  H   H61       1.0  0.12888  0.32801  0.28400  1.0000
  C   C50       1.0  0.22569  0.39184  0.29375  1.0000
  H   H62       1.0  0.13913  0.29633  0.26413  1.0000
  H   H63       1.0  0.18155  0.09544  0.27407  1.0000
  H   H64       1.0  0.14594  0.45079  0.98608  1.0000
  H   H65       1.0  0.17899  0.00285  0.10722  1.0000
  Fe  Fe15      1.0  0.01969  0.39433  0.28532  1.0000
  C   C51       1.0  0.16248  0.97743  0.04031  1.0000
  N   N4        1.0  0.11868  0.98774  0.17597  1.0000
  C   C52       1.0  0.15488  0.99115  0.11199  1.0000
  N   N5        1.0  0.13857  0.32554  0.25552  1.0000
  H   H66       1.0  0.15142  0.39618  0.29251  1.0000
  S   S26       1.0  0.03795  0.40179  0.29991  1.0000
  H   H67       1.0  0.22843  0.41168  0.25010  1.0000
  C   C53       1.0  0.01186  0.13449  0.29185  1.0000
  H   H68       1.0  0.21260  0.23824  0.27873  1.0000
  H   H69       1.0  0.99121  0.99403  0.25174  1.0000
  C   C54       1.0  0.21697  0.37370  0.20458  1.0000
  C   C55       1.0  0.17782  0.10991  0.98671  1.0000
  C   C56       1.0  0.01121  0.37219  0.22294  1.0000
  H   H70       1.0  0.12858  0.30745  0.24467  1.0000
  H   H71       1.0  0.19907  0.29568  0.23603  1.0000
  Fe  Fe16      1.0  0.21779  0.18458  0.28823  1.0000
  H   H72       1.0  0.13599  0.41298  0.10369  1.0000
  H   H73       1.0  0.18834  0.26287  0.29066  1.0000
  H   H74       1.0  0.20944  0.07071  0.97311  1.0000
  C   C57       1.0  0.18181  0.11000  0.27026  1.0000
  C   C58       1.0  0.20214  0.02547  0.03343  1.0000
  C   C59       1.0  0.20109  0.02182  0.01678  1.0000
  C   C60       1.0  0.18395  0.02441  0.01204  1.0000
  C   C61       1.0  0.16781  0.03087  0.02384  1.0000
  C   C62       1.0  0.16875  0.03402  0.04080  1.0000
  C   C63       1.0  0.18595  0.03119  0.04568  1.0000
  H   H75       1.0  0.11771  0.42596  0.13063  1.0000
  H   H76       1.0  0.18329  0.02168  0.99906  1.0000
  H   H77       1.0  0.15624  0.03912  0.04992  1.0000
  H   H78       1.0  0.18674  0.03417  0.05849  1.0000
  H   H79       1.0  0.15303  0.11795  0.28208  1.0000
  C   C64       1.0  0.99968  0.40104  0.05511  1.0000
  H   H80       1.0  0.01401  0.35333  0.26720  1.0000
  Fe  Fe17      1.0  0.22859  0.37819  0.09689  1.0000
  H   H81       1.0  0.99099  0.42598  0.20322  1.0000
  H   H82       1.0  0.21020  0.10523  0.99972  1.0000
  H   H83       1.0  0.04125  0.15978  0.29493  1.0000
  C   C65       1.0  0.12250  0.00542  0.16397  1.0000
  H   H84       1.0  0.00893  0.98527  0.23392  1.0000
  H   H85       1.0  0.04125  0.12920  0.28994  1.0000
  H   H86       1.0  0.10953  0.01569  0.16238  1.0000
  N   N6        1.0  0.16009  0.97832  0.05992  1.0000
  C   C66       1.0  0.16567  0.12266  0.27470  1.0000
  H   H87       1.0  0.01289  0.45533  0.28917  1.0000
  Fe  Fe18      1.0  0.21997  0.99698  0.10573  1.0000
  C   C67       1.0  0.21308  0.29770  0.04826  1.0000
  C   C68       1.0  0.19251  0.35716  0.06836  1.0000
  S   S27       1.0  0.18701  0.30093  0.28760  1.0000
  H   H88       1.0  0.14833  0.33838  0.27215  1.0000
  H   H89       1.0  0.03582  0.38484  0.04026  1.0000
  H   H90       1.0  0.17372  0.34341  0.03963  1.0000
  S   S28       1.0  0.22706  0.06177  0.10598  1.0000
  H   H91       1.0  0.98650  0.39658  0.26930  1.0000
  H   H92       1.0  0.99425  0.02274  0.19597  1.0000
  C   C69       1.0  0.15037  0.46353  0.98483  1.0000
  C   C70       1.0  0.00322  0.40990  0.24508  1.0000
  C   C71       1.0  0.00432  0.41839  0.22649  1.0000
  C   C72       1.0  0.22760  0.37308  0.18690  1.0000
  H   H93       1.0  0.01655  0.42361  0.21878  1.0000
  H   H94       1.0  0.21568  0.28963  0.03777  1.0000
  C   C73       1.0  0.06103  0.98131  0.23184  1.0000
  C   C74       1.0  0.06375  0.43377  0.97867  1.0000
  C   C75       1.0  0.15376  0.41919  0.04258  1.0000
  C   C76       1.0  0.14763  0.43558  0.04904  1.0000
  C   C77       1.0  0.15897  0.44142  0.05733  1.0000
  C   C78       1.0  0.17635  0.43081  0.05947  1.0000
  C   C79       1.0  0.18238  0.41418  0.05341  1.0000
  C   C80       1.0  0.17116  0.40854  0.04473  1.0000
  H   H95       1.0  0.13431  0.44398  0.04730  1.0000
  H   H96       1.0  0.15428  0.45424  0.06201  1.0000
  H   H97       1.0  0.19588  0.40599  0.05491  1.0000
  H   H98       1.0  0.17595  0.39607  0.03942  1.0000
  Fe  Fe19      1.0  0.19105  0.33019  0.27852  1.0000
  C   C81       1.0  0.04544  0.44539  0.09449  1.0000
  C   C82       1.0  0.03983  0.43019  0.09225  1.0000
  C   C83       1.0  0.02476  0.42388  0.10464  1.0000
  H   H99       1.0  0.16731  0.36416  0.04826  1.0000
  H   H100      1.0  0.05705  0.45036  0.08493  1.0000
  H   H101      1.0  0.02040  0.41210  0.10298  1.0000
  C   C84       1.0  0.08006  0.99959  0.99546  1.0000
  S   S29       1.0  0.17244  0.34982  0.29563  1.0000
  C   C85       1.0  0.16592  0.14135  0.27023  1.0000
  H   H102      1.0  0.04578  0.43059  0.01618  1.0000
  S   S30       1.0  0.02605  0.36407  0.29723  1.0000
  C   C86       1.0  0.20392  0.28420  0.27762  1.0000
  H   H103      1.0  0.01566  0.43728  0.05975  1.0000
  C   C87       1.0  0.00801  0.44989  0.27948  1.0000
  C   C88       1.0  0.20170  0.32740  0.05801  1.0000
  C   C89       1.0  0.00815  0.35718  0.25502  1.0000
  H   H104      1.0  0.20002  0.05522  0.99273  1.0000
  H   H105      1.0  0.08236  0.41297  0.99351  1.0000
  H   H106      1.0  0.17532  0.98653  0.07574  1.0000
  H   H107      1.0  0.06471  0.97510  0.18227  1.0000
  C   C90       1.0  0.04090  0.39784  0.03753  1.0000
  H   H108      1.0  0.15624  0.98966  0.16134  1.0000
  C   C91       1.0  0.20470  0.31630  0.04483  1.0000
  C   C92       1.0  0.07282  0.41575  0.98439  1.0000
  Fe  Fe20      1.0  0.16699  0.36804  0.26904  1.0000
  H   H109      1.0  0.21910  0.35322  0.03708  1.0000
  H   H110      1.0  0.22408  0.13869  0.27335  1.0000
  H   H111      1.0  0.20368  0.16927  0.23505  1.0000
  H   H112      1.0  0.21026  0.10539  0.25837  1.0000
  H   H113      1.0  0.11338  0.43815  0.10068  1.0000
  H   H114      1.0  0.14045  0.08060  0.99609  1.0000
  H   H115      1.0  0.11164  0.34313  0.26066  1.0000
  C   C93       1.0  0.17681  0.98369  0.06185  1.0000
  H   H116      1.0  0.21663  0.09948  0.97721  1.0000
  H   H117      1.0  0.15122  0.31396  0.27935  1.0000
  H   H118      1.0  0.19373  0.08543  0.02586  1.0000
  H   H119      1.0  0.17792  0.45799  0.02438  1.0000
  H   H120      1.0  0.19968  0.37143  0.03364  1.0000
  C   C94       1.0  0.14689  0.10757  0.98616  1.0000
  C   C95       1.0  0.16824  0.08058  0.99756  1.0000
  H   H121      1.0  0.22228  0.41084  0.19338  1.0000
  H   H122      1.0  0.20328  0.35164  0.02415  1.0000
  C   C96       1.0  0.18235  0.14746  0.26160  1.0000
  C   C97       1.0  0.20716  0.31858  0.07504  1.0000
  H   H123      1.0  0.10057  0.38882  0.26106  1.0000
  H   H124      1.0  0.21261  0.06649  0.02163  1.0000
  H   H125      1.0  0.00190  0.03582  0.23319  1.0000
  C   C98       1.0  0.16026  0.11811  0.98299  1.0000
  H   H126      1.0  0.04612  0.39786  0.04987  1.0000
  H   H127      1.0  0.01091  0.43467  0.28406  1.0000
  H   H128      1.0  0.16564  0.34248  0.06385  1.0000
  N   N7        1.0  0.20087  0.08145  0.99794  1.0000
  C   C99       1.0  0.12465  0.34213  0.25005  1.0000
  C   C100      1.0  0.18795  0.30718  0.23295  1.0000
  S   S31       1.0  0.13863  0.38222  0.26350  1.0000
  H   H129      1.0  0.01033  0.00152  0.20151  1.0000
  N   N8        1.0  0.21626  0.14182  0.24751  1.0000
  H   H130      1.0  0.02930  0.99288  0.02829  1.0000
  C   C101      1.0  0.00022  0.99804  0.23824  1.0000
  H   H131      1.0  0.18383  0.35165  0.08162  1.0000
  C   C102      1.0  0.98983  0.41982  0.21768  1.0000
  C   C103      1.0  0.20426  0.35625  0.03644  1.0000
  C   C104      1.0  0.21537  0.29991  0.07838  1.0000
  H   H132      1.0  0.22518  0.20339  0.03111  1.0000
  H   H133      1.0  0.22821  0.38108  0.15784  1.0000
  S   S32       1.0  0.19009  0.38289  0.26518  1.0000
  H   H134      1.0  0.03069  0.41471  0.00461  1.0000
  C   C105      1.0  0.20855  0.06591  0.98818  1.0000
  H   H135      1.0  0.22258  0.05875  0.99066  1.0000
  C   C106      1.0  0.99520  0.14714  0.29466  1.0000
  H   H136      1.0  0.11666  0.31036  0.26755  1.0000
  H   H137      1.0  0.01676  0.45310  0.26554  1.0000
  H   H138      1.0  0.21983  0.29359  0.09128  1.0000
  C   C107      1.0  0.01969  0.41347  0.01732  1.0000
  H   H139      1.0  0.10034  0.46584  0.08053  1.0000
  H   H140      1.0  0.98829  0.06226  0.29143  1.0000
  H   H141      1.0  0.09456  0.99127  0.16454  1.0000
  C   C108      1.0  0.15625  0.32393  0.24195  1.0000
  C   C109      1.0  0.15969  0.33735  0.22554  1.0000
  H   H142      1.0  0.07914  0.01321  0.98673  1.0000
  C   C110      1.0  0.18242  0.09075  0.99394  1.0000
  H   H143      1.0  0.20578  0.32584  0.08585  1.0000
  H   H144      1.0  0.07736  0.38745  0.98199  1.0000
  H   H145      1.0  0.05854  0.09696  0.28889  1.0000
  H   H146      1.0  0.04177  0.43128  0.03969  1.0000
  H   H147      1.0  0.14961  0.34958  0.22199  1.0000
  C   C111      1.0  0.14487  0.46447  0.09695  1.0000
  H   H148      1.0  0.22255  0.30237  0.26273  1.0000
  N   N9        1.0  0.14431  0.43184  0.11548  1.0000
  C   C112      1.0  0.16164  0.43285  0.12037  1.0000
  C   C113      1.0  0.13054  0.42871  0.13285  1.0000
  C   C114      1.0  0.14841  0.41563  0.10681  1.0000
  C   C115      1.0  0.13674  0.44860  0.10295  1.0000
  C   C116      1.0  0.06403  0.99281  0.00447  1.0000
  C   C117      1.0  0.12043  0.44958  0.09671  1.0000
  H   H149      1.0  0.22314  0.38797  0.28212  1.0000
  H   H150      1.0  0.21153  0.16113  0.26527  1.0000
  C   C118      1.0  0.02838  0.13907  0.29193  1.0000
  H   H151      1.0  0.15951  0.44406  0.12795  1.0000
  H   H152      1.0  0.16712  0.41994  0.12952  1.0000
  H   H153      1.0  0.17278  0.43487  0.10795  1.0000
  H   H154      1.0  0.12654  0.44090  0.13943  1.0000
  H   H155      1.0  0.13604  0.41666  0.14298  1.0000
  H   H156      1.0  0.14137  0.99389  0.07915  1.0000
  H   H157      1.0  0.15865  0.41751  0.09368  1.0000
  H   H158      1.0  0.15436  0.40284  0.11583  1.0000
  H   H159      1.0  0.15341  0.15112  0.27410  1.0000
  C   C119      1.0  0.07002  0.40132  0.97779  1.0000
  S   S33       1.0  0.22762  0.36505  0.22367  1.0000
  S   S34       1.0  0.22390  0.02460  0.03748  1.0000
  H   H160      1.0  0.05115  0.00179  0.00208  1.0000
  H   H161      1.0  0.13107  0.99069  0.06201  1.0000
  C   C120      1.0  0.21453  0.09367  0.99226  1.0000
  S   S35       1.0  0.02324  0.99762  0.27703  1.0000
  C   C121      1.0  0.19913  0.07418  0.01800  1.0000
  C   C122      1.0  0.02834  0.15634  0.29469  1.0000
  H   H162      1.0  0.17052  0.06605  0.00337  1.0000
  H   H163      1.0  0.09524  0.00232  0.19274  1.0000
  C   C123      1.0  0.13039  0.30922  0.25805  1.0000
  H   H164      1.0  0.13469  0.35868  0.29985  1.0000
  H   H165      1.0  0.19402  0.47099  0.00896  1.0000
  C   C124      1.0  0.20111  0.26613  0.28193  1.0000
  H   H166      1.0  0.10969  0.99432  0.99034  1.0000
  C   C125      1.0  0.01179  0.16914  0.29742  1.0000
  C   C126      1.0  0.22200  0.14931  0.26076  1.0000
  Fe  Fe21      1.0  0.19697  0.36277  0.29059  1.0000
  S   S36       1.0  0.18747  0.18570  0.29076  1.0000
  H   H167      1.0  0.02946  0.98407  0.00839  1.0000
  C   C127      1.0  0.99397  0.36918  0.22291  1.0000
  N   N10       1.0  0.98915  0.00920  0.22442  1.0000
  C   C128      1.0  0.99075  0.32718  0.28062  1.0000
  C   C129      1.0  0.05985  0.08571  0.30055  1.0000
  H   H168      1.0  0.98748  0.35930  0.29005  1.0000
  H   H169      1.0  0.11872  0.40651  0.29347  1.0000
  C   C130      1.0  0.10707  0.98084  0.16742  1.0000
  S   S37       1.0  0.20601  0.97413  0.12412  1.0000
  C   C131      1.0  0.23184  0.12740  0.24103  1.0000
  H   H170      1.0  0.22821  0.12086  0.23133  1.0000
  H   H171      1.0  0.23147  0.40309  0.22086  1.0000
  H   H172      1.0  0.22622  0.16111  0.22336  1.0000
  C   C132      1.0  0.18174  0.47171  0.02040  1.0000
  C   C133      1.0  0.06494  0.97499  0.01593  1.0000
  H   H173      1.0  0.99225  0.08512  0.28816  1.0000
  H   H174      1.0  0.18608  0.47354  0.03257  1.0000
  C   C134      1.0  0.15365  0.97681  0.17020  1.0000
  S   S38       1.0  0.22653  0.20396  0.30048  1.0000
  C   C135      1.0  0.09735  0.98892  0.99745  1.0000
  H   H175      1.0  0.98626  0.98438  0.21783  1.0000
  H   H176      1.0  0.10320  0.97927  0.20341  1.0000
  C   C136      1.0  0.23422  0.27433  0.25960  1.0000
  S   S39       1.0  0.23475  0.19248  0.26007  1.0000
  C   C137      1.0  0.98538  0.40073  0.07066  1.0000
  C   C138      1.0  0.17787  0.16603  0.30100  1.0000
  H   H177      1.0  0.15003  0.18118  0.30097  1.0000
  C   C139      1.0  0.05462  0.06931  0.30094  1.0000
  H   H178      1.0  0.02029  0.25668  0.51967  1.0000
  H   H179      1.0  0.02271  0.97814  0.42585  1.0000
  H   H180      1.0  0.06843  0.43216  0.33391  1.0000
  H   H181      1.0  0.01952  0.21456  0.38006  1.0000
  Fe  Fe22      1.0  0.09365  0.12397  0.37074  1.0000
  S   S40       1.0  0.09040  0.12949  0.39911  1.0000
  Fe  Fe23      1.0  0.14258  0.06978  0.51043  1.0000
  S   S41       1.0  0.16850  0.06783  0.48886  1.0000
  S   S42       1.0  0.13186  0.04557  0.52979  1.0000
  Fe  Fe24      1.0  0.13344  0.11132  0.50058  1.0000
  S   S43       1.0  0.15847  0.11302  0.47789  1.0000
  S   S44       1.0  0.11258  0.13715  0.50520  1.0000
  Fe  Fe25      1.0  0.15156  0.08935  0.47063  1.0000
  S   S45       1.0  0.15424  0.08587  0.44170  1.0000
  Fe  Fe26      1.0  0.17333  0.09159  0.49799  1.0000
  C   C140      1.0  0.21694  0.38484  0.31158  1.0000
  S   S46       1.0  0.12515  0.08940  0.49146  1.0000
  S   S47       1.0  0.14877  0.09168  0.52136  1.0000
  H   H182      1.0  0.02733  0.09575  0.33064  1.0000
  C   C141      1.0  0.08231  0.36939  0.62314  1.0000
  C   C142      1.0  0.12316  0.40337  0.30642  1.0000
  C   C143      1.0  0.02641  0.23278  0.35468  1.0000
  C   C144      1.0  0.22386  0.46668  0.38821  1.0000
  C   C145      1.0  0.03215  0.19017  0.32587  1.0000
  H   H183      1.0  0.16771  0.44088  0.32460  1.0000
  H   H184      1.0  0.03338  0.16238  0.39095  1.0000
  Fe  Fe27      1.0  0.07546  0.18236  0.58521  1.0000
  S   S48       1.0  0.06014  0.17711  0.61450  1.0000
  S   S49       1.0  0.10451  0.16692  0.57721  1.0000
  Fe  Fe28      1.0  0.04204  0.20764  0.57154  1.0000
  S   S50       1.0  0.02354  0.20400  0.59947  1.0000
  H   H185      1.0  0.10965  0.40045  0.35291  1.0000
  Fe  Fe29      1.0  0.04784  0.20726  0.60914  1.0000
  C   C146      1.0  0.13737  0.39400  0.33849  1.0000
  Fe  Fe30      1.0  0.03741  0.17424  0.60242  1.0000
  C   C147      1.0  0.04469  0.97676  0.38499  1.0000
  S   S51       1.0  0.06546  0.21291  0.58101  1.0000
  S   S52       1.0  0.05351  0.17754  0.57341  1.0000
  C   C148      1.0  0.15734  0.98777  0.52766  1.0000
  C   C149      1.0  0.22494  0.11667  0.52705  1.0000
  H   H186      1.0  0.05611  0.41160  0.62738  1.0000
  H   H187      1.0  0.02788  0.17432  0.36913  1.0000
  C   C150      1.0  0.01338  0.19399  0.33404  1.0000
  C   C151      1.0  0.03174  0.45047  0.36181  1.0000
  N   N11       1.0  0.21997  0.22555  0.62783  1.0000
  H   H188      1.0  0.15782  0.23433  0.62492  1.0000
  H   H189      1.0  0.18380  0.99149  0.54003  1.0000
  C   C152      1.0  0.06513  0.99739  0.36755  1.0000
  H   H190      1.0  0.13530  0.18263  0.54309  1.0000
  H   H191      1.0  0.00483  0.12082  0.63190  1.0000
  H   H192      1.0  0.13571  0.15382  0.31446  1.0000
  H   H193      1.0  0.06973  0.00675  0.35496  1.0000
  H   H194      1.0  0.08490  0.36000  0.61342  1.0000
  H   H195      1.0  0.04922  0.09701  0.59638  1.0000
  C   C153      1.0  0.01261  0.23628  0.54363  1.0000
  S   S53       1.0  0.04185  0.22617  0.62908  1.0000
  C   C154      1.0  0.99995  0.38400  0.47192  1.0000
  H   H196      1.0  0.17106  0.98478  0.51847  1.0000
  H   H197      1.0  0.03206  0.46356  0.36454  1.0000
  C   C155      1.0  0.00367  0.47114  0.45838  1.0000
  H   H198      1.0  0.01448  0.37643  0.47151  1.0000
  H   H199      1.0  0.06925  0.41946  0.30862  1.0000
  C   C156      1.0  0.16025  0.13374  0.39210  1.0000
  C   C157      1.0  0.03589  0.43034  0.44827  1.0000
  C   C158      1.0  0.99352  0.16656  0.63217  1.0000
  H   H200      1.0  0.10768  0.34807  0.32131  1.0000
  H   H201      1.0  0.05607  0.43881  0.57088  1.0000
  H   H202      1.0  0.14299  0.39020  0.35088  1.0000
  H   H203      1.0  0.04515  0.43758  0.41907  1.0000
  S   S54       1.0  0.99614  0.27026  0.32838  1.0000
  H   H204      1.0  0.09594  0.37145  0.62413  1.0000
  S   S55       1.0  0.23008  0.44315  0.38777  1.0000
  C   C159      1.0  0.00897  0.25125  0.52933  1.0000
  H   H205      1.0  0.99580  0.30562  0.40259  1.0000
  H   H206      1.0  0.00068  0.21791  0.56733  1.0000
  C   C160      1.0  0.01118  0.41344  0.44035  1.0000
  H   H207      1.0  0.15057  0.14500  0.50177  1.0000
  H   H208      1.0  0.03767  0.28829  0.58399  1.0000
  H   H209      1.0  0.06535  0.15752  0.38049  1.0000
  N   N12       1.0  0.02210  0.27031  0.57952  1.0000
  H   H210      1.0  0.07093  0.10026  0.31465  1.0000
  H   H211      1.0  0.20170  0.43276  0.31555  1.0000
  H   H212      1.0  0.99109  0.37623  0.48360  1.0000
  C   C161      1.0  0.18851  0.15938  0.51745  1.0000
  C   C162      1.0  0.19851  0.45265  0.35151  1.0000
  C   C163      1.0  0.04445  0.43925  0.58235  1.0000
  H   H213      1.0  0.02513  0.39136  0.58317  1.0000
  H   H214      1.0  0.00911  0.45894  0.53409  1.0000
  C   C164      1.0  0.19310  0.15033  0.50270  1.0000
  C   C165      1.0  0.06580  0.39845  0.63118  1.0000
  S   S56       1.0  0.09930  0.11901  0.32007  1.0000
  H   H215      1.0  0.99056  0.23496  0.46041  1.0000
  C   C166      1.0  0.01301  0.43573  0.59591  1.0000
  C   C167      1.0  0.98836  0.46450  0.47018  1.0000
  H   H216      1.0  0.14686  0.98965  0.51919  1.0000
  C   C168      1.0  0.11834  0.39988  0.33947  1.0000
  H   H217      1.0  0.00886  0.33290  0.38233  1.0000
  C   C169      1.0  0.11042  0.14495  0.52547  1.0000
  C   C170      1.0  0.11973  0.13455  0.53943  1.0000
  C   C171      1.0  0.11799  0.14136  0.55529  1.0000
  C   C172      1.0  0.10680  0.15852  0.55730  1.0000
  C   C173      1.0  0.09728  0.16879  0.54349  1.0000
  C   C174      1.0  0.09910  0.16201  0.52762  1.0000
  H   H218      1.0  0.12833  0.12132  0.53800  1.0000
  H   H219      1.0  0.12515  0.13322  0.56607  1.0000
  H   H220      1.0  0.08870  0.18210  0.54489  1.0000
  H   H221      1.0  0.09184  0.17010  0.51688  1.0000
  C   C175      1.0  0.11658  0.00791  0.50082  1.0000
  C   C176      1.0  0.12969  0.01873  0.49141  1.0000
  C   C177      1.0  0.13411  0.03069  0.50010  1.0000
  C   C178      1.0  0.12579  0.03145  0.51841  1.0000
  C   C179      1.0  0.11289  0.02041  0.52793  1.0000
  C   C180      1.0  0.10813  0.00882  0.51908  1.0000
  H   H222      1.0  0.13655  0.01773  0.47744  1.0000
  H   H223      1.0  0.14428  0.03899  0.49277  1.0000
  H   H224      1.0  0.10639  0.02101  0.54209  1.0000
  H   H225      1.0  0.09777  0.00073  0.52635  1.0000
  H   H226      1.0  0.07708  0.12715  0.53949  1.0000
  H   H227      1.0  0.13995  0.15716  0.36907  1.0000
  H   H228      1.0  0.07576  0.97892  0.40936  1.0000
  S   S57       1.0  0.08863  0.44216  0.62243  1.0000
  C   C181      1.0  0.99270  0.27934  0.56732  1.0000
  H   H229      1.0  0.20961  0.07568  0.59832  1.0000
  C   C182      1.0  0.10847  0.11780  0.41072  1.0000
  C   C183      1.0  0.10892  0.12199  0.42737  1.0000
  C   C184      1.0  0.12310  0.11250  0.43693  1.0000
  C   C185      1.0  0.13674  0.09867  0.42991  1.0000
  C   C186      1.0  0.13632  0.09458  0.41324  1.0000
  C   C187      1.0  0.12227  0.10414  0.40367  1.0000
  H   H230      1.0  0.09828  0.13257  0.43291  1.0000
  H   H231      1.0  0.12340  0.11576  0.44979  1.0000
  H   H232      1.0  0.14682  0.08385  0.40779  1.0000
  H   H233      1.0  0.12204  0.10069  0.39099  1.0000
  H   H234      1.0  0.99580  0.38324  0.45930  1.0000
  H   H235      1.0  0.21796  0.17171  0.33739  1.0000
  Fe  Fe31      1.0  0.08230  0.14203  0.33403  1.0000
  C   C188      1.0  0.19104  0.10681  0.53058  1.0000
  H   H236      1.0  0.18259  0.11796  0.55515  1.0000
  H   H237      1.0  0.17791  0.10317  0.53194  1.0000
  C   C189      1.0  0.00074  0.40236  0.49262  1.0000
  H   H238      1.0  0.01493  0.39513  0.49443  1.0000
  C   C190      1.0  0.02802  0.43499  0.58110  1.0000
  C   C191      1.0  0.21693  0.07833  0.58370  1.0000
  S   S58       1.0  0.20150  0.37006  0.31554  1.0000
  C   C192      1.0  0.22940  0.23306  0.33203  1.0000
  H   H239      1.0  0.02450  0.42211  0.47633  1.0000
  C   C193      1.0  0.06338  0.05665  0.33062  1.0000
  H   H240      1.0  0.08747  0.38215  0.33146  1.0000
  C   C194      1.0  0.17625  0.44431  0.33212  1.0000
  H   H241      1.0  0.15558  0.00127  0.53153  1.0000
  H   H242      1.0  0.02858  0.26367  0.55258  1.0000
  H   H243      1.0  0.99809  0.97797  0.61178  1.0000
  H   H244      1.0  0.05172  0.40522  0.37099  1.0000
  H   H245      1.0  0.17215  0.12508  0.39812  1.0000
  C   C195      1.0  0.20534  0.10314  0.51574  1.0000
  C   C196      1.0  0.21055  0.12047  0.54179  1.0000
  S   S59       1.0  0.02424  0.02276  0.30621  1.0000
  C   C197      1.0  0.19594  0.13869  0.36628  1.0000
  H   H246      1.0  0.09252  0.10777  0.51726  1.0000
  H   H247      1.0  0.99808  0.41635  0.49559  1.0000
  H   H248      1.0  0.07496  0.07788  0.58257  1.0000
  S   S60       1.0  0.05944  0.43530  0.38148  1.0000
  H   H249      1.0  0.12545  0.98162  0.54719  1.0000
  C   C198      1.0  0.00215  0.32208  0.32517  1.0000
  H   H250      1.0  0.00580  0.44736  0.50907  1.0000
  H   H251      1.0  0.03849  0.13660  0.58056  1.0000
  C   C199      1.0  0.07834  0.08512  0.56854  1.0000
  H   H252      1.0  0.06474  0.04537  0.34226  1.0000
  H   H253      1.0  0.03897  0.20131  0.31799  1.0000
  C   C200      1.0  0.11062  0.40469  0.32346  1.0000
  C   C201      1.0  0.00510  0.45406  0.49503  1.0000
  H   H254      1.0  0.99992  0.32818  0.36473  1.0000
  H   H255      1.0  0.99710  0.25032  0.48936  1.0000
  C   C202      1.0  0.07947  0.11243  0.54447  1.0000
  N   N13       1.0  0.07008  0.38708  0.61704  1.0000
  C   C203      1.0  0.19604  0.97613  0.56250  1.0000
  H   H256      1.0  0.17487  0.18815  0.55697  1.0000
  S   S61       1.0  0.06947  0.35618  0.31980  1.0000
  C   C204      1.0  0.10611  0.35682  0.30809  1.0000
  H   H257      1.0  0.00888  0.22444  0.47220  1.0000
  C   C205      1.0  0.01111  0.41259  0.45909  1.0000
  C   C206      1.0  0.98829  0.08659  0.32308  1.0000
  H   H258      1.0  0.05091  0.11582  0.60519  1.0000
  C   C207      1.0  0.17638  0.45360  0.38995  1.0000
  H   H259      1.0  0.01342  0.32937  0.32147  1.0000
  C   C208      1.0  0.15865  0.16781  0.30444  1.0000
  H   H260      1.0  0.08504  0.42374  0.34815  1.0000
  C   C209      1.0  0.21220  0.47303  0.53631  1.0000
  C   C210      1.0  0.18288  0.97999  0.55150  1.0000
  C   C211      1.0  0.05642  0.05475  0.31600  1.0000
  H   H261      1.0  0.21099  0.09262  0.57727  1.0000
  C   C212      1.0  0.02020  0.46107  0.48341  1.0000
  H   H262      1.0  0.01969  0.29635  0.31999  1.0000
  H   H263      1.0  0.00284  0.44112  0.62333  1.0000
  H   H264      1.0  0.21344  0.06914  0.57651  1.0000
  C   C213      1.0  0.98651  0.05454  0.32876  1.0000
  H   H265      1.0  0.08526  0.00027  0.38122  1.0000
  C   C214      1.0  0.15639  0.15843  0.52065  1.0000
  C   C215      1.0  0.98509  0.31436  0.57516  1.0000
  Fe  Fe32      1.0  0.12094  0.11956  0.33510  1.0000
  H   H266      1.0  0.13555  0.99015  0.56126  1.0000
  C   C216      1.0  0.02342  0.42228  0.42610  1.0000
  S   S62       1.0  0.00034  0.41164  0.53370  1.0000
  H   H267      1.0  0.22140  0.44031  0.33253  1.0000
  C   C217      1.0  0.15046  0.47133  0.37699  1.0000
  H   H268      1.0  0.99308  0.21085  0.47147  1.0000
  H   H269      1.0  0.20193  0.46325  0.41199  1.0000
  C   C218      1.0  0.20690  0.16433  0.34428  1.0000
  C   C219      1.0  0.08845  0.10144  0.53158  1.0000
  H   H270      1.0  0.03909  0.28144  0.55422  1.0000
  C   C220      1.0  0.01755  0.25214  0.58921  1.0000
  C   C221      1.0  0.03103  0.44461  0.61327  1.0000
  C   C222      1.0  0.01983  0.44957  0.35086  1.0000
  C   C223      1.0  0.09448  0.22644  0.63063  1.0000
  C   C224      1.0  0.04501  0.20204  0.36341  1.0000
  C   C225      1.0  0.08343  0.42675  0.33361  1.0000
  H   H271      1.0  0.01300  0.24537  0.58037  1.0000
  C   C226      1.0  0.07387  0.99368  0.38238  1.0000
  C   C227      1.0  0.16115  0.14924  0.50601  1.0000
  H   H272      1.0  0.14877  0.15231  0.55905  1.0000
  H   H273      1.0  0.00029  0.43242  0.59508  1.0000
  C   C228      1.0  0.14924  0.39274  0.32159  1.0000
  H   H274      1.0  0.07266  0.41076  0.59508  1.0000
  H   H275      1.0  0.08464  0.38900  0.58881  1.0000
  C   C229      1.0  0.14215  0.39743  0.30562  1.0000
  C   C230      1.0  0.01888  0.37691  0.61114  1.0000
  S   S63       1.0  0.07147  0.46466  0.41013  1.0000
  C   C231      1.0  0.03323  0.15770  0.33802  1.0000
  C   C232      1.0  0.06871  0.07304  0.33019  1.0000
  Fe  Fe33      1.0  0.04202  0.37219  0.31384  1.0000
  H   H276      1.0  0.09959  0.07394  0.52706  1.0000
  H   H277      1.0  0.03596  0.24856  0.32806  1.0000
  S   S64       1.0  0.10502  0.14423  0.34667  1.0000
  C   C233      1.0  0.22463  0.21911  0.34693  1.0000
  H   H278      1.0  0.03107  0.40372  0.35127  1.0000
  S   S65       1.0  0.22997  0.27806  0.63307  1.0000
  C   C234      1.0  0.18675  0.22995  0.62569  1.0000
  H   H279      1.0  0.00523  0.21667  0.50360  1.0000
  C   C235      1.0  0.22529  0.20781  0.62155  1.0000
  C   C236      1.0  0.07389  0.10462  0.56333  1.0000
  H   H280      1.0  0.04526  0.43731  0.45122  1.0000
  C   C237      1.0  0.03196  0.27576  0.59112  1.0000
  H   H281      1.0  0.22065  0.26656  0.30931  1.0000
  H   H282      1.0  0.02396  0.46826  0.54237  1.0000
  C   C238      1.0  0.08453  0.41522  0.30700  1.0000
  H   H283      1.0  0.05386  0.39742  0.58562  1.0000
  H   H284      1.0  0.22919  0.20406  0.37364  1.0000
  C   C239      1.0  0.04289  0.41763  0.36531  1.0000
  C   C240      1.0  0.01431  0.16144  0.34572  1.0000
  H   H285      1.0  0.03252  0.45975  0.48856  1.0000
  C   C241      1.0  0.16162  0.13498  0.31621  1.0000
  H   H286      1.0  0.99105  0.39488  0.50354  1.0000
  H   H287      1.0  0.00657  0.25334  0.60176  1.0000
  C   C242      1.0  0.04673  0.12782  0.57063  1.0000
  S   S66       1.0  0.15185  0.11528  0.32526  1.0000
  C   C243      1.0  0.16989  0.16382  0.52685  1.0000
  H   H288      1.0  0.18947  0.11979  0.31608  1.0000
  C   C244      1.0  0.23266  0.40156  0.32387  1.0000
  H   H289      1.0  0.07848  0.40191  0.63299  1.0000
  C   C245      1.0  0.00515  0.28378  0.57576  1.0000
  N   N14       1.0  0.99797  0.40320  0.47393  1.0000
  H   H290      1.0  0.10823  0.21949  0.62527  1.0000
  H   H291      1.0  0.21496  0.21111  0.34640  1.0000
  H   H292      1.0  0.20777  0.45529  0.35871  1.0000
  H   H293      1.0  0.21905  0.20818  0.60980  1.0000
  S   S67       1.0  0.02593  0.14844  0.61370  1.0000
  H   H294      1.0  0.17066  0.45971  0.40244  1.0000
  H   H295      1.0  0.19158  0.44991  0.38874  1.0000
  H   H296      1.0  0.18324  0.13752  0.48610  1.0000
  H   H297      1.0  0.03780  0.11891  0.56934  1.0000
  C   C246      1.0  0.01544  0.47112  0.53180  1.0000
  H   H298      1.0  0.22279  0.23565  0.32045  1.0000
  S   S68       1.0  0.03250  0.45044  0.63365  1.0000
  H   H299      1.0  0.20374  0.14726  0.30309  1.0000
  H   H300      1.0  0.19157  0.16984  0.54887  1.0000
  H   H301      1.0  0.00166  0.40741  0.43656  1.0000
  C   C247      1.0  0.04639  0.38972  0.59777  1.0000
  H   H302      1.0  0.19989  0.16219  0.52156  1.0000
  C   C248      1.0  0.08067  0.39693  0.60001  1.0000
  H   H303      1.0  0.07834  0.13897  0.56382  1.0000
  C   C249      1.0  0.99795  0.22947  0.55625  1.0000
  H   H304      1.0  0.04768  0.25771  0.56385  1.0000
  C   C250      1.0  0.07565  0.12915  0.57709  1.0000
  H   H305      1.0  0.02272  0.27814  0.60443  1.0000
  H   H306      1.0  0.14204  0.16096  0.52726  1.0000
  H   H307      1.0  0.08110  0.21275  0.61782  1.0000
  H   H308      1.0  0.15504  0.16501  0.57232  1.0000
  C   C251      1.0  0.99012  0.21726  0.50569  1.0000
  N   N15       1.0  0.09038  0.41039  0.32498  1.0000
  H   H309      1.0  0.21362  0.38439  0.34041  1.0000
  H   H310      1.0  0.03892  0.19730  0.40069  1.0000
  C   C252      1.0  0.01972  0.43274  0.34684  1.0000
  Fe  Fe34      1.0  0.08766  0.10092  0.34622  1.0000
  C   C253      1.0  0.99650  0.33594  0.37604  1.0000
  S   S69       1.0  0.06613  0.16796  0.31948  1.0000
  C   C254      1.0  0.19370  0.11530  0.54368  1.0000
  S   S70       1.0  0.02695  0.42846  0.56098  1.0000
  S   S71       1.0  0.11089  0.09925  0.36002  1.0000
  C   C255      1.0  0.05421  0.22236  0.33380  1.0000
  S   S72       1.0  0.06933  0.12397  0.35930  1.0000
  S   S73       1.0  0.11088  0.99350  0.48949  1.0000
  N   N16       1.0  0.04785  0.18454  0.37697  1.0000
  S   S74       1.0  0.20232  0.09296  0.49883  1.0000
  H   H311      1.0  0.04956  0.13741  0.55721  1.0000
  N   N17       1.0  0.10437  0.05649  0.45163  1.0000
  C   C256      1.0  0.09795  0.07298  0.46011  1.0000
  C   C257      1.0  0.09584  0.04149  0.46454  1.0000
  C   C258      1.0  0.12472  0.05126  0.44972  1.0000
  C   C259      1.0  0.09963  0.05944  0.43338  1.0000
  C   C260      1.0  0.10450  0.04480  0.42374  1.0000
  C   C261      1.0  0.09058  0.07671  0.42448  1.0000
  C   C262      1.0  0.10052  0.04728  0.40633  1.0000
  C   C263      1.0  0.08668  0.07902  0.40707  1.0000
  C   C264      1.0  0.09161  0.06435  0.39802  1.0000
  H   H312      1.0  0.08270  0.07755  0.46218  1.0000
  H   H313      1.0  0.10168  0.07028  0.47383  1.0000
  H   H314      1.0  0.10455  0.08454  0.45156  1.0000
  H   H315      1.0  0.08072  0.04418  0.46511  1.0000
  H   H316      1.0  0.09786  0.03985  0.47880  1.0000
  H   H317      1.0  0.10186  0.02785  0.46074  1.0000
  H   H318      1.0  0.12918  0.05109  0.46252  1.0000
  H   H319      1.0  0.13038  0.03742  0.44633  1.0000
  H   H320      1.0  0.13169  0.06118  0.43862  1.0000
  H   H321      1.0  0.11161  0.03136  0.42957  1.0000
  H   H322      1.0  0.08663  0.08880  0.43047  1.0000
  H   H323      1.0  0.10449  0.03597  0.39912  1.0000
  H   H324      1.0  0.08003  0.09238  0.40040  1.0000
  H   H325      1.0  0.08868  0.06628  0.38445  1.0000
  C   C265      1.0  0.14814  0.18780  0.54142  1.0000
  S   S75       1.0  0.05837  0.97477  0.30990  1.0000
  C   C266      1.0  0.18895  0.14873  0.30547  1.0000
  C   C267      1.0  0.02378  0.42150  0.46262  1.0000
  H   H326      1.0  0.22643  0.46705  0.53119  1.0000
  H   H327      1.0  0.06910  0.13765  0.58775  1.0000
  H   H328      1.0  0.06361  0.22465  0.32063  1.0000
  H   H329      1.0  0.99893  0.17902  0.62657  1.0000
  C   C268      1.0  0.06132  0.23125  0.63359  1.0000
  H   H330      1.0  0.15319  0.45629  0.35017  1.0000
  C   C269      1.0  0.01286  0.09749  0.33025  1.0000
  S   S76       1.0  0.00537  0.43191  0.33244  1.0000
  C   C270      1.0  0.17950  0.18069  0.54538  1.0000
  H   H331      1.0  0.15019  0.19740  0.52786  1.0000
  N   N18       1.0  0.16458  0.17271  0.54301  1.0000
  H   H332      1.0  0.16396  0.38798  0.32088  1.0000
  S   S77       1.0  0.03562  0.22679  0.54544  1.0000
  Fe  Fe35      1.0  0.00191  0.37055  0.31995  1.0000
  H   H333      1.0  0.20741  0.14664  0.49602  1.0000
  C   C271      1.0  0.17903  0.45755  0.35716  1.0000
  C   C272      1.0  0.16783  0.23329  0.63318  1.0000
  C   C273      1.0  0.05059  0.98891  0.36885  1.0000
  C   C274      1.0  0.98900  0.45614  0.48857  1.0000
  C   C275      1.0  0.00707  0.08483  0.32376  1.0000
  H   H334      1.0  0.06635  0.39805  0.33673  1.0000
  H   H335      1.0  0.17212  0.14768  0.56207  1.0000
  C   C276      1.0  0.19540  0.43972  0.32697  1.0000
  C   C277      1.0  0.04339  0.43450  0.36893  1.0000
  Fe  Fe36      1.0  0.01278  0.40555  0.32200  1.0000
  C   C278      1.0  0.22379  0.24062  0.61182  1.0000
  C   C279      1.0  0.15993  0.15884  0.55984  1.0000
  C   C280      1.0  0.04225  0.17210  0.32830  1.0000
  H   H336      1.0  0.00740  0.15029  0.35333  1.0000
  H   H337      1.0  0.01950  0.98385  0.32615  1.0000
  H   H338      1.0  0.09369  0.39922  0.60237  1.0000
  H   H339      1.0  0.01748  0.07354  0.31931  1.0000
  C   C281      1.0  0.18950  0.17076  0.33991  1.0000
  C   C282      1.0  0.99075  0.25950  0.52765  1.0000
  C   C283      1.0  0.22041  0.38975  0.32661  1.0000
  H   H340      1.0  0.07088  0.09832  0.60132  1.0000
  C   C284      1.0  0.22238  0.10784  0.51415  1.0000
  H   H341      1.0  0.01092  0.46196  0.34530  1.0000
  C   C285      1.0  0.03122  0.41677  0.35414  1.0000
  C   C286      1.0  0.16809  0.45315  0.34694  1.0000
  C   C287      1.0  0.20649  0.44395  0.33659  1.0000
  H   H342      1.0  0.22107  0.19644  0.63289  1.0000
  H   H343      1.0  0.02977  0.24227  0.59366  1.0000
  H   H344      1.0  0.08929  0.12136  0.58016  1.0000
  H   H345      1.0  0.18713  0.18310  0.32945  1.0000
  H   H346      1.0  0.09084  0.43807  0.32600  1.0000
  C   C288      1.0  0.08140  0.39513  0.33661  1.0000
  S   S78       1.0  0.99409  0.40016  0.30645  1.0000
  C   C289      1.0  0.07913  0.22257  0.62644  1.0000
  H   H347      1.0  0.08285  0.39236  0.35117  1.0000
  H   H348      1.0  0.21531  0.46656  0.56441  1.0000
  H   H349      1.0  0.23091  0.46253  0.59940  1.0000
  H   H350      1.0  0.14406  0.45906  0.38018  1.0000
  H   H351      1.0  0.98616  0.30379  0.38429  1.0000
  C   C290      1.0  0.04134  0.37386  0.62964  1.0000
  H   H352      1.0  0.09115  0.05943  0.55966  1.0000
  H   H353      1.0  0.22380  0.14337  0.36063  1.0000
  C   C291      1.0  0.01948  0.46974  0.46512  1.0000
  H   H354      1.0  0.14500  0.19589  0.55240  1.0000
  C   C292      1.0  0.09247  0.08241  0.53708  1.0000
  C   C293      1.0  0.05742  0.20569  0.34628  1.0000
  H   H355      1.0  0.04077  0.14367  0.33938  1.0000
  H   H356      1.0  0.99430  0.35070  0.36918  1.0000
  C   C294      1.0  0.99124  0.29367  0.32953  1.0000
  C   C295      1.0  0.17948  0.14515  0.49709  1.0000
  C   C296      1.0  0.03575  0.43066  0.43009  1.0000
  H   H357      1.0  0.23348  0.10500  0.50268  1.0000
  C   C297      1.0  0.06818  0.98138  0.39856  1.0000
  H   H358      1.0  0.00984  0.30676  0.58521  1.0000
  H   H359      1.0  0.05873  0.44721  0.59924  1.0000
  H   H360      1.0  0.01882  0.18462  0.38882  1.0000
  N   N19       1.0  0.16313  0.13458  0.37204  1.0000
  C   C298      1.0  0.14512  0.14298  0.36643  1.0000
  C   C299      1.0  0.16850  0.11561  0.36854  1.0000
  C   C300      1.0  0.17800  0.14486  0.36217  1.0000
  C   C301      1.0  0.17522  0.16118  0.34856  1.0000
  C   C302      1.0  0.02951  0.21622  0.36730  1.0000
  H   H361      1.0  0.15790  0.14770  0.39510  1.0000
  H   H362      1.0  0.14806  0.12771  0.39990  1.0000
  H   H363      1.0  0.13424  0.13496  0.37415  1.0000
  H   H364      1.0  0.14610  0.14330  0.35163  1.0000
  H   H365      1.0  0.18079  0.10752  0.37418  1.0000
  H   H366      1.0  0.15722  0.10775  0.37485  1.0000
  H   H367      1.0  0.17174  0.11577  0.35350  1.0000
  H   H368      1.0  0.16225  0.16675  0.34411  1.0000
  C   C303      1.0  0.03127  0.17616  0.38172  1.0000
  C   C304      1.0  0.03867  0.23581  0.33793  1.0000
  C   C305      1.0  0.01449  0.44064  0.61190  1.0000
  C   C306      1.0  0.00569  0.30337  0.32442  1.0000
  H   H369      1.0  0.19094  0.22837  0.61154  1.0000
  H   H370      1.0  0.02338  0.42280  0.41182  1.0000
  C   C307      1.0  0.21014  0.14831  0.35741  1.0000
  C   C308      1.0  0.15052  0.15235  0.31216  1.0000
  S   S79       1.0  0.07720  0.07507  0.34882  1.0000
  S   S80       1.0  0.01830  0.37646  0.33758  1.0000
  C   C309      1.0  0.20588  0.47272  0.55503  1.0000
  C   C310      1.0  0.00446  0.17961  0.34404  1.0000
  H   H371      1.0  0.03117  0.98027  0.60292  1.0000
  H   H372      1.0  0.05242  0.04205  0.31641  1.0000
  H   H373      1.0  0.04400  0.26485  0.59462  1.0000
  C   C311      1.0  0.04600  0.44395  0.59842  1.0000
  C   C312      1.0  0.06692  0.08758  0.31510  1.0000
  H   H374      1.0  0.04401  0.99156  0.35717  1.0000
  H   H375      1.0  0.01429  0.24330  0.35771  1.0000
  S   S81       1.0  0.21320  0.13184  0.55795  1.0000
  C   C313      1.0  0.06387  0.17068  0.37024  1.0000
  C   C314      1.0  0.05103  0.18817  0.39391  1.0000
  C   C315      1.0  0.99410  0.22467  0.47279  1.0000
  C   C316      1.0  0.03494  0.26821  0.56181  1.0000
  Fe  Fe37      1.0  0.00028  0.42230  0.55843  1.0000
  C   C317      1.0  0.05269  0.38357  0.61464  1.0000
  S   S82       1.0  0.98585  0.36417  0.54952  1.0000
  H   H376      1.0  0.07713  0.17542  0.36744  1.0000
  H   H377      1.0  0.06230  0.16724  0.35754  1.0000
  H   H378      1.0  0.19910  0.12635  0.37640  1.0000
  H   H379      1.0  0.05388  0.17521  0.40420  1.0000
  H   H380      1.0  0.06311  0.19493  0.39075  1.0000
  H   H381      1.0  0.06945  0.19571  0.34188  1.0000
  H   H382      1.0  0.18430  0.19055  0.53273  1.0000
  C   C318      1.0  0.08758  0.07427  0.55552  1.0000
  H   H383      1.0  0.00587  0.20806  0.33264  1.0000
  C   C319      1.0  0.02974  0.38635  0.59614  1.0000
  C   C320      1.0  0.00098  0.30184  0.57937  1.0000
  H   H384      1.0  0.21874  0.25426  0.61589  1.0000
  C   C321      1.0  0.18084  0.13321  0.31293  1.0000
  N   N20       1.0  0.06388  0.11662  0.57657  1.0000
  C   C322      1.0  0.05855  0.10637  0.59566  1.0000
  H   H385      1.0  0.22523  0.27831  0.32463  1.0000
  C   C323      1.0  0.02469  0.37062  0.62786  1.0000
  C   C324      1.0  0.00391  0.14986  0.62786  1.0000
  N   N21       1.0  0.17096  0.46637  0.37329  1.0000
  Fe  Fe38      1.0  0.05663  0.46262  0.38908  1.0000
  C   C325      1.0  0.13640  0.97796  0.55543  1.0000
  H   H386      1.0  0.99526  0.26618  0.56352  1.0000
  H   H387      1.0  0.17146  0.44051  0.39248  1.0000
  C   C326      1.0  0.22875  0.45740  0.62860  1.0000
  H   H388      1.0  0.98937  0.33178  0.53551  1.0000
  H   H389      1.0  0.19130  0.28611  0.63263  1.0000
  H   H390      1.0  0.21711  0.24087  0.60044  1.0000
  H   H391      1.0  0.23338  0.08973  0.60462  1.0000
  H   H392      1.0  0.20651  0.98440  0.55923  1.0000
  H   H393      1.0  0.00143  0.04982  0.32911  1.0000
  H   H394      1.0  0.02540  0.47169  0.51839  1.0000
  H   H395      1.0  0.98796  0.20301  0.50766  1.0000
  C   C327      1.0  0.23154  0.27193  0.31239  1.0000
  H   H396      1.0  0.00475  0.12210  0.34127  1.0000
  C   C328      1.0  0.08865  0.36261  0.30352  1.0000
  C   C329      1.0  0.00015  0.11230  0.33628  1.0000
  H   H397      1.0  0.21729  0.46885  0.63051  1.0000
  C   C330      1.0  0.02516  0.97520  0.59427  1.0000
  H   H398      1.0  0.98812  0.27130  0.51684  1.0000
  C   C331      1.0  0.23259  0.21515  0.36229  1.0000
  H   H399      1.0  0.23464  0.10442  0.58246  1.0000
  C   C332      1.0  0.20920  0.47294  0.40175  1.0000
  H   H400      1.0  0.00589  0.37456  0.60979  1.0000
  Fe  Fe39      1.0  0.09572  0.46289  0.63443  1.0000
  S   S83       1.0  0.04264  0.05576  0.91609  1.0000
  Fe  Fe40      1.0  0.05893  0.01529  0.87211  1.0000
  S   S84       1.0  0.07601  0.02155  0.84382  1.0000
  S   S85       1.0  0.03192  0.03458  0.87791  1.0000
  S   S86       1.0  0.11359  0.39413  0.64541  1.0000
  H   H401      1.0  0.00467  0.07920  0.82825  1.0000
  Fe  Fe41      1.0  0.21849  0.15977  0.93287  1.0000
  S   S87       1.0  0.21063  0.18386  0.94688  1.0000
  S   S88       1.0  0.21686  0.13024  0.94606  1.0000
  Fe  Fe42      1.0  0.20083  0.19949  0.92079  1.0000
  S   S89       1.0  0.17240  0.21747  0.92211  1.0000
  H   H402      1.0  0.03922  0.99414  0.95075  1.0000
  S   S90       1.0  0.20668  0.17479  0.90811  1.0000
  S   S91       1.0  0.99695  0.00071  0.88499  1.0000
  C   C333      1.0  0.18751  0.09481  0.94176  1.0000
  C   C334      1.0  0.19935  0.12146  0.94199  1.0000
  H   H403      1.0  0.06468  0.36139  0.68235  1.0000
  H   H404      1.0  0.22620  0.97498  0.93616  1.0000
  C   C335      1.0  0.17052  0.10606  0.93918  1.0000
  H   H405      1.0  0.00358  0.40211  0.83408  1.0000
  H   H406      1.0  0.09852  0.47208  0.71249  1.0000
  C   C336      1.0  0.17722  0.27777  0.66058  1.0000
  H   H407      1.0  0.14696  0.23837  0.65700  1.0000
  C   C337      1.0  0.07924  0.02094  0.94522  1.0000
  C   C338      1.0  0.09151  0.03181  0.94523  1.0000
  Fe  Fe43      1.0  0.03539  0.39104  0.93825  1.0000
  C   C339      1.0  0.05658  0.47012  0.71111  1.0000
  C   C340      1.0  0.20807  0.14494  0.87998  1.0000
  Fe  Fe44      1.0  0.02875  0.38014  0.90516  1.0000
  S   S92       1.0  0.99988  0.39692  0.90770  1.0000
  S   S93       1.0  0.03896  0.36625  0.88063  1.0000
  Fe  Fe45      1.0  0.01217  0.41837  0.91281  1.0000
  S   S94       1.0  0.00185  0.44816  0.90133  1.0000
  H   H408      1.0  0.01783  0.40083  0.85960  1.0000
  S   S95       1.0  0.04137  0.40271  0.90784  1.0000
  S   S96       1.0  0.02524  0.36695  0.93517  1.0000
  Fe  Fe46      1.0  0.06669  0.23146  0.85928  1.0000
  S   S97       1.0  0.09137  0.23225  0.83616  1.0000
  S   S98       1.0  0.04715  0.21173  0.86564  1.0000
  Fe  Fe47      1.0  0.07278  0.26379  0.87202  1.0000
  S   S99       1.0  0.09776  0.26743  0.84961  1.0000
  S   S100      1.0  0.06332  0.27945  0.89528  1.0000
  Fe  Fe48      1.0  0.08126  0.26274  0.83123  1.0000
  S   S101      1.0  0.07996  0.28069  0.80306  1.0000
  Fe  Fe49      1.0  0.10581  0.23665  0.85636  1.0000
  S   S102      1.0  0.13568  0.22247  0.85524  1.0000
  S   S103      1.0  0.05547  0.26186  0.85313  1.0000
  S   S104      1.0  0.08205  0.23315  0.88013  1.0000
  Fe  Fe50      1.0  0.01772  0.11933  0.80778  1.0000
  S   S105      1.0  0.02357  0.14299  0.78473  1.0000
  S   S106      1.0  0.03183  0.09230  0.79942  1.0000
  H   H409      1.0  0.22883  0.22128  0.95796  1.0000
  H   H410      1.0  0.05933  0.39136  0.64491  1.0000
  C   C341      1.0  0.19289  0.28022  0.64666  1.0000
  Fe  Fe51      1.0  0.02304  0.15769  0.80668  1.0000
  S   S107      1.0  0.04470  0.17470  0.80134  1.0000
  H   H411      1.0  0.08168  0.00646  0.95147  1.0000
  S   S108      1.0  0.01971  0.13320  0.82959  1.0000
  H   H412      1.0  0.11336  0.25170  0.90866  1.0000
  C   C342      1.0  0.21097  0.97824  0.89715  1.0000
  Fe  Fe52      1.0  0.09544  0.25964  0.71008  1.0000
  C   C343      1.0  0.16811  0.12509  0.93769  1.0000
  S   S109      1.0  0.08265  0.24360  0.73712  1.0000
  C   C344      1.0  0.19043  0.15599  0.88060  1.0000
  Fe  Fe53      1.0  0.07565  0.44896  0.67299  1.0000
  C   C345      1.0  0.99996  0.44968  0.82308  1.0000
  C   C346      1.0  0.03873  0.45539  0.85317  1.0000
  C   C347      1.0  0.11489  0.35698  0.65443  1.0000
  S   S110      1.0  0.06767  0.01431  0.89806  1.0000
  H   H413      1.0  0.10142  0.30558  0.75071  1.0000
  H   H414      1.0  0.10578  0.01100  0.91357  1.0000
  H   H415      1.0  0.01233  0.27843  0.93435  1.0000
  H   H416      1.0  0.16365  0.28173  0.65723  1.0000
  S   S111      1.0  0.11159  0.24207  0.64831  1.0000
  H   H417      1.0  0.01985  0.05323  0.81167  1.0000
  H   H418      1.0  0.09787  0.98313  0.91476  1.0000
  S   S112      1.0  0.15995  0.26671  0.69656  1.0000
  H   H419      1.0  0.23026  0.21337  0.65286  1.0000
  H   H420      1.0  0.07016  0.07265  0.92266  1.0000
  C   C348      1.0  0.08010  0.27006  0.78514  1.0000
  C   C349      1.0  0.07624  0.28105  0.76842  1.0000
  C   C350      1.0  0.07707  0.27302  0.75359  1.0000
  C   C351      1.0  0.08158  0.25391  0.75550  1.0000
  C   C352      1.0  0.08498  0.24288  0.77234  1.0000
  C   C353      1.0  0.08432  0.25094  0.78708  1.0000
  H   H421      1.0  0.07259  0.29584  0.76694  1.0000
  H   H422      1.0  0.07411  0.28163  0.74072  1.0000
  H   H423      1.0  0.08836  0.22807  0.77395  1.0000
  H   H424      1.0  0.08721  0.24231  0.79987  1.0000
  C   C354      1.0  0.04696  0.20093  0.84793  1.0000
  C   C355      1.0  0.05889  0.20399  0.83086  1.0000
  C   C356      1.0  0.05823  0.19568  0.81676  1.0000
  C   C357      1.0  0.04542  0.18447  0.81953  1.0000
  C   C358      1.0  0.03340  0.18137  0.83657  1.0000
  C   C359      1.0  0.03426  0.18951  0.85079  1.0000
  H   H425      1.0  0.06855  0.21288  0.82840  1.0000
  H   H426      1.0  0.06765  0.19805  0.80367  1.0000
  H   H427      1.0  0.02348  0.17273  0.83879  1.0000
  H   H428      1.0  0.02496  0.18714  0.86396  1.0000
  C   C360      1.0  0.04645  0.34219  0.88463  1.0000
  C   C361      1.0  0.05031  0.33228  0.90166  1.0000
  C   C362      1.0  0.05582  0.31306  0.90462  1.0000
  C   C363      1.0  0.05750  0.30363  0.89060  1.0000
  C   C364      1.0  0.05393  0.31354  0.87347  1.0000
  C   C365      1.0  0.04844  0.33280  0.87050  1.0000
  H   H429      1.0  0.04913  0.33942  0.91253  1.0000
  H   H430      1.0  0.05880  0.30547  0.91783  1.0000
  H   H431      1.0  0.05523  0.30637  0.86257  1.0000
  H   H432      1.0  0.04557  0.34040  0.85725  1.0000
  S   S113      1.0  0.12088  0.24519  0.69368  1.0000
  H   H433      1.0  0.04617  0.14147  0.85614  1.0000
  H   H434      1.0  0.03190  0.41721  0.85785  1.0000
  C   C366      1.0  0.01287  0.45698  0.87901  1.0000
  C   C367      1.0  0.03037  0.44820  0.87118  1.0000
  C   C368      1.0  0.99089  0.00234  0.75491  1.0000
  H   H435      1.0  0.00706  0.21799  0.81362  1.0000
  H   H436      1.0  0.03751  0.43597  0.87901  1.0000
  C   C369      1.0  0.20485  0.99665  0.92626  1.0000
  C   C370      1.0  0.19438  0.00354  0.91256  1.0000
  C   C371      1.0  0.19751  0.99437  0.89799  1.0000
  Fe  Fe54      1.0  0.05247  0.99123  0.91083  1.0000
  H   H437      1.0  0.00814  0.22614  0.84181  1.0000
  Fe  Fe55      1.0  0.06042  0.44859  0.63990  1.0000
  H   H438      1.0  0.18424  0.01616  0.91294  1.0000
  H   H439      1.0  0.18973  0.99997  0.88715  1.0000
  C   C372      1.0  0.17424  0.23440  0.66206  1.0000
  C   C373      1.0  0.08810  0.05056  0.93727  1.0000
  H   H440      1.0  0.15490  0.13376  0.93607  1.0000
  C   C374      1.0  0.01546  0.19958  0.67175  1.0000
  H   H441      1.0  0.99950  0.13850  0.67103  1.0000
  C   C375      1.0  0.21057  0.27509  0.65083  1.0000
  C   C376      1.0  0.10712  0.34121  0.66182  1.0000
  H   H442      1.0  0.13175  0.98948  0.94083  1.0000
  C   C377      1.0  0.99448  0.97976  0.86153  1.0000
  C   C378      1.0  0.16230  0.21830  0.90365  1.0000
  C   C379      1.0  0.14303  0.22149  0.90608  1.0000
  C   C380      1.0  0.13469  0.22282  0.89127  1.0000
  C   C381      1.0  0.14564  0.22098  0.87400  1.0000
  C   C382      1.0  0.16491  0.21744  0.87167  1.0000
  C   C383      1.0  0.17324  0.21611  0.88646  1.0000
  H   H443      1.0  0.13458  0.22279  0.91949  1.0000
  H   H444      1.0  0.11983  0.22510  0.89323  1.0000
  H   H445      1.0  0.17344  0.21592  0.85834  1.0000
  H   H446      1.0  0.18813  0.21363  0.88450  1.0000
  C   C384      1.0  0.20184  0.10249  0.94323  1.0000
  H   H447      1.0  0.01806  0.15934  0.66002  1.0000
  C   C385      1.0  0.04600  0.07425  0.81170  1.0000
  C   C386      1.0  0.05612  0.05978  0.80299  1.0000
  C   C387      1.0  0.06593  0.04400  0.81274  1.0000
  C   C388      1.0  0.06556  0.04247  0.83135  1.0000
  C   C389      1.0  0.05606  0.05725  0.83994  1.0000
  C   C390      1.0  0.04622  0.07315  0.83014  1.0000
  H   H448      1.0  0.05599  0.06058  0.78873  1.0000
  H   H449      1.0  0.07330  0.03272  0.80599  1.0000
  H   H450      1.0  0.05633  0.05637  0.85414  1.0000
  H   H451      1.0  0.03851  0.08434  0.83689  1.0000
  C   C391      1.0  0.06073  0.04711  0.92841  1.0000
  C   C392      1.0  0.06399  0.02853  0.93684  1.0000
  Fe  Fe56      1.0  0.03994  0.03231  0.90482  1.0000
  H   H452      1.0  0.05477  0.01991  0.93677  1.0000
  C   C393      1.0  0.12694  0.98049  0.90111  1.0000
  Fe  Fe57      1.0  0.98928  0.14460  0.83088  1.0000
  H   H453      1.0  0.05993  0.10897  0.89464  1.0000
  H   H454      1.0  0.01500  0.97508  0.91689  1.0000
  H   H455      1.0  0.16561  0.12177  0.89921  1.0000
  H   H456      1.0  0.01896  0.28485  0.90969  1.0000
  C   C394      1.0  0.02419  0.99068  0.83485  1.0000
  H   H457      1.0  0.00169  0.20718  0.69763  1.0000
  H   H458      1.0  0.00374  0.03081  0.77491  1.0000
  H   H459      1.0  0.01367  0.03120  0.82115  1.0000
  S   S114      1.0  0.06804  0.44981  0.70319  1.0000
  H   H460      1.0  0.14042  0.18172  0.90449  1.0000
  H   H461      1.0  0.22926  0.23793  0.64528  1.0000
  N   N22       1.0  0.15579  0.16054  0.88940  1.0000
  Fe  Fe58      1.0  0.09578  0.42211  0.64782  1.0000
  C   C395      1.0  0.15334  0.17252  0.87133  1.0000
  H   H462      1.0  0.01620  0.36328  0.63953  1.0000
  C   C396      1.0  0.17428  0.14837  0.88761  1.0000
  C   C397      1.0  0.04865  0.42271  0.96015  1.0000
  C   C398      1.0  0.21253  0.26746  0.66898  1.0000
  Fe  Fe59      1.0  0.99732  0.38556  0.93792  1.0000
  Fe  Fe60      1.0  0.13204  0.27065  0.68946  1.0000
  C   C399      1.0  0.07261  0.05824  0.92899  1.0000
  H   H463      1.0  0.22996  0.44934  0.65722  1.0000
  H   H464      1.0  0.12880  0.35576  0.64635  1.0000
  S   S115      1.0  0.04757  0.98955  0.88372  1.0000
  H   H465      1.0  0.15541  0.16422  0.86071  1.0000
  H   H466      1.0  0.16306  0.18216  0.86617  1.0000
  H   H467      1.0  0.13930  0.18142  0.87206  1.0000
  S   S116      1.0  0.00718  0.40854  0.94339  1.0000
  H   H468      1.0  0.14056  0.14189  0.91012  1.0000
  H   H469      1.0  0.04060  0.43839  0.82525  1.0000
  S   S117      1.0  0.98689  0.12820  0.81141  1.0000
  C   C400      1.0  0.00384  0.13960  0.71353  1.0000
  C   C401      1.0  0.00400  0.47318  0.86898  1.0000
  S   S118      1.0  0.20246  0.00858  0.94379  1.0000
  C   C402      1.0  0.00480  0.13388  0.68402  1.0000
  H   H470      1.0  0.19627  0.10333  0.89819  1.0000
  H   H471      1.0  0.00233  0.45772  0.66240  1.0000
  C   C403      1.0  0.15149  0.99222  0.90801  1.0000
  H   H472      1.0  0.03717  0.08053  0.87842  1.0000
  C   C404      1.0  0.07873  0.36011  0.67461  1.0000
  Fe  Fe61      1.0  0.09576  0.29551  0.68229  1.0000
  S   S119      1.0  0.05546  0.38634  0.95706  1.0000
  H   H473      1.0  0.11506  0.32790  0.65950  1.0000
  S   S120      1.0  0.99289  0.17007  0.80933  1.0000
  H   H474      1.0  0.07645  0.36199  0.63699  1.0000
  C   C405      1.0  0.08889  0.34284  0.67163  1.0000
  C   C406      1.0  0.17919  0.27024  0.67875  1.0000
  S   S121      1.0  0.15582  0.04491  0.93338  1.0000
  H   H475      1.0  0.03549  0.99528  0.82443  1.0000
  H   H476      1.0  0.09748  0.05905  0.93732  1.0000
  H   H477      1.0  0.22018  0.15118  0.87514  1.0000
  C   C407      1.0  0.99796  0.00797  0.76728  1.0000
  Fe  Fe62      1.0  0.15330  0.06654  0.94966  1.0000
  H   H478      1.0  0.22610  0.26358  0.67233  1.0000
  H   H479      1.0  0.99819  0.42549  0.86741  1.0000
  C   C408      1.0  0.16161  0.23554  0.65131  1.0000
  H   H480      1.0  0.99849  0.22465  0.78494  1.0000
  H   H481      1.0  0.07230  0.25785  0.65731  1.0000
  C   C409      1.0  0.07428  0.24793  0.64881  1.0000
  H   H482      1.0  0.00020  0.12070  0.69095  1.0000
  H   H483      1.0  0.01884  0.24530  0.75128  1.0000
  H   H484      1.0  0.18047  0.14744  0.93817  1.0000
  H   H485      1.0  0.01587  0.32515  0.90690  1.0000
  H   H486      1.0  0.03927  0.42542  0.95088  1.0000
  N   N23       1.0  0.08296  0.20479  0.69709  1.0000
  C   C410      1.0  0.07692  0.22479  0.69647  1.0000
  C   C411      1.0  0.10343  0.20015  0.69412  1.0000
  C   C412      1.0  0.07764  0.20070  0.68138  1.0000
  C   C413      1.0  0.07477  0.19467  0.71527  1.0000
  C   C414      1.0  0.07974  0.19591  0.73152  1.0000
  C   C415      1.0  0.06149  0.18369  0.71752  1.0000
  C   C416      1.0  0.07246  0.18622  0.74879  1.0000
  C   C417      1.0  0.05416  0.17422  0.73491  1.0000
  H   H487      1.0  0.02617  0.00665  0.85344  1.0000
  H   H488      1.0  0.06165  0.22910  0.69836  1.0000
  H   H489      1.0  0.08120  0.22911  0.70728  1.0000
  H   H490      1.0  0.08310  0.23285  0.68313  1.0000
  H   H491      1.0  0.10886  0.20490  0.70390  1.0000
  H   H492      1.0  0.10995  0.20692  0.68014  1.0000
  C   C418      1.0  0.99469  0.31215  0.94017  1.0000
  H   H493      1.0  0.06258  0.20546  0.68159  1.0000
  H   H494      1.0  0.08465  0.20791  0.66794  1.0000
  H   H495      1.0  0.08162  0.18578  0.68113  1.0000
  H   H496      1.0  0.08925  0.20449  0.73103  1.0000
  H   H497      1.0  0.05656  0.18214  0.70608  1.0000
  C   C419      1.0  0.01506  0.29011  0.92272  1.0000
  C   C420      1.0  0.05973  0.17538  0.75047  1.0000
  H   H498      1.0  0.01092  0.41542  0.81172  1.0000
  H   H499      1.0  0.99593  0.03690  0.86014  1.0000
  H   H500      1.0  0.05275  0.45615  0.73952  1.0000
  H   H501      1.0  0.02394  0.04090  0.83400  1.0000
  H   H502      1.0  0.05234  0.44865  0.84720  1.0000
  H   H503      1.0  0.00583  0.31625  0.89346  1.0000
  H   H504      1.0  0.14654  0.47395  0.95700  1.0000
  C   C421      1.0  0.00379  0.32696  0.96055  1.0000
  H   H505      1.0  0.16465  0.18109  0.89814  1.0000
  C   C422      1.0  0.99793  0.06935  0.83965  1.0000
  Fe  Fe63      1.0  0.99306  0.15273  0.78962  1.0000
  H   H506      1.0  0.15452  0.00021  0.91684  1.0000
  C   C423      1.0  0.03619  0.98106  0.95856  1.0000
  S   S122      1.0  0.11127  0.02090  0.95458  1.0000
  C   C424      1.0  0.19318  0.23128  0.65467  1.0000
  C   C425      1.0  0.98596  0.12551  0.76479  1.0000
  C   C426      1.0  0.21822  0.98046  0.92546  1.0000
  C   C427      1.0  0.01306  0.21865  0.77936  1.0000
  H   H507      1.0  0.00328  0.99791  0.77847  1.0000
  H   H508      1.0  0.04478  0.25466  0.78344  1.0000
  H   H509      1.0  0.99949  0.12618  0.71990  1.0000
  H   H510      1.0  0.01358  0.33356  0.96326  1.0000
  S   S123      1.0  0.06669  0.47110  0.64992  1.0000
  C   C428      1.0  0.00543  0.19643  0.68973  1.0000
  H   H511      1.0  0.16043  0.97831  0.91047  1.0000
  N   N24       1.0  0.04011  0.10765  0.87962  1.0000
  C   C429      1.0  0.02880  0.09444  0.87956  1.0000
  C   C430      1.0  0.05109  0.09960  0.89417  1.0000
  S   S124      1.0  0.17439  0.04985  0.96623  1.0000
  C   C431      1.0  0.05281  0.11121  0.86160  1.0000
  C   C432      1.0  0.06460  0.09635  0.85395  1.0000
  C   C433      1.0  0.05421  0.12924  0.85135  1.0000
  C   C434      1.0  0.07607  0.09926  0.83659  1.0000
  C   C435      1.0  0.99821  0.02647  0.76533  1.0000
  C   C436      1.0  0.07660  0.11707  0.82660  1.0000
  H   H512      1.0  0.02124  0.09943  0.86800  1.0000
  H   H513      1.0  0.04420  0.45099  0.96257  1.0000
  C   C437      1.0  0.05892  0.24397  0.64473  1.0000
  H   H514      1.0  0.99644  0.12389  0.77260  1.0000
  H   H515      1.0  0.04209  0.09663  0.90803  1.0000
  H   H516      1.0  0.02563  0.44570  0.67878  1.0000
  H   H517      1.0  0.11466  0.28687  0.77221  1.0000
  H   H518      1.0  0.01337  0.21551  0.76586  1.0000
  C   C438      1.0  0.01442  0.16908  0.66900  1.0000
  H   H519      1.0  0.06494  0.08230  0.86129  1.0000
  H   H520      1.0  0.13469  0.26472  0.73236  1.0000
  H   H521      1.0  0.08446  0.08762  0.83078  1.0000
  H   H522      1.0  0.14077  0.14129  0.88666  1.0000
  H   H523      1.0  0.08534  0.11931  0.81304  1.0000
  H   H524      1.0  0.18969  0.08022  0.94242  1.0000
  H   H525      1.0  0.10859  0.18505  0.69555  1.0000
  C   C439      1.0  0.00569  0.43527  0.83748  1.0000
  C   C440      1.0  0.15413  0.17230  0.90265  1.0000
  S   S125      1.0  0.10519  0.44233  0.65840  1.0000
  H   H526      1.0  0.03446  0.13448  0.88643  1.0000
  H   H527      1.0  0.20209  0.23118  0.66365  1.0000
  H   H528      1.0  0.10251  0.26678  0.89096  1.0000
  H   H529      1.0  0.11165  0.98437  0.93729  1.0000
  H   H530      1.0  0.12346  0.01679  0.89405  1.0000
  N   N25       1.0  0.99547  0.05369  0.83297  1.0000
  H   H531      1.0  0.12358  0.46621  0.69161  1.0000
  H   H532      1.0  0.04412  0.16582  0.73640  1.0000
  H   H533      1.0  0.03479  0.43295  0.80636  1.0000
  C   C441      1.0  0.19465  0.11803  0.89289  1.0000
  H   H534      1.0  0.05413  0.16788  0.76390  1.0000
  C   C442      1.0  0.00757  0.32025  0.94437  1.0000
  H   H535      1.0  0.99184  0.33282  0.90694  1.0000
  C   C443      1.0  0.05152  0.43716  0.96670  1.0000
  C   C444      1.0  0.01831  0.45326  0.69006  1.0000
  H   H536      1.0  0.01846  0.09220  0.89265  1.0000
  C   C445      1.0  0.01519  0.22806  0.81243  1.0000
  H   H537      1.0  0.99168  0.17801  0.71130  1.0000
  H   H538      1.0  0.04318  0.45636  0.90150  1.0000
  N   N26       1.0  0.02142  0.42005  0.83343  1.0000
  C   C446      1.0  0.03732  0.42724  0.82052  1.0000
  C   C447      1.0  0.02817  0.40865  0.85013  1.0000
  H   H539      1.0  0.22383  0.11757  0.88641  1.0000
  C   C448      1.0  0.01889  0.99718  0.85130  1.0000
  S   S126      1.0  0.22779  0.20833  0.90638  1.0000
  C   C449      1.0  0.99985  0.17963  0.69745  1.0000
  H   H540      1.0  0.07305  0.46193  0.90456  1.0000
  H   H541      1.0  0.02744  0.18864  0.64731  1.0000
  H   H542      1.0  0.04524  0.21855  0.75655  1.0000
  H   H543      1.0  0.02014  0.13067  0.68061  1.0000
  N   N27       1.0  0.99886  0.30552  0.92272  1.0000
  H   H544      1.0  0.05004  0.41640  0.81910  1.0000
  C   C450      1.0  0.12091  0.01033  0.90893  1.0000
  N   N28       1.0  0.00547  0.47033  0.68343  1.0000
  H   H545      1.0  0.04067  0.39799  0.84676  1.0000
  H   H546      1.0  0.11422  0.27067  0.74883  1.0000
  H   H547      1.0  0.98674  0.29443  0.90630  1.0000
  C   C451      1.0  0.04452  0.22225  0.76987  1.0000
  C   C452      1.0  0.01400  0.04432  0.82462  1.0000
  H   H548      1.0  0.07663  0.18717  0.76101  1.0000
  C   C453      1.0  0.01505  0.97830  0.83181  1.0000
  H   H549      1.0  0.16928  0.23641  0.67610  1.0000
  H   H550      1.0  0.99778  0.14832  0.72398  1.0000
  S   S127      1.0  0.10735  0.28406  0.70784  1.0000
  S   S128      1.0  0.15231  0.09682  0.93714  1.0000
  C   C454      1.0  0.12681  0.98286  0.93210  1.0000
  N   N29       1.0  0.99780  0.14787  0.69577  1.0000
  H   H551      1.0  0.03016  0.25752  0.76043  1.0000
  H   H552      1.0  0.04542  0.26198  0.81238  1.0000
  H   H553      1.0  0.09916  0.98399  0.83996  1.0000
  H   H554      1.0  0.02061  0.32164  0.93511  1.0000
  H   H555      1.0  0.10992  0.34228  0.69885  1.0000
  S   S129      1.0  0.08166  0.27191  0.68599  1.0000
  H   H556      1.0  0.19848  0.25928  0.69693  1.0000
  N   N30       1.0  0.02564  0.23127  0.77764  1.0000
  Fe  Fe64      1.0  0.02092  0.00882  0.89103  1.0000
  H   H557      1.0  0.98809  0.19581  0.85081  1.0000
  H   H558      1.0  0.13387  0.25525  0.75645  1.0000
  Fe  Fe65      1.0  0.10824  0.25956  0.66914  1.0000
  C   C455      1.0  0.99495  0.43570  0.85550  1.0000
  H   H559      1.0  0.00399  0.99808  0.71274  1.0000
  C   C456      1.0  0.01560  0.23267  0.82883  1.0000
  H   H560      1.0  0.01911  0.13718  0.71168  1.0000
  C   C457      1.0  0.18255  0.13282  0.93890  1.0000
  S   S130      1.0  0.07796  0.32389  0.67944  1.0000
  C   C458      1.0  0.01999  0.24833  0.76437  1.0000
  C   C459      1.0  0.07860  0.97725  0.82952  1.0000
  H   H561      1.0  0.01718  0.20513  0.78840  1.0000
  C   C460      1.0  0.17694  0.12893  0.89345  1.0000
  H   H562      1.0  0.02677  0.39613  0.82155  1.0000
  C   C461      1.0  0.00430  0.16535  0.68739  1.0000
  H   H563      1.0  0.21494  0.09373  0.94526  1.0000
  H   H564      1.0  0.12665  0.15997  0.89695  1.0000
  H   H565      1.0  0.06033  0.08627  0.89198  1.0000
  H   H566      1.0  0.06643  0.14586  0.82629  1.0000
  H   H567      1.0  0.15610  0.16387  0.91637  1.0000
  Fe  Fe66      1.0  0.17524  0.02753  0.95164  1.0000
  H   H568      1.0  0.18956  0.17067  0.87618  1.0000
  S   S131      1.0  0.02502  0.00914  0.91896  1.0000
  H   H569      1.0  0.01080  0.44378  0.70122  1.0000
  N   N31       1.0  0.13162  0.99123  0.91227  1.0000
  H   H570      1.0  0.09636  0.27153  0.91364  1.0000
  H   H571      1.0  0.00702  0.06470  0.84994  1.0000
  H   H572      1.0  0.00713  0.45023  0.80896  1.0000
  H   H573      1.0  0.02753  0.29421  0.92411  1.0000
  C   C462      1.0  0.06483  0.46849  0.91627  1.0000
  H   H574      1.0  0.99068  0.98786  0.75723  1.0000
  H   H575      1.0  0.99161  0.09676  0.76391  1.0000
  H   H576      1.0  0.05467  0.23119  0.76721  1.0000
  C   C463      1.0  0.05808  0.40475  0.96552  1.0000
  C   C464      1.0  0.14033  0.15042  0.89605  1.0000
  H   H577      1.0  0.15589  0.99926  0.89354  1.0000
  C   C465      1.0  0.03631  0.24837  0.79580  1.0000
  S   S132      1.0  0.12152  0.28416  0.66339  1.0000
  N   N32       1.0  0.12276  0.27744  0.89838  1.0000
  C   C466      1.0  0.13664  0.27210  0.88221  1.0000
  C   C467      1.0  0.13232  0.27263  0.91414  1.0000
  H   H578      1.0  0.14202  0.32547  0.69126  1.0000
  C   C468      1.0  0.11417  0.29716  0.89394  1.0000
  C   C469      1.0  0.11360  0.30992  0.90482  1.0000
  C   C470      1.0  0.10531  0.30398  0.87867  1.0000
  C   C471      1.0  0.10469  0.32830  0.90056  1.0000
  C   C472      1.0  0.09667  0.32241  0.87441  1.0000
  C   C473      1.0  0.09624  0.33452  0.88540  1.0000
  H   H579      1.0  0.14691  0.28123  0.87729  1.0000
  H   H580      1.0  0.14443  0.25775  0.88548  1.0000
  H   H581      1.0  0.13030  0.27263  0.87048  1.0000
  H   H582      1.0  0.13915  0.25781  0.91674  1.0000
  H   H583      1.0  0.12248  0.27496  0.92715  1.0000
  H   H584      1.0  0.14342  0.28057  0.91151  1.0000
  C   C474      1.0  0.20003  0.22890  0.63619  1.0000
  C   C475      1.0  0.02556  0.23586  0.79532  1.0000
  H   H585      1.0  0.00640  0.25626  0.77025  1.0000
  H   H586      1.0  0.11970  0.30602  0.91686  1.0000
  H   H587      1.0  0.10453  0.29496  0.87020  1.0000
  H   H588      1.0  0.10411  0.33775  0.90920  1.0000
  H   H589      1.0  0.08972  0.32720  0.86286  1.0000
  H   H590      1.0  0.08899  0.34867  0.88237  1.0000
  H   H591      1.0  0.07860  0.38896  0.66984  1.0000
  C   C476      1.0  0.03674  0.25273  0.81231  1.0000
  H   H592      1.0  0.01859  0.13129  0.87393  1.0000
  C   C477      1.0  0.00324  0.32056  0.90686  1.0000
  S   S133      1.0  0.06704  0.42704  0.66440  1.0000
  H   H593      1.0  0.15447  0.29921  0.71278  1.0000
  C   C478      1.0  0.98752  0.04083  0.84928  1.0000
  C   C479      1.0  0.21016  0.12602  0.88631  1.0000
  C   C480      1.0  0.99382  0.46524  0.67334  1.0000
  C   C481      1.0  0.02640  0.24487  0.82879  1.0000
  C   C482      1.0  0.08659  0.37577  0.66747  1.0000
  C   C483      1.0  0.02710  0.12444  0.88457  1.0000
  C   C484      1.0  0.10819  0.26639  0.90310  1.0000
  C   C485      1.0  0.19687  0.26511  0.68290  1.0000
  C   C486      1.0  0.23203  0.22469  0.64063  1.0000
  C   C487      1.0  0.00396  0.99186  0.86466  1.0000
  H   H594      1.0  0.06780  0.98805  0.83461  1.0000
  H   H595      1.0  0.04515  0.25081  0.65018  1.0000
  C   C488      1.0  0.06590  0.13201  0.83408  1.0000
  C   C489      1.0  0.09210  0.23900  0.64196  1.0000
  H   H596      1.0  0.04941  0.20950  0.77948  1.0000
  C   C490      1.0  0.10450  0.37436  0.65694  1.0000
  C   C491      1.0  0.99117  0.03943  0.75116  1.0000
  H   H597      1.0  0.01958  0.21270  0.66565  1.0000
  H   H598      1.0  0.02718  0.24779  0.84166  1.0000
  H   H599      1.0  0.12455  0.01915  0.91648  1.0000
  H   H600      1.0  0.99105  0.05391  0.74988  1.0000
  C   C492      1.0  0.01543  0.40789  0.82478  1.0000
  H   H601      1.0  0.08979  0.33192  0.72843  1.0000
  C   C493      1.0  0.01990  0.18596  0.66141  1.0000
  N   N33       1.0  0.13639  0.28372  0.74800  1.0000
  C   C494      1.0  0.15689  0.27878  0.74474  1.0000
  C   C495      1.0  0.12969  0.28668  0.76722  1.0000
  C   C496      1.0  0.12952  0.26788  0.74638  1.0000
  C   C497      1.0  0.12951  0.30013  0.73465  1.0000
  C   C498      1.0  0.11096  0.30982  0.73825  1.0000
  C   C499      1.0  0.14051  0.30617  0.71722  1.0000
  C   C500      1.0  0.10408  0.32491  0.72552  1.0000
  C   C501      1.0  0.13347  0.32127  0.70457  1.0000
  C   C502      1.0  0.11535  0.33069  0.70877  1.0000
  H   H602      1.0  0.16186  0.26743  0.75573  1.0000
  H   H603      1.0  0.16289  0.27359  0.73174  1.0000
  H   H604      1.0  0.16291  0.29078  0.74414  1.0000
  H   H605      1.0  0.13245  0.29983  0.76854  1.0000
  H   H606      1.0  0.13632  0.27538  0.77724  1.0000
  H   H607      1.0  0.99345  0.98110  0.73009  1.0000
  H   H608      1.0  0.04523  0.36878  0.64291  1.0000
  H   H609      1.0  0.13696  0.46179  0.63848  1.0000
  H   H610      1.0  0.98690  0.02773  0.84599  1.0000
  C   C503      1.0  0.99064  0.99366  0.71940  1.0000
  H   H611      1.0  0.03447  0.45420  0.92559  1.0000
  C   C504      1.0  0.05042  0.46922  0.73009  1.0000
  H   H612      1.0  0.98586  0.98914  0.70896  1.0000
  Fe  Fe67      1.0  0.13335  0.03498  0.95628  1.0000
  H   H613      1.0  0.16572  0.46698  0.64427  1.0000
  H   H614      1.0  0.06385  0.45743  0.92888  1.0000
  H   H615      1.0  0.01727  0.12120  0.89783  1.0000
  C   C505      1.0  0.10862  0.97770  0.90418  1.0000
  C   C506      1.0  0.03602  0.46442  0.91238  1.0000
  H   H616      1.0  0.02946  0.45595  0.69536  1.0000
  C   C507      1.0  0.02937  0.47099  0.84271  1.0000
  H   H617      1.0  0.02178  0.47090  0.91012  1.0000
  C   C508      1.0  0.99683  0.13377  0.63521  1.0000
  C   C509      1.0  0.09632  0.97494  0.83260  1.0000
  Fe  Fe68      1.0  0.23448  0.18212  0.89586  1.0000
  Fe  Fe69      1.0  0.07492  0.93878  0.13919  1.0000
  S   S134      1.0  0.10322  0.93275  0.12192  1.0000
  S   S135      1.0  0.04798  0.94180  0.13046  1.0000
  Fe  Fe70      1.0  0.08966  0.93904  0.17255  1.0000
  S   S136      1.0  0.11930  0.93267  0.15804  1.0000
  S   S137      1.0  0.08368  0.94125  0.20245  1.0000
  Fe  Fe71      1.0  0.10996  0.95339  0.13413  1.0000
  H   H618      1.0  0.99013  0.51713  0.28110  1.0000
  Fe  Fe72      1.0  0.11019  0.91246  0.14719  1.0000
  S   S138      1.0  0.12802  0.88498  0.14277  1.0000
  C   C510      1.0  0.04970  0.73864  0.29975  1.0000
  S   S139      1.0  0.08128  0.91702  0.16371  1.0000
  Fe  Fe73      1.0  0.02233  0.91318  0.05369  1.0000
  S   S140      1.0  0.02325  0.91317  0.02430  1.0000
  S   S141      1.0  0.04980  0.91112  0.06071  1.0000
  H   H619      1.0  0.01661  0.51475  0.14501  1.0000
  H   H620      1.0  0.22069  0.63011  0.98510  1.0000
  H   H621      1.0  0.01246  0.63806  0.19922  1.0000
  Fe  Fe74      1.0  0.00138  0.89623  0.03527  1.0000
  S   S142      1.0  0.00364  0.87288  0.02146  1.0000
  Fe  Fe75      1.0  0.99999  0.93731  0.02597  1.0000
  C   C511      1.0  0.22695  0.73895  0.19691  1.0000
  S   S143      1.0  0.00272  0.89366  0.06470  1.0000
  S   S144      1.0  0.00035  0.93858  0.05480  1.0000
  Fe  Fe76      1.0  0.15979  0.59662  0.00064  1.0000
  H   H622      1.0  0.99997  0.74441  0.12460  1.0000
  N   N34       1.0  0.98814  0.51212  0.15196  1.0000
  C   C512      1.0  0.22117  0.75518  0.14074  1.0000
  Fe  Fe77      1.0  0.10616  0.74807  0.18585  1.0000
  S   S145      1.0  0.13517  0.73637  0.18984  1.0000
  S   S146      1.0  0.09019  0.72677  0.18612  1.0000
  Fe  Fe78      1.0  0.10999  0.78670  0.18524  1.0000
  S   S147      1.0  0.13941  0.77810  0.18899  1.0000
  S   S148      1.0  0.09337  0.81545  0.18527  1.0000
  Fe  Fe79      1.0  0.14271  0.76056  0.16843  1.0000
  S   S149      1.0  0.16741  0.75308  0.14635  1.0000
  Fe  Fe80      1.0  0.12940  0.75464  0.21001  1.0000
  S   S150      1.0  0.13983  0.74227  0.23634  1.0000
  S   S151      1.0  0.11400  0.77111  0.16276  1.0000
  S   S152      1.0  0.09967  0.76437  0.20801  1.0000
  H   H623      1.0  0.06869  0.92386  0.25588  1.0000
  Fe  Fe81      1.0  0.11914  0.60108  0.01794  1.0000
  S   S153      1.0  0.09773  0.60368  0.04396  1.0000
  S   S154      1.0  0.14260  0.57669  0.01906  1.0000
  Fe  Fe82      1.0  0.03843  0.71042  0.12094  1.0000
  S   S155      1.0  0.05671  0.68250  0.12542  1.0000
  S   S156      1.0  0.04233  0.73677  0.12624  1.0000
  Fe  Fe83      1.0  0.01393  0.69789  0.10255  1.0000
  S   S157      1.0  0.03021  0.66899  0.10511  1.0000
  H   H624      1.0  0.05316  0.76201  0.26610  1.0000
  Fe  Fe84      1.0  0.03022  0.67178  0.13361  1.0000
  S   S158      1.0  0.02406  0.64940  0.15847  1.0000
  Fe  Fe85      1.0  0.05512  0.68214  0.09664  1.0000
  S   S159      1.0  0.08083  0.67651  0.07501  1.0000
  S   S160      1.0  0.01211  0.69983  0.13167  1.0000
  S   S161      1.0  0.03869  0.71091  0.09157  1.0000
  S   S162      1.0  0.15598  0.59113  0.97459  1.0000
  S   S163      1.0  0.99792  0.62068  0.28198  1.0000
  H   H625      1.0  0.18290  0.96576  0.16610  1.0000
  C   C513      1.0  0.19320  0.61205  0.01216  1.0000
  S   S164      1.0  0.13648  0.54677  0.98556  1.0000
  H   H626      1.0  0.17662  0.50625  0.02375  1.0000
  H   H627      1.0  0.06615  0.54992  0.98073  1.0000
  N   N35       1.0  0.19566  0.73047  0.20580  1.0000
  C   C514      1.0  0.16923  0.96307  0.17282  1.0000
  H   H628      1.0  0.17833  0.95592  0.08804  1.0000
  C   C515      1.0  0.06354  0.92008  0.27058  1.0000
  C   C516      1.0  0.07151  0.96220  0.20872  1.0000
  C   C517      1.0  0.07000  0.96449  0.22666  1.0000
  H   H629      1.0  0.20177  0.78878  0.16542  1.0000
  C   C518      1.0  0.06759  0.58485  0.02729  1.0000
  H   H630      1.0  0.05998  0.89363  0.26915  1.0000
  H   H631      1.0  0.03602  0.74306  0.29567  1.0000
  H   H632      1.0  0.01805  0.73727  0.03214  1.0000
  H   H633      1.0  0.01017  0.62712  0.22307  1.0000
  C   C519      1.0  0.14976  0.94220  0.19175  1.0000
  C   C520      1.0  0.04275  0.77757  0.06983  1.0000
  H   H634      1.0  0.23029  0.67637  0.97305  1.0000
  H   H635      1.0  0.15403  0.48821  0.04319  1.0000
  C   C521      1.0  0.15071  0.47654  0.96848  1.0000
  N   N36       1.0  0.00205  0.65659  0.21821  1.0000
  S   S165      1.0  0.98908  0.76283  0.01603  1.0000
  C   C522      1.0  0.05551  0.92728  0.30092  1.0000
  C   C523      1.0  0.01384  0.63948  0.21285  1.0000
  S   S166      1.0  0.13681  0.62141  0.00142  1.0000
  H   H636      1.0  0.17325  0.78092  0.16251  1.0000
  S   S167      1.0  0.08087  0.96128  0.14937  1.0000
  H   H637      1.0  0.02615  0.93416  0.98776  1.0000
  C   C524      1.0  0.00504  0.73573  0.04144  1.0000
  H   H638      1.0  0.13921  0.73079  0.27508  1.0000
  H   H639      1.0  0.20350  0.73767  0.17630  1.0000
  C   C525      1.0  0.02213  0.78998  0.04767  1.0000
  C   C526      1.0  0.09200  0.62451  0.05177  1.0000
  C   C527      1.0  0.09991  0.63955  0.04177  1.0000
  C   C528      1.0  0.09620  0.65553  0.04894  1.0000
  C   C529      1.0  0.08427  0.65671  0.06596  1.0000
  C   C530      1.0  0.07594  0.64186  0.07576  1.0000
  C   C531      1.0  0.07989  0.62576  0.06871  1.0000
  H   H640      1.0  0.10898  0.63886  0.02857  1.0000
  H   H641      1.0  0.10253  0.66705  0.04124  1.0000
  H   H642      1.0  0.06675  0.64264  0.08893  1.0000
  H   H643      1.0  0.07367  0.61418  0.07650  1.0000
  C   C532      1.0  0.07644  0.73014  0.16974  1.0000
  C   C533      1.0  0.06959  0.71527  0.16839  1.0000
  C   C534      1.0  0.05913  0.71721  0.15508  1.0000
  C   C535      1.0  0.05530  0.73411  0.14314  1.0000
  C   C536      1.0  0.06198  0.74906  0.14460  1.0000
  C   C537      1.0  0.07261  0.74708  0.15782  1.0000
  H   H644      1.0  0.07253  0.70214  0.17756  1.0000
  H   H645      1.0  0.05398  0.70563  0.15414  1.0000
  H   H646      1.0  0.05901  0.76219  0.13544  1.0000
  H   H647      1.0  0.07773  0.75865  0.15885  1.0000
  H   H648      1.0  0.14823  0.92869  0.19990  1.0000
  H   H649      1.0  0.00310  0.76731  0.11564  1.0000
  H   H650      1.0  0.19056  0.70310  0.21804  1.0000
  H   H651      1.0  0.01763  0.71553  0.06226  1.0000
  H   H652      1.0  0.07529  0.55555  0.03518  1.0000
  C   C538      1.0  0.10159  0.50888  0.02781  1.0000
  C   C539      1.0  0.10784  0.50629  0.00971  1.0000
  C   C540      1.0  0.11819  0.51827  0.99674  1.0000
  C   C541      1.0  0.12238  0.53285  0.00179  1.0000
  C   C542      1.0  0.11569  0.53581  0.01974  1.0000
  C   C543      1.0  0.10531  0.52381  0.03274  1.0000
  H   H653      1.0  0.12303  0.51615  0.98278  1.0000
  H   H654      1.0  0.10043  0.52592  0.04672  1.0000
  S   S168      1.0  0.11175  0.59590  0.99343  1.0000
  C   C544      1.0  0.18597  0.74944  0.20777  1.0000
  H   H655      1.0  0.98925  0.80600  0.06291  1.0000
  Fe  Fe86      1.0  0.13669  0.57330  0.99308  1.0000
  C   C545      1.0  0.18652  0.77364  0.15650  1.0000
  Fe  Fe87      1.0  0.13136  0.61411  0.97687  1.0000
  C   C546      1.0  0.07268  0.57897  0.99106  1.0000
  H   H656      1.0  0.99170  0.75376  0.07746  1.0000
  C   C547      1.0  0.10473  0.76674  0.28535  1.0000
  C   C548      1.0  0.10296  0.77591  0.26742  1.0000
  C   C549      1.0  0.11387  0.76858  0.25228  1.0000
  C   C550      1.0  0.12683  0.75221  0.25503  1.0000
  C   C551      1.0  0.12913  0.74342  0.27292  1.0000
  C   C552      1.0  0.11804  0.75063  0.28809  1.0000
  H   H657      1.0  0.09280  0.78847  0.26524  1.0000
  H   H658      1.0  0.11223  0.77559  0.23849  1.0000
  H   H659      1.0  0.17393  0.96597  0.03653  1.0000
  H   H660      1.0  0.99313  0.60767  0.25172  1.0000
  H   H661      1.0  0.18623  0.75204  0.22134  1.0000
  C   C553      1.0  0.02903  0.94726  0.97984  1.0000
  H   H662      1.0  0.10210  0.96850  0.17631  1.0000
  C   C554      1.0  0.20160  0.64084  0.02310  1.0000
  C   C555      1.0  0.18285  0.62986  0.00835  1.0000
  C   C556      1.0  0.18722  0.64429  0.01361  1.0000
  H   H663      1.0  0.17167  0.63258  0.00114  1.0000
  H   H664      1.0  0.17931  0.65810  0.01051  1.0000
  S   S169      1.0  0.98719  0.70746  0.09250  1.0000
  C   C557      1.0  0.18756  0.75991  0.14705  1.0000
  H   H665      1.0  0.17121  0.75196  0.20679  1.0000
  C   C558      1.0  0.00358  0.64213  0.15960  1.0000
  H   H666      1.0  0.19203  0.76012  0.19685  1.0000
  H   H667      1.0  0.05419  0.74856  0.07359  1.0000
  H   H668      1.0  0.20383  0.61963  0.96800  1.0000
  S   S170      1.0  0.00049  0.96351  0.00463  1.0000
  C   C559      1.0  0.06206  0.93215  0.28198  1.0000
  S   S171      1.0  0.20688  0.65901  0.02958  1.0000
  H   H669      1.0  0.11869  0.54718  0.02369  1.0000
  C   C560      1.0  0.17263  0.50437  0.01142  1.0000
  C   C561      1.0  0.04546  0.76004  0.06631  1.0000
  H   H670      1.0  0.00772  0.76277  0.08450  1.0000
  C   C562      1.0  0.00691  0.65846  0.23516  1.0000
  H   H671      1.0  0.08456  0.95060  0.02565  1.0000
  C   C563      1.0  0.03142  0.79239  0.06055  1.0000
  H   H672      1.0  0.05980  0.95055  0.04900  1.0000
  C   C564      1.0  0.15708  0.95981  0.12899  1.0000
  H   H673      1.0  0.17028  0.72037  0.21670  1.0000
  H   H674      1.0  0.08089  0.71520  0.22880  1.0000
  H   H675      1.0  0.07981  0.55006  0.00425  1.0000
  H   H676      1.0  0.15111  0.94774  0.13493  1.0000
  H   H677      1.0  0.00640  0.51782  0.12543  1.0000
  S   S172      1.0  0.08999  0.49321  0.04472  1.0000
  H   H678      1.0  0.18487  0.50512  0.99997  1.0000
  C   C565      1.0  0.99936  0.80063  0.02723  1.0000
  C   C566      1.0  0.19583  0.72819  0.18713  1.0000
  C   C567      1.0  0.13864  0.93615  0.08225  1.0000
  H   H679      1.0  0.17941  0.93512  0.18522  1.0000
  H   H680      1.0  0.99851  0.57990  0.29868  1.0000
  C   C568      1.0  0.04882  0.95073  0.01856  1.0000
  H   H681      1.0  0.07605  0.95333  0.23649  1.0000
  C   C569      1.0  0.11985  0.86518  0.15618  1.0000
  C   C570      1.0  0.12817  0.84792  0.15174  1.0000
  C   C571      1.0  0.12069  0.83229  0.16118  1.0000
  C   C572      1.0  0.10481  0.83394  0.17502  1.0000
  C   C573      1.0  0.09698  0.85105  0.17989  1.0000
  C   C574      1.0  0.10448  0.86659  0.17055  1.0000
  H   H682      1.0  0.14017  0.84670  0.14073  1.0000
  H   H683      1.0  0.12687  0.81912  0.15738  1.0000
  H   H684      1.0  0.08490  0.85235  0.19080  1.0000
  H   H685      1.0  0.09825  0.87966  0.17444  1.0000
  C   C575      1.0  0.04856  0.93454  0.11027  1.0000
  C   C576      1.0  0.03202  0.93312  0.10641  1.0000
  C   C577      1.0  0.03222  0.92612  0.09109  1.0000
  C   C578      1.0  0.04899  0.92050  0.07960  1.0000
  C   C579      1.0  0.06550  0.92228  0.08321  1.0000
  C   C580      1.0  0.06527  0.92939  0.09845  1.0000
  H   H686      1.0  0.01905  0.93712  0.11550  1.0000
  H   H687      1.0  0.01943  0.92474  0.08840  1.0000
  H   H688      1.0  0.07849  0.91806  0.07427  1.0000
  H   H689      1.0  0.07804  0.93071  0.10112  1.0000
  C   C581      1.0  0.16370  0.93420  0.09693  1.0000
  N   N37       1.0  0.14907  0.61640  0.06213  1.0000
  C   C582      1.0  0.14672  0.60652  0.04876  1.0000
  C   C583      1.0  0.13402  0.61389  0.07852  1.0000
  C   C584      1.0  0.14680  0.63623  0.05348  1.0000
  C   C585      1.0  0.16722  0.60992  0.06769  1.0000
  C   C586      1.0  0.18079  0.59528  0.06120  1.0000
  C   C587      1.0  0.17191  0.61858  0.07975  1.0000
  C   C588      1.0  0.19803  0.59001  0.06626  1.0000
  C   C589      1.0  0.18923  0.61326  0.08462  1.0000
  C   C590      1.0  0.20231  0.59907  0.07780  1.0000
  H   H690      1.0  0.13304  0.61176  0.04475  1.0000
  H   H691      1.0  0.15729  0.60824  0.03583  1.0000
  H   H692      1.0  0.14740  0.59160  0.05461  1.0000
  H   H693      1.0  0.13381  0.62206  0.08868  1.0000
  H   H694      1.0  0.13538  0.59920  0.08563  1.0000
  H   H695      1.0  0.12016  0.61835  0.07471  1.0000
  H   H696      1.0  0.15870  0.63891  0.04213  1.0000
  H   H697      1.0  0.13412  0.64127  0.04761  1.0000
  H   H698      1.0  0.14563  0.64505  0.06336  1.0000
  H   H699      1.0  0.17869  0.58797  0.05178  1.0000
  H   H700      1.0  0.16230  0.62978  0.08525  1.0000
  H   H701      1.0  0.20836  0.57914  0.06080  1.0000
  H   H702      1.0  0.19266  0.62038  0.09349  1.0000
  H   H703      1.0  0.21589  0.59521  0.08126  1.0000
  C   C591      1.0  0.22256  0.71242  0.22126  1.0000
  C   C592      1.0  0.20795  0.60875  0.02109  1.0000
  N   N38       1.0  0.07138  0.87621  0.13159  1.0000
  C   C593      1.0  0.05928  0.88182  0.11793  1.0000
  C   C594      1.0  0.08182  0.89088  0.12916  1.0000
  C   C595      1.0  0.08508  0.85952  0.12744  1.0000
  C   C596      1.0  0.05989  0.87346  0.15037  1.0000
  C   C597      1.0  0.04707  0.88848  0.15689  1.0000
  C   C598      1.0  0.06087  0.85607  0.16260  1.0000
  C   C599      1.0  0.03644  0.88634  0.17473  1.0000
  C   C600      1.0  0.05016  0.85408  0.18041  1.0000
  C   C601      1.0  0.03805  0.86919  0.18650  1.0000
  H   H704      1.0  0.04943  0.89498  0.11940  1.0000
  H   H705      1.0  0.06736  0.88391  0.10355  1.0000
  H   H706      1.0  0.05095  0.87129  0.11950  1.0000
  H   H707      1.0  0.09039  0.88752  0.13975  1.0000
  H   H708      1.0  0.07270  0.90442  0.13039  1.0000
  H   H709      1.0  0.09122  0.89289  0.11546  1.0000
  H   H710      1.0  0.07828  0.84811  0.12790  1.0000
  H   H711      1.0  0.09390  0.86219  0.11346  1.0000
  H   H712      1.0  0.09462  0.85467  0.13731  1.0000
  H   H713      1.0  0.04530  0.90209  0.14830  1.0000
  H   H714      1.0  0.07022  0.84380  0.15905  1.0000
  H   H715      1.0  0.02708  0.89814  0.17947  1.0000
  H   H716      1.0  0.05173  0.84075  0.18966  1.0000
  H   H717      1.0  0.03003  0.86761  0.20042  1.0000
  C   C602      1.0  0.12106  0.48066  0.07960  1.0000
  H   H718      1.0  0.18939  0.97297  0.05909  1.0000
  H   H719      1.0  0.12079  0.95235  0.19599  1.0000
  H   H720      1.0  0.08295  0.71544  0.29793  1.0000
  H   H721      1.0  0.14343  0.49217  0.08113  1.0000
  H   H722      1.0  0.99864  0.67115  0.23993  1.0000
  C   C603      1.0  0.05856  0.90305  0.27810  1.0000
  C   C604      1.0  0.99133  0.65217  0.14814  1.0000
  H   H723      1.0  0.23159  0.59444  0.11827  1.0000
  H   H724      1.0  0.20581  0.74026  0.13154  1.0000
  C   C605      1.0  0.04801  0.96173  0.04565  1.0000
  C   C606      1.0  0.06530  0.75643  0.27279  1.0000
  C   C607      1.0  0.21195  0.62304  0.02683  1.0000
  H   H725      1.0  0.20263  0.71403  0.18512  1.0000
  H   H726      1.0  0.05046  0.95395  0.00331  1.0000
  H   H727      1.0  0.08434  0.73811  0.29918  1.0000
  H   H728      1.0  0.02113  0.67399  0.20195  1.0000
  C   C608      1.0  0.99650  0.81572  0.05187  1.0000
  H   H729      1.0  0.99050  0.85556  0.99981  1.0000
  C   C609      1.0  0.99746  0.75369  0.08941  1.0000
  C   C610      1.0  0.98800  0.72123  0.07038  1.0000
  H   H730      1.0  0.22295  0.62020  0.03430  1.0000
  H   H731      1.0  0.07796  0.75742  0.26196  1.0000
  S   S173      1.0  0.18824  0.59365  0.00579  1.0000
  H   H732      1.0  0.14444  0.47438  0.03388  1.0000
  H   H733      1.0  0.00500  0.73938  0.09359  1.0000
  C   C611      1.0  0.02153  0.81869  0.02558  1.0000
  H   H734      1.0  0.03008  0.80579  0.06345  1.0000
  C   C612      1.0  0.13554  0.97362  0.17849  1.0000
  H   H735      1.0  0.99101  0.90318  0.99252  1.0000
  N   N39       1.0  0.01005  0.80587  0.03820  1.0000
  C   C613      1.0  0.16133  0.49650  0.98187  1.0000
  C   C614      1.0  0.13410  0.95588  0.18939  1.0000
  C   C615      1.0  0.99893  0.62673  0.17278  1.0000
  N   N40       1.0  0.06499  0.73737  0.28342  1.0000
  H   H736      1.0  0.18314  0.71920  0.23356  1.0000
  C   C616      1.0  0.15680  0.96055  0.07200  1.0000
  C   C617      1.0  0.99240  0.75865  0.11999  1.0000
  H   H737      1.0  0.22332  0.65812  0.99117  1.0000
  N   N41       1.0  0.04833  0.96721  0.02559  1.0000
  H   H738      1.0  0.23453  0.74790  0.13481  1.0000
  C   C618      1.0  0.21492  0.72730  0.20826  1.0000
  H   H739      1.0  0.01246  0.49542  0.13849  1.0000
  H   H740      1.0  0.16145  0.51638  0.00803  1.0000
  C   C619      1.0  0.02540  0.77195  0.04422  1.0000
  H   H741      1.0  0.00846  0.79441  0.01562  1.0000
  H   H742      1.0  0.22898  0.93296  0.11928  1.0000
  H   H743      1.0  0.04357  0.71007  0.29225  1.0000
  C   C620      1.0  0.03690  0.75726  0.05346  1.0000
  H   H744      1.0  0.13906  0.49867  0.02717  1.0000
  H   H745      1.0  0.03912  0.74357  0.05073  1.0000
  H   H746      1.0  0.99060  0.79074  0.03593  1.0000
  C   C621      1.0  0.01856  0.96356  0.98512  1.0000
  C   C622      1.0  0.14218  0.95278  0.07084  1.0000
  H   H747      1.0  0.00478  0.64637  0.24654  1.0000
  H   H748      1.0  0.02170  0.65922  0.23294  1.0000
  H   H749      1.0  0.06023  0.93919  0.02223  1.0000
  C   C623      1.0  0.00666  0.51003  0.13970  1.0000
  H   H750      1.0  0.08387  0.73475  0.24798  1.0000
  H   H751      1.0  0.06078  0.61354  0.01561  1.0000
  N   N42       1.0  0.13518  0.72692  0.12581  1.0000
  C   C624      1.0  0.15342  0.71482  0.12758  1.0000
  C   C625      1.0  0.13813  0.74525  0.11493  1.0000
  C   C626      1.0  0.12518  0.72925  0.14463  1.0000
  C   C627      1.0  0.12514  0.71913  0.11633  1.0000
  C   C628      1.0  0.10660  0.71682  0.12346  1.0000
  C   C629      1.0  0.13361  0.71434  0.09898  1.0000
  C   C630      1.0  0.09734  0.70987  0.11395  1.0000
  C   C631      1.0  0.12427  0.70722  0.08965  1.0000
  C   C632      1.0  0.10617  0.70495  0.09716  1.0000
  H   H752      1.0  0.16293  0.71406  0.11411  1.0000
  H   H753      1.0  0.16079  0.71995  0.13554  1.0000
  H   H754      1.0  0.15182  0.70060  0.13480  1.0000
  H   H755      1.0  0.14679  0.74449  0.10103  1.0000
  H   H756      1.0  0.14527  0.75184  0.12179  1.0000
  H   H757      1.0  0.12475  0.75468  0.11313  1.0000
  H   H758      1.0  0.12198  0.71605  0.15352  1.0000
  H   H759      1.0  0.13344  0.73433  0.15167  1.0000
  H   H760      1.0  0.11205  0.73956  0.14444  1.0000
  H   H761      1.0  0.09885  0.72035  0.13635  1.0000
  H   H762      1.0  0.14748  0.71620  0.09240  1.0000
  H   H763      1.0  0.08314  0.70838  0.11962  1.0000
  H   H764      1.0  0.13102  0.70353  0.07648  1.0000
  H   H765      1.0  0.09891  0.69946  0.08992  1.0000
  C   C633      1.0  0.06353  0.56371  0.97167  1.0000
  C   C634      1.0  0.16742  0.95079  0.08555  1.0000
  H   H766      1.0  0.10481  0.49500  0.00571  1.0000
  C   C635      1.0  0.18458  0.71764  0.21918  1.0000
  C   C636      1.0  0.20270  0.77814  0.15805  1.0000
  H   H767      1.0  0.11500  0.49283  0.07066  1.0000
  C   C637      1.0  0.20491  0.75090  0.13887  1.0000
  H   H768      1.0  0.09468  0.72968  0.27841  1.0000
  H   H769      1.0  0.18162  0.73112  0.18433  1.0000
  H   H770      1.0  0.00850  0.61863  0.18142  1.0000
  C   C638      1.0  0.06316  0.72539  0.27180  1.0000
  C   C639      1.0  0.05172  0.71206  0.27845  1.0000
  C   C640      1.0  0.07401  0.72581  0.25373  1.0000
  C   C641      1.0  0.05074  0.70048  0.26740  1.0000
  C   C642      1.0  0.07268  0.71438  0.24269  1.0000
  C   C643      1.0  0.06104  0.70176  0.24950  1.0000
  C   C644      1.0  0.00482  0.72340  0.05844  1.0000
  C   C645      1.0  0.14936  0.92689  0.09529  1.0000
  C   C646      1.0  0.17526  0.95943  0.13015  1.0000
  H   H771      1.0  0.03540  0.95627  0.05335  1.0000
  H   H772      1.0  0.17167  0.92720  0.10745  1.0000
  C   C647      1.0  0.06451  0.59973  0.01291  1.0000
  C   C648      1.0  0.98956  0.93200  0.98106  1.0000
  C   C649      1.0  0.07283  0.56708  0.02394  1.0000
  C   C650      1.0  0.07537  0.56411  0.00614  1.0000
  C   C651      1.0  0.99215  0.91365  0.98002  1.0000
  H   H773      1.0  0.99948  0.50174  0.17655  1.0000
  H   H774      1.0  0.04205  0.69029  0.27293  1.0000
  C   C652      1.0  0.00666  0.67246  0.20346  1.0000
  H   H775      1.0  0.06022  0.69279  0.24095  1.0000
  H   H776      1.0  0.98579  0.82629  0.04550  1.0000
  H   H777      1.0  0.18309  0.94710  0.13722  1.0000
  H   H778      1.0  0.01922  0.76880  0.03444  1.0000
  H   H779      1.0  0.04955  0.77965  0.07979  1.0000
  H   H780      1.0  0.03588  0.94536  0.02440  1.0000
  H   H781      1.0  0.99730  0.68552  0.20633  1.0000
  H   H782      1.0  0.22219  0.75055  0.18673  1.0000
  H   H783      1.0  0.13309  0.95973  0.06139  1.0000
  H   H784      1.0  0.21605  0.59500  0.02397  1.0000
  C   C653      1.0  0.22005  0.76878  0.15042  1.0000
  H   H785      1.0  0.14630  0.91422  0.10445  1.0000
  H   H786      1.0  0.98650  0.93579  0.99435  1.0000
  H   H787      1.0  0.12723  0.93061  0.08131  1.0000
  H   H788      1.0  0.11224  0.96302  0.00974  1.0000
  N   N43       1.0  0.16641  0.48669  0.01488  1.0000
  H   H789      1.0  0.02896  0.82430  0.03301  1.0000
  C   C654      1.0  0.22406  0.63372  0.97027  1.0000
  H   H790      1.0  0.00564  0.67097  0.18969  1.0000
  H   H791      1.0  0.02876  0.63914  0.21165  1.0000
  H   H792      1.0  0.16492  0.50973  0.97988  1.0000
  H   H793      1.0  0.99599  0.48384  0.29250  1.0000
  C   C655      1.0  0.16730  0.94580  0.18349  1.0000
  H   H794      1.0  0.03204  0.81177  0.01520  1.0000
  C   C656      1.0  0.98975  0.49877  0.16954  1.0000
  C   C657      1.0  0.06688  0.59694  0.99504  1.0000
  H   H795      1.0  0.99512  0.48442  0.16728  1.0000
  H   H796      1.0  0.06530  0.76593  0.28169  1.0000
  C   C658      1.0  0.08251  0.72981  0.29001  1.0000
  H   H797      1.0  0.00293  0.82332  0.05833  1.0000
  H   H798      1.0  0.01302  0.83080  0.01802  1.0000
  C   C659      1.0  0.98648  0.50827  0.27413  1.0000
  C   C660      1.0  0.16114  0.48349  0.99878  1.0000
  H   H799      1.0  0.99480  0.66401  0.13786  1.0000
  C   C661      1.0  0.05189  0.89806  0.29703  1.0000
  C   C662      1.0  0.15036  0.48693  0.03047  1.0000
  H   H800      1.0  0.21449  0.70293  0.23064  1.0000
  H   H801      1.0  0.06609  0.94538  0.27619  1.0000
  C   C663      1.0  0.13703  0.48023  0.08551  1.0000
  H   H802      1.0  0.09842  0.55195  0.97589  1.0000
  C   C664      1.0  0.98980  0.48922  0.28051  1.0000
  H   H803      1.0  0.06623  0.58717  0.04100  1.0000
  C   C665      1.0  0.98849  0.74611  0.03649  1.0000
  N   N44       1.0  0.07606  0.57546  0.97224  1.0000
  H   H804      1.0  0.06462  0.60915  0.98455  1.0000
  H   H805      1.0  0.04883  0.57018  0.97620  1.0000
  H   H806      1.0  0.98989  0.81272  0.02081  1.0000
  C   C666      1.0  0.09874  0.97134  0.00840  1.0000
  S   S174      1.0  0.22988  0.63495  0.07266  1.0000
  Fe  Fe88      1.0  0.23118  0.65025  0.04357  1.0000
  C   C667      1.0  0.08281  0.96441  0.01749  1.0000
  C   C668      1.0  0.98511  0.47728  0.27168  1.0000
  H   H807      1.0  0.01849  0.97400  0.03061  1.0000
  H   H808      1.0  0.04841  0.97356  0.05139  1.0000
  H   H809      1.0  0.10533  0.57368  0.96830  1.0000
  H   H810      1.0  0.13089  0.51444  0.54865  1.0000
  S   S175      1.0  0.09319  0.72582  0.33700  1.0000
  Fe  Fe89      1.0  0.08421  0.75730  0.37217  1.0000
  S   S176      1.0  0.08678  0.72675  0.38091  1.0000
  S   S177      1.0  0.07913  0.77333  0.39445  1.0000
  Fe  Fe90      1.0  0.11048  0.72560  0.35688  1.0000
  S   S178      1.0  0.13713  0.70512  0.35857  1.0000
  Fe  Fe91      1.0  0.06920  0.72962  0.36050  1.0000
  S   S179      1.0  0.04440  0.71616  0.36868  1.0000
  S   S180      1.0  0.10943  0.75602  0.34961  1.0000
  C   C669      1.0  0.02568  0.69639  0.35728  1.0000
  H   H811      1.0  0.04296  0.55505  0.39541  1.0000
  C   C670      1.0  0.04220  0.70257  0.35425  1.0000
  S   S181      1.0  0.16192  0.90881  0.60441  1.0000
  H   H812      1.0  0.15256  0.75852  0.33178  1.0000
  Fe  Fe92      1.0  0.04433  0.87490  0.39524  1.0000
  S   S182      1.0  0.01461  0.88877  0.39753  1.0000
  S   S183      1.0  0.05602  0.85969  0.37193  1.0000
  Fe  Fe93      1.0  0.04928  0.89152  0.42546  1.0000
  S   S184      1.0  0.01975  0.90631  0.43055  1.0000
  S   S185      1.0  0.07174  0.89564  0.43752  1.0000
  Fe  Fe94      1.0  0.01306  0.88021  0.42798  1.0000
  C   C671      1.0  0.15769  0.51437  0.56525  1.0000
  Fe  Fe95      1.0  0.02376  0.91348  0.39981  1.0000
  S   S186      1.0  0.01140  0.94171  0.38583  1.0000
  S   S187      1.0  0.04244  0.86453  0.42565  1.0000
  S   S188      1.0  0.05371  0.90047  0.39476  1.0000
  H   H813      1.0  0.14384  0.52222  0.57057  1.0000
  C   C672      1.0  0.05778  0.90395  0.33896  1.0000
  H   H814      1.0  0.19904  0.80350  0.57021  1.0000
  S   S189      1.0  0.99195  0.60534  0.37433  1.0000
  H   H815      1.0  0.15200  0.94443  0.54895  1.0000
  C   C673      1.0  0.02627  0.97296  0.33570  1.0000
  H   H816      1.0  0.02793  0.61622  0.36717  1.0000
  H   H817      1.0  0.20642  0.77499  0.61616  1.0000
  S   S190      1.0  0.23199  0.50940  0.60712  1.0000
  S   S191      1.0  0.98975  0.86793  0.44794  1.0000
  C   C674      1.0  0.00399  0.54632  0.31998  1.0000
  H   H818      1.0  0.22479  0.50139  0.42368  1.0000
  H   H819      1.0  0.99070  0.82718  0.42700  1.0000
  C   C675      1.0  0.99350  0.49234  0.51529  1.0000
  H   H820      1.0  0.06971  0.89284  0.33529  1.0000
  H   H821      1.0  0.98580  0.48169  0.51542  1.0000
  H   H822      1.0  0.12947  0.51539  0.60371  1.0000
  C   C676      1.0  0.01996  0.54722  0.36643  1.0000
  C   C677      1.0  0.99406  0.78660  0.39990  1.0000
  Fe  Fe96      1.0  0.07146  0.94494  0.51498  1.0000
  C   C678      1.0  0.11586  0.65783  0.39010  1.0000
  S   S192      1.0  0.05040  0.93599  0.50475  1.0000
  Fe  Fe97      1.0  0.10638  0.93249  0.53069  1.0000
  C   C679      1.0  0.02343  0.56229  0.35235  1.0000
  S   S193      1.0  0.13070  0.90943  0.53513  1.0000
  N   N45       1.0  0.15498  0.97276  0.54411  1.0000
  C   C680      1.0  0.05411  0.68779  0.32794  1.0000
  H   H823      1.0  0.17461  0.49325  0.35775  1.0000
  H   H824      1.0  0.03226  0.56018  0.33932  1.0000
  S   S194      1.0  0.07673  0.93129  0.54333  1.0000
  S   S195      1.0  0.10140  0.94376  0.50199  1.0000
  H   H825      1.0  0.04993  0.62774  0.33955  1.0000
  S   S196      1.0  0.03452  0.67004  0.31515  1.0000
  C   C681      1.0  0.05178  0.94059  0.41216  1.0000
  C   C682      1.0  0.98684  0.48608  0.54941  1.0000
  S   S197      1.0  0.03823  0.47950  0.45162  1.0000
  S   S198      1.0  0.05292  0.50883  0.40306  1.0000
  C   C683      1.0  0.22813  0.49802  0.37562  1.0000
  H   H826      1.0  0.22212  0.75766  0.59391  1.0000
  Fe  Fe98      1.0  0.04020  0.50320  0.38224  1.0000
  Fe  Fe99      1.0  0.20767  0.69962  0.41614  1.0000
  S   S199      1.0  0.06635  0.48660  0.36892  1.0000
  S   S200      1.0  0.17801  0.71434  0.41688  1.0000
  H   H827      1.0  0.98602  0.76335  0.39522  1.0000
  H   H828      1.0  0.20532  0.48191  0.50950  1.0000
  H   H829      1.0  0.04771  0.92987  0.42430  1.0000
  S   S201      1.0  0.21493  0.67620  0.43907  1.0000
  H   H830      1.0  0.22769  0.84452  0.53712  1.0000
  N   N46       1.0  0.22317  0.78533  0.57878  1.0000
  H   H831      1.0  0.01899  0.96236  0.41387  1.0000
  C   C684      1.0  0.02325  0.68618  0.34550  1.0000
  Fe  Fe100     1.0  0.20145  0.51398  0.60845  1.0000
  S   S202      1.0  0.20460  0.50707  0.58107  1.0000
  H   H832      1.0  0.09145  0.54689  0.39687  1.0000
  S   S203      1.0  0.22914  0.71452  0.41737  1.0000
  N   N47       1.0  0.04725  0.95896  0.41695  1.0000
  Fe  Fe101     1.0  0.20380  0.53710  0.57004  1.0000
  S   S204      1.0  0.18601  0.55279  0.54946  1.0000
  C   C685      1.0  0.03741  0.68199  0.33071  1.0000
  S   S205      1.0  0.19851  0.54455  0.59776  1.0000
  Fe  Fe102     1.0  0.15086  0.53928  0.43918  1.0000
  S   S206      1.0  0.16259  0.55727  0.41316  1.0000
  S   S207      1.0  0.12270  0.53250  0.44422  1.0000
  Fe  Fe103     1.0  0.18427  0.53382  0.45627  1.0000
  S   S208      1.0  0.19883  0.55118  0.43155  1.0000
  S   S209      1.0  0.20049  0.51930  0.47852  1.0000
  Fe  Fe104     1.0  0.17141  0.57043  0.43172  1.0000
  S   S210      1.0  0.16672  0.60133  0.42832  1.0000
  Fe  Fe105     1.0  0.18889  0.53647  0.41519  1.0000
  C   C686      1.0  0.02973  0.76535  0.39577  1.0000
  S   S211      1.0  0.15743  0.55414  0.45789  1.0000
  S   S212      1.0  0.17656  0.51741  0.43991  1.0000
  N   N48       1.0  0.98661  0.56032  0.32141  1.0000
  C   C687      1.0  0.20395  0.49175  0.40215  1.0000
  C   C688      1.0  0.08732  0.56010  0.38736  1.0000
  C   C689      1.0  0.04643  0.59055  0.37463  1.0000
  H   H833      1.0  0.15214  0.64122  0.38097  1.0000
  S   S213      1.0  0.98929  0.66384  0.30364  1.0000
  H   H834      1.0  0.19255  0.49646  0.41251  1.0000
  C   C690      1.0  0.13121  0.48828  0.62076  1.0000
  H   H835      1.0  0.06112  0.54268  0.40721  1.0000
  C   C691      1.0  0.99202  0.47909  0.56679  1.0000
  C   C692      1.0  0.19003  0.54335  0.52986  1.0000
  C   C693      1.0  0.20571  0.52993  0.52582  1.0000
  C   C694      1.0  0.20886  0.52279  0.50991  1.0000
  C   C695      1.0  0.19618  0.52875  0.49819  1.0000
  C   C696      1.0  0.18032  0.54194  0.50240  1.0000
  C   C697      1.0  0.17732  0.54932  0.51816  1.0000
  H   H836      1.0  0.21551  0.52515  0.53487  1.0000
  H   H837      1.0  0.07131  0.95211  0.42924  1.0000
  H   H838      1.0  0.17036  0.54643  0.49356  1.0000
  H   H839      1.0  0.16508  0.55960  0.52134  1.0000
  C   C698      1.0  0.99734  0.76892  0.39630  1.0000
  H   H840      1.0  0.99978  0.51655  0.53218  1.0000
  C   C699      1.0  0.20096  0.63631  0.42148  1.0000
  C   C700      1.0  0.18507  0.62908  0.42414  1.0000
  C   C701      1.0  0.18662  0.61093  0.42248  1.0000
  C   C702      1.0  0.20406  0.60043  0.41709  1.0000
  C   C703      1.0  0.22127  0.79404  0.59454  1.0000
  H   H841      1.0  0.19971  0.65010  0.42340  1.0000
  H   H842      1.0  0.17164  0.63735  0.42819  1.0000
  H   H843      1.0  0.20539  0.58671  0.41509  1.0000
  S   S214      1.0  0.11035  0.48560  0.61677  1.0000
  C   C704      1.0  0.11082  0.50793  0.40078  1.0000
  C   C705      1.0  0.12716  0.51459  0.39739  1.0000
  C   C706      1.0  0.13102  0.52201  0.41069  1.0000
  C   C707      1.0  0.11843  0.52304  0.42735  1.0000
  C   C708      1.0  0.10202  0.51658  0.43062  1.0000
  C   C709      1.0  0.09827  0.50893  0.41743  1.0000
  H   H844      1.0  0.19949  0.56422  0.47099  1.0000
  H   H845      1.0  0.14369  0.52700  0.40805  1.0000
  H   H846      1.0  0.09228  0.51725  0.44352  1.0000
  H   H847      1.0  0.08575  0.50365  0.42029  1.0000
  S   S215      1.0  0.08908  0.77483  0.30402  1.0000
  S   S216      1.0  0.02677  0.52518  0.36139  1.0000
  C   C710      1.0  0.18450  0.64735  0.47079  1.0000
  S   S217      1.0  0.23445  0.53409  0.56507  1.0000
  Fe  Fe106     1.0  0.04489  0.48271  0.42074  1.0000
  H   H848      1.0  0.13987  0.76629  0.41066  1.0000
  C   C711      1.0  0.08819  0.67643  0.37878  1.0000
  H   H849      1.0  0.01037  0.68177  0.34771  1.0000
  H   H850      1.0  0.06308  0.91687  0.33570  1.0000
  C   C712      1.0  0.18214  0.48980  0.53059  1.0000
  S   S218      1.0  0.01465  0.62691  0.32345  1.0000
  C   C713      1.0  0.23141  0.65173  0.61044  1.0000
  H   H851      1.0  0.04993  0.72539  0.30981  1.0000
  H   H852      1.0  0.01015  0.54532  0.30540  1.0000
  Fe  Fe107     1.0  0.09719  0.97134  0.50919  1.0000
  C   C714      1.0  0.05651  0.69803  0.33970  1.0000
  C   C715      1.0  0.21080  0.79587  0.62721  1.0000
  C   C716      1.0  0.13976  0.77010  0.39607  1.0000
  C   C717      1.0  0.17843  0.77285  0.33753  1.0000
  C   C718      1.0  0.10205  0.67416  0.38860  1.0000
  C   C719      1.0  0.22700  0.81864  0.60641  1.0000
  H   H853      1.0  0.08199  0.93110  0.59555  1.0000
  H   H854      1.0  0.17289  0.74101  0.33122  1.0000
  H   H855      1.0  0.15295  0.48089  0.58358  1.0000
  H   H856      1.0  0.03138  0.81956  0.39082  1.0000
  H   H857      1.0  0.22093  0.56165  0.62850  1.0000
  H   H858      1.0  0.16065  0.64285  0.46389  1.0000
  H   H859      1.0  0.18208  0.93986  0.59399  1.0000
  H   H860      1.0  0.22836  0.86237  0.55984  1.0000
  C   C720      1.0  0.06410  0.57920  0.37028  1.0000
  H   H861      1.0  0.09921  0.56100  0.37558  1.0000
  H   H862      1.0  0.15119  0.51850  0.53197  1.0000
  H   H863      1.0  0.13802  0.78334  0.34432  1.0000
  H   H864      1.0  0.17135  0.61003  0.46649  1.0000
  C   C721      1.0  0.05390  0.61434  0.34805  1.0000
  C   C722      1.0  0.00122  0.56807  0.38615  1.0000
  H   H865      1.0  0.99383  0.84081  0.39202  1.0000
  H   H866      1.0  0.08589  0.57139  0.39464  1.0000
  H   H867      1.0  0.20990  0.64783  0.47776  1.0000
  Fe  Fe108     1.0  0.99130  0.62644  0.34791  1.0000
  C   C723      1.0  0.18423  0.74450  0.35910  1.0000
  C   C724      1.0  0.16912  0.95479  0.57120  1.0000
  H   H868      1.0  0.11682  0.63745  0.42349  1.0000
  H   H869      1.0  0.03043  0.88511  0.35031  1.0000
  C   C725      1.0  0.20798  0.62032  0.47742  1.0000
  C   C726      1.0  0.20152  0.63927  0.47565  1.0000
  H   H870      1.0  0.17179  0.49073  0.38221  1.0000
  H   H871      1.0  0.01960  0.91147  0.60842  1.0000
  H   H872      1.0  0.04768  0.87591  0.33290  1.0000
  H   H873      1.0  0.17849  0.73298  0.36896  1.0000
  C   C727      1.0  0.05391  0.95208  0.34353  1.0000
  H   H874      1.0  0.99913  0.80303  0.43408  1.0000
  C   C728      1.0  0.07121  0.60348  0.34325  1.0000
  C   C729      1.0  0.01595  0.96539  0.35257  1.0000
  S   S219      1.0  0.10626  0.49866  0.38395  1.0000
  C   C730      1.0  0.01513  0.58016  0.35485  1.0000
  C   C731      1.0  0.17792  0.48352  0.37048  1.0000
  H   H875      1.0  0.19122  0.75069  0.36646  1.0000
  S   S220      1.0  0.06453  0.76039  0.35384  1.0000
  H   H876      1.0  0.08394  0.54847  0.35809  1.0000
  C   C732      1.0  0.22364  0.58563  0.46380  1.0000
  H   H877      1.0  0.17942  0.57985  0.47931  1.0000
  C   C733      1.0  0.06543  0.90778  0.45553  1.0000
  C   C734      1.0  0.04738  0.91041  0.46572  1.0000
  C   C735      1.0  0.04291  0.91933  0.48063  1.0000
  C   C736      1.0  0.05638  0.92585  0.48531  1.0000
  C   C737      1.0  0.07428  0.92380  0.47472  1.0000
  C   C738      1.0  0.07885  0.91459  0.45999  1.0000
  H   H878      1.0  0.03699  0.90508  0.46248  1.0000
  H   H879      1.0  0.02902  0.92093  0.48877  1.0000
  H   H880      1.0  0.08458  0.92921  0.47797  1.0000
  H   H881      1.0  0.09283  0.91263  0.45209  1.0000
  C   C739      1.0  0.00365  0.58310  0.37158  1.0000
  S   S221      1.0  0.10459  0.95990  0.53685  1.0000
  H   H882      1.0  0.07692  0.66462  0.36248  1.0000
  C   C740      1.0  0.14649  0.48622  0.57130  1.0000
  N   N49       1.0  0.16958  0.75827  0.35075  1.0000
  C   C741      1.0  0.04495  0.91520  0.62556  1.0000
  H   H883      1.0  0.00306  0.47782  0.44427  1.0000
  C   C742      1.0  0.02454  0.95089  0.36475  1.0000
  C   C743      1.0  0.04356  0.94432  0.36023  1.0000
  H   H884      1.0  0.02512  0.88791  0.32820  1.0000
  H   H885      1.0  0.02924  0.81103  0.41536  1.0000
  H   H886      1.0  0.05042  0.93352  0.36964  1.0000
  C   C744      1.0  0.17528  0.48986  0.54963  1.0000
  H   H887      1.0  0.01864  0.83396  0.40668  1.0000
  C   C745      1.0  0.21844  0.62546  0.41693  1.0000
  C   C746      1.0  0.15370  0.90872  0.58497  1.0000
  C   C747      1.0  0.13564  0.91798  0.58355  1.0000
  C   C748      1.0  0.12857  0.91833  0.56822  1.0000
  C   C749      1.0  0.13946  0.90920  0.55434  1.0000
  C   C750      1.0  0.15751  0.89990  0.55577  1.0000
  C   C751      1.0  0.16470  0.89979  0.57100  1.0000
  H   H888      1.0  0.22113  0.51253  0.50677  1.0000
  H   H889      1.0  0.11461  0.92546  0.56726  1.0000
  H   H890      1.0  0.16599  0.89286  0.54503  1.0000
  H   H891      1.0  0.17865  0.89266  0.57201  1.0000
  C   C752      1.0  0.07361  0.79733  0.38774  1.0000
  C   C753      1.0  0.07055  0.80816  0.40087  1.0000
  C   C754      1.0  0.06546  0.82735  0.39604  1.0000
  C   C755      1.0  0.06345  0.83578  0.37805  1.0000
  C   C756      1.0  0.06682  0.82496  0.36484  1.0000
  C   C757      1.0  0.07181  0.80574  0.36969  1.0000
  H   H892      1.0  0.07201  0.80168  0.41483  1.0000
  H   H893      1.0  0.06315  0.83558  0.40624  1.0000
  H   H894      1.0  0.06533  0.83141  0.35088  1.0000
  H   H895      1.0  0.07418  0.79744  0.35949  1.0000
  C   C758      1.0  0.14814  0.70707  0.37533  1.0000
  C   C759      1.0  0.16569  0.69641  0.37676  1.0000
  C   C760      1.0  0.17470  0.69794  0.39002  1.0000
  C   C761      1.0  0.16622  0.71022  0.40181  1.0000
  C   C762      1.0  0.14839  0.72037  0.40079  1.0000
  C   C763      1.0  0.13943  0.71898  0.38744  1.0000
  H   H896      1.0  0.17247  0.68712  0.36746  1.0000
  H   H897      1.0  0.18830  0.68982  0.39089  1.0000
  H   H898      1.0  0.14165  0.72970  0.41005  1.0000
  H   H899      1.0  0.12583  0.72721  0.38651  1.0000
  H   H900      1.0  0.12523  0.63155  0.38125  1.0000
  H   H901      1.0  0.14054  0.66747  0.41747  1.0000
  N   N50       1.0  0.00109  0.48821  0.53228  1.0000
  H   H902      1.0  0.12710  0.92493  0.59432  1.0000
  Fe  Fe109     1.0  0.08997  0.75644  0.33183  1.0000
  Fe  Fe110     1.0  0.00934  0.65716  0.32245  1.0000
  S   S222      1.0  0.20523  0.86793  0.61415  1.0000
  C   C764      1.0  0.12458  0.78215  0.38998  1.0000
  Fe  Fe111     1.0  0.07436  0.95994  0.54693  1.0000
  H   H903      1.0  0.21484  0.79242  0.55253  1.0000
  H   H904      1.0  0.00457  0.49264  0.50264  1.0000
  H   H905      1.0  0.21607  0.58606  0.49988  1.0000
  C   C765      1.0  0.15396  0.50747  0.61528  1.0000
  C   C766      1.0  0.01007  0.50345  0.53170  1.0000
  H   H906      1.0  0.19521  0.73820  0.34861  1.0000
  N   N51       1.0  0.20501  0.58885  0.47570  1.0000
  Fe  Fe112     1.0  0.99266  0.63345  0.30685  1.0000
  C   C767      1.0  0.15462  0.76248  0.38354  1.0000
  H   H907      1.0  0.15373  0.73891  0.35016  1.0000
  H   H908      1.0  0.15856  0.52029  0.60894  1.0000
  C   C768      1.0  0.15452  0.76664  0.36440  1.0000
  H   H909      1.0  0.11590  0.67154  0.42035  1.0000
  H   H910      1.0  0.12970  0.68325  0.40024  1.0000
  C   C769      1.0  0.07628  0.58617  0.35414  1.0000
  H   H911      1.0  0.16985  0.95088  0.52993  1.0000
  N   N52       1.0  0.10745  0.88390  0.50599  1.0000
  C   C770      1.0  0.11937  0.89635  0.49334  1.0000
  C   C771      1.0  0.09341  0.89481  0.51846  1.0000
  C   C772      1.0  0.11889  0.86929  0.51750  1.0000
  C   C773      1.0  0.09936  0.87553  0.49522  1.0000
  C   C774      1.0  0.11101  0.86515  0.48224  1.0000
  C   C775      1.0  0.07999  0.87744  0.49708  1.0000
  C   C776      1.0  0.10373  0.85756  0.47151  1.0000
  C   C777      1.0  0.07289  0.86959  0.48641  1.0000
  C   C778      1.0  0.08471  0.85985  0.47354  1.0000
  H   H912      1.0  0.11157  0.90691  0.48371  1.0000
  H   H913      1.0  0.12486  0.90371  0.50098  1.0000
  H   H914      1.0  0.13161  0.88893  0.48493  1.0000
  H   H915      1.0  0.08467  0.90653  0.51068  1.0000
  H   H916      1.0  0.09995  0.90081  0.52637  1.0000
  H   H917      1.0  0.08429  0.88623  0.52883  1.0000
  H   H918      1.0  0.13076  0.86138  0.50912  1.0000
  H   H919      1.0  0.12485  0.87516  0.52611  1.0000
  H   H920      1.0  0.11054  0.85939  0.52693  1.0000
  H   H921      1.0  0.12585  0.86308  0.48008  1.0000
  H   H922      1.0  0.06995  0.88540  0.50625  1.0000
  H   H923      1.0  0.11285  0.85014  0.46129  1.0000
  H   H924      1.0  0.05809  0.87172  0.48759  1.0000
  H   H925      1.0  0.07909  0.85449  0.46477  1.0000
  H   H926      1.0  0.16574  0.75299  0.38935  1.0000
  H   H927      1.0  0.23197  0.52242  0.42108  1.0000
  H   H928      1.0  0.14906  0.66578  0.37604  1.0000
  C   C779      1.0  0.12431  0.78692  0.37128  1.0000
  C   C780      1.0  0.16908  0.96925  0.55545  1.0000
  Fe  Fe113     1.0  0.07844  0.49047  0.39114  1.0000
  H   H929      1.0  0.00661  0.53846  0.39451  1.0000
  S   S223      1.0  0.21711  0.90571  0.58630  1.0000
  C   C781      1.0  0.17380  0.63648  0.46785  1.0000
  C   C782      1.0  0.13751  0.50467  0.61233  1.0000
  C   C783      1.0  0.18232  0.95108  0.58209  1.0000
  C   C784      1.0  0.20648  0.58041  0.49506  1.0000
  H   H930      1.0  0.22336  0.59324  0.44944  1.0000
  H   H931      1.0  0.16045  0.65214  0.39436  1.0000
  Fe  Fe114     1.0  0.19185  0.89770  0.60629  1.0000
  H   H932      1.0  0.02171  0.93497  0.60296  1.0000
  C   C785      1.0  0.01517  0.75836  0.39413  1.0000
  C   C786      1.0  0.21350  0.50432  0.38915  1.0000
  H   H933      1.0  0.02518  0.94956  0.62752  1.0000
  S   S224      1.0  0.05998  0.96936  0.57332  1.0000
  H   H934      1.0  0.21941  0.62778  0.59787  1.0000
  H   H935      1.0  0.08979  0.57819  0.34976  1.0000
  C   C787      1.0  0.03623  0.88785  0.33524  1.0000
  H   H936      1.0  0.22921  0.49204  0.45590  1.0000
  C   C788      1.0  0.14504  0.50765  0.54267  1.0000
  C   C789      1.0  0.05619  0.95759  0.43252  1.0000
  H   H937      1.0  0.19281  0.58280  0.50452  1.0000
  C   C790      1.0  0.12905  0.66994  0.41005  1.0000
  S   S225      1.0  0.20831  0.52775  0.39008  1.0000
  C   C791      1.0  0.99155  0.57867  0.31343  1.0000
  C   C792      1.0  0.21232  0.78713  0.61273  1.0000
  N   N53       1.0  0.06989  0.56088  0.38162  1.0000
  H   H938      1.0  0.05290  0.56653  0.40746  1.0000
  C   C793      1.0  0.14887  0.65343  0.38739  1.0000
  H   H939      1.0  0.05297  0.90061  0.35416  1.0000
  H   H940      1.0  0.05074  0.94789  0.44502  1.0000
  C   C794      1.0  0.13906  0.77939  0.35864  1.0000
  H   H941      1.0  0.14075  0.63575  0.42339  1.0000
  C   C795      1.0  0.05328  0.97256  0.40036  1.0000
  H   H942      1.0  0.03680  0.95895  0.55464  1.0000
  C   C796      1.0  0.21388  0.79859  0.56453  1.0000
  H   H943      1.0  0.22898  0.57081  0.46344  1.0000
  H   H944      1.0  0.13478  0.62514  0.40832  1.0000
  S   S226      1.0  0.23409  0.93812  0.60699  1.0000
  H   H945      1.0  0.01578  0.92192  0.32753  1.0000
  H   H946      1.0  0.00370  0.95705  0.56327  1.0000
  H   H947      1.0  0.13199  0.49273  0.57661  1.0000
  C   C797      1.0  0.00867  0.79430  0.40122  1.0000
  H   H948      1.0  0.98704  0.56387  0.34838  1.0000
  C   C798      1.0  0.08770  0.66269  0.37010  1.0000
  H   H949      1.0  0.18348  0.48042  0.57630  1.0000
  C   C799      1.0  0.23330  0.62347  0.60149  1.0000
  C   C800      1.0  0.02837  0.96327  0.56702  1.0000
  N   N54       1.0  0.00487  0.81311  0.40484  1.0000
  C   C801      1.0  0.19764  0.60885  0.47409  1.0000
  C   C802      1.0  0.10110  0.64660  0.37116  1.0000
  H   H950      1.0  0.06866  0.94707  0.34013  1.0000
  H   H951      1.0  0.18387  0.78058  0.34482  1.0000
  H   H952      1.0  0.07778  0.68899  0.37779  1.0000
  H   H953      1.0  0.21789  0.65856  0.60651  1.0000
  H   H954      1.0  0.19165  0.58485  0.45574  1.0000
  Fe  Fe115     1.0  0.22956  0.53932  0.59370  1.0000
  H   H955      1.0  0.10169  0.68551  0.39471  1.0000
  N   N55       1.0  0.15642  0.49935  0.55694  1.0000
  C   C803      1.0  0.18765  0.48081  0.56167  1.0000
  H   H956      1.0  0.10075  0.63601  0.36426  1.0000
  N   N56       1.0  0.04287  0.90548  0.32913  1.0000
  C   C804      1.0  0.16408  0.49398  0.62695  1.0000
  C   C805      1.0  0.02713  0.92007  0.33492  1.0000
  H   H957      1.0  0.11237  0.79618  0.36664  1.0000
  C   C806      1.0  0.19580  0.96167  0.57771  1.0000
  C   C807      1.0  0.01644  0.92410  0.61418  1.0000
  H   H958      1.0  0.03595  0.58635  0.38627  1.0000
  C   C808      1.0  0.05605  0.55619  0.39863  1.0000
  H   H959      1.0  0.08069  0.60850  0.33095  1.0000
  H   H960      1.0  0.03110  0.93361  0.33218  1.0000
  H   H961      1.0  0.04454  0.94021  0.40141  1.0000
  H   H962      1.0  0.03860  0.78746  0.40030  1.0000
  H   H963      1.0  0.15891  0.94621  0.57527  1.0000
  H   H964      1.0  0.02141  0.91692  0.34999  1.0000
  H   H965      1.0  0.22029  0.81088  0.55874  1.0000
  C   C809      1.0  0.18018  0.61750  0.46944  1.0000
  C   C810      1.0  0.20030  0.48136  0.52415  1.0000
  H   H966      1.0  0.14488  0.47798  0.38915  1.0000
  H   H967      1.0  0.21714  0.76224  0.57159  1.0000
  H   H968      1.0  0.04359  0.75705  0.39428  1.0000
  H   H969      1.0  0.13684  0.51402  0.38446  1.0000
  H   H970      1.0  0.00201  0.53243  0.32792  1.0000
  H   H971      1.0  0.05499  0.93704  0.30914  1.0000
  H   H972      1.0  0.20604  0.95869  0.58617  1.0000
  Fe  Fe116     1.0  0.22400  0.91185  0.61065  1.0000
  C   C811      1.0  0.07450  0.92187  0.60633  1.0000
  C   C812      1.0  0.99527  0.82635  0.39079  1.0000
  H   H973      1.0  0.06516  0.68444  0.31660  1.0000
  C   C813      1.0  0.13070  0.63761  0.41444  1.0000
  C   C814      1.0  0.00933  0.55009  0.38356  1.0000
  H   H974      1.0  0.17971  0.66211  0.46910  1.0000
  C   C815      1.0  0.21517  0.76852  0.58377  1.0000
  H   H975      1.0  0.06940  0.70241  0.33745  1.0000
  S   S227      1.0  0.19780  0.90611  0.62992  1.0000
  H   H976      1.0  0.06687  0.93635  0.40694  1.0000
  C   C816      1.0  0.21810  0.81160  0.62405  1.0000
  H   H977      1.0  0.11284  0.78762  0.39976  1.0000
  H   H978      1.0  0.01469  0.69963  0.36869  1.0000
  H   H979      1.0  0.11956  0.74355  0.30189  1.0000
  C   C817      1.0  0.16189  0.74884  0.34052  1.0000
  C   C818      1.0  0.07307  0.54653  0.37070  1.0000
  H   H980      1.0  0.23119  0.61668  0.61630  1.0000
  C   C819      1.0  0.22855  0.81004  0.59190  1.0000
  C   C820      1.0  0.19334  0.57911  0.47019  1.0000
  H   H981      1.0  0.99247  0.57030  0.39920  1.0000
  H   H982      1.0  0.14342  0.49707  0.53587  1.0000
  H   H983      1.0  0.14527  0.48131  0.36520  1.0000
  C   C821      1.0  0.11502  0.64417  0.38096  1.0000
  H   H984      1.0  0.16542  0.52428  0.55502  1.0000
  H   H985      1.0  0.14598  0.95826  0.52817  1.0000
  C   C822      1.0  0.04526  0.96624  0.33117  1.0000
  C   C823      1.0  0.00963  0.96219  0.57192  1.0000
  C   C824      1.0  0.02663  0.78302  0.39924  1.0000
  C   C825      1.0  0.05537  0.92688  0.61171  1.0000
  N   N57       1.0  0.13078  0.65489  0.40036  1.0000
  H   H986      1.0  0.16498  0.50924  0.57693  1.0000
  C   C826      1.0  0.04155  0.60786  0.36366  1.0000
  C   C827      1.0  0.02179  0.81961  0.40440  1.0000
  S   S228      1.0  0.22545  0.68560  0.39352  1.0000
  H   H987      1.0  0.06022  0.54638  0.36636  1.0000
  H   H988      1.0  0.07775  0.53257  0.37870  1.0000
  C   C828      1.0  0.23334  0.47925  0.37517  1.0000
  H   H989      1.0  0.16863  0.78298  0.32958  1.0000
  N   N58       1.0  0.02461  0.92083  0.63064  1.0000
  H   H990      1.0  0.19014  0.76704  0.32729  1.0000
  C   C829      1.0  0.02697  0.96378  0.42360  1.0000
  C   C830      1.0  0.03620  0.96963  0.57827  1.0000
  H   H991      1.0  0.01780  0.74469  0.39123  1.0000
  H   H992      1.0  0.09879  0.90130  0.61043  1.0000
  C   C831      1.0  0.04994  0.91019  0.30903  1.0000
  H   H993      1.0  0.00127  0.58145  0.32062  1.0000
  H   H994      1.0  0.13270  0.96663  0.56706  1.0000
  H   H995      1.0  0.21164  0.56527  0.49696  1.0000
  H   H996      1.0  0.05369  0.97111  0.43653  1.0000
  H   H997      1.0  0.00634  0.47542  0.56800  1.0000
  S   S229      1.0  0.18377  0.49795  0.63217  1.0000
  H   H998      1.0  0.00114  0.92873  0.61732  1.0000
  C   C832      1.0  0.07420  0.89337  0.62851  1.0000
  C   C833      1.0  0.08393  0.90512  0.61469  1.0000
  C   C834      1.0  0.14153  0.47460  0.63213  1.0000
  H   H999      1.0  0.22127  0.61475  0.48119  1.0000
  H   H1000     1.0  0.01700  0.50067  0.54355  1.0000
  H   H1001     1.0  0.19311  0.48094  0.36927  1.0000
  H   H1002     1.0  0.04880  0.94006  0.60484  1.0000
  H   H1003     1.0  0.01756  0.59161  0.34375  1.0000
  H   H1004     1.0  0.20006  0.77155  0.58936  1.0000
  C   C835      1.0  0.15576  0.95589  0.53754  1.0000
  H   H1005     1.0  0.17399  0.49656  0.52024  1.0000
  H   H1006     1.0  0.02227  0.95449  0.43680  1.0000
  C   C836      1.0  0.21993  0.60768  0.41429  1.0000
  Fe  Fe117     1.0  0.23112  0.87658  0.59620  1.0000
  H   H1007     1.0  0.01450  0.54962  0.32566  1.0000
  C   C837      1.0  0.99874  0.96717  0.58824  1.0000
  C   C838      1.0  0.05499  0.89826  0.63396  1.0000
  C   C839      1.0  0.99289  0.81358  0.42327  1.0000
  H   H1008     1.0  0.02079  0.50567  0.51892  1.0000
  H   H1009     1.0  0.00302  0.82505  0.37664  1.0000
  C   C840      1.0  0.23195  0.56844  0.62799  1.0000
  S   S230      1.0  0.02936  0.47880  0.40105  1.0000
  H   H1010     1.0  0.00126  0.97063  0.35607  1.0000
  H   H1011     1.0  0.03349  0.97041  0.38523  1.0000
  H   H1012     1.0  0.22861  0.64409  0.62497  1.0000
  S   S231      1.0  0.98748  0.65639  0.34826  1.0000
  H   H1013     1.0  0.05079  0.74863  0.30760  1.0000
  H   H1014     1.0  0.23277  0.83085  0.60393  1.0000
  H   H1015     1.0  0.23342  0.59939  0.41042  1.0000
  Fe  Fe118     1.0  0.23426  0.66316  0.41656  1.0000
  H   H1016     1.0  0.98714  0.72563  0.36284  1.0000
  H   H1017     1.0  0.23409  0.59021  0.46848  1.0000
  C   C841      1.0  0.00647  0.97386  0.59933  1.0000
  H   H1018     1.0  0.04848  0.88460  0.30192  1.0000
  S   S232      1.0  0.06667  0.97371  0.51968  1.0000
  H   H1019     1.0  0.23478  0.51415  0.45248  1.0000
  Fe  Fe119     1.0  0.23489  0.50457  0.57881  1.0000
  H   H1020     1.0  0.14607  0.47419  0.56588  1.0000
  Fe  Fe120     1.0  0.08430  0.60896  0.88006  1.0000
  S   S233      1.0  0.09779  0.60487  0.85141  1.0000
  S   S234      1.0  0.09875  0.59300  0.90319  1.0000
  Fe  Fe121     1.0  0.04987  0.63333  0.86798  1.0000
  S   S235      1.0  0.06037  0.63099  0.83845  1.0000
  Fe  Fe122     1.0  0.07004  0.60110  0.84970  1.0000
  S   S236      1.0  0.07039  0.57678  0.83786  1.0000
  Fe  Fe123     1.0  0.08703  0.63501  0.84280  1.0000
  S   S237      1.0  0.10213  0.65579  0.82213  1.0000
  S   S238      1.0  0.05730  0.60300  0.87904  1.0000
  S   S239      1.0  0.07580  0.63954  0.87161  1.0000
  H   H1021     1.0  0.03214  0.66283  0.83925  1.0000
  H   H1022     1.0  0.16808  0.62785  0.86814  1.0000
  C   C842      1.0  0.20727  0.88775  0.82391  1.0000
  H   H1023     1.0  0.08606  0.85835  0.80902  1.0000
  C   C843      1.0  0.01987  0.93806  0.63776  1.0000
  H   H1024     1.0  0.19138  0.76432  0.87310  1.0000
  H   H1025     1.0  0.12408  0.95941  0.82857  1.0000
  S   S240      1.0  0.21473  0.96737  0.87852  1.0000
  H   H1026     1.0  0.00697  0.83870  0.89935  1.0000
  C   C844      1.0  0.15736  0.87039  0.68905  1.0000
  C   C845      1.0  0.07307  0.59246  0.95797  1.0000
  C   C846      1.0  0.08448  0.49188  0.72883  1.0000
  Fe  Fe124     1.0  0.20108  0.66968  0.81602  1.0000
  S   S241      1.0  0.20589  0.68603  0.78719  1.0000
  S   S242      1.0  0.18602  0.64597  0.82617  1.0000
  C   C847      1.0  0.23235  0.83831  0.81306  1.0000
  H   H1027     1.0  0.21109  0.67012  0.89510  1.0000
  Fe  Fe125     1.0  0.20474  0.70953  0.80039  1.0000
  S   S243      1.0  0.18622  0.73718  0.79387  1.0000
  H   H1028     1.0  0.05596  0.94249  0.81210  1.0000
  S   S244      1.0  0.19723  0.69369  0.82919  1.0000
  N   N59       1.0  0.04633  0.47838  0.91270  1.0000
  C   C848      1.0  0.13743  0.65313  0.89714  1.0000
  H   H1029     1.0  0.14338  0.86303  0.74348  1.0000
  C   C849      1.0  0.00381  0.68591  0.87146  1.0000
  C   C850      1.0  0.02602  0.82408  0.83478  1.0000
  N   N60       1.0  0.13698  0.88061  0.71806  1.0000
  H   H1030     1.0  0.03491  0.48131  0.87956  1.0000
  C   C851      1.0  0.99970  0.80554  0.90232  1.0000
  S   S245      1.0  0.06715  0.91340  0.76367  1.0000
  Fe  Fe126     1.0  0.19542  0.83541  0.78371  1.0000
  S   S246      1.0  0.17426  0.84622  0.76579  1.0000
  S   S247      1.0  0.21661  0.80904  0.78528  1.0000
  Fe  Fe127     1.0  0.18435  0.86845  0.80178  1.0000
  Fe  Fe128     1.0  0.15512  0.85474  0.79103  1.0000
  H   H1031     1.0  0.15328  0.90004  0.71737  1.0000
  Fe  Fe129     1.0  0.18291  0.87317  0.76159  1.0000
  S   S248      1.0  0.18793  0.87836  0.82570  1.0000
  S   S249      1.0  0.17549  0.84134  0.80933  1.0000
  S   S250      1.0  0.20585  0.86173  0.77724  1.0000
  Fe  Fe130     1.0  0.01831  0.52036  0.76384  1.0000
  S   S251      1.0  0.02785  0.52240  0.73314  1.0000
  Fe  Fe131     1.0  0.00998  0.54377  0.79300  1.0000
  S   S252      1.0  0.00850  0.57197  0.79825  1.0000
  Fe  Fe132     1.0  0.02221  0.50231  0.80307  1.0000
  C   C852      1.0  0.20629  0.76145  0.86998  1.0000
  S   S253      1.0  0.03530  0.52425  0.78213  1.0000
  S   S254      1.0  0.99394  0.54167  0.77301  1.0000
  C   C853      1.0  0.15786  0.47752  0.63532  1.0000
  C   C854      1.0  0.20868  0.89433  0.83887  1.0000
  C   C855      1.0  0.09499  0.48662  0.71256  1.0000
  C   C856      1.0  0.22275  0.63586  0.72198  1.0000
  C   C857      1.0  0.01649  0.48322  0.67021  1.0000
  C   C858      1.0  0.01616  0.67152  0.86406  1.0000
  H   H1032     1.0  0.03693  0.48437  0.75164  1.0000
  H   H1033     1.0  0.19984  0.64956  0.77275  1.0000
  S   S255      1.0  0.02382  0.94837  0.77342  1.0000
  H   H1034     1.0  0.98795  0.88490  0.77255  1.0000
  C   C859      1.0  0.06622  0.94427  0.79894  1.0000
  H   H1035     1.0  0.02024  0.90461  0.65824  1.0000
  S   S256      1.0  0.16220  0.88247  0.78564  1.0000
  H   H1036     1.0  0.18416  0.90850  0.69655  1.0000
  H   H1037     1.0  0.21689  0.81838  0.63526  1.0000
  C   C860      1.0  0.03863  0.50212  0.72488  1.0000
  C   C861      1.0  0.04463  0.50301  0.70587  1.0000
  C   C862      1.0  0.05353  0.48702  0.69897  1.0000
  C   C863      1.0  0.21368  0.64449  0.77645  1.0000
  H   H1038     1.0  0.00547  0.87146  0.79900  1.0000
  H   H1039     1.0  0.22365  0.74378  0.78580  1.0000
  H   H1040     1.0  0.04245  0.51612  0.69649  1.0000
  H   H1041     1.0  0.05804  0.48781  0.68433  1.0000
  H   H1042     1.0  0.01443  0.80421  0.90280  1.0000
  H   H1043     1.0  0.10745  0.48199  0.65843  1.0000
  C   C864      1.0  0.02301  0.67400  0.84510  1.0000
  C   C865      1.0  0.10372  0.96788  0.89366  1.0000
  H   H1044     1.0  0.12775  0.50410  0.65317  1.0000
  H   H1045     1.0  0.99841  0.68400  0.88613  1.0000
  C   C866      1.0  0.21771  0.63218  0.94141  1.0000
  C   C867      1.0  0.11735  0.87878  0.72414  1.0000
  C   C868      1.0  0.01767  0.69090  0.83362  1.0000
  C   C869      1.0  0.08311  0.89627  0.77459  1.0000
  C   C870      1.0  0.07734  0.88285  0.78960  1.0000
  C   C871      1.0  0.09051  0.86894  0.79762  1.0000
  C   C872      1.0  0.10942  0.86861  0.79085  1.0000
  C   C873      1.0  0.11513  0.88232  0.77616  1.0000
  C   C874      1.0  0.10199  0.89606  0.76797  1.0000
  H   H1046     1.0  0.06277  0.88296  0.79477  1.0000
  S   S257      1.0  0.00739  0.49672  0.78374  1.0000
  H   H1047     1.0  0.12968  0.88215  0.77099  1.0000
  H   H1048     1.0  0.10643  0.90655  0.75647  1.0000
  C   C875      1.0  0.22792  0.83964  0.84477  1.0000
  H   H1049     1.0  0.20012  0.83219  0.83653  1.0000
  C   C876      1.0  0.04610  0.96486  0.95279  1.0000
  H   H1050     1.0  0.09462  0.47443  0.68099  1.0000
  H   H1051     1.0  0.09878  0.56367  0.95266  1.0000
  C   C877      1.0  0.21882  0.73716  0.82963  1.0000
  H   H1052     1.0  0.12660  0.51587  0.67090  1.0000
  H   H1053     1.0  0.16286  0.86520  0.72519  1.0000
  C   C878      1.0  0.23236  0.60322  0.73206  1.0000
  S   S258      1.0  0.01362  0.90789  0.77964  1.0000
  C   C879      1.0  0.99810  0.92224  0.94674  1.0000
  H   H1054     1.0  0.08570  0.91093  0.80493  1.0000
  H   H1055     1.0  0.08249  0.60171  0.95732  1.0000
  C   C880      1.0  0.19507  0.75731  0.78956  1.0000
  C   C881      1.0  0.18275  0.77419  0.79013  1.0000
  C   C882      1.0  0.18928  0.79024  0.78845  1.0000
  C   C883      1.0  0.20820  0.78945  0.78611  1.0000
  C   C884      1.0  0.22057  0.77266  0.78512  1.0000
  C   C885      1.0  0.21403  0.75664  0.78668  1.0000
  H   H1056     1.0  0.16807  0.77481  0.79224  1.0000
  H   H1057     1.0  0.17965  0.80315  0.78919  1.0000
  H   H1058     1.0  0.06524  0.56131  0.95754  1.0000
  H   H1059     1.0  0.10716  0.51962  0.65982  1.0000
  Fe  Fe133     1.0  0.03812  0.91901  0.78007  1.0000
  S   S259      1.0  0.99813  0.52218  0.81528  1.0000
  H   H1060     1.0  0.19492  0.89480  0.66878  1.0000
  H   H1061     1.0  0.13743  0.66730  0.88884  1.0000
  H   H1062     1.0  0.08741  0.49703  0.66814  1.0000
  H   H1063     1.0  0.13563  0.48382  0.69126  1.0000
  S   S260      1.0  0.02268  0.65055  0.87874  1.0000
  H   H1064     1.0  0.22502  0.90644  0.84985  1.0000
  H   H1065     1.0  0.23150  0.89151  0.68405  1.0000
  C   C886      1.0  0.20534  0.86789  0.68344  1.0000
  C   C887      1.0  0.19688  0.88643  0.68199  1.0000
  C   C888      1.0  0.19075  0.89414  0.69774  1.0000
  C   C889      1.0  0.19298  0.88332  0.71501  1.0000
  C   C890      1.0  0.20133  0.86475  0.71651  1.0000
  C   C891      1.0  0.08879  0.92036  0.81219  1.0000
  H   H1066     1.0  0.13699  0.47583  0.67079  1.0000
  H   H1067     1.0  0.20314  0.85632  0.72980  1.0000
  C   C892      1.0  0.04355  0.50559  0.86385  1.0000
  C   C893      1.0  0.05285  0.57596  0.82706  1.0000
  C   C894      1.0  0.03759  0.59035  0.82533  1.0000
  C   C895      1.0  0.02404  0.58911  0.81638  1.0000
  C   C896      1.0  0.02558  0.57338  0.80940  1.0000
  C   C897      1.0  0.04084  0.55907  0.81117  1.0000
  C   C898      1.0  0.05451  0.56046  0.81976  1.0000
  H   H1068     1.0  0.03621  0.60235  0.83094  1.0000
  H   H1069     1.0  0.01221  0.60019  0.81510  1.0000
  H   H1070     1.0  0.04221  0.54694  0.80581  1.0000
  H   H1071     1.0  0.06640  0.54940  0.82084  1.0000
  C   C899      1.0  0.12554  0.65306  0.82294  1.0000
  C   C900      1.0  0.13477  0.66775  0.81499  1.0000
  C   C901      1.0  0.15341  0.66580  0.81576  1.0000
  C   C902      1.0  0.16294  0.64900  0.82414  1.0000
  C   C903      1.0  0.15382  0.63422  0.83164  1.0000
  C   C904      1.0  0.13512  0.63631  0.83130  1.0000
  H   H1072     1.0  0.12746  0.68073  0.80841  1.0000
  H   H1073     1.0  0.16037  0.67727  0.80990  1.0000
  H   H1074     1.0  0.16116  0.62114  0.83801  1.0000
  H   H1075     1.0  0.12821  0.62488  0.83735  1.0000
  C   C905      1.0  0.10513  0.60494  0.91658  1.0000
  C   C906      1.0  0.09864  0.62382  0.91561  1.0000
  C   C907      1.0  0.10383  0.63280  0.92684  1.0000
  C   C908      1.0  0.11547  0.62290  0.93902  1.0000
  C   C909      1.0  0.12165  0.60398  0.94019  1.0000
  C   C910      1.0  0.11662  0.59507  0.92888  1.0000
  H   H1076     1.0  0.08952  0.63146  0.90637  1.0000
  H   H1077     1.0  0.09883  0.64741  0.92610  1.0000
  H   H1078     1.0  0.07592  0.58937  0.94394  1.0000
  H   H1079     1.0  0.12176  0.58048  0.92959  1.0000
  H   H1080     1.0  0.12543  0.64856  0.89520  1.0000
  H   H1081     1.0  0.00466  0.94276  0.64164  1.0000
  S   S261      1.0  0.02237  0.97094  0.81067  1.0000
  S   S262      1.0  0.12572  0.85079  0.80062  1.0000
  C   C911      1.0  0.22225  0.95945  0.65097  1.0000
  S   S263      1.0  0.18497  0.89331  0.73448  1.0000
  Fe  Fe134     1.0  0.01575  0.94647  0.80393  1.0000
  C   C912      1.0  0.99131  0.94554  0.96505  1.0000
  C   C913      1.0  0.99640  0.93290  0.72961  1.0000
  H   H1082     1.0  0.05114  0.67539  0.79974  1.0000
  H   H1083     1.0  0.21397  0.84266  0.70191  1.0000
  C   C914      1.0  0.22157  0.88798  0.80839  1.0000
  H   H1084     1.0  0.21569  0.91131  0.70604  1.0000
  H   H1085     1.0  0.22293  0.65407  0.76828  1.0000
  H   H1086     1.0  0.98714  0.85178  0.88962  1.0000
  C   C915      1.0  0.15292  0.88779  0.65886  1.0000
  C   C916      1.0  0.22384  0.62327  0.75460  1.0000
  C   C917      1.0  0.22427  0.90113  0.83837  1.0000
  C   C918      1.0  0.11844  0.50913  0.66536  1.0000
  C   C919      1.0  0.23095  0.64272  0.93195  1.0000
  H   H1087     1.0  0.23162  0.95876  0.91051  1.0000
  C   C920      1.0  0.00489  0.82321  0.87108  1.0000
  C   C921      1.0  0.13832  0.90004  0.66698  1.0000
  H   H1088     1.0  0.16566  0.85890  0.69664  1.0000
  H   H1089     1.0  0.99850  0.79305  0.89820  1.0000
  H   H1090     1.0  0.07690  0.53812  0.71440  1.0000
  H   H1091     1.0  0.17391  0.86364  0.66347  1.0000
  C   C922      1.0  0.99707  0.86288  0.80932  1.0000
  H   H1092     1.0  0.10341  0.91522  0.81367  1.0000
  H   H1093     1.0  0.07998  0.91875  0.82624  1.0000
  H   H1094     1.0  0.23269  0.83040  0.80259  1.0000
  C   C923      1.0  0.99460  0.47917  0.69897  1.0000
  H   H1095     1.0  0.22051  0.88317  0.79668  1.0000
  C   C924      1.0  0.23010  0.60560  0.75005  1.0000
  H   H1096     1.0  0.21733  0.97104  0.64079  1.0000
  H   H1097     1.0  0.01750  0.79904  0.83623  1.0000
  H   H1098     1.0  0.02267  0.49601  0.92551  1.0000
  C   C925      1.0  0.04276  0.94791  0.96369  1.0000
  H   H1099     1.0  0.20736  0.77379  0.89198  1.0000
  H   H1100     1.0  0.07292  0.47773  0.91838  1.0000
  C   C926      1.0  0.99377  0.49172  0.72577  1.0000
  N   N61       1.0  0.11130  0.49395  0.67949  1.0000
  C   C927      1.0  0.07813  0.51039  0.72949  1.0000
  C   C928      1.0  0.00591  0.70552  0.84112  1.0000
  C   C929      1.0  0.14804  0.86430  0.72830  1.0000
  H   H1101     1.0  0.22572  0.83230  0.85938  1.0000
  C   C930      1.0  0.04143  0.48516  0.73697  1.0000
  S   S264      1.0  0.21323  0.85794  0.66392  1.0000
  H   H1102     1.0  0.18607  0.75739  0.82759  1.0000
  C   C931      1.0  0.00019  0.97276  0.84522  1.0000
  C   C932      1.0  0.98779  0.64722  0.83227  1.0000
  C   C933      1.0  0.05202  0.52001  0.86291  1.0000
  H   H1103     1.0  0.00748  0.49643  0.66519  1.0000
  C   C934      1.0  0.01561  0.90698  0.64501  1.0000
  C   C935      1.0  0.99905  0.70304  0.86007  1.0000
  H   H1104     1.0  0.02282  0.69273  0.81893  1.0000
  H   H1105     1.0  0.19762  0.89426  0.85088  1.0000
  H   H1106     1.0  0.99643  0.63362  0.83264  1.0000
  N   N62       1.0  0.08537  0.93973  0.80216  1.0000
  H   H1107     1.0  0.12918  0.90966  0.71873  1.0000
  H   H1108     1.0  0.11302  0.87611  0.73942  1.0000
  H   H1109     1.0  0.00153  0.91748  0.93398  1.0000
  C   C936      1.0  0.14251  0.88264  0.69781  1.0000
  C   C937      1.0  0.08240  0.52374  0.71392  1.0000
  H   H1110     1.0  0.21088  0.73301  0.82151  1.0000
  C   C938      1.0  0.09972  0.48650  0.67143  1.0000
  N   N63       1.0  0.15507  0.64052  0.89161  1.0000
  C   C939      1.0  0.15528  0.62245  0.90442  1.0000
  C   C940      1.0  0.10013  0.49985  0.69658  1.0000
  C   C941      1.0  0.17072  0.64830  0.89237  1.0000
  C   C942      1.0  0.18493  0.65224  0.87682  1.0000
  C   C943      1.0  0.17197  0.65234  0.90907  1.0000
  C   C944      1.0  0.19930  0.65990  0.87798  1.0000
  C   C945      1.0  0.18636  0.66013  0.91004  1.0000
  C   C946      1.0  0.19998  0.66396  0.89448  1.0000
  H   H1111     1.0  0.16858  0.61278  0.90109  1.0000
  H   H1112     1.0  0.14398  0.61594  0.90381  1.0000
  H   H1113     1.0  0.15331  0.62357  0.91901  1.0000
  H   H1114     1.0  0.13465  0.65391  0.91192  1.0000
  H   H1115     1.0  0.18529  0.64962  0.86352  1.0000
  H   H1116     1.0  0.16169  0.64959  0.92150  1.0000
  H   H1117     1.0  0.20996  0.66279  0.86591  1.0000
  H   H1118     1.0  0.18689  0.66327  0.92290  1.0000
  C   C947      1.0  0.01207  0.47996  0.85075  1.0000
  N   N64       1.0  0.08949  0.62038  0.78549  1.0000
  C   C948      1.0  0.10549  0.62854  0.78467  1.0000
  C   C949      1.0  0.09082  0.60298  0.79940  1.0000
  C   C950      1.0  0.09131  0.61602  0.76726  1.0000
  C   C951      1.0  0.07137  0.63255  0.79027  1.0000
  C   C952      1.0  0.06956  0.65072  0.79284  1.0000
  C   C953      1.0  0.05476  0.62634  0.79242  1.0000
  C   C954      1.0  0.05218  0.66173  0.79751  1.0000
  C   C955      1.0  0.03748  0.63742  0.79719  1.0000
  C   C956      1.0  0.03618  0.65507  0.79979  1.0000
  H   H1119     1.0  0.10515  0.63166  0.79820  1.0000
  H   H1120     1.0  0.11888  0.61899  0.78127  1.0000
  H   H1121     1.0  0.10591  0.64136  0.77398  1.0000
  H   H1122     1.0  0.08839  0.60573  0.81348  1.0000
  H   H1123     1.0  0.10461  0.59380  0.79694  1.0000
  H   H1124     1.0  0.08064  0.59476  0.79960  1.0000
  H   H1125     1.0  0.10497  0.60723  0.76294  1.0000
  H   H1126     1.0  0.08069  0.60836  0.76726  1.0000
  H   H1127     1.0  0.08978  0.62880  0.75650  1.0000
  H   H1128     1.0  0.08133  0.65662  0.79181  1.0000
  H   H1129     1.0  0.05499  0.61269  0.79071  1.0000
  H   H1130     1.0  0.01822  0.89370  0.64051  1.0000
  H   H1131     1.0  0.02505  0.63215  0.79908  1.0000
  H   H1132     1.0  0.02276  0.66353  0.80377  1.0000
  N   N65       1.0  0.06063  0.71018  0.84199  1.0000
  C   C957      1.0  0.07606  0.71819  0.84291  1.0000
  C   C958      1.0  0.06829  0.69105  0.83914  1.0000
  C   C959      1.0  0.05291  0.72070  0.82555  1.0000
  C   C960      1.0  0.04646  0.71120  0.85912  1.0000
  C   C961      1.0  0.04451  0.69569  0.87371  1.0000
  C   C962      1.0  0.03497  0.72828  0.86218  1.0000
  C   C963      1.0  0.03155  0.69721  0.89005  1.0000
  C   C964      1.0  0.02192  0.72958  0.87849  1.0000
  C   C965      1.0  0.02018  0.71409  0.89238  1.0000
  H   H1133     1.0  0.08225  0.71067  0.85507  1.0000
  H   H1134     1.0  0.08724  0.71754  0.83042  1.0000
  H   H1135     1.0  0.07139  0.73285  0.84415  1.0000
  H   H1136     1.0  0.07784  0.69064  0.82557  1.0000
  H   H1137     1.0  0.05715  0.68383  0.83966  1.0000
  H   H1138     1.0  0.07665  0.68277  0.84947  1.0000
  H   H1139     1.0  0.04962  0.73578  0.82477  1.0000
  H   H1140     1.0  0.06271  0.71857  0.81246  1.0000
  H   H1141     1.0  0.04001  0.71653  0.82547  1.0000
  H   H1142     1.0  0.05254  0.68210  0.87278  1.0000
  H   H1143     1.0  0.03587  0.74081  0.85205  1.0000
  H   H1144     1.0  0.02996  0.68506  0.90074  1.0000
  H   H1145     1.0  0.01300  0.74268  0.88039  1.0000
  H   H1146     1.0  0.00988  0.71516  0.90489  1.0000
  C   C966      1.0  0.02479  0.83808  0.84385  1.0000
  C   C967      1.0  0.01438  0.83778  0.86171  1.0000
  H   H1147     1.0  0.22988  0.69213  0.71530  1.0000
  C   C968      1.0  0.21229  0.82058  0.83615  1.0000
  H   H1148     1.0  0.23046  0.61645  0.70410  1.0000
  H   H1149     1.0  0.13065  0.59623  0.94951  1.0000
  C   C969      1.0  0.22041  0.63842  0.73992  1.0000
  H   H1150     1.0  0.22808  0.72438  0.83503  1.0000
  H   H1151     1.0  0.13734  0.89541  0.73852  1.0000
  H   H1152     1.0  0.01356  0.84943  0.86757  1.0000
  H   H1153     1.0  0.22041  0.64764  0.71091  1.0000
  H   H1154     1.0  0.01836  0.47893  0.71002  1.0000
  H   H1155     1.0  0.18834  0.72689  0.84908  1.0000
  Fe  Fe135     1.0  0.21296  0.87702  0.63633  1.0000
  H   H1156     1.0  0.99055  0.48014  0.87506  1.0000
  N   N66       1.0  0.22160  0.62540  0.77377  1.0000
  C   C970      1.0  0.13920  0.89714  0.72337  1.0000
  S   S265      1.0  0.99265  0.77001  0.84801  1.0000
  H   H1157     1.0  0.00002  0.84352  0.79214  1.0000
  H   H1158     1.0  0.11299  0.95288  0.87175  1.0000
  C   C971      1.0  0.22135  0.92854  0.66835  1.0000
  C   C972      1.0  0.99412  0.84694  0.80553  1.0000
  H   H1159     1.0  0.09587  0.52971  0.68610  1.0000
  H   H1160     1.0  0.21892  0.57851  0.65297  1.0000
  C   C973      1.0  0.09329  0.51866  0.69767  1.0000
  H   H1161     1.0  0.06072  0.96850  0.81794  1.0000
  S   S266      1.0  0.06141  0.96574  0.93128  1.0000
  H   H1162     1.0  0.15617  0.50322  0.95435  1.0000
  S   S267      1.0  0.98922  0.93781  0.80582  1.0000
  C   C974      1.0  0.00049  0.94919  0.91325  1.0000
  H   H1163     1.0  0.98911  0.94270  0.91289  1.0000
  C   C975      1.0  0.21631  0.75210  0.85559  1.0000
  C   C976      1.0  0.99801  0.92809  0.71267  1.0000
  H   H1164     1.0  0.11495  0.86717  0.71936  1.0000
  H   H1165     1.0  0.23345  0.69007  0.74712  1.0000
  H   H1166     1.0  0.06556  0.53202  0.87692  1.0000
  H   H1167     1.0  0.00990  0.91827  0.70766  1.0000
  H   H1168     1.0  0.13310  0.96796  0.93481  1.0000
  Fe  Fe136     1.0  0.00570  0.90882  0.80973  1.0000
  S   S268      1.0  0.03940  0.47865  0.81957  1.0000
  C   C977      1.0  0.05725  0.50711  0.89384  1.0000
  H   H1169     1.0  0.22076  0.85033  0.81157  1.0000
  H   H1170     1.0  0.99281  0.64982  0.85776  1.0000
  N   N67       1.0  0.20640  0.74589  0.84468  1.0000
  H   H1171     1.0  0.98529  0.47755  0.66608  1.0000
  H   H1172     1.0  0.99021  0.71428  0.86603  1.0000
  C   C978      1.0  0.00666  0.80904  0.86150  1.0000
  S   S269      1.0  0.00020  0.72674  0.82645  1.0000
  C   C979      1.0  0.21420  0.62777  0.96055  1.0000
  H   H1173     1.0  0.21580  0.85117  0.84359  1.0000
  H   H1174     1.0  0.00137  0.96069  0.90101  1.0000
  H   H1175     1.0  0.05324  0.53064  0.85059  1.0000
  C   C980      1.0  0.13313  0.89754  0.68616  1.0000
  S   S270      1.0  0.23105  0.66105  0.81729  1.0000
  C   C981      1.0  0.04838  0.49237  0.89541  1.0000
  C   C982      1.0  0.11029  0.96114  0.82615  1.0000
  C   C983      1.0  0.19348  0.76170  0.83611  1.0000
  H   H1176     1.0  0.02559  0.93613  0.65027  1.0000
  C   C984      1.0  0.13501  0.96292  0.87647  1.0000
  S   S271      1.0  0.98633  0.92942  0.68121  1.0000
  H   H1177     1.0  0.06268  0.95862  0.79121  1.0000
  H   H1178     1.0  0.99291  0.96339  0.84287  1.0000
  H   H1179     1.0  0.22736  0.74668  0.81984  1.0000
  H   H1180     1.0  0.00709  0.92686  0.73756  1.0000
  H   H1181     1.0  0.02591  0.95410  0.92991  1.0000
  C   C985      1.0  0.01701  0.80957  0.84360  1.0000
  C   C986      1.0  0.19574  0.73214  0.85689  1.0000
  H   H1182     1.0  0.04834  0.88855  0.64475  1.0000
  H   H1183     1.0  0.03834  0.50497  0.85210  1.0000
  H   H1184     1.0  0.05856  0.60013  0.96048  1.0000
  H   H1185     1.0  0.06928  0.51439  0.74191  1.0000
  C   C987      1.0  0.15544  0.63768  0.87305  1.0000
  C   C988      1.0  0.12751  0.47937  0.68355  1.0000
  H   H1186     1.0  0.23380  0.89937  0.71812  1.0000
  C   C989      1.0  0.16236  0.87299  0.66987  1.0000
  H   H1187     1.0  0.14348  0.63186  0.87290  1.0000
  H   H1188     1.0  0.15479  0.65087  0.86276  1.0000
  S   S272      1.0  0.99288  0.88725  0.83193  1.0000
  S   S273      1.0  0.03159  0.91752  0.81053  1.0000
  N   N68       1.0  0.99716  0.95582  0.93065  1.0000
  H   H1189     1.0  0.18257  0.76830  0.84635  1.0000
  H   H1190     1.0  0.14687  0.85129  0.72514  1.0000
  H   H1191     1.0  0.00474  0.49197  0.84294  1.0000
  H   H1192     1.0  0.11791  0.93916  0.81173  1.0000
  C   C990      1.0  0.00359  0.48276  0.71142  1.0000
  H   H1193     1.0  0.15705  0.88986  0.64399  1.0000
  H   H1194     1.0  0.05038  0.93530  0.95934  1.0000
  H   H1195     1.0  0.03354  0.82474  0.82070  1.0000
  H   H1196     1.0  0.09660  0.95585  0.77638  1.0000
  C   C991      1.0  0.08878  0.95183  0.81279  1.0000
  Fe  Fe137     1.0  0.99875  0.93735  0.77574  1.0000
  C   C992      1.0  0.20747  0.85705  0.70073  1.0000
  C   C993      1.0  0.21466  0.94377  0.65566  1.0000
  H   H1197     1.0  0.00033  0.91168  0.64827  1.0000
  H   H1198     1.0  0.21496  0.59870  0.78722  1.0000
  S   S274      1.0  0.12319  0.63429  0.95196  1.0000
  H   H1199     1.0  0.20394  0.79042  0.64099  1.0000
  Fe  Fe138     1.0  0.22777  0.68653  0.82793  1.0000
  C   C994      1.0  0.09797  0.94128  0.78387  1.0000
  H   H1200     1.0  0.02445  0.47738  0.65795  1.0000
  C   C995      1.0  0.10662  0.94969  0.81644  1.0000
  H   H1201     1.0  0.08961  0.96594  0.89637  1.0000
  H   H1202     1.0  0.20099  0.77241  0.82688  1.0000
  H   H1203     1.0  0.99959  0.79769  0.86761  1.0000
  C   C996      1.0  0.07477  0.96590  0.81981  1.0000
  H   H1204     1.0  0.10773  0.89140  0.71895  1.0000
  H   H1205     1.0  0.23350  0.59350  0.76034  1.0000
  H   H1206     1.0  0.03135  0.84966  0.83671  1.0000
  H   H1207     1.0  0.14527  0.95710  0.86575  1.0000
  H   H1208     1.0  0.13113  0.91160  0.65830  1.0000
  H   H1209     1.0  0.06289  0.50825  0.90500  1.0000
  H   H1210     1.0  0.12183  0.90750  0.69182  1.0000
  C   C997      1.0  0.98939  0.86745  0.82654  1.0000
  N   N69       1.0  0.22986  0.82720  0.83203  1.0000
  H   H1211     1.0  0.21053  0.81093  0.84969  1.0000
  H   H1212     1.0  0.21620  0.65246  0.74179  1.0000
  N   N70       1.0  0.99311  0.82274  0.88970  1.0000
  H   H1213     1.0  0.21188  0.64554  0.79104  1.0000
  C   C998      1.0  0.23088  0.57793  0.64186  1.0000
  H   H1214     1.0  0.15437  0.97406  0.88356  1.0000
  C   C999      1.0  0.01280  0.96447  0.92970  1.0000
  C   C1000     1.0  0.99288  0.83840  0.89796  1.0000
  H   H1215     1.0  0.20505  0.72005  0.86360  1.0000
  C   C1001     1.0  0.21531  0.76690  0.88091  1.0000
  H   H1216     1.0  0.98966  0.95949  0.96670  1.0000
  C   C1002     1.0  0.20910  0.61357  0.78651  1.0000
  C   C1003     1.0  0.05892  0.52075  0.87783  1.0000
  H   H1217     1.0  0.02663  0.48652  0.67647  1.0000
  H   H1218     1.0  0.18512  0.73789  0.86792  1.0000
  H   H1219     1.0  0.20622  0.61582  0.80088  1.0000
  H   H1220     1.0  0.03333  0.47736  0.94133  1.0000
  C   C1004     1.0  0.22969  0.91168  0.70756  1.0000
  H   H1221     1.0  0.01387  0.93930  0.91115  1.0000
  C   C1005     1.0  0.99643  0.90878  0.96291  1.0000
  H   H1222     1.0  0.09488  0.93328  0.77508  1.0000
  C   C1006     1.0  0.03619  0.48751  0.92828  1.0000
  H   H1223     1.0  0.01058  0.97142  0.94139  1.0000
  H   H1224     1.0  0.99147  0.80501  0.91662  1.0000
  C   C1007     1.0  0.99550  0.94113  0.94737  1.0000
  H   H1225     1.0  0.04403  0.49660  0.93106  1.0000
  H   H1226     1.0  0.21143  0.81343  0.82551  1.0000
  H   H1227     1.0  0.22823  0.92414  0.71318  1.0000
  C   C1008     1.0  0.22858  0.61831  0.71808  1.0000
  H   H1228     1.0  0.99856  0.89443  0.96223  1.0000
  C   C1009     1.0  0.22132  0.97127  0.91094  1.0000
  H   H1229     1.0  0.21013  0.62740  0.93393  1.0000
  H   H1230     1.0  0.11269  0.93590  0.78484  1.0000
  H   H1231     1.0  0.00103  0.49451  0.73495  1.0000
  H   H1232     1.0  0.19557  0.61663  0.78225  1.0000
  C   C1010     1.0  0.98568  0.65635  0.84646  1.0000
  H   H1233     1.0  0.20376  0.94327  0.64914  1.0000
  C   C1011     1.0  0.04169  0.49196  0.87982  1.0000
  H   H1234     1.0  0.21478  0.91689  0.67166  1.0000
  C   C1012     1.0  0.11687  0.96052  0.87982  1.0000
  H   H1235     1.0  0.08055  0.48153  0.74079  1.0000
  H   H1236     1.0  0.06415  0.93521  0.79064  1.0000
  H   H1237     1.0  0.08163  0.88038  0.63502  1.0000
  C   C1013     1.0  0.15620  0.49297  0.96699  1.0000
  C   C1014     1.0  0.14008  0.97275  0.88690  1.0000
  C   C1015     1.0  0.09542  0.56578  0.96707  1.0000
  H   H1238     1.0  0.23360  0.64617  0.91705  1.0000
  C   C1016     1.0  0.23451  0.76310  0.87793  1.0000
  H   H1239     1.0  0.26521  0.04130  0.15306  1.0000
  S   S275      1.0  0.23775  0.40217  0.07585  1.0000
  C   C1017     1.0  0.33590  0.16096  0.16041  1.0000
  H   H1240     1.0  0.27290  0.39705  0.19082  1.0000
  Fe  Fe139     1.0  0.47079  0.39466  0.06862  1.0000
  S   S276      1.0  0.46694  0.42031  0.04678  1.0000
  H   H1241     1.0  0.24478  0.40903  0.27727  1.0000
  C   C1018     1.0  0.29260  0.44692  0.12154  1.0000
  H   H1242     1.0  0.39789  0.01496  0.16829  1.0000
  Fe  Fe140     1.0  0.46603  0.43467  0.06935  1.0000
  H   H1243     1.0  0.47184  0.46995  0.18099  1.0000
  H   H1244     1.0  0.25995  0.21766  0.04937  1.0000
  S   S277      1.0  0.46735  0.40926  0.09158  1.0000
  Fe  Fe141     1.0  0.28494  0.13437  0.15643  1.0000
  S   S278      1.0  0.30921  0.14343  0.13585  1.0000
  S   S279      1.0  0.26668  0.15475  0.17333  1.0000
  Fe  Fe142     1.0  0.29152  0.09830  0.14406  1.0000
  S   S280      1.0  0.31635  0.10441  0.12256  1.0000
  S   S281      1.0  0.28399  0.07046  0.14929  1.0000
  Fe  Fe143     1.0  0.32402  0.11452  0.14408  1.0000
  S   S282      1.0  0.35412  0.10844  0.14553  1.0000
  Fe  Fe144     1.0  0.29944  0.13279  0.11616  1.0000
  S   S283      1.0  0.30132  0.14763  0.08661  1.0000
  S   S284      1.0  0.30059  0.10610  0.16638  1.0000
  S   S285      1.0  0.27377  0.12597  0.13592  1.0000
  H   H1245     1.0  0.30808  0.22065  0.14375  1.0000
  S   S286      1.0  0.29516  0.23874  0.01853  1.0000
  S   S287      1.0  0.29907  0.27258  0.03639  1.0000
  Fe  Fe145     1.0  0.31047  0.26220  0.01011  1.0000
  S   S288      1.0  0.34069  0.26046  0.99648  1.0000
  Fe  Fe146     1.0  0.28215  0.25065  0.04379  1.0000
  H   H1246     1.0  0.38421  0.07693  0.14698  1.0000
  S   S289      1.0  0.28904  0.28125  0.99506  1.0000
  Fe  Fe147     1.0  0.44257  0.32847  0.99879  1.0000
  S   S290      1.0  0.45998  0.30892  0.98089  1.0000
  S   S291      1.0  0.45593  0.35188  0.99804  1.0000
  Fe  Fe148     1.0  0.41087  0.30771  0.01000  1.0000
  S   S292      1.0  0.42595  0.28676  0.99291  1.0000
  S   S293      1.0  0.38278  0.30429  0.02712  1.0000
  Fe  Fe149     1.0  0.45033  0.28688  0.00411  1.0000
  S   S294      1.0  0.47005  0.26054  0.01257  1.0000
  C   C1019     1.0  0.25978  0.15071  0.04899  1.0000
  S   S295      1.0  0.43482  0.30623  0.02289  1.0000
  S   S296      1.0  0.41696  0.33205  0.98783  1.0000
  Fe  Fe150     1.0  0.42856  0.11542  0.24409  1.0000
  S   S297      1.0  0.45419  0.11605  0.22196  1.0000
  S   S298      1.0  0.42440  0.11950  0.27311  1.0000
  Fe  Fe151     1.0  0.40497  0.11254  0.21848  1.0000
  S   S299      1.0  0.42844  0.11311  0.19417  1.0000
  S   S300      1.0  0.37540  0.11177  0.21902  1.0000
  Fe  Fe152     1.0  0.44532  0.09381  0.21380  1.0000
  S   S301      1.0  0.46611  0.07013  0.20364  1.0000
  Fe  Fe153     1.0  0.43535  0.13521  0.20414  1.0000
  S   S302      1.0  0.44101  0.16119  0.18401  1.0000
  S   S303      1.0  0.42129  0.09143  0.23761  1.0000
  S   S304      1.0  0.41030  0.13640  0.22681  1.0000
  C   C1020     1.0  0.40778  0.46077  0.13875  1.0000
  H   H1247     1.0  0.45369  0.41654  0.97394  1.0000
  S   S305      1.0  0.43811  0.98659  0.14816  1.0000
  H   H1248     1.0  0.25644  0.17752  0.22965  1.0000
  H   H1249     1.0  0.36958  0.06908  0.13718  1.0000
  H   H1250     1.0  0.28179  0.17900  0.14001  1.0000
  Fe  Fe154     1.0  0.25703  0.16975  0.27012  1.0000
  H   H1251     1.0  0.27155  0.19281  0.15692  1.0000
  S   S306      1.0  0.27584  0.14850  0.25446  1.0000
  H   H1252     1.0  0.24399  0.09192  0.10379  1.0000
  C   C1021     1.0  0.47673  0.10587  0.28233  1.0000
  H   H1253     1.0  0.32745  0.45879  0.23651  1.0000
  C   C1022     1.0  0.46147  0.10814  0.27424  1.0000
  C   C1023     1.0  0.47870  0.46505  0.30007  1.0000
  C   C1024     1.0  0.47842  0.46714  0.28121  1.0000
  N   N71       1.0  0.25320  0.20260  0.03244  1.0000
  H   H1254     1.0  0.27110  0.21738  0.01057  1.0000
  C   C1025     1.0  0.46359  0.16548  0.17679  1.0000
  H   H1255     1.0  0.24433  0.13315  0.23354  1.0000
  H   H1256     1.0  0.28800  0.43862  0.28268  1.0000
  H   H1257     1.0  0.35710  0.44044  0.29489  1.0000
  C   C1026     1.0  0.46945  0.98357  0.21264  1.0000
  H   H1258     1.0  0.40561  0.04277  0.16396  1.0000
  H   H1259     1.0  0.36697  0.98996  0.14596  1.0000
  S   S307      1.0  0.36183  0.45953  0.09479  1.0000
  S   S308      1.0  0.24997  0.23830  0.25831  1.0000
  H   H1260     1.0  0.39350  0.05803  0.13523  1.0000
  C   C1027     1.0  0.47127  0.25408  0.03596  1.0000
  C   C1028     1.0  0.41869  0.98527  0.25261  1.0000
  H   H1261     1.0  0.38671  0.47364  0.15918  1.0000
  H   H1262     1.0  0.30943  0.18554  0.11674  1.0000
  S   S309      1.0  0.42768  0.01341  0.18740  1.0000
  C   C1029     1.0  0.32638  0.17374  0.14771  1.0000
  H   H1263     1.0  0.47107  0.43549  0.99258  1.0000
  H   H1264     1.0  0.32092  0.20311  0.11802  1.0000
  C   C1030     1.0  0.31522  0.16507  0.25174  1.0000
  Fe  Fe155     1.0  0.27678  0.29026  0.02194  1.0000
  C   C1031     1.0  0.46619  0.04091  0.18905  1.0000
  C   C1032     1.0  0.45549  0.05474  0.19843  1.0000
  C   C1033     1.0  0.43637  0.05620  0.20355  1.0000
  C   C1034     1.0  0.47411  0.15740  0.27403  1.0000
  H   H1265     1.0  0.42800  0.06692  0.21063  1.0000
  C   C1035     1.0  0.37153  0.29179  0.01850  1.0000
  C   C1036     1.0  0.35721  0.28365  0.03025  1.0000
  C   C1037     1.0  0.34783  0.27388  0.02362  1.0000
  C   C1038     1.0  0.35252  0.27242  0.00512  1.0000
  C   C1039     1.0  0.36704  0.28034  0.99343  1.0000
  C   C1040     1.0  0.37647  0.29007  0.00007  1.0000
  H   H1266     1.0  0.35343  0.28479  0.04456  1.0000
  H   H1267     1.0  0.33722  0.26718  0.03293  1.0000
  H   H1268     1.0  0.37080  0.27925  0.97913  1.0000
  H   H1269     1.0  0.38725  0.29662  0.99079  1.0000
  C   C1041     1.0  0.27040  0.15316  0.19540  1.0000
  C   C1042     1.0  0.28185  0.13792  0.20393  1.0000
  C   C1043     1.0  0.28378  0.13676  0.22196  1.0000
  C   C1044     1.0  0.27434  0.15088  0.23145  1.0000
  C   C1045     1.0  0.26343  0.16640  0.22265  1.0000
  C   C1046     1.0  0.26138  0.16748  0.20472  1.0000
  H   H1270     1.0  0.28894  0.12687  0.19679  1.0000
  H   H1271     1.0  0.29227  0.12471  0.22868  1.0000
  H   H1272     1.0  0.23554  0.21825  0.05229  1.0000
  H   H1273     1.0  0.32882  0.00257  0.08378  1.0000
  C   C1047     1.0  0.35960  0.10989  0.16595  1.0000
  C   C1048     1.0  0.37803  0.10914  0.16623  1.0000
  C   C1049     1.0  0.38304  0.10967  0.18246  1.0000
  C   C1050     1.0  0.36962  0.11085  0.19851  1.0000
  C   C1051     1.0  0.35116  0.11145  0.19827  1.0000
  C   C1052     1.0  0.34612  0.11108  0.18197  1.0000
  H   H1274     1.0  0.38841  0.10828  0.15382  1.0000
  H   H1275     1.0  0.39728  0.10912  0.18252  1.0000
  H   H1276     1.0  0.34072  0.11226  0.21069  1.0000
  H   H1277     1.0  0.33187  0.11158  0.18186  1.0000
  C   C1053     1.0  0.29433  0.17166  0.08300  1.0000
  C   C1054     1.0  0.28230  0.18021  0.09680  1.0000
  C   C1055     1.0  0.27628  0.19939  0.09331  1.0000
  C   C1056     1.0  0.28274  0.21014  0.07629  1.0000
  C   C1057     1.0  0.29487  0.20157  0.06257  1.0000
  C   C1058     1.0  0.30045  0.18236  0.06583  1.0000
  H   H1278     1.0  0.27724  0.17197  0.10994  1.0000
  H   H1279     1.0  0.30009  0.20970  0.04949  1.0000
  H   H1280     1.0  0.30970  0.17576  0.05512  1.0000
  C   C1059     1.0  0.44380  0.11562  0.28301  1.0000
  H   H1281     1.0  0.26087  0.42476  0.15749  1.0000
  H   H1282     1.0  0.43153  0.45390  0.11674  1.0000
  C   C1060     1.0  0.41710  0.44630  0.07683  1.0000
  C   C1061     1.0  0.39811  0.44618  0.08117  1.0000
  H   H1283     1.0  0.42691  0.43480  0.07203  1.0000
  H   H1284     1.0  0.39336  0.43455  0.07971  1.0000
  H   H1285     1.0  0.44727  0.06890  0.16134  1.0000
  H   H1286     1.0  0.25262  0.44424  0.16819  1.0000
  H   H1287     1.0  0.28838  0.18974  0.17829  1.0000
  H   H1288     1.0  0.47406  0.14096  0.12888  1.0000
  C   C1062     1.0  0.45624  0.36578  0.05236  1.0000
  C   C1063     1.0  0.44479  0.35418  0.05205  1.0000
  C   C1064     1.0  0.44438  0.34993  0.03539  1.0000
  C   C1065     1.0  0.45552  0.35724  0.01906  1.0000
  C   C1066     1.0  0.46712  0.36864  0.01946  1.0000
  C   C1067     1.0  0.46743  0.37299  0.03605  1.0000
  H   H1289     1.0  0.32062  0.98658  0.15166  1.0000
  H   H1290     1.0  0.43536  0.34117  0.03515  1.0000
  H   H1291     1.0  0.34895  0.15228  0.15564  1.0000
  H   H1292     1.0  0.47654  0.38168  0.03627  1.0000
  C   C1068     1.0  0.29481  0.21668  0.14446  1.0000
  H   H1293     1.0  0.25149  0.38933  0.19876  1.0000
  S   S310      1.0  0.23848  0.38409  0.11961  1.0000
  H   H1294     1.0  0.27443  0.19369  0.01002  1.0000
  H   H1295     1.0  0.37123  0.45732  0.14943  1.0000
  C   C1069     1.0  0.23908  0.23568  0.97300  1.0000
  C   C1070     1.0  0.25898  0.39891  0.18775  1.0000
  C   C1071     1.0  0.26123  0.08300  0.12406  1.0000
  C   C1072     1.0  0.26730  0.06872  0.13792  1.0000
  C   C1073     1.0  0.26066  0.05233  0.14225  1.0000
  H   H1296     1.0  0.26631  0.09565  0.12059  1.0000
  C   C1074     1.0  0.35049  0.15428  0.28990  1.0000
  H   H1297     1.0  0.27298  0.03908  0.10078  1.0000
  H   H1298     1.0  0.31802  0.17872  0.25144  1.0000
  H   H1299     1.0  0.33173  0.46170  0.06468  1.0000
  C   C1075     1.0  0.38067  0.44943  0.13928  1.0000
  H   H1300     1.0  0.24462  0.44224  0.11673  1.0000
  H   H1301     1.0  0.30540  0.16750  0.19993  1.0000
  H   H1302     1.0  0.26646  0.20594  0.10372  1.0000
  S   S311      1.0  0.26916  0.18786  0.28071  1.0000
  C   C1076     1.0  0.25933  0.45608  0.12790  1.0000
  S   S312      1.0  0.27525  0.23417  0.07264  1.0000
  H   H1303     1.0  0.47278  0.08203  0.16253  1.0000
  H   H1304     1.0  0.33450  0.16088  0.21924  1.0000
  H   H1305     1.0  0.46369  0.31751  0.06298  1.0000
  H   H1306     1.0  0.35006  0.04746  0.14586  1.0000
  H   H1307     1.0  0.43334  0.18044  0.29477  1.0000
  H   H1308     1.0  0.29881  0.04395  0.12258  1.0000
  C   C1077     1.0  0.35958  0.03473  0.14946  1.0000
  S   S313      1.0  0.27282  0.41708  0.09671  1.0000
  H   H1309     1.0  0.32288  0.46469  0.08813  1.0000
  H   H1310     1.0  0.24304  0.03751  0.13608  1.0000
  H   H1311     1.0  0.31986  0.12811  0.26277  1.0000
  C   C1078     1.0  0.46496  0.40847  0.98123  1.0000
  C   C1079     1.0  0.24714  0.42395  0.20415  1.0000
  H   H1312     1.0  0.24214  0.36828  0.05746  1.0000
  C   C1080     1.0  0.24388  0.34110  0.07437  1.0000
  C   C1081     1.0  0.44486  0.12140  0.14486  1.0000
  H   H1313     1.0  0.45952  0.40843  0.99617  1.0000
  C   C1082     1.0  0.43024  0.11357  0.14457  1.0000
  C   C1083     1.0  0.44672  0.08355  0.15652  1.0000
  C   C1084     1.0  0.43119  0.09469  0.15035  1.0000
  S   S314      1.0  0.23919  0.16038  0.29743  1.0000
  C   C1085     1.0  0.25777  0.16820  0.03766  1.0000
  H   H1314     1.0  0.24519  0.24247  0.29627  1.0000
  H   H1315     1.0  0.42529  0.17265  0.21969  1.0000
  H   H1316     1.0  0.46602  0.47371  0.27591  1.0000
  H   H1317     1.0  0.30599  0.44811  0.12293  1.0000
  H   H1318     1.0  0.47511  0.14431  0.19754  1.0000
  H   H1319     1.0  0.38606  0.12335  0.27168  1.0000
  H   H1320     1.0  0.25918  0.25925  0.28647  1.0000
  H   H1321     1.0  0.44300  0.13615  0.14053  1.0000
  C   C1086     1.0  0.39963  0.43435  0.16167  1.0000
  H   H1322     1.0  0.41795  0.12225  0.14011  1.0000
  C   C1087     1.0  0.32845  0.15886  0.17917  1.0000
  H   H1323     1.0  0.41977  0.08869  0.15032  1.0000
  C   C1088     1.0  0.43090  0.16809  0.26339  1.0000
  H   H1324     1.0  0.46240  0.14635  0.15106  1.0000
  C   C1089     1.0  0.25267  0.44344  0.22247  1.0000
  H   H1325     1.0  0.27785  0.02398  0.12174  1.0000
  C   C1090     1.0  0.44870  0.17790  0.22684  1.0000
  H   H1326     1.0  0.39430  0.42142  0.16468  1.0000
  H   H1327     1.0  0.26077  0.30123  0.05832  1.0000
  H   H1328     1.0  0.33579  0.14879  0.18889  1.0000
  H   H1329     1.0  0.34802  0.17040  0.22930  1.0000
  H   H1330     1.0  0.47480  0.19263  0.25964  1.0000
  C   C1091     1.0  0.35697  0.01895  0.14523  1.0000
  C   C1092     1.0  0.47441  0.11157  0.29893  1.0000
  C   C1093     1.0  0.46404  0.19014  0.27223  1.0000
  H   H1331     1.0  0.47058  0.18134  0.23734  1.0000
  C   C1094     1.0  0.37289  0.13288  0.27326  1.0000
  C   C1095     1.0  0.24330  0.43371  0.23850  1.0000
  C   C1096     1.0  0.24819  0.05014  0.13261  1.0000
  H   H1332     1.0  0.41053  0.43736  0.11551  1.0000
  C   C1097     1.0  0.42401  0.46363  0.12535  1.0000
  C   C1098     1.0  0.27998  0.19298  0.14281  1.0000
  S   S315      1.0  0.45703  0.37072  0.07322  1.0000
  H   H1333     1.0  0.32590  0.16673  0.28000  1.0000
  H   H1334     1.0  0.28385  0.22898  0.97670  1.0000
  C   C1099     1.0  0.46934  0.30438  0.05803  1.0000
  H   H1335     1.0  0.37649  0.13987  0.29737  1.0000
  C   C1100     1.0  0.33746  0.98397  0.10689  1.0000
  Fe  Fe156     1.0  0.46862  0.97624  0.14029  1.0000
  H   H1336     1.0  0.47004  0.14440  0.27422  1.0000
  H   H1337     1.0  0.25265  0.17939  0.19810  1.0000
  N   N72       1.0  0.39989  0.44410  0.14231  1.0000
  H   H1338     1.0  0.36630  0.12816  0.24980  1.0000
  H   H1339     1.0  0.48336  0.33238  0.03521  1.0000
  H   H1340     1.0  0.38002  0.45818  0.12544  1.0000
  C   C1101     1.0  0.42334  0.46119  0.07892  1.0000
  C   C1102     1.0  0.30767  0.44755  0.25857  1.0000
  S   S316      1.0  0.23827  0.99028  0.07949  1.0000
  C   C1103     1.0  0.33526  0.97917  0.12595  1.0000
  C   C1104     1.0  0.46136  0.09123  0.15698  1.0000
  N   N73       1.0  0.24910  0.41832  0.18652  1.0000
  H   H1341     1.0  0.40972  0.16347  0.25205  1.0000
  H   H1342     1.0  0.46755  0.39388  0.97981  1.0000
  S   S317      1.0  0.48324  0.98598  0.11137  1.0000
  H   H1343     1.0  0.46001  0.30338  0.04940  1.0000
  C   C1105     1.0  0.24865  0.08084  0.11452  1.0000
  C   C1106     1.0  0.25863  0.14876  0.06777  1.0000
  S   S318      1.0  0.25860  0.26949  0.03190  1.0000
  H   H1344     1.0  0.34566  0.01973  0.13870  1.0000
  H   H1345     1.0  0.46733  0.44440  0.96941  1.0000
  H   H1346     1.0  0.24713  0.27750  0.25114  1.0000
  C   C1107     1.0  0.33890  0.15727  0.27743  1.0000
  H   H1347     1.0  0.38958  0.03808  0.18553  1.0000
  S   S319      1.0  0.24184  0.00628  0.11428  1.0000
  C   C1108     1.0  0.35033  0.45308  0.29962  1.0000
  Fe  Fe157     1.0  0.27253  0.25891  0.00601  1.0000
  C   C1109     1.0  0.37423  0.03415  0.15807  1.0000
  C   C1110     1.0  0.43868  0.02955  0.19073  1.0000
  H   H1348     1.0  0.42482  0.42579  0.13223  1.0000
  C   C1111     1.0  0.27661  0.45787  0.12968  1.0000
  C   C1112     1.0  0.45907  0.25726  0.06764  1.0000
  H   H1349     1.0  0.39320  0.06094  0.17557  1.0000
  H   H1350     1.0  0.44199  0.15599  0.29715  1.0000
  C   C1113     1.0  0.25453  0.23790  0.97842  1.0000
  N   N74       1.0  0.41265  0.24096  0.03582  1.0000
  C   C1114     1.0  0.42601  0.22582  0.04462  1.0000
  C   C1115     1.0  0.41644  0.25868  0.03673  1.0000
  C   C1116     1.0  0.39386  0.23956  0.04688  1.0000
  C   C1117     1.0  0.41474  0.24016  0.01627  1.0000
  C   C1118     1.0  0.39951  0.24111  0.00827  1.0000
  C   C1119     1.0  0.43236  0.23922  0.00438  1.0000
  C   C1120     1.0  0.40197  0.24080  0.98963  1.0000
  C   C1121     1.0  0.43466  0.23894  0.98579  1.0000
  C   C1122     1.0  0.41951  0.23970  0.97841  1.0000
  H   H1351     1.0  0.44056  0.22748  0.03902  1.0000
  H   H1352     1.0  0.42382  0.22528  0.05965  1.0000
  H   H1353     1.0  0.42481  0.21227  0.04272  1.0000
  H   H1354     1.0  0.43053  0.26045  0.02917  1.0000
  H   H1355     1.0  0.41519  0.26001  0.05114  1.0000
  H   H1356     1.0  0.40664  0.27039  0.03038  1.0000
  H   H1357     1.0  0.38992  0.22672  0.04629  1.0000
  H   H1358     1.0  0.39289  0.23956  0.06162  1.0000
  H   H1359     1.0  0.38330  0.25155  0.04209  1.0000
  H   H1360     1.0  0.38548  0.24239  0.01598  1.0000
  H   H1361     1.0  0.44450  0.23924  0.00921  1.0000
  H   H1362     1.0  0.44826  0.23845  0.97702  1.0000
  H   H1363     1.0  0.30807  0.43622  0.25230  1.0000
  H   H1364     1.0  0.41372  0.43080  0.16478  1.0000
  N   N75       1.0  0.29808  0.19802  0.14055  1.0000
  C   C1123     1.0  0.30736  0.19895  0.12091  1.0000
  C   C1124     1.0  0.41033  0.43093  0.13027  1.0000
  H   H1365     1.0  0.31807  0.04719  0.10398  1.0000
  C   C1125     1.0  0.30883  0.18465  0.15354  1.0000
  H   H1366     1.0  0.37465  0.43730  0.14029  1.0000
  C   C1126     1.0  0.30174  0.18218  0.17279  1.0000
  H   H1367     1.0  0.25851  0.45469  0.22322  1.0000
  H   H1368     1.0  0.27992  0.98234  0.11838  1.0000
  H   H1369     1.0  0.39048  0.44277  0.17160  1.0000
  H   H1370     1.0  0.24760  0.31246  0.08748  1.0000
  H   H1371     1.0  0.29900  0.20924  0.11152  1.0000
  S   S320      1.0  0.26830  0.32088  0.02057  1.0000
  C   C1127     1.0  0.24935  0.32221  0.07456  1.0000
  C   C1128     1.0  0.29634  0.44886  0.27571  1.0000
  Fe  Fe158     1.0  0.24523  0.40948  0.09945  1.0000
  H   H1372     1.0  0.24196  0.36624  0.18521  1.0000
  C   C1129     1.0  0.25459  0.43873  0.20549  1.0000
  C   C1130     1.0  0.31858  0.46063  0.24961  1.0000
  H   H1373     1.0  0.29483  0.05811  0.10135  1.0000
  C   C1131     1.0  0.27184  0.22730  0.97271  1.0000
  C   C1132     1.0  0.35959  0.05972  0.17353  1.0000
  H   H1374     1.0  0.35486  0.04970  0.18607  1.0000
  H   H1375     1.0  0.36152  0.07168  0.17809  1.0000
  H   H1376     1.0  0.34809  0.06524  0.16593  1.0000
  N   N76       1.0  0.33256  0.15124  0.24852  1.0000
  C   C1133     1.0  0.32737  0.13373  0.24883  1.0000
  H   H1377     1.0  0.35534  0.14734  0.22551  1.0000
  C   C1134     1.0  0.34305  0.15777  0.22987  1.0000
  C   C1135     1.0  0.24626  0.35369  0.05768  1.0000
  C   C1136     1.0  0.45702  0.17803  0.24112  1.0000
  H   H1378     1.0  0.25912  0.16900  0.02313  1.0000
  H   H1379     1.0  0.28616  0.21767  0.15833  1.0000
  C   C1137     1.0  0.45247  0.98163  0.24420  1.0000
  H   H1380     1.0  0.31811  0.13561  0.23907  1.0000
  H   H1381     1.0  0.44853  0.26363  0.07778  1.0000
  H   H1382     1.0  0.26200  0.44688  0.19364  1.0000
  H   H1383     1.0  0.48086  0.31787  0.02175  1.0000
  H   H1384     1.0  0.30692  0.16723  0.24105  1.0000
  H   H1385     1.0  0.47029  0.19021  0.28390  1.0000
  C   C1138     1.0  0.46736  0.17936  0.16137  1.0000
  C   C1139     1.0  0.31143  0.16947  0.18536  1.0000
  H   H1386     1.0  0.33281  0.17433  0.13338  1.0000
  H   H1387     1.0  0.45746  0.99202  0.20674  1.0000
  C   C1140     1.0  0.36893  0.00218  0.14931  1.0000
  H   H1388     1.0  0.34684  0.97467  0.09854  1.0000
  C   C1141     1.0  0.39194  0.04803  0.17222  1.0000
  Fe  Fe159     1.0  0.24526  0.20994  0.27299  1.0000
  C   C1142     1.0  0.31891  0.46424  0.07523  1.0000
  C   C1143     1.0  0.25888  0.32839  0.04138  1.0000
  H   H1389     1.0  0.40524  0.99167  0.24931  1.0000
  H   H1390     1.0  0.46515  0.12311  0.17918  1.0000
  C   C1144     1.0  0.27396  0.43249  0.10988  1.0000
  C   C1145     1.0  0.25381  0.34731  0.04121  1.0000
  C   C1146     1.0  0.45777  0.02841  0.18506  1.0000
  C   C1147     1.0  0.38352  0.00113  0.15762  1.0000
  C   C1148     1.0  0.30357  0.04519  0.10748  1.0000
  C   C1149     1.0  0.38124  0.06430  0.14462  1.0000
  H   H1391     1.0  0.30608  0.16053  0.26511  1.0000
  H   H1392     1.0  0.27144  0.20276  0.13335  1.0000
  H   H1393     1.0  0.35243  0.47184  0.26088  1.0000
  C   C1150     1.0  0.29125  0.43427  0.11168  1.0000
  N   N77       1.0  0.45780  0.17265  0.27472  1.0000
  C   C1151     1.0  0.42275  0.16797  0.24901  1.0000
  N   N78       1.0  0.30200  0.02906  0.10097  1.0000
  C   C1152     1.0  0.28258  0.02670  0.10659  1.0000
  C   C1153     1.0  0.25533  0.24896  0.29915  1.0000
  C   C1154     1.0  0.30650  0.03342  0.08053  1.0000
  C   C1155     1.0  0.31395  0.01220  0.10922  1.0000
  C   C1156     1.0  0.31210  0.00689  0.12864  1.0000
  C   C1157     1.0  0.32696  0.00017  0.09855  1.0000
  C   C1158     1.0  0.46098  0.11039  0.15103  1.0000
  H   H1394     1.0  0.43281  0.99990  0.22793  1.0000
  H   H1395     1.0  0.23627  0.11662  0.25270  1.0000
  H   H1396     1.0  0.46606  0.01781  0.17778  1.0000
  C   C1159     1.0  0.25957  0.42949  0.17045  1.0000
  H   H1397     1.0  0.28080  0.01489  0.10175  1.0000
  C   C1160     1.0  0.34417  0.14818  0.26229  1.0000
  S   S321      1.0  0.33112  0.46139  0.14259  1.0000
  H   H1398     1.0  0.28262  0.20029  0.02698  1.0000
  H   H1399     1.0  0.32106  0.03514  0.07528  1.0000
  H   H1400     1.0  0.30411  0.02256  0.07458  1.0000
  H   H1401     1.0  0.29752  0.04640  0.07486  1.0000
  H   H1402     1.0  0.30208  0.01502  0.13769  1.0000
  Fe  Fe160     1.0  0.44435  0.98976  0.17408  1.0000
  S   S322      1.0  0.44706  0.46119  0.07476  1.0000
  H   H1403     1.0  0.45632  0.18764  0.15460  1.0000
  H   H1404     1.0  0.47622  0.37373  0.00700  1.0000
  N   N79       1.0  0.31706  0.33397  0.03469  1.0000
  C   C1161     1.0  0.33706  0.33203  0.02631  1.0000
  C   C1162     1.0  0.31331  0.31512  0.04236  1.0000
  C   C1163     1.0  0.30662  0.34274  0.01981  1.0000
  C   C1164     1.0  0.31109  0.34525  0.04906  1.0000
  C   C1165     1.0  0.29329  0.34592  0.06056  1.0000
  C   C1166     1.0  0.32209  0.35672  0.05133  1.0000
  C   C1167     1.0  0.28686  0.35728  0.07346  1.0000
  C   C1168     1.0  0.31552  0.36806  0.06429  1.0000
  C   C1169     1.0  0.29792  0.36841  0.07527  1.0000
  H   H1405     1.0  0.34136  0.32278  0.01623  1.0000
  H   H1406     1.0  0.34077  0.34534  0.01842  1.0000
  H   H1407     1.0  0.34568  0.32608  0.03696  1.0000
  H   H1408     1.0  0.29833  0.31485  0.04608  1.0000
  H   H1409     1.0  0.31941  0.30863  0.05476  1.0000
  H   H1410     1.0  0.31909  0.30602  0.03217  1.0000
  H   H1411     1.0  0.30939  0.35673  0.01322  1.0000
  H   H1412     1.0  0.31010  0.33443  0.00895  1.0000
  H   H1413     1.0  0.29149  0.34428  0.02507  1.0000
  H   H1414     1.0  0.28403  0.33785  0.05951  1.0000
  H   H1415     1.0  0.33579  0.35726  0.04322  1.0000
  H   H1416     1.0  0.27313  0.35757  0.08201  1.0000
  H   H1417     1.0  0.32407  0.37676  0.06579  1.0000
  H   H1418     1.0  0.29278  0.37739  0.08515  1.0000
  H   H1419     1.0  0.46338  0.10411  0.26124  1.0000
  H   H1420     1.0  0.39008  0.24163  0.98391  1.0000
  H   H1421     1.0  0.46835  0.29297  0.07033  1.0000
  C   C1170     1.0  0.32263  0.99062  0.13681  1.0000
  H   H1422     1.0  0.31270  0.45185  0.07822  1.0000
  S   S323      1.0  0.27774  0.47362  0.14243  1.0000
  H   H1423     1.0  0.28722  0.46406  0.29745  1.0000
  C   C1171     1.0  0.23788  0.40376  0.29102  1.0000
  H   H1424     1.0  0.28741  0.22725  0.13445  1.0000
  H   H1425     1.0  0.46829  0.00949  0.24312  1.0000
  C   C1172     1.0  0.44826  0.17336  0.25986  1.0000
  C   C1173     1.0  0.25451  0.18432  0.04488  1.0000
  H   H1426     1.0  0.42352  0.16347  0.27712  1.0000
  C   C1174     1.0  0.42802  0.04355  0.19984  1.0000
  H   H1427     1.0  0.41325  0.04452  0.20428  1.0000
  C   C1175     1.0  0.25529  0.16427  0.07532  1.0000
  Fe  Fe161     1.0  0.25894  0.00196  0.08670  1.0000
  C   C1176     1.0  0.25679  0.31584  0.05809  1.0000
  C   C1177     1.0  0.24883  0.21813  0.04216  1.0000
  H   H1428     1.0  0.37272  0.46761  0.20590  1.0000
  S   S324      1.0  0.24929  0.03048  0.07202  1.0000
  H   H1429     1.0  0.40396  0.41867  0.13304  1.0000
  C   C1178     1.0  0.43157  0.17295  0.23080  1.0000
  C   C1179     1.0  0.35953  0.46780  0.29504  1.0000
  H   H1430     1.0  0.44281  0.46545  0.30029  1.0000
  C   C1180     1.0  0.44604  0.16955  0.29343  1.0000
  C   C1181     1.0  0.38623  0.01682  0.16196  1.0000
  C   C1182     1.0  0.25800  0.44339  0.11810  1.0000
  C   C1183     1.0  0.47791  0.11568  0.17135  1.0000
  C   C1184     1.0  0.36145  0.13577  0.26074  1.0000
  H   H1431     1.0  0.39286  0.98804  0.16067  1.0000
  N   N80       1.0  0.37681  0.05115  0.16213  1.0000
  H   H1432     1.0  0.43608  0.34865  0.06468  1.0000
  H   H1433     1.0  0.30365  0.42576  0.10548  1.0000
  H   H1434     1.0  0.44610  0.27238  0.04512  1.0000
  H   H1435     1.0  0.24204  0.19622  0.01187  1.0000
  H   H1436     1.0  0.26073  0.39414  0.17473  1.0000
  C   C1185     1.0  0.45768  0.26221  0.04911  1.0000
  C   C1186     1.0  0.47728  0.43525  0.97782  1.0000
  C   C1187     1.0  0.24231  0.06432  0.11858  1.0000
  Fe  Fe162     1.0  0.43391  0.31087  0.97164  1.0000
  H   H1437     1.0  0.27391  0.42855  0.17201  1.0000
  H   H1438     1.0  0.35395  0.46901  0.23812  1.0000
  H   H1439     1.0  0.33958  0.12300  0.24492  1.0000
  C   C1188     1.0  0.27112  0.20348  0.01945  1.0000
  H   H1440     1.0  0.24692  0.46456  0.13412  1.0000
  C   C1189     1.0  0.44143  0.12054  0.29997  1.0000
  H   H1441     1.0  0.45224  0.20204  0.27148  1.0000
  H   H1442     1.0  0.48097  0.03988  0.18487  1.0000
  H   H1443     1.0  0.25556  0.35706  0.02828  1.0000
  H   H1444     1.0  0.45567  0.18128  0.21260  1.0000
  C   C1190     1.0  0.47432  0.24452  0.07305  1.0000
  N   N81       1.0  0.47663  0.11816  0.15189  1.0000
  H   H1445     1.0  0.48199  0.98695  0.20247  1.0000
  H   H1446     1.0  0.28334  0.46902  0.08640  1.0000
  H   H1447     1.0  0.26251  0.13857  0.04316  1.0000
  H   H1448     1.0  0.48091  0.15489  0.28593  1.0000
  S   S325      1.0  0.25125  0.25347  0.99303  1.0000
  H   H1449     1.0  0.48100  0.01101  0.21976  1.0000
  C   C1191     1.0  0.23856  0.20552  0.02180  1.0000
  C   C1192     1.0  0.38535  0.46078  0.08792  1.0000
  S   S326      1.0  0.47621  0.23963  0.09612  1.0000
  C   C1193     1.0  0.43462  0.98983  0.24039  1.0000
  S   S327      1.0  0.38186  0.46556  0.28148  1.0000
  H   H1450     1.0  0.24752  0.23168  0.03242  1.0000
  C   C1194     1.0  0.25333  0.18183  0.06413  1.0000
  C   C1195     1.0  0.47793  0.15490  0.18552  1.0000
  H   H1451     1.0  0.26062  0.13519  0.07650  1.0000
  S   S328      1.0  0.34971  0.47250  0.18011  1.0000
  C   C1196     1.0  0.47484  0.13809  0.14365  1.0000
  S   S329      1.0  0.28901  0.98985  0.07849  1.0000
  H   H1452     1.0  0.29640  0.46733  0.05311  1.0000
  H   H1453     1.0  0.45640  0.01549  0.22446  1.0000
  H   H1454     1.0  0.25133  0.19316  0.07087  1.0000
  H   H1455     1.0  0.25484  0.16258  0.08989  1.0000
  H   H1456     1.0  0.26776  0.23804  0.30086  1.0000
  C   C1197     1.0  0.23756  0.41445  0.22075  1.0000
  C   C1198     1.0  0.29588  0.46323  0.28397  1.0000
  H   H1457     1.0  0.23626  0.21971  0.01337  1.0000
  N   N82       1.0  0.46912  0.98674  0.23104  1.0000
  S   S330      1.0  0.47506  0.98184  0.16514  1.0000
  N   N83       1.0  0.48197  0.41632  0.97423  1.0000
  H   H1458     1.0  0.24192  0.43734  0.25165  1.0000
  C   C1199     1.0  0.36748  0.14217  0.28776  1.0000
  C   C1200     1.0  0.46871  0.00649  0.22953  1.0000
  H   H1459     1.0  0.47980  0.10101  0.17849  1.0000
  H   H1460     1.0  0.48476  0.15995  0.26134  1.0000
  H   H1461     1.0  0.23520  0.15421  0.25473  1.0000
  C   C1201     1.0  0.23572  0.41928  0.23762  1.0000
  H   H1462     1.0  0.23499  0.28311  0.30042  1.0000
  H   H1463     1.0  0.28721  0.44064  0.44975  1.0000
  H   H1464     1.0  0.38462  0.04047  0.57569  1.0000
  C   C1202     1.0  0.28436  0.34336  0.39186  1.0000
  H   H1465     1.0  0.31717  0.42921  0.38595  1.0000
  Fe  Fe163     1.0  0.31436  0.99742  0.61926  1.0000
  S   S331      1.0  0.30862  0.01698  0.59306  1.0000
  S   S332      1.0  0.46498  0.13032  0.35178  1.0000
  H   H1466     1.0  0.40216  0.24599  0.44230  1.0000
  N   N84       1.0  0.37540  0.01577  0.59146  1.0000
  S   S333      1.0  0.28088  0.25762  0.61682  1.0000
  H   H1467     1.0  0.32293  0.36807  0.57772  1.0000
  S   S334      1.0  0.25683  0.19288  0.56781  1.0000
  N   N85       1.0  0.23712  0.07573  0.58235  1.0000
  C   C1203     1.0  0.48481  0.37083  0.50172  1.0000
  C   C1204     1.0  0.28994  0.41357  0.62910  1.0000
  S   S335      1.0  0.28883  0.14633  0.55687  1.0000
  C   C1205     1.0  0.24269  0.24320  0.33189  1.0000
  H   H1468     1.0  0.42424  0.42890  0.60226  1.0000
  S   S336      1.0  0.26815  0.11710  0.54854  1.0000
  C   C1206     1.0  0.35481  0.41794  0.37334  1.0000
  Fe  Fe164     1.0  0.27513  0.12283  0.57302  1.0000
  S   S337      1.0  0.28619  0.10163  0.59606  1.0000
  Fe  Fe165     1.0  0.27943  0.14234  0.53286  1.0000
  S   S338      1.0  0.30012  0.14371  0.50595  1.0000
  C   C1207     1.0  0.31594  0.33140  0.37880  1.0000
  H   H1469     1.0  0.32851  0.41235  0.35973  1.0000
  Fe  Fe166     1.0  0.31408  0.22013  0.37297  1.0000
  S   S339      1.0  0.31587  0.19403  0.39421  1.0000
  S   S340      1.0  0.30535  0.22462  0.34591  1.0000
  Fe  Fe167     1.0  0.32843  0.24001  0.39467  1.0000
  S   S341      1.0  0.33128  0.21558  0.41788  1.0000
  S   S342      1.0  0.33644  0.26729  0.39136  1.0000
  Fe  Fe168     1.0  0.34310  0.19926  0.39555  1.0000
  S   S343      1.0  0.36765  0.17618  0.39921  1.0000
  Fe  Fe169     1.0  0.30396  0.21243  0.41461  1.0000
  S   S344      1.0  0.28059  0.20631  0.43829  1.0000
  S   S345      1.0  0.34241  0.22395  0.37257  1.0000
  S   S346      1.0  0.29993  0.23835  0.39321  1.0000
  H   H1470     1.0  0.32083  0.34309  0.38081  1.0000
  Fe  Fe170     1.0  0.24952  0.18048  0.30728  1.0000
  S   S347      1.0  0.25669  0.17354  0.33539  1.0000
  N   N86       1.0  0.34115  0.43243  0.36436  1.0000
  S   S348      1.0  0.37117  0.41645  0.58342  1.0000
  H   H1471     1.0  0.31138  0.28661  0.44802  1.0000
  S   S349      1.0  0.33313  0.40392  0.58283  1.0000
  Fe  Fe171     1.0  0.36324  0.39731  0.57018  1.0000
  S   S350      1.0  0.37251  0.39973  0.53945  1.0000
  Fe  Fe172     1.0  0.34154  0.42076  0.59806  1.0000
  S   S351      1.0  0.32396  0.44746  0.60460  1.0000
  S   S352      1.0  0.36946  0.37212  0.59188  1.0000
  Fe  Fe173     1.0  0.36915  0.31117  0.45368  1.0000
  S   S353      1.0  0.37294  0.33335  0.42839  1.0000
  S   S354      1.0  0.36246  0.28335  0.45681  1.0000
  Fe  Fe174     1.0  0.37571  0.33334  0.47843  1.0000
  S   S355      1.0  0.37985  0.35765  0.45547  1.0000
  S   S356      1.0  0.37686  0.32952  0.50833  1.0000
  Fe  Fe175     1.0  0.35584  0.35259  0.44683  1.0000
  S   S357      1.0  0.33256  0.37612  0.43986  1.0000
  Fe  Fe176     1.0  0.39666  0.33672  0.43884  1.0000
  S   S358      1.0  0.42326  0.34218  0.41956  1.0000
  S   S359      1.0  0.35009  0.33012  0.47137  1.0000
  S   S360      1.0  0.39453  0.31268  0.46247  1.0000
  C   C1208     1.0  0.29298  0.15625  0.42922  1.0000
  S   S361      1.0  0.28298  0.43433  0.36738  1.0000
  H   H1472     1.0  0.32345  0.33598  0.57891  1.0000
  Fe  Fe177     1.0  0.28928  0.40900  0.35558  1.0000
  S   S362      1.0  0.30966  0.38345  0.36435  1.0000
  S   S363      1.0  0.29541  0.42389  0.32625  1.0000
  C   C1209     1.0  0.32675  0.37880  0.41845  1.0000
  C   C1210     1.0  0.31007  0.39023  0.41491  1.0000
  C   C1211     1.0  0.30486  0.39209  0.39813  1.0000
  C   C1212     1.0  0.31642  0.38258  0.38482  1.0000
  C   C1213     1.0  0.33335  0.37164  0.38812  1.0000
  C   C1214     1.0  0.33846  0.36968  0.40493  1.0000
  H   H1473     1.0  0.30096  0.39724  0.42539  1.0000
  H   H1474     1.0  0.29166  0.40038  0.39576  1.0000
  H   H1475     1.0  0.34248  0.36450  0.37773  1.0000
  H   H1476     1.0  0.35154  0.36127  0.40730  1.0000
  C   C1215     1.0  0.39539  0.26275  0.39189  1.0000
  H   H1477     1.0  0.33459  0.12923  0.43436  1.0000
  H   H1478     1.0  0.28163  0.15707  0.42221  1.0000
  H   H1479     1.0  0.37346  0.41281  0.34767  1.0000
  C   C1216     1.0  0.46200  0.35090  0.45193  1.0000
  H   H1480     1.0  0.34257  0.31670  0.52214  1.0000
  C   C1217     1.0  0.37349  0.38019  0.53097  1.0000
  C   C1218     1.0  0.37488  0.36279  0.54242  1.0000
  C   C1219     1.0  0.37635  0.34728  0.53522  1.0000
  C   C1220     1.0  0.37610  0.34912  0.51662  1.0000
  C   C1221     1.0  0.37477  0.36651  0.50515  1.0000
  C   C1222     1.0  0.37359  0.38201  0.51229  1.0000
  H   H1481     1.0  0.37499  0.36124  0.55678  1.0000
  H   H1482     1.0  0.37756  0.33385  0.54414  1.0000
  H   H1483     1.0  0.37448  0.36807  0.49083  1.0000
  H   H1484     1.0  0.37248  0.39547  0.50338  1.0000
  C   C1223     1.0  0.24530  0.22516  0.36285  1.0000
  C   C1224     1.0  0.33221  0.45481  0.30987  1.0000
  H   H1485     1.0  0.25673  0.43746  0.59441  1.0000
  H   H1486     1.0  0.47267  0.37203  0.37754  1.0000
  C   C1225     1.0  0.44645  0.34334  0.46110  1.0000
  C   C1226     1.0  0.43450  0.34078  0.45118  1.0000
  C   C1227     1.0  0.43822  0.34545  0.43199  1.0000
  C   C1228     1.0  0.45393  0.35276  0.42275  1.0000
  C   C1229     1.0  0.46580  0.35557  0.43270  1.0000
  H   H1487     1.0  0.44363  0.33933  0.47592  1.0000
  H   H1488     1.0  0.42245  0.33509  0.45844  1.0000
  H   H1489     1.0  0.45661  0.35663  0.40796  1.0000
  C   C1230     1.0  0.34409  0.27134  0.40950  1.0000
  C   C1231     1.0  0.34985  0.28787  0.40736  1.0000
  C   C1232     1.0  0.35542  0.29176  0.42184  1.0000
  C   C1233     1.0  0.35561  0.27895  0.43838  1.0000
  C   C1234     1.0  0.35021  0.26226  0.44040  1.0000
  C   C1235     1.0  0.34428  0.25853  0.42606  1.0000
  H   H1490     1.0  0.34992  0.29774  0.39454  1.0000
  H   H1491     1.0  0.35956  0.30465  0.42017  1.0000
  H   H1492     1.0  0.35051  0.25226  0.45315  1.0000
  H   H1493     1.0  0.33979  0.24581  0.42789  1.0000
  C   C1236     1.0  0.29269  0.20952  0.34322  1.0000
  C   C1237     1.0  0.28851  0.21143  0.32599  1.0000
  C   C1238     1.0  0.27745  0.20046  0.32352  1.0000
  C   C1239     1.0  0.27074  0.18728  0.33823  1.0000
  C   C1240     1.0  0.27520  0.18509  0.35543  1.0000
  C   C1241     1.0  0.28615  0.19621  0.35795  1.0000
  H   H1494     1.0  0.29377  0.22154  0.31455  1.0000
  H   H1495     1.0  0.27403  0.20230  0.31027  1.0000
  H   H1496     1.0  0.26994  0.17498  0.36688  1.0000
  H   H1497     1.0  0.28919  0.19474  0.37132  1.0000
  C   C1242     1.0  0.29440  0.16076  0.48700  1.0000
  C   C1243     1.0  0.30852  0.16576  0.47224  1.0000
  C   C1244     1.0  0.30443  0.17977  0.45721  1.0000
  C   C1245     1.0  0.28615  0.18874  0.45686  1.0000
  C   C1246     1.0  0.27202  0.18361  0.47152  1.0000
  C   C1247     1.0  0.27612  0.16964  0.48656  1.0000
  H   H1498     1.0  0.32271  0.15897  0.47257  1.0000
  H   H1499     1.0  0.31541  0.18373  0.44599  1.0000
  H   H1500     1.0  0.25784  0.19047  0.47123  1.0000
  H   H1501     1.0  0.26512  0.16568  0.49772  1.0000
  H   H1502     1.0  0.27786  0.42671  0.42854  1.0000
  H   H1503     1.0  0.28825  0.46757  0.61714  1.0000
  C   C1248     1.0  0.42036  0.17961  0.35514  1.0000
  C   C1249     1.0  0.39225  0.41799  0.62939  1.0000
  H   H1504     1.0  0.29657  0.06968  0.62278  1.0000
  H   H1505     1.0  0.23796  0.12067  0.52545  1.0000
  H   H1506     1.0  0.47944  0.41717  0.48968  1.0000
  H   H1507     1.0  0.24851  0.01181  0.58974  1.0000
  C   C1250     1.0  0.33638  0.31278  0.60985  1.0000
  C   C1251     1.0  0.33560  0.33097  0.61105  1.0000
  H   H1508     1.0  0.34938  0.30460  0.60433  1.0000
  H   H1509     1.0  0.34790  0.33681  0.60640  1.0000
  C   C1252     1.0  0.28345  0.20007  0.61210  1.0000
  C   C1253     1.0  0.27554  0.21537  0.60025  1.0000
  C   C1254     1.0  0.26779  0.21300  0.58641  1.0000
  C   C1255     1.0  0.26784  0.19532  0.58440  1.0000
  C   C1256     1.0  0.27607  0.17999  0.59598  1.0000
  C   C1257     1.0  0.28386  0.18238  0.60979  1.0000
  H   H1510     1.0  0.27533  0.22903  0.60177  1.0000
  H   H1511     1.0  0.39603  0.38854  0.36210  1.0000
  H   H1512     1.0  0.27617  0.16629  0.59451  1.0000
  H   H1513     1.0  0.30505  0.29958  0.38777  1.0000
  C   C1258     1.0  0.40352  0.19078  0.35174  1.0000
  C   C1259     1.0  0.38721  0.18948  0.36501  1.0000
  C   C1260     1.0  0.38769  0.17716  0.38185  1.0000
  C   C1261     1.0  0.40449  0.16580  0.38515  1.0000
  H   H1514     1.0  0.40309  0.20044  0.33880  1.0000
  H   H1515     1.0  0.37430  0.19794  0.36211  1.0000
  H   H1516     1.0  0.40495  0.15619  0.39813  1.0000
  C   C1262     1.0  0.32495  0.44006  0.37757  1.0000
  S   S364      1.0  0.44066  0.18206  0.33856  1.0000
  C   C1263     1.0  0.42081  0.16700  0.37182  1.0000
  H   H1517     1.0  0.31497  0.45093  0.37035  1.0000
  C   C1264     1.0  0.30304  0.04052  0.59376  1.0000
  C   C1265     1.0  0.29892  0.05355  0.57811  1.0000
  C   C1266     1.0  0.29400  0.07238  0.57853  1.0000
  C   C1267     1.0  0.29307  0.07824  0.59466  1.0000
  C   C1268     1.0  0.29734  0.06521  0.61024  1.0000
  C   C1269     1.0  0.30234  0.04640  0.60980  1.0000
  H   H1518     1.0  0.29950  0.04904  0.56565  1.0000
  H   H1519     1.0  0.29102  0.08235  0.56638  1.0000
  C   C1270     1.0  0.46383  0.41473  0.57160  1.0000
  H   H1520     1.0  0.30541  0.03645  0.62196  1.0000
  H   H1521     1.0  0.30517  0.15502  0.36254  1.0000
  C   C1271     1.0  0.31881  0.34160  0.61809  1.0000
  H   H1522     1.0  0.39290  0.26854  0.37818  1.0000
  H   H1523     1.0  0.24176  0.09253  0.55514  1.0000
  C   C1272     1.0  0.42705  0.37333  0.52768  1.0000
  H   H1524     1.0  0.44355  0.45073  0.59327  1.0000
  H   H1525     1.0  0.27225  0.34120  0.40319  1.0000
  H   H1526     1.0  0.28149  0.30786  0.39869  1.0000
  H   H1527     1.0  0.34502  0.04359  0.59747  1.0000
  H   H1528     1.0  0.24047  0.20392  0.61678  1.0000
  Fe  Fe178     1.0  0.33986  0.38031  0.60579  1.0000
  C   C1273     1.0  0.41901  0.40027  0.50516  1.0000
  C   C1274     1.0  0.33410  0.42480  0.35211  1.0000
  H   H1529     1.0  0.28771  0.42254  0.59365  1.0000
  C   C1275     1.0  0.27406  0.47145  0.57742  1.0000
  H   H1530     1.0  0.46300  0.38885  0.54118  1.0000
  N   N87       1.0  0.30174  0.19871  0.51920  1.0000
  C   C1276     1.0  0.31547  0.18177  0.51611  1.0000
  C   C1277     1.0  0.30328  0.20297  0.53657  1.0000
  C   C1278     1.0  0.28295  0.19495  0.52206  1.0000
  C   C1279     1.0  0.30495  0.21358  0.50288  1.0000
  C   C1280     1.0  0.31224  0.22888  0.50308  1.0000
  C   C1281     1.0  0.30158  0.21257  0.48581  1.0000
  C   C1282     1.0  0.31556  0.24238  0.48719  1.0000
  C   C1283     1.0  0.30477  0.22618  0.47008  1.0000
  C   C1284     1.0  0.31172  0.24108  0.47077  1.0000
  H   H1531     1.0  0.32981  0.18390  0.51399  1.0000
  H   H1532     1.0  0.31347  0.17005  0.52791  1.0000
  H   H1533     1.0  0.31448  0.17721  0.50379  1.0000
  H   H1534     1.0  0.29986  0.19188  0.54869  1.0000
  H   H1535     1.0  0.29344  0.21579  0.53949  1.0000
  H   H1536     1.0  0.31754  0.20423  0.53633  1.0000
  H   H1537     1.0  0.28108  0.18923  0.51089  1.0000
  H   H1538     1.0  0.27993  0.18447  0.53475  1.0000
  H   H1539     1.0  0.27216  0.20757  0.52346  1.0000
  H   H1540     1.0  0.31558  0.23069  0.51530  1.0000
  H   H1541     1.0  0.29656  0.20113  0.48443  1.0000
  H   H1542     1.0  0.32127  0.25390  0.48753  1.0000
  H   H1543     1.0  0.46349  0.35544  0.51007  1.0000
  H   H1544     1.0  0.31423  0.25156  0.45852  1.0000
  H   H1545     1.0  0.29434  0.42692  0.62279  1.0000
  H   H1546     1.0  0.39684  0.28942  0.39531  1.0000
  H   H1547     1.0  0.31745  0.44535  0.56941  1.0000
  Fe  Fe179     1.0  0.24165  0.13709  0.55536  1.0000
  H   H1548     1.0  0.45865  0.40047  0.60840  1.0000
  C   C1285     1.0  0.31379  0.15307  0.37245  1.0000
  H   H1549     1.0  0.35710  0.15547  0.37417  1.0000
  H   H1550     1.0  0.27535  0.25623  0.31948  1.0000
  C   C1286     1.0  0.46479  0.46995  0.33184  1.0000
  H   H1551     1.0  0.40897  0.20571  0.38109  1.0000
  C   C1287     1.0  0.34304  0.15320  0.37894  1.0000
  C   C1288     1.0  0.27763  0.44894  0.44112  1.0000
  C   C1289     1.0  0.25131  0.43914  0.60845  1.0000
  C   C1290     1.0  0.47564  0.40379  0.49444  1.0000
  H   H1552     1.0  0.43104  0.40728  0.59543  1.0000
  H   H1553     1.0  0.28852  0.35605  0.39253  1.0000
  Fe  Fe180     1.0  0.37532  0.39187  0.60615  1.0000
  H   H1554     1.0  0.31574  0.13738  0.45139  1.0000
  H   H1555     1.0  0.48369  0.44915  0.39276  1.0000
  C   C1291     1.0  0.28230  0.41011  0.60188  1.0000
  S   S365      1.0  0.25637  0.42390  0.30227  1.0000
  H   H1556     1.0  0.26621  0.27683  0.30482  1.0000
  C   C1292     1.0  0.43042  0.37116  0.49612  1.0000
  H   H1557     1.0  0.43545  0.35927  0.53081  1.0000
  H   H1558     1.0  0.42857  0.38134  0.53729  1.0000
  H   H1559     1.0  0.43834  0.35687  0.49906  1.0000
  H   H1560     1.0  0.41579  0.36999  0.49779  1.0000
  H   H1561     1.0  0.43555  0.37694  0.48136  1.0000
  C   C1293     1.0  0.45250  0.44357  0.58221  1.0000
  C   C1294     1.0  0.45695  0.40472  0.56233  1.0000
  H   H1562     1.0  0.25522  0.08992  0.58858  1.0000
  H   H1563     1.0  0.24694  0.22211  0.63395  1.0000
  H   H1564     1.0  0.32711  0.15359  0.43406  1.0000
  H   H1565     1.0  0.46575  0.08618  0.42556  1.0000
  H   H1566     1.0  0.45762  0.05943  0.37327  1.0000
  H   H1567     1.0  0.26462  0.00677  0.61536  1.0000
  H   H1568     1.0  0.29226  0.12425  0.42176  1.0000
  H   H1569     1.0  0.28702  0.15392  0.44425  1.0000
  Fe  Fe181     1.0  0.48404  0.44466  0.62555  1.0000
  C   C1295     1.0  0.36584  0.39834  0.40072  1.0000
  C   C1296     1.0  0.31743  0.14614  0.40460  1.0000
  H   H1570     1.0  0.38416  0.02462  0.56208  1.0000
  H   H1571     1.0  0.45474  0.12322  0.32056  1.0000
  H   H1572     1.0  0.29003  0.17047  0.61886  1.0000
  H   H1573     1.0  0.40176  0.24473  0.36250  1.0000
  H   H1574     1.0  0.44768  0.45032  0.56915  1.0000
  H   H1575     1.0  0.27969  0.34662  0.37855  1.0000
  N   N88       1.0  0.46196  0.47235  0.31283  1.0000
  H   H1576     1.0  0.32008  0.31041  0.45882  1.0000
  S   S366      1.0  0.40089  0.38473  0.61832  1.0000
  H   H1577     1.0  0.25598  0.44541  0.40890  1.0000
  N   N89       1.0  0.39334  0.23047  0.39037  1.0000
  C   C1297     1.0  0.46630  0.36918  0.50609  1.0000
  H   H1578     1.0  0.28992  0.34206  0.62962  1.0000
  C   C1298     1.0  0.31462  0.33147  0.43526  1.0000
  H   H1579     1.0  0.40124  0.27857  0.42736  1.0000
  H   H1580     1.0  0.36756  0.99800  0.57816  1.0000
  C   C1299     1.0  0.45947  0.41527  0.60388  1.0000
  S   S367      1.0  0.24781  0.14121  0.58099  1.0000
  H   H1581     1.0  0.33986  0.45953  0.34709  1.0000
  C   C1300     1.0  0.32723  0.37564  0.54823  1.0000
  H   H1582     1.0  0.46881  0.45522  0.33827  1.0000
  C   C1301     1.0  0.32510  0.34496  0.56559  1.0000
  H   H1583     1.0  0.42775  0.12616  0.30690  1.0000
  S   S368      1.0  0.31692  0.36456  0.61950  1.0000
  C   C1302     1.0  0.36798  0.02390  0.60810  1.0000
  N   N90       1.0  0.43240  0.38261  0.50825  1.0000
  H   H1584     1.0  0.46650  0.44625  0.58068  1.0000
  H   H1585     1.0  0.29672  0.17004  0.42527  1.0000
  H   H1586     1.0  0.26762  0.03320  0.62647  1.0000
  H   H1587     1.0  0.39967  0.99843  0.57851  1.0000
  C   C1303     1.0  0.38993  0.23874  0.37150  1.0000
  C   C1304     1.0  0.34451  0.04571  0.62464  1.0000
  H   H1588     1.0  0.45164  0.42232  0.61535  1.0000
  H   H1589     1.0  0.31507  0.11276  0.42506  1.0000
  H   H1590     1.0  0.29018  0.45891  0.55473  1.0000
  N   N91       1.0  0.32937  0.31831  0.55031  1.0000
  C   C1305     1.0  0.34654  0.30786  0.55661  1.0000
  C   C1306     1.0  0.31337  0.31174  0.56363  1.0000
  C   C1307     1.0  0.32986  0.31388  0.53237  1.0000
  C   C1308     1.0  0.32802  0.33814  0.54929  1.0000
  C   C1309     1.0  0.24628  0.07831  0.56264  1.0000
  C   C1310     1.0  0.33046  0.35103  0.53235  1.0000
  H   H1591     1.0  0.46390  0.09021  0.33963  1.0000
  H   H1592     1.0  0.40460  0.39808  0.50801  1.0000
  H   H1593     1.0  0.41895  0.40927  0.51454  1.0000
  H   H1594     1.0  0.34699  0.31014  0.57024  1.0000
  H   H1595     1.0  0.34799  0.29279  0.55799  1.0000
  H   H1596     1.0  0.35893  0.31202  0.54670  1.0000
  H   H1597     1.0  0.31355  0.31170  0.57809  1.0000
  H   H1598     1.0  0.31326  0.29725  0.56362  1.0000
  H   H1599     1.0  0.30008  0.32043  0.56045  1.0000
  C   C1311     1.0  0.46843  0.39649  0.54802  1.0000
  H   H1600     1.0  0.33012  0.29903  0.53367  1.0000
  C   C1312     1.0  0.43255  0.42191  0.59086  1.0000
  H   H1601     1.0  0.47488  0.34794  0.37959  1.0000
  H   H1602     1.0  0.33348  0.34712  0.51917  1.0000
  C   C1313     1.0  0.36268  0.00444  0.59046  1.0000
  C   C1314     1.0  0.37689  0.03038  0.57455  1.0000
  Fe  Fe182     1.0  0.25392  0.43630  0.36488  1.0000
  H   H1603     1.0  0.37928  0.21389  0.41461  1.0000
  H   H1604     1.0  0.34487  0.42089  0.34025  1.0000
  H   H1605     1.0  0.29765  0.11988  0.44399  1.0000
  H   H1606     1.0  0.33238  0.37897  0.51887  1.0000
  S   S369      1.0  0.32177  0.28251  0.61363  1.0000
  C   C1315     1.0  0.45705  0.40232  0.49873  1.0000
  C   C1316     1.0  0.24140  0.40862  0.30608  1.0000
  N   N92       1.0  0.30930  0.14177  0.42449  1.0000
  H   H1607     1.0  0.47320  0.05224  0.43225  1.0000
  C   C1317     1.0  0.26240  0.26642  0.31740  1.0000
  H   H1608     1.0  0.24307  0.06907  0.55531  1.0000
  H   H1609     1.0  0.44709  0.41504  0.49712  1.0000
  H   H1610     1.0  0.30188  0.22506  0.45726  1.0000
  C   C1318     1.0  0.37728  0.22213  0.40086  1.0000
  H   H1611     1.0  0.39139  0.37896  0.39602  1.0000
  H   H1612     1.0  0.26088  0.24559  0.34904  1.0000
  H   H1613     1.0  0.47767  0.36161  0.42560  1.0000
  C   C1319     1.0  0.48280  0.41576  0.56572  1.0000
  H   H1614     1.0  0.41237  0.37176  0.53111  1.0000
  H   H1615     1.0  0.38666  0.00543  0.62561  1.0000
  N   N93       1.0  0.45219  0.42364  0.58681  1.0000
  H   H1616     1.0  0.32756  0.38981  0.54777  1.0000
  H   H1617     1.0  0.46438  0.08085  0.37150  1.0000
  C   C1320     1.0  0.30331  0.12390  0.42900  1.0000
  N   N94       1.0  0.29963  0.32702  0.39303  1.0000
  C   C1321     1.0  0.46872  0.07564  0.33799  1.0000
  H   H1618     1.0  0.43415  0.46779  0.32360  1.0000
  H   H1619     1.0  0.29406  0.39819  0.60077  1.0000
  C   C1322     1.0  0.30445  0.32231  0.41145  1.0000
  C   C1323     1.0  0.30516  0.30445  0.42280  1.0000
  C   C1324     1.0  0.30918  0.33571  0.41833  1.0000
  C   C1325     1.0  0.31039  0.30042  0.43983  1.0000
  C   C1326     1.0  0.26008  0.45160  0.41814  1.0000
  H   H1620     1.0  0.30900  0.34953  0.41052  1.0000
  C   C1327     1.0  0.38396  0.39527  0.37063  1.0000
  H   H1621     1.0  0.36083  0.44391  0.34129  1.0000
  H   H1622     1.0  0.36371  0.39383  0.41557  1.0000
  C   C1328     1.0  0.25907  0.42768  0.62347  1.0000
  C   C1329     1.0  0.30515  0.45307  0.57667  1.0000
  H   H1623     1.0  0.39372  0.99141  0.60258  1.0000
  H   H1624     1.0  0.31281  0.33543  0.36473  1.0000
  C   C1330     1.0  0.29371  0.31193  0.38846  1.0000
  H   H1625     1.0  0.36143  0.99314  0.60278  1.0000
  H   H1626     1.0  0.30230  0.29317  0.41863  1.0000
  H   H1627     1.0  0.47499  0.36335  0.35735  1.0000
  H   H1628     1.0  0.36319  0.03801  0.57160  1.0000
  C   C1331     1.0  0.40024  0.26889  0.41964  1.0000
  H   H1629     1.0  0.31858  0.34188  0.43998  1.0000
  C   C1332     1.0  0.47981  0.36033  0.37053  1.0000
  H   H1630     1.0  0.45619  0.06990  0.33991  1.0000
  C   C1333     1.0  0.30474  0.45586  0.59412  1.0000
  C   C1334     1.0  0.32043  0.30516  0.61571  1.0000
  H   H1631     1.0  0.31760  0.32186  0.52654  1.0000
  H   H1632     1.0  0.37450  0.21258  0.39357  1.0000
  C   C1335     1.0  0.32231  0.14043  0.43653  1.0000
  C   C1336     1.0  0.35214  0.03833  0.60883  1.0000
  C   C1337     1.0  0.27046  0.46742  0.44207  1.0000
  H   H1633     1.0  0.47410  0.41619  0.60225  1.0000
  S   S370      1.0  0.25703  0.45349  0.33638  1.0000
  Fe  Fe183     1.0  0.26524  0.42652  0.32725  1.0000
  Fe  Fe184     1.0  0.28677  0.44935  0.33798  1.0000
  H   H1634     1.0  0.38802  0.22830  0.36466  1.0000
  C   C1338     1.0  0.45671  0.11883  0.30776  1.0000
  H   H1635     1.0  0.32767  0.31941  0.37898  1.0000
  H   H1636     1.0  0.33728  0.15974  0.35173  1.0000
  H   H1637     1.0  0.47453  0.31122  0.42671  1.0000
  C   C1339     1.0  0.37094  0.40914  0.36252  1.0000
  C   C1340     1.0  0.25043  0.23892  0.34788  1.0000
  C   C1341     1.0  0.32475  0.36339  0.56504  1.0000
  H   H1638     1.0  0.37705  0.24952  0.37174  1.0000
  S   S371      1.0  0.25979  0.40941  0.35574  1.0000
  C   C1342     1.0  0.35003  0.44790  0.35314  1.0000
  H   H1639     1.0  0.42188  0.40777  0.49063  1.0000
  H   H1640     1.0  0.28982  0.31602  0.37472  1.0000
  C   C1343     1.0  0.39770  0.27498  0.40158  1.0000
  H   H1641     1.0  0.43376  0.15834  0.37457  1.0000
  H   H1642     1.0  0.29134  0.31007  0.62732  1.0000
  C   C1344     1.0  0.24428  0.05695  0.59197  1.0000
  H   H1643     1.0  0.36461  0.23293  0.40285  1.0000
  H   H1644     1.0  0.34544  0.14707  0.40672  1.0000
  C   C1345     1.0  0.25859  0.02060  0.60917  1.0000
  C   C1346     1.0  0.45183  0.38485  0.50442  1.0000
  S   S372      1.0  0.25224  0.16185  0.53757  1.0000
  C   C1347     1.0  0.30659  0.14843  0.39129  1.0000
  H   H1645     1.0  0.29235  0.14690  0.39534  1.0000
  C   C1348     1.0  0.32993  0.36950  0.53195  1.0000
  S   S373      1.0  0.48389  0.15916  0.36343  1.0000
  Fe  Fe185     1.0  0.46579  0.16036  0.34398  1.0000
  H   H1646     1.0  0.34851  0.01265  0.58988  1.0000
  C   C1349     1.0  0.33191  0.15565  0.36631  1.0000
  H   H1647     1.0  0.26154  0.22490  0.57740  1.0000
  C   C1350     1.0  0.24025  0.09049  0.58991  1.0000
  C   C1351     1.0  0.39402  0.00384  0.59142  1.0000
  C   C1352     1.0  0.35262  0.41209  0.39277  1.0000
  C   C1353     1.0  0.25337  0.05349  0.60694  1.0000
  C   C1354     1.0  0.33605  0.14839  0.39781  1.0000
  H   H1648     1.0  0.39902  0.22400  0.42562  1.0000
  C   C1355     1.0  0.31531  0.31383  0.44595  1.0000
  H   H1649     1.0  0.32511  0.44355  0.31293  1.0000
  C   C1356     1.0  0.41008  0.21571  0.38887  1.0000
  C   C1357     1.0  0.39582  0.24386  0.40009  1.0000
  C   C1358     1.0  0.39866  0.23810  0.41845  1.0000
  H   H1650     1.0  0.27186  0.40778  0.59533  1.0000
  C   C1359     1.0  0.40069  0.25051  0.42807  1.0000
  Fe  Fe186     1.0  0.26088  0.16422  0.56270  1.0000
  H   H1651     1.0  0.40405  0.01140  0.59300  1.0000
  H   H1652     1.0  0.30233  0.40251  0.62660  1.0000
  H   H1653     1.0  0.35656  0.45330  0.36158  1.0000
  H   H1654     1.0  0.41255  0.20752  0.40251  1.0000
  C   C1360     1.0  0.38141  0.38987  0.38971  1.0000
  H   H1655     1.0  0.42261  0.22147  0.38162  1.0000
  H   H1656     1.0  0.32277  0.43487  0.34621  1.0000
  N   N95       1.0  0.24800  0.25740  0.31560  1.0000
  H   H1657     1.0  0.44281  0.40292  0.56600  1.0000
  H   H1658     1.0  0.34067  0.41756  0.40222  1.0000
  H   H1659     1.0  0.25582  0.06436  0.61210  1.0000
  Fe  Fe187     1.0  0.29861  0.26776  0.62995  1.0000
  C   C1361     1.0  0.37528  0.01698  0.62442  1.0000
  C   C1362     1.0  0.44687  0.46291  0.31382  1.0000
  C   C1363     1.0  0.32340  0.47111  0.31599  1.0000
  C   C1364     1.0  0.26027  0.03554  0.61542  1.0000
  C   C1365     1.0  0.30372  0.31575  0.62290  1.0000
  H   H1660     1.0  0.26156  0.07570  0.56104  1.0000
  C   C1366     1.0  0.27242  0.44106  0.42919  1.0000
  C   C1367     1.0  0.28976  0.46082  0.56835  1.0000
  C   C1368     1.0  0.24962  0.02349  0.59466  1.0000
  C   C1369     1.0  0.25283  0.47007  0.41899  1.0000
  H   H1661     1.0  0.45341  0.16954  0.30427  1.0000
  C   C1370     1.0  0.30294  0.33390  0.62413  1.0000
  C   C1371     1.0  0.24247  0.04137  0.58621  1.0000
  H   H1662     1.0  0.42594  0.42828  0.57878  1.0000
  H   H1663     1.0  0.47781  0.05978  0.38084  1.0000
  N   N96       1.0  0.27461  0.41184  0.62133  1.0000
  H   H1664     1.0  0.45108  0.44779  0.31835  1.0000
  H   H1665     1.0  0.23883  0.23942  0.60597  1.0000
  C   C1372     1.0  0.46965  0.06627  0.36998  1.0000
  C   C1373     1.0  0.28882  0.46589  0.60340  1.0000
  H   H1666     1.0  0.27940  0.38229  0.62967  1.0000
  H   H1667     1.0  0.32914  0.44657  0.38691  1.0000
  C   C1374     1.0  0.48377  0.03800  0.33595  1.0000
  H   H1668     1.0  0.25755  0.27377  0.32907  1.0000
  H   H1669     1.0  0.33229  0.05655  0.62493  1.0000
  S   S374      1.0  0.34628  0.39772  0.62204  1.0000
  H   H1670     1.0  0.47638  0.07624  0.32350  1.0000
  S   S375      1.0  0.29249  0.20260  0.63015  1.0000
  C   C1375     1.0  0.40452  0.40113  0.62891  1.0000
  C   C1376     1.0  0.47740  0.07901  0.41697  1.0000
  H   H1671     1.0  0.25642  0.39299  0.62621  1.0000
  H   H1672     1.0  0.25176  0.22181  0.37468  1.0000
  S   S376      1.0  0.45915  0.46713  0.62873  1.0000
  H   H1673     1.0  0.48119  0.98250  0.45560  1.0000
  C   C1377     1.0  0.27358  0.47370  0.59506  1.0000
  C   C1378     1.0  0.48165  0.05982  0.42077  1.0000
  H   H1674     1.0  0.27490  0.47292  0.45154  1.0000
  H   H1675     1.0  0.37984  0.42083  0.62394  1.0000
  C   C1379     1.0  0.26822  0.39460  0.63134  1.0000
  N   N97       1.0  0.48061  0.06489  0.35125  1.0000
  H   H1676     1.0  0.47584  0.04622  0.32584  1.0000
  S   S377      1.0  0.30120  0.47334  0.32992  1.0000
  S   S378      1.0  0.48226  0.11302  0.39829  1.0000
  S   S379      1.0  0.47625  0.35452  0.46490  1.0000
  C   C1380     1.0  0.23637  0.45373  0.61110  1.0000
  H   H1677     1.0  0.23579  0.04292  0.57489  1.0000
  H   H1678     1.0  0.23510  0.40536  0.33554  1.0000
  H   H1679     1.0  0.34625  0.16139  0.30130  1.0000
  H   H1680     1.0  0.41717  0.01319  0.74554  1.0000
  Fe  Fe188     1.0  0.32945  0.20712  0.79879  1.0000
  S   S380      1.0  0.35033  0.21989  0.77609  1.0000
  S   S381      1.0  0.30421  0.22421  0.81331  1.0000
  Fe  Fe189     1.0  0.34937  0.16828  0.79625  1.0000
  S   S382      1.0  0.37224  0.17750  0.77378  1.0000
  S   S383      1.0  0.34654  0.13874  0.80738  1.0000
  Fe  Fe190     1.0  0.37119  0.19847  0.79005  1.0000
  S   S384      1.0  0.39820  0.20526  0.79068  1.0000
  Fe  Fe191     1.0  0.34969  0.19803  0.76169  1.0000
  S   S385      1.0  0.35123  0.20090  0.73140  1.0000
  S   S386      1.0  0.35030  0.18729  0.81395  1.0000
  S   S387      1.0  0.32683  0.18730  0.78297  1.0000
  H   H1681     1.0  0.31899  0.00000  0.76531  1.0000
  Fe  Fe192     1.0  0.36312  0.02922  0.73797  1.0000
  S   S388      1.0  0.35916  0.01034  0.76546  1.0000
  S   S389      1.0  0.37160  0.01610  0.71310  1.0000
  Fe  Fe193     1.0  0.35796  0.06272  0.75488  1.0000
  S   S390      1.0  0.35383  0.04640  0.78389  1.0000
  S   S391      1.0  0.35944  0.09280  0.74590  1.0000
  Fe  Fe194     1.0  0.37729  0.02530  0.77267  1.0000
  S   S392      1.0  0.39980  0.00777  0.78729  1.0000
  Fe  Fe195     1.0  0.33614  0.03296  0.77398  1.0000
  S   S393      1.0  0.30799  0.02755  0.78880  1.0000
  S   S394      1.0  0.38294  0.04269  0.74449  1.0000
  S   S395      1.0  0.33851  0.05087  0.74570  1.0000
  Fe  Fe196     1.0  0.25796  0.26538  0.64009  1.0000
  C   C1381     1.0  0.35212  0.03872  0.64031  1.0000
  C   C1382     1.0  0.47716  0.31025  0.90403  1.0000
  Fe  Fe197     1.0  0.45198  0.27905  0.84485  1.0000
  Fe  Fe198     1.0  0.43025  0.24831  0.85292  1.0000
  S   S396      1.0  0.45202  0.22753  0.86599  1.0000
  S   S397      1.0  0.40322  0.24002  0.85538  1.0000
  Fe  Fe199     1.0  0.45330  0.24976  0.87950  1.0000
  S   S398      1.0  0.45490  0.24367  0.90938  1.0000
  S   S399      1.0  0.42989  0.26960  0.86834  1.0000
  S   S400      1.0  0.45013  0.25956  0.82807  1.0000
  S   S401      1.0  0.43192  0.31548  0.94212  1.0000
  Fe  Fe200     1.0  0.44680  0.44613  0.65144  1.0000
  H   H1682     1.0  0.39994  0.23724  0.92532  1.0000
  H   H1683     1.0  0.43683  0.40811  0.64891  1.0000
  H   H1684     1.0  0.33806  0.25275  0.90553  1.0000
  H   H1685     1.0  0.44816  0.27796  0.95733  1.0000
  C   C1383     1.0  0.29695  0.18923  0.67979  1.0000
  C   C1384     1.0  0.33586  0.21753  0.84918  1.0000
  H   H1686     1.0  0.45920  0.98217  0.70394  1.0000
  C   C1385     1.0  0.32378  0.00897  0.69124  1.0000
  S   S402      1.0  0.45641  0.45404  0.67351  1.0000
  H   H1687     1.0  0.31833  0.25395  0.93643  1.0000
  Fe  Fe201     1.0  0.28216  0.24962  0.66855  1.0000
  H   H1688     1.0  0.31619  0.30387  0.67909  1.0000
  S   S403      1.0  0.28125  0.24613  0.69889  1.0000
  H   H1689     1.0  0.41982  0.01743  0.72098  1.0000
  S   S404      1.0  0.26291  0.23797  0.65896  1.0000
  H   H1690     1.0  0.34628  0.24502  0.72598  1.0000
  H   H1691     1.0  0.29073  0.22411  0.86909  1.0000
  H   H1692     1.0  0.44928  0.21974  0.81560  1.0000
  C   C1386     1.0  0.30498  0.21704  0.86722  1.0000
  S   S405      1.0  0.26098  0.19574  0.94291  1.0000
  H   H1693     1.0  0.46539  0.36696  0.79484  1.0000
  H   H1694     1.0  0.26153  0.17559  0.81740  1.0000
  H   H1695     1.0  0.24797  0.98056  0.87747  1.0000
  H   H1696     1.0  0.30997  0.27220  0.68227  1.0000
  H   H1697     1.0  0.34454  0.99136  0.67520  1.0000
  C   C1387     1.0  0.48015  0.99048  0.71163  1.0000
  H   H1698     1.0  0.24118  0.21221  0.77991  1.0000
  C   C1388     1.0  0.48062  0.34301  0.77075  1.0000
  C   C1389     1.0  0.45307  0.02913  0.77691  1.0000
  H   H1699     1.0  0.28623  0.41259  0.64420  1.0000
  H   H1700     1.0  0.39316  0.25741  0.94876  1.0000
  C   C1390     1.0  0.48207  0.40915  0.94343  1.0000
  C   C1391     1.0  0.27269  0.16912  0.80782  1.0000
  C   C1392     1.0  0.34229  0.20059  0.85975  1.0000
  C   C1393     1.0  0.27953  0.00767  0.86811  1.0000
  S   S406      1.0  0.24938  0.17593  0.86799  1.0000
  C   C1394     1.0  0.29457  0.98717  0.74097  1.0000
  C   C1395     1.0  0.31052  0.17516  0.67335  1.0000
  C   C1396     1.0  0.34187  0.00028  0.68490  1.0000
  H   H1701     1.0  0.45748  0.30881  0.79622  1.0000
  H   H1702     1.0  0.25586  0.42352  0.65325  1.0000
  C   C1397     1.0  0.31982  0.14227  0.73205  1.0000
  H   H1703     1.0  0.33982  0.12901  0.70272  1.0000
  C   C1398     1.0  0.44857  0.26352  0.91865  1.0000
  C   C1399     1.0  0.44067  0.28019  0.90860  1.0000
  C   C1400     1.0  0.43487  0.29588  0.91630  1.0000
  C   C1401     1.0  0.43764  0.29516  0.93380  1.0000
  C   C1402     1.0  0.44569  0.27853  0.94390  1.0000
  C   C1403     1.0  0.45101  0.26266  0.93635  1.0000
  H   H1704     1.0  0.43906  0.28107  0.89488  1.0000
  H   H1705     1.0  0.42849  0.30871  0.90856  1.0000
  H   H1706     1.0  0.37046  0.99580  0.68669  1.0000
  H   H1707     1.0  0.45740  0.24981  0.94402  1.0000
  H   H1708     1.0  0.46105  0.32698  0.86438  1.0000
  C   C1404     1.0  0.30799  0.00714  0.80547  1.0000
  C   C1405     1.0  0.32405  0.99759  0.81187  1.0000
  N   N98       1.0  0.26864  0.19754  0.78306  1.0000
  H   H1709     1.0  0.27510  0.01772  0.85598  1.0000
  C   C1406     1.0  0.36681  0.28042  0.70093  1.0000
  C   C1407     1.0  0.29166  0.00032  0.81242  1.0000
  H   H1710     1.0  0.33669  0.00282  0.80660  1.0000
  H   H1711     1.0  0.33025  0.25352  0.70064  1.0000
  H   H1712     1.0  0.29049  0.20600  0.76099  1.0000
  H   H1713     1.0  0.27926  0.00760  0.80739  1.0000
  C   C1408     1.0  0.31965  0.16469  0.70344  1.0000
  C   C1409     1.0  0.45119  0.01217  0.78857  1.0000
  C   C1410     1.0  0.43471  0.00578  0.79182  1.0000
  C   C1411     1.0  0.42009  0.01630  0.78340  1.0000
  C   C1412     1.0  0.42209  0.03311  0.77153  1.0000
  C   C1413     1.0  0.43857  0.03948  0.76825  1.0000
  S   S407      1.0  0.45028  0.30967  0.83544  1.0000
  H   H1714     1.0  0.43326  0.99271  0.80096  1.0000
  H   H1715     1.0  0.41092  0.04119  0.76494  1.0000
  H   H1716     1.0  0.36131  0.26626  0.95455  1.0000
  C   C1414     1.0  0.33169  0.21343  0.72261  1.0000
  C   C1415     1.0  0.31672  0.22301  0.73346  1.0000
  C   C1416     1.0  0.30126  0.23299  0.72604  1.0000
  C   C1417     1.0  0.30072  0.23338  0.70780  1.0000
  C   C1418     1.0  0.31569  0.22373  0.69701  1.0000
  C   C1419     1.0  0.33117  0.21383  0.70438  1.0000
  H   H1717     1.0  0.31723  0.22299  0.74745  1.0000
  H   H1718     1.0  0.28982  0.24068  0.73434  1.0000
  H   H1719     1.0  0.31534  0.22374  0.68304  1.0000
  H   H1720     1.0  0.34277  0.20650  0.69591  1.0000
  C   C1420     1.0  0.39815  0.21646  0.80808  1.0000
  C   C1421     1.0  0.38608  0.21363  0.82508  1.0000
  C   C1422     1.0  0.38740  0.22130  0.83943  1.0000
  C   C1423     1.0  0.40082  0.23183  0.83680  1.0000
  C   C1424     1.0  0.41247  0.23518  0.81959  1.0000
  C   C1425     1.0  0.41125  0.22737  0.80531  1.0000
  H   H1721     1.0  0.37612  0.20507  0.82724  1.0000
  H   H1722     1.0  0.37829  0.21877  0.85269  1.0000
  H   H1723     1.0  0.42241  0.24379  0.81731  1.0000
  H   H1724     1.0  0.42050  0.22975  0.79210  1.0000
  C   C1426     1.0  0.34924  0.12636  0.79018  1.0000
  C   C1427     1.0  0.35759  0.13290  0.77208  1.0000
  C   C1428     1.0  0.36073  0.12237  0.75868  1.0000
  C   C1429     1.0  0.35509  0.10550  0.76316  1.0000
  C   C1430     1.0  0.34642  0.09905  0.78119  1.0000
  C   C1431     1.0  0.34358  0.10945  0.79472  1.0000
  H   H1725     1.0  0.36210  0.14585  0.76848  1.0000
  H   H1726     1.0  0.36796  0.12709  0.74490  1.0000
  H   H1727     1.0  0.34188  0.08611  0.78473  1.0000
  H   H1728     1.0  0.33709  0.10434  0.80873  1.0000
  C   C1432     1.0  0.28964  0.21080  0.82962  1.0000
  C   C1433     1.0  0.29384  0.19167  0.83187  1.0000
  C   C1434     1.0  0.28143  0.18115  0.84385  1.0000
  C   C1435     1.0  0.26494  0.18961  0.85392  1.0000
  C   C1436     1.0  0.26081  0.20874  0.85189  1.0000
  C   C1437     1.0  0.27315  0.21933  0.83971  1.0000
  H   H1729     1.0  0.30651  0.18497  0.82414  1.0000
  H   H1730     1.0  0.28473  0.16635  0.84545  1.0000
  H   H1731     1.0  0.47148  0.46198  0.70885  1.0000
  H   H1732     1.0  0.26980  0.23415  0.83790  1.0000
  C   C1438     1.0  0.23596  0.44641  0.64362  1.0000
  C   C1439     1.0  0.32049  0.02050  0.70378  1.0000
  C   C1440     1.0  0.33513  0.02291  0.71038  1.0000
  C   C1441     1.0  0.35317  0.01393  0.70435  1.0000
  C   C1442     1.0  0.27113  0.20971  0.79415  1.0000
  N   N99       1.0  0.30799  0.98342  0.75319  1.0000
  H   H1733     1.0  0.30656  0.02749  0.70850  1.0000
  H   H1734     1.0  0.33243  0.03171  0.72013  1.0000
  C   C1443     1.0  0.42480  0.97668  0.75136  1.0000
  C   C1444     1.0  0.47407  0.17663  0.81349  1.0000
  N   N100      1.0  0.33143  0.15231  0.71606  1.0000
  H   H1735     1.0  0.46782  0.43041  0.71032  1.0000
  H   H1736     1.0  0.36959  0.26191  0.72680  1.0000
  C   C1445     1.0  0.24083  0.22289  0.96203  1.0000
  C   C1446     1.0  0.48015  0.36706  0.88087  1.0000
  H   H1737     1.0  0.33198  0.15247  0.67896  1.0000
  S   S408      1.0  0.47546  0.26068  0.85720  1.0000
  H   H1738     1.0  0.31460  0.14448  0.77649  1.0000
  H   H1739     1.0  0.34520  0.22425  0.83785  1.0000
  H   H1740     1.0  0.25111  0.02215  0.89235  1.0000
  H   H1741     1.0  0.44963  0.32838  0.88755  1.0000
  H   H1742     1.0  0.43719  0.18824  0.80836  1.0000
  H   H1743     1.0  0.30332  0.18149  0.72333  1.0000
  H   H1744     1.0  0.34381  0.28120  0.63980  1.0000
  N   N101      1.0  0.42932  0.98925  0.73340  1.0000
  C   C1447     1.0  0.32173  0.16298  0.68493  1.0000
  H   H1745     1.0  0.33110  0.17271  0.73137  1.0000
  H   H1746     1.0  0.30956  0.15163  0.74031  1.0000
  C   C1448     1.0  0.47069  0.33638  0.82703  1.0000
  C   C1449     1.0  0.30557  0.17915  0.70956  1.0000
  C   C1450     1.0  0.47888  0.42439  0.71779  1.0000
  H   H1747     1.0  0.32831  0.13236  0.74156  1.0000
  H   H1748     1.0  0.31213  0.13421  0.72748  1.0000
  C   C1451     1.0  0.25084  0.43172  0.64116  1.0000
  C   C1452     1.0  0.34440  0.27607  0.68507  1.0000
  H   H1749     1.0  0.45756  0.34570  0.82955  1.0000
  C   C1453     1.0  0.41660  0.00725  0.73393  1.0000
  H   H1750     1.0  0.28698  0.20619  0.95751  1.0000
  H   H1751     1.0  0.45778  0.16136  0.80511  1.0000
  H   H1752     1.0  0.25386  0.99687  0.85676  1.0000
  C   C1454     1.0  0.34085  0.16333  0.72277  1.0000
  C   C1455     1.0  0.35653  0.00277  0.69144  1.0000
  H   H1753     1.0  0.34884  0.17198  0.71111  1.0000
  C   C1456     1.0  0.31728  0.22574  0.85295  1.0000
  H   H1754     1.0  0.31884  0.30515  0.65489  1.0000
  C   C1457     1.0  0.34593  0.13836  0.70741  1.0000
  C   C1458     1.0  0.47641  0.42595  0.73616  1.0000
  H   H1755     1.0  0.45764  0.20969  0.79549  1.0000
  H   H1756     1.0  0.37712  0.28775  0.70133  1.0000
  N   N102      1.0  0.45865  0.19037  0.82121  1.0000
  H   H1757     1.0  0.42143  0.23962  0.96394  1.0000
  H   H1758     1.0  0.35067  0.15462  0.73147  1.0000
  C   C1459     1.0  0.35793  0.28543  0.68599  1.0000
  C   C1460     1.0  0.42449  0.41099  0.64335  1.0000
  H   H1759     1.0  0.35556  0.14494  0.69557  1.0000
  C   C1461     1.0  0.29702  0.14267  0.80318  1.0000
  C   C1462     1.0  0.29138  0.98396  0.82567  1.0000
  H   H1760     1.0  0.40316  0.28614  0.90299  1.0000
  C   C1463     1.0  0.28198  0.15148  0.81449  1.0000
  H   H1761     1.0  0.33629  0.31037  0.66311  1.0000
  H   H1762     1.0  0.29502  0.17373  0.87519  1.0000
  H   H1763     1.0  0.26823  0.21953  0.75900  1.0000
  H   H1764     1.0  0.47219  0.19582  0.84047  1.0000
  H   H1765     1.0  0.43797  0.03118  0.82293  1.0000
  H   H1766     1.0  0.44012  0.05248  0.75903  1.0000
  N   N103      1.0  0.33559  0.28132  0.66884  1.0000
  C   C1464     1.0  0.47228  0.00162  0.73990  1.0000
  H   H1767     1.0  0.24620  0.18842  0.77809  1.0000
  C   C1465     1.0  0.36745  0.02440  0.64019  1.0000
  H   H1768     1.0  0.29153  0.99769  0.86236  1.0000
  C   C1466     1.0  0.24861  0.19821  0.78539  1.0000
  C   C1467     1.0  0.30259  0.15130  0.78502  1.0000
  H   H1769     1.0  0.25970  0.97616  0.94354  1.0000
  H   H1770     1.0  0.27400  0.19694  0.75416  1.0000
  Fe  Fe202     1.0  0.23812  0.19078  0.93160  1.0000
  H   H1771     1.0  0.29448  0.97462  0.73623  1.0000
  C   C1468     1.0  0.25905  0.98795  0.86903  1.0000
  H   H1772     1.0  0.42887  0.19689  0.82894  1.0000
  C   C1469     1.0  0.32638  0.30100  0.66643  1.0000
  H   H1773     1.0  0.30409  0.19954  0.91454  1.0000
  H   H1774     1.0  0.44484  0.00221  0.75496  1.0000
  H   H1775     1.0  0.29806  0.99751  0.72822  1.0000
  N   N104      1.0  0.38789  0.26614  0.92122  1.0000
  H   H1776     1.0  0.35779  0.26401  0.65388  1.0000
  N   N105      1.0  0.40492  0.08363  0.78951  1.0000
  C   C1470     1.0  0.39113  0.09684  0.79968  1.0000
  C   C1471     1.0  0.42237  0.09071  0.78311  1.0000
  C   C1472     1.0  0.39850  0.08325  0.77288  1.0000
  C   C1473     1.0  0.40691  0.06514  0.80159  1.0000
  C   C1474     1.0  0.42363  0.05574  0.80755  1.0000
  C   C1475     1.0  0.39169  0.05608  0.80802  1.0000
  C   C1476     1.0  0.42493  0.03833  0.81902  1.0000
  C   C1477     1.0  0.39323  0.03857  0.81929  1.0000
  C   C1478     1.0  0.40982  0.02972  0.82478  1.0000
  H   H1777     1.0  0.39531  0.09743  0.81239  1.0000
  H   H1778     1.0  0.38918  0.11103  0.79118  1.0000
  H   H1779     1.0  0.37732  0.09308  0.80399  1.0000
  H   H1780     1.0  0.42750  0.09245  0.79482  1.0000
  H   H1781     1.0  0.42048  0.10445  0.77376  1.0000
  H   H1782     1.0  0.43337  0.08134  0.77531  1.0000
  H   H1783     1.0  0.38491  0.07914  0.77618  1.0000
  H   H1784     1.0  0.39679  0.09698  0.76353  1.0000
  H   H1785     1.0  0.40844  0.07342  0.76489  1.0000
  H   H1786     1.0  0.43610  0.06124  0.80320  1.0000
  H   H1787     1.0  0.37848  0.06236  0.80424  1.0000
  C   C1479     1.0  0.25809  0.21219  0.95644  1.0000
  H   H1788     1.0  0.38164  0.03162  0.82342  1.0000
  S   S409      1.0  0.47100  0.42308  0.64669  1.0000
  H   H1789     1.0  0.41568  0.25190  0.91215  1.0000
  H   H1790     1.0  0.32975  0.98651  0.72907  1.0000
  C   C1480     1.0  0.46072  0.31990  0.87896  1.0000
  S   S410      1.0  0.27512  0.27799  0.65158  1.0000
  Fe  Fe203     1.0  0.31323  0.99098  0.66018  1.0000
  C   C1481     1.0  0.39376  0.26936  0.93705  1.0000
  H   H1791     1.0  0.41083  0.98012  0.72193  1.0000
  Fe  Fe204     1.0  0.47199  0.24028  0.84246  1.0000
  H   H1792     1.0  0.31501  0.27497  0.65779  1.0000
  C   C1482     1.0  0.48255  0.30462  0.77610  1.0000
  H   H1793     1.0  0.46601  0.36900  0.74530  1.0000
  C   C1483     1.0  0.46216  0.98756  0.71438  1.0000
  C   C1484     1.0  0.29860  0.17179  0.88883  1.0000
  C   C1485     1.0  0.36141  0.25881  0.91224  1.0000
  C   C1486     1.0  0.47133  0.16271  0.80576  1.0000
  C   C1487     1.0  0.36259  0.26591  0.71529  1.0000
  S   S411      1.0  0.30682  0.24014  0.64774  1.0000
  H   H1794     1.0  0.38662  0.44436  0.63708  1.0000
  C   C1488     1.0  0.41240  0.42799  0.64353  1.0000
  S   S412      1.0  0.33333  0.00129  0.63535  1.0000
  H   H1795     1.0  0.45637  0.30670  0.88051  1.0000
  H   H1796     1.0  0.42774  0.99089  0.70529  1.0000
  C   C1489     1.0  0.47838  0.37173  0.74854  1.0000
  H   H1797     1.0  0.27084  0.97749  0.86387  1.0000
  H   H1798     1.0  0.28849  0.19873  0.67065  1.0000
  H   H1799     1.0  0.42530  0.98240  0.76318  1.0000
  H   H1800     1.0  0.24178  0.19468  0.80008  1.0000
  C   C1490     1.0  0.32144  0.27053  0.67015  1.0000
  H   H1801     1.0  0.46234  0.34882  0.89655  1.0000
  H   H1802     1.0  0.36000  0.28766  0.64889  1.0000
  C   C1491     1.0  0.24809  0.01329  0.88444  1.0000
  C   C1492     1.0  0.36884  0.26270  0.92575  1.0000
  Fe  Fe205     1.0  0.28694  0.23091  0.63648  1.0000
  C   C1493     1.0  0.33913  0.26015  0.94702  1.0000
  H   H1803     1.0  0.46068  0.17665  0.84904  1.0000
  H   H1804     1.0  0.28458  0.01511  0.87600  1.0000
  H   H1805     1.0  0.47694  0.38691  0.74601  1.0000
  H   H1806     1.0  0.28843  0.16435  0.89919  1.0000
  S   S413      1.0  0.41725  0.44538  0.65189  1.0000
  C   C1494     1.0  0.29442  0.19119  0.69787  1.0000
  C   C1495     1.0  0.46466  0.37266  0.78013  1.0000
  C   C1496     1.0  0.34994  0.27845  0.65218  1.0000
  H   H1807     1.0  0.31229  0.16243  0.88858  1.0000
  H   H1808     1.0  0.31838  0.17784  0.91058  1.0000
  H   H1809     1.0  0.37892  0.29481  0.91017  1.0000
  H   H1810     1.0  0.37298  0.01866  0.65260  1.0000
  H   H1811     1.0  0.38511  0.28193  0.94184  1.0000
  S   S414      1.0  0.24676  0.16520  0.91978  1.0000
  N   N106      1.0  0.26432  0.99863  0.87988  1.0000
  H   H1812     1.0  0.26369  0.39410  0.64637  1.0000
  C   C1497     1.0  0.44008  0.18683  0.82226  1.0000
  H   H1813     1.0  0.26481  0.20591  0.80896  1.0000
  C   C1498     1.0  0.27893  0.19989  0.89556  1.0000
  H   H1814     1.0  0.27780  0.14481  0.82870  1.0000
  H   H1815     1.0  0.29871  0.17495  0.76412  1.0000
  N   N107      1.0  0.47897  0.31705  0.88387  1.0000
  C   C1499     1.0  0.31104  0.19964  0.87816  1.0000
  Fe  Fe206     1.0  0.47087  0.47311  0.65010  1.0000
  C   C1500     1.0  0.38924  0.28262  0.90627  1.0000
  C   C1501     1.0  0.45977  0.20883  0.80955  1.0000
  N   N108      1.0  0.29836  0.18972  0.89303  1.0000
  C   C1502     1.0  0.30779  0.00105  0.75800  1.0000
  C   C1503     1.0  0.45995  0.19061  0.84016  1.0000
  H   H1816     1.0  0.29452  0.00581  0.76716  1.0000
  H   H1817     1.0  0.43003  0.38454  0.63586  1.0000
  H   H1818     1.0  0.24798  0.21537  0.85947  1.0000
  C   C1504     1.0  0.32657  0.97694  0.74248  1.0000
  C   C1505     1.0  0.27054  0.98609  0.89628  1.0000
  H   H1819     1.0  0.47617  0.00719  0.74977  1.0000
  C   C1506     1.0  0.34940  0.25643  0.71483  1.0000
  C   C1507     1.0  0.47117  0.31764  0.82874  1.0000
  H   H1820     1.0  0.48385  0.40384  0.91661  1.0000
  S   S415      1.0  0.47331  0.03770  0.77302  1.0000
  H   H1821     1.0  0.35674  0.19416  0.85667  1.0000
  C   C1508     1.0  0.29329  0.16890  0.77813  1.0000
  C   C1509     1.0  0.26140  0.98761  0.91461  1.0000
  S   S416      1.0  0.29280  0.98953  0.64411  1.0000
  H   H1822     1.0  0.28037  0.99284  0.74787  1.0000
  H   H1823     1.0  0.26978  0.19199  0.90659  1.0000
  H   H1824     1.0  0.45539  0.34147  0.79215  1.0000
  H   H1825     1.0  0.46494  0.38758  0.77769  1.0000
  H   H1826     1.0  0.30463  0.12927  0.80860  1.0000
  H   H1827     1.0  0.36946  0.25822  0.89852  1.0000
  C   C1510     1.0  0.40114  0.25013  0.91487  1.0000
  H   H1828     1.0  0.40195  0.00608  0.73575  1.0000
  H   H1829     1.0  0.41049  0.97421  0.75404  1.0000
  H   H1830     1.0  0.46344  0.43331  0.74278  1.0000
  C   C1511     1.0  0.27816  0.17848  0.78947  1.0000
  H   H1831     1.0  0.39913  0.24794  0.90174  1.0000
  C   C1512     1.0  0.27568  0.20522  0.76343  1.0000
  H   H1832     1.0  0.41111  0.01595  0.83313  1.0000
  Fe  Fe207     1.0  0.48173  0.43249  0.66692  1.0000
  H   H1833     1.0  0.34584  0.04408  0.65274  1.0000
  H   H1834     1.0  0.36183  0.29664  0.67509  1.0000
  C   C1513     1.0  0.35709  0.26333  0.94333  1.0000
  H   H1835     1.0  0.26485  0.22436  0.78944  1.0000
  C   C1514     1.0  0.44863  0.99169  0.73010  1.0000
  H   H1836     1.0  0.30973  0.01217  0.74560  1.0000
  H   H1837     1.0  0.43841  0.17298  0.83055  1.0000
  C   C1515     1.0  0.33011  0.19171  0.87400  1.0000
  C   C1516     1.0  0.34342  0.25566  0.91610  1.0000
  H   H1838     1.0  0.31238  0.17385  0.65918  1.0000
  H   H1839     1.0  0.29494  0.17893  0.92224  1.0000
  H   H1840     1.0  0.46234  0.00408  0.79528  1.0000
  C   C1517     1.0  0.39613  0.43131  0.63680  1.0000
  H   H1841     1.0  0.35451  0.12928  0.71728  1.0000
  H   H1842     1.0  0.33777  0.97586  0.74979  1.0000
  C   C1518     1.0  0.46691  0.33420  0.78359  1.0000
  H   H1843     1.0  0.32754  0.25565  0.67102  1.0000
  S   S417      1.0  0.30499  0.00482  0.68455  1.0000
  C   C1519     1.0  0.45433  0.99870  0.74278  1.0000
  H   H1844     1.0  0.38690  0.28061  0.89321  1.0000
  H   H1845     1.0  0.33570  0.17846  0.88159  1.0000
  H   H1846     1.0  0.27325  0.20238  0.88300  1.0000
  H   H1847     1.0  0.28406  0.20243  0.70265  1.0000
  C   C1520     1.0  0.33230  0.25634  0.93346  1.0000
  H   H1848     1.0  0.27744  0.21320  0.89967  1.0000
  C   C1521     1.0  0.27358  0.21444  0.96181  1.0000
  C   C1522     1.0  0.32368  0.98140  0.82536  1.0000
  H   H1849     1.0  0.44780  0.19989  0.84680  1.0000
  H   H1850     1.0  0.31227  0.23869  0.84434  1.0000
  H   H1851     1.0  0.24951  0.99826  0.91772  1.0000
  C   C1523     1.0  0.34032  0.26143  0.70004  1.0000
  C   C1524     1.0  0.46793  0.31529  0.78611  1.0000
  H   H1852     1.0  0.40824  0.27146  0.93339  1.0000
  C   C1525     1.0  0.30430  0.18636  0.91078  1.0000
  H   H1853     1.0  0.27883  0.97865  0.83061  1.0000
  N   N109      1.0  0.48017  0.36295  0.76776  1.0000
  H   H1854     1.0  0.28606  0.20905  0.79329  1.0000
  C   C1526     1.0  0.47485  0.34998  0.88629  1.0000
  C   C1527     1.0  0.42552  0.98160  0.71904  1.0000
  H   H1855     1.0  0.33044  0.26071  0.96055  1.0000
  H   H1856     1.0  0.47187  0.37858  0.88691  1.0000
  H   H1857     1.0  0.47363  0.29634  0.90845  1.0000
  H   H1858     1.0  0.24374  0.02247  0.87186  1.0000
  H   H1859     1.0  0.46604  0.31921  0.91211  1.0000
  H   H1860     1.0  0.48338  0.28993  0.77839  1.0000
  H   H1861     1.0  0.47334  0.21254  0.80795  1.0000
  H   H1862     1.0  0.45103  0.37190  0.77790  1.0000
  H   H1863     1.0  0.47023  0.40269  0.94893  1.0000
  C   C1528     1.0  0.42055  0.39761  0.63607  1.0000
  H   H1864     1.0  0.23585  0.00737  0.89258  1.0000
  H   H1865     1.0  0.48392  0.13971  0.79239  1.0000
  C   C1529     1.0  0.30736  0.97454  0.83227  1.0000
  C   C1530     1.0  0.26714  0.97492  0.92971  1.0000
  H   H1866     1.0  0.33611  0.97413  0.83036  1.0000
  C   C1531     1.0  0.41052  0.47604  0.08511  1.0000
  S   S418      1.0  0.27411  0.63588  0.06637  1.0000
  H   H1867     1.0  0.43594  0.88102  0.22609  1.0000
  Fe  Fe208     1.0  0.39050  0.49239  0.26706  1.0000
  S   S419      1.0  0.25710  0.63194  0.03232  1.0000
  Fe  Fe209     1.0  0.25708  0.61797  0.06180  1.0000
  H   H1868     1.0  0.41717  0.50231  0.18547  1.0000
  Fe  Fe210     1.0  0.27142  0.65164  0.03777  1.0000
  H   H1869     1.0  0.41513  0.84226  0.99772  1.0000
  H   H1870     1.0  0.44345  0.65298  0.29014  1.0000
  Fe  Fe211     1.0  0.29726  0.72750  0.16342  1.0000
  S   S420      1.0  0.28981  0.75822  0.15967  1.0000
  S   S421      1.0  0.30643  0.70649  0.18764  1.0000
  Fe  Fe212     1.0  0.29251  0.72784  0.12491  1.0000
  S   S422      1.0  0.28466  0.75864  0.11788  1.0000
  S   S423      1.0  0.29860  0.71010  0.10376  1.0000
  Fe  Fe213     1.0  0.30756  0.75863  0.13139  1.0000
  S   S424      1.0  0.32930  0.77557  0.11629  1.0000
  Fe  Fe214     1.0  0.26750  0.75575  0.14652  1.0000
  H   H1871     1.0  0.28486  0.94063  0.10235  1.0000
  S   S425      1.0  0.31683  0.72804  0.13617  1.0000
  S   S426      1.0  0.27343  0.72486  0.15259  1.0000
  Fe  Fe215     1.0  0.34432  0.90453  0.12476  1.0000
  S   S427      1.0  0.36788  0.90813  0.10081  1.0000
  S   S428      1.0  0.32453  0.92720  0.13746  1.0000
  Fe  Fe216     1.0  0.35279  0.86294  0.12965  1.0000
  S   S429      1.0  0.37750  0.86272  0.10629  1.0000
  S   S430      1.0  0.34056  0.83938  0.14872  1.0000
  Fe  Fe217     1.0  0.38407  0.88433  0.11762  1.0000
  S   S431      1.0  0.41280  0.88565  0.11959  1.0000
  Fe  Fe218     1.0  0.35926  0.88656  0.09145  1.0000
  S   S432      1.0  0.35561  0.89165  0.06214  1.0000
  S   S433      1.0  0.36109  0.88224  0.14238  1.0000
  S   S434      1.0  0.33413  0.88520  0.11397  1.0000
  H   H1872     1.0  0.33242  0.75412  0.99041  1.0000
  C   C1532     1.0  0.43629  0.51231  0.19493  1.0000
  S   S435      1.0  0.37119  0.82459  0.02269  1.0000
  Fe  Fe219     1.0  0.43702  0.95744  0.16237  1.0000
  C   C1533     1.0  0.45437  0.50956  0.19751  1.0000
  S   S436      1.0  0.41211  0.94622  0.16314  1.0000
  C   C1534     1.0  0.25636  0.90091  0.12667  1.0000
  H   H1873     1.0  0.46307  0.90119  0.18162  1.0000
  H   H1874     1.0  0.30589  0.48691  0.28259  1.0000
  C   C1535     1.0  0.40982  0.89817  0.19081  1.0000
  Fe  Fe220     1.0  0.32530  0.51391  0.12435  1.0000
  S   S437      1.0  0.31025  0.50192  0.15230  1.0000
  S   S438      1.0  0.32401  0.54426  0.11276  1.0000
  H   H1875     1.0  0.29376  0.83149  0.12419  1.0000
  H   H1876     1.0  0.32365  0.72887  0.98172  1.0000
  H   H1877     1.0  0.36459  0.77683  0.28760  1.0000
  C   C1536     1.0  0.25264  0.72084  0.21069  1.0000
  C   C1537     1.0  0.43961  0.87845  0.18327  1.0000
  C   C1538     1.0  0.44429  0.48503  0.18214  1.0000
  N   N110      1.0  0.43901  0.59584  0.26309  1.0000
  C   C1539     1.0  0.45747  0.92327  0.08834  1.0000
  S   S439      1.0  0.35296  0.49597  0.12769  1.0000
  H   H1878     1.0  0.44568  0.82863  0.97905  1.0000
  H   H1879     1.0  0.39368  0.88702  0.03209  1.0000
  H   H1880     1.0  0.26398  0.62243  0.97804  1.0000
  Fe  Fe221     1.0  0.35103  0.69717  0.26734  1.0000
  S   S440      1.0  0.34082  0.67070  0.27515  1.0000
  S   S441      1.0  0.33812  0.72301  0.24953  1.0000
  C   C1540     1.0  0.43205  0.86991  0.17361  1.0000
  C   C1541     1.0  0.31841  0.73161  0.99548  1.0000
  Fe  Fe222     1.0  0.37072  0.65741  0.26860  1.0000
  S   S442      1.0  0.38138  0.63668  0.25023  1.0000
  H   H1881     1.0  0.38568  0.71864  0.27539  1.0000
  S   S443      1.0  0.38062  0.68407  0.25872  1.0000
  Fe  Fe223     1.0  0.39154  0.52024  0.23118  1.0000
  S   S444      1.0  0.37105  0.51844  0.25799  1.0000
  H   H1882     1.0  0.34349  0.79646  0.05462  1.0000
  Fe  Fe224     1.0  0.42439  0.50907  0.24980  1.0000
  H   H1883     1.0  0.44849  0.85671  0.00040  1.0000
  S   S445      1.0  0.45533  0.50272  0.24509  1.0000
  H   H1884     1.0  0.30418  0.62631  0.13759  1.0000
  Fe  Fe225     1.0  0.38918  0.53240  0.26669  1.0000
  S   S446      1.0  0.37780  0.55330  0.28494  1.0000
  H   H1885     1.0  0.42012  0.87054  0.07790  1.0000
  S   S447      1.0  0.40810  0.53656  0.23903  1.0000
  H   H1886     1.0  0.44292  0.48175  0.11150  1.0000
  C   C1542     1.0  0.41904  0.86585  0.02832  1.0000
  H   H1887     1.0  0.35960  0.48903  0.24162  1.0000
  C   C1543     1.0  0.40581  0.88003  0.05540  1.0000
  H   H1888     1.0  0.31070  0.79289  0.06128  1.0000
  C   C1544     1.0  0.37962  0.61374  0.26002  1.0000
  C   C1545     1.0  0.38461  0.60086  0.24862  1.0000
  C   C1546     1.0  0.38401  0.58230  0.25611  1.0000
  C   C1547     1.0  0.37841  0.57652  0.27507  1.0000
  C   C1548     1.0  0.37331  0.58942  0.28648  1.0000
  C   C1549     1.0  0.37394  0.60802  0.27898  1.0000
  H   H1889     1.0  0.38896  0.60527  0.23392  1.0000
  H   H1890     1.0  0.38774  0.57250  0.24720  1.0000
  C   C1550     1.0  0.30214  0.68119  0.98119  1.0000
  H   H1891     1.0  0.37031  0.61785  0.28786  1.0000
  H   H1892     1.0  0.40778  0.86924  0.16451  1.0000
  C   C1551     1.0  0.41347  0.87541  0.17257  1.0000
  H   H1893     1.0  0.28798  0.92362  0.13071  1.0000
  C   C1552     1.0  0.35952  0.48823  0.18587  1.0000
  H   H1894     1.0  0.26360  0.63410  0.11429  1.0000
  C   C1553     1.0  0.37764  0.49440  0.20484  1.0000
  C   C1554     1.0  0.37437  0.51306  0.19666  1.0000
  H   H1895     1.0  0.33613  0.60877  0.27486  1.0000
  H   H1896     1.0  0.29857  0.81152  0.10282  1.0000
  H   H1897     1.0  0.29907  0.54524  0.05876  1.0000
  H   H1898     1.0  0.38588  0.48950  0.21533  1.0000
  C   C1555     1.0  0.44612  0.88866  0.21604  1.0000
  H   H1899     1.0  0.28551  0.86696  0.14971  1.0000
  H   H1900     1.0  0.31253  0.50354  0.22909  1.0000
  C   C1556     1.0  0.35675  0.50677  0.17724  1.0000
  H   H1901     1.0  0.40336  0.87383  0.98793  1.0000
  S   S448      1.0  0.40962  0.49307  0.23953  1.0000
  C   C1557     1.0  0.33854  0.51396  0.06360  1.0000
  S   S449      1.0  0.44075  0.96138  0.18917  1.0000
  C   C1558     1.0  0.42399  0.91665  0.21065  1.0000
  H   H1902     1.0  0.37218  0.72545  0.25795  1.0000
  H   H1903     1.0  0.36066  0.77490  0.25838  1.0000
  H   H1904     1.0  0.31683  0.62280  0.10421  1.0000
  H   H1905     1.0  0.34929  0.81444  0.06165  1.0000
  H   H1906     1.0  0.25930  0.68066  0.00783  1.0000
  H   H1907     1.0  0.24233  0.66721  0.99180  1.0000
  H   H1908     1.0  0.42707  0.50582  0.12969  1.0000
  H   H1909     1.0  0.27554  0.93102  0.08863  1.0000
  C   C1559     1.0  0.37022  0.48202  0.19946  1.0000
  C   C1560     1.0  0.30802  0.80126  0.07196  1.0000
  Fe  Fe226     1.0  0.35024  0.81560  0.96917  1.0000
  H   H1910     1.0  0.26539  0.94891  0.13183  1.0000
  S   S450      1.0  0.40851  0.68637  0.29356  1.0000
  C   C1561     1.0  0.26991  0.68389  0.99594  1.0000
  H   H1911     1.0  0.29144  0.49190  0.04648  1.0000
  C   C1562     1.0  0.41299  0.93007  0.14994  1.0000
  C   C1563     1.0  0.42966  0.91928  0.14278  1.0000
  C   C1564     1.0  0.42958  0.90580  0.13326  1.0000
  C   C1565     1.0  0.41288  0.90315  0.13077  1.0000
  C   C1566     1.0  0.39630  0.91416  0.13768  1.0000
  C   C1567     1.0  0.39636  0.92747  0.14733  1.0000
  H   H1912     1.0  0.44255  0.92113  0.14476  1.0000
  H   H1913     1.0  0.44244  0.89728  0.12800  1.0000
  H   H1914     1.0  0.38336  0.91229  0.13582  1.0000
  H   H1915     1.0  0.38342  0.93569  0.15289  1.0000
  C   C1568     1.0  0.35967  0.87276  0.05162  1.0000
  C   C1569     1.0  0.35390  0.87526  0.03502  1.0000
  C   C1570     1.0  0.35728  0.86052  0.02607  1.0000
  C   C1571     1.0  0.36663  0.84326  0.03363  1.0000
  C   C1572     1.0  0.37245  0.84074  0.05021  1.0000
  C   C1573     1.0  0.36891  0.85545  0.05923  1.0000
  H   H1916     1.0  0.34673  0.88866  0.02910  1.0000
  H   H1917     1.0  0.35267  0.86254  0.01333  1.0000
  H   H1918     1.0  0.37972  0.82740  0.05610  1.0000
  H   H1919     1.0  0.37348  0.85343  0.07197  1.0000
  C   C1574     1.0  0.31512  0.94504  0.12112  1.0000
  C   C1575     1.0  0.32224  0.94574  0.10236  1.0000
  H   H1920     1.0  0.33584  0.50742  0.22170  1.0000
  H   H1921     1.0  0.35275  0.51322  0.06427  1.0000
  C   C1576     1.0  0.35587  0.74444  0.28391  1.0000
  C   C1577     1.0  0.29998  0.95839  0.12689  1.0000
  H   H1922     1.0  0.33381  0.93541  0.09782  1.0000
  C   C1578     1.0  0.27188  0.94054  0.09838  1.0000
  H   H1923     1.0  0.41525  0.65275  0.28021  1.0000
  H   H1924     1.0  0.29450  0.95787  0.14142  1.0000
  C   C1579     1.0  0.33179  0.79368  0.12523  1.0000
  C   C1580     1.0  0.34455  0.80473  0.11509  1.0000
  C   C1581     1.0  0.34682  0.81929  0.12183  1.0000
  C   C1582     1.0  0.33675  0.82248  0.13904  1.0000
  C   C1583     1.0  0.32406  0.81139  0.14923  1.0000
  C   C1584     1.0  0.32136  0.79721  0.14222  1.0000
  H   H1925     1.0  0.35278  0.80207  0.10201  1.0000
  H   H1926     1.0  0.35668  0.82774  0.11394  1.0000
  H   H1927     1.0  0.31626  0.81382  0.16256  1.0000
  H   H1928     1.0  0.31130  0.78901  0.15004  1.0000
  C   C1585     1.0  0.31511  0.71173  0.20455  1.0000
  C   C1586     1.0  0.31082  0.72938  0.20839  1.0000
  C   C1587     1.0  0.31799  0.73284  0.22216  1.0000
  C   C1588     1.0  0.32927  0.71862  0.23224  1.0000
  C   C1589     1.0  0.33355  0.70103  0.22832  1.0000
  C   C1590     1.0  0.32646  0.69761  0.21456  1.0000
  H   H1929     1.0  0.30174  0.74026  0.20100  1.0000
  H   H1930     1.0  0.31452  0.74646  0.22522  1.0000
  H   H1931     1.0  0.34242  0.69002  0.23581  1.0000
  H   H1932     1.0  0.32989  0.68396  0.21159  1.0000
  S   S451      1.0  0.23939  0.66723  0.09971  1.0000
  C   C1591     1.0  0.36420  0.51915  0.18262  1.0000
  H   H1933     1.0  0.24244  0.94439  0.13925  1.0000
  H   H1934     1.0  0.28256  0.63670  0.13119  1.0000
  H   H1935     1.0  0.32184  0.59818  0.13004  1.0000
  S   S452      1.0  0.29485  0.66229  0.01681  1.0000
  N   N111      1.0  0.24829  0.64997  0.97188  1.0000
  H   H1936     1.0  0.39498  0.88953  0.06245  1.0000
  C   C1592     1.0  0.30493  0.73871  0.03095  1.0000
  H   H1937     1.0  0.28967  0.71861  0.06512  1.0000
  C   C1593     1.0  0.27783  0.57505  0.08183  1.0000
  C   C1594     1.0  0.27732  0.55721  0.09216  1.0000
  C   C1595     1.0  0.29164  0.54744  0.10142  1.0000
  C   C1596     1.0  0.30662  0.55542  0.10017  1.0000
  C   C1597     1.0  0.30741  0.57300  0.08934  1.0000
  C   C1598     1.0  0.29299  0.58286  0.08028  1.0000
  H   H1938     1.0  0.26565  0.55107  0.09332  1.0000
  H   H1939     1.0  0.29093  0.53388  0.10976  1.0000
  H   H1940     1.0  0.31919  0.57902  0.08799  1.0000
  H   H1941     1.0  0.29365  0.59643  0.07201  1.0000
  C   C1599     1.0  0.25612  0.67827  0.10189  1.0000
  C   C1600     1.0  0.27428  0.67440  0.09222  1.0000
  C   C1601     1.0  0.28739  0.68373  0.09357  1.0000
  C   C1602     1.0  0.28234  0.69717  0.10435  1.0000
  C   C1603     1.0  0.26428  0.70074  0.11439  1.0000
  C   C1604     1.0  0.25121  0.69120  0.11324  1.0000
  H   H1942     1.0  0.27819  0.66434  0.08360  1.0000
  H   H1943     1.0  0.30141  0.68080  0.08598  1.0000
  H   H1944     1.0  0.26028  0.71112  0.12272  1.0000
  H   H1945     1.0  0.27095  0.73349  0.05473  1.0000
  S   S453      1.0  0.38278  0.52900  0.20375  1.0000
  C   C1605     1.0  0.42874  0.89289  0.19216  1.0000
  H   H1946     1.0  0.40768  0.96891  0.27838  1.0000
  C   C1606     1.0  0.27901  0.71918  0.05725  1.0000
  C   C1607     1.0  0.29817  0.69370  0.04436  1.0000
  C   C1608     1.0  0.28078  0.91278  0.13188  1.0000
  Fe  Fe227     1.0  0.36495  0.83099  0.99426  1.0000
  H   H1947     1.0  0.31324  0.58441  0.11989  1.0000
  H   H1948     1.0  0.26936  0.71054  0.06672  1.0000
  C   C1609     1.0  0.30480  0.82350  0.09795  1.0000
  C   C1610     1.0  0.41994  0.86929  0.06415  1.0000
  C   C1611     1.0  0.44055  0.61126  0.27067  1.0000
  H   H1949     1.0  0.24683  0.69776  0.23216  1.0000
  C   C1612     1.0  0.26472  0.91620  0.12441  1.0000
  C   C1613     1.0  0.29173  0.97222  0.11388  1.0000
  C   C1614     1.0  0.33944  0.80497  0.06534  1.0000
  C   C1615     1.0  0.27184  0.71168  0.03168  1.0000
  H   H1950     1.0  0.38183  0.48720  0.09471  1.0000
  C   C1616     1.0  0.29947  0.72422  0.02641  1.0000
  C   C1617     1.0  0.43368  0.85688  0.05526  1.0000
  C   C1618     1.0  0.30190  0.83492  0.11048  1.0000
  H   H1951     1.0  0.31078  0.60092  0.29882  1.0000
  S   S454      1.0  0.25935  0.58727  0.07104  1.0000
  C   C1619     1.0  0.40238  0.88942  0.18123  1.0000
  C   C1620     1.0  0.26499  0.69529  0.97977  1.0000
  H   H1952     1.0  0.40056  0.90944  0.19644  1.0000
  H   H1953     1.0  0.38808  0.89405  0.17982  1.0000
  N   N112      1.0  0.28729  0.71253  0.03978  1.0000
  H   H1954     1.0  0.34865  0.51164  0.16660  1.0000
  C   C1621     1.0  0.40527  0.87842  0.03778  1.0000
  H   H1955     1.0  0.43842  0.95426  0.28588  1.0000
  H   H1956     1.0  0.28933  0.68411  0.05351  1.0000
  C   C1622     1.0  0.32744  0.50452  0.25738  1.0000
  H   H1957     1.0  0.27712  0.49301  0.07872  1.0000
  H   H1958     1.0  0.35931  0.75730  0.24752  1.0000
  C   C1623     1.0  0.24548  0.73572  0.19810  1.0000
  H   H1959     1.0  0.45709  0.51926  0.20406  1.0000
  S   S455      1.0  0.46710  0.94668  0.15234  1.0000
  S   S456      1.0  0.37814  0.81014  0.97641  1.0000
  C   C1624     1.0  0.45815  0.53658  0.27671  1.0000
  H   H1960     1.0  0.27653  0.70394  0.02034  1.0000
  H   H1961     1.0  0.44414  0.84523  0.03135  1.0000
  H   H1962     1.0  0.41527  0.48763  0.08665  1.0000
  C   C1625     1.0  0.30676  0.72087  0.00832  1.0000
  C   C1626     1.0  0.25318  0.94814  0.12693  1.0000
  H   H1963     1.0  0.32057  0.76040  0.02163  1.0000
  C   C1627     1.0  0.42522  0.58579  0.27619  1.0000
  N   N113      1.0  0.33042  0.48895  0.24799  1.0000
  H   H1964     1.0  0.45040  0.93240  0.25549  1.0000
  H   H1965     1.0  0.40373  0.89061  0.00034  1.0000
  H   H1966     1.0  0.38965  0.87340  0.01048  1.0000
  H   H1967     1.0  0.43854  0.88081  0.99655  1.0000
  H   H1968     1.0  0.33137  0.54340  0.06048  1.0000
  N   N114      1.0  0.43731  0.90222  0.20163  1.0000
  C   C1628     1.0  0.40319  0.87593  0.00185  1.0000
  C   C1629     1.0  0.40402  0.74474  0.27913  1.0000
  H   H1969     1.0  0.41767  0.92797  0.20040  1.0000
  C   C1630     1.0  0.41500  0.75089  0.28752  1.0000
  C   C1631     1.0  0.31438  0.95988  0.08938  1.0000
  H   H1970     1.0  0.44238  0.61143  0.23530  1.0000
  H   H1971     1.0  0.45213  0.89542  0.22382  1.0000
  H   H1972     1.0  0.42331  0.57421  0.27095  1.0000
  C   C1632     1.0  0.30811  0.65127  0.26843  1.0000
  S   S457      1.0  0.33705  0.79189  0.97025  1.0000
  H   H1973     1.0  0.35896  0.73497  0.29684  1.0000
  Fe  Fe228     1.0  0.33739  0.48254  0.15455  1.0000
  H   H1974     1.0  0.25058  0.70077  0.97928  1.0000
  H   H1975     1.0  0.46847  0.60055  0.27654  1.0000
  C   C1633     1.0  0.43128  0.50012  0.18723  1.0000
  C   C1634     1.0  0.38957  0.77499  0.29603  1.0000
  H   H1976     1.0  0.39893  0.50144  0.15353  1.0000
  Fe  Fe229     1.0  0.34440  0.47653  0.11543  1.0000
  C   C1635     1.0  0.42554  0.62635  0.27253  1.0000
  C   C1636     1.0  0.42187  0.49329  0.13235  1.0000
  H   H1977     1.0  0.25729  0.87188  0.13726  1.0000
  H   H1978     1.0  0.30046  0.89311  0.14638  1.0000
  H   H1979     1.0  0.28917  0.61675  0.29805  1.0000
  H   H1980     1.0  0.34290  0.96619  0.13232  1.0000
  C   C1637     1.0  0.32718  0.64413  0.23973  1.0000
  N   N115      1.0  0.35393  0.74380  0.16465  1.0000
  C   C1638     1.0  0.33362  0.74845  0.16680  1.0000
  C   C1639     1.0  0.36126  0.73336  0.14957  1.0000
  C   C1640     1.0  0.35870  0.73141  0.18180  1.0000
  C   C1641     1.0  0.36099  0.76095  0.16115  1.0000
  C   C1642     1.0  0.35570  0.77208  0.17462  1.0000
  C   C1643     1.0  0.37241  0.76758  0.14423  1.0000
  C   C1644     1.0  0.36144  0.78877  0.17133  1.0000
  C   C1645     1.0  0.37820  0.78422  0.14118  1.0000
  C   C1646     1.0  0.37269  0.79480  0.15466  1.0000
  H   H1981     1.0  0.32768  0.73596  0.16934  1.0000
  H   H1982     1.0  0.32676  0.75555  0.17842  1.0000
  H   H1983     1.0  0.32959  0.75770  0.15416  1.0000
  H   H1984     1.0  0.35695  0.74143  0.13652  1.0000
  H   H1985     1.0  0.35582  0.72044  0.15281  1.0000
  H   H1986     1.0  0.37658  0.72939  0.14709  1.0000
  H   H1987     1.0  0.37385  0.72829  0.18112  1.0000
  H   H1988     1.0  0.35189  0.73732  0.19422  1.0000
  H   H1989     1.0  0.35407  0.71812  0.18441  1.0000
  H   H1990     1.0  0.34658  0.76824  0.18758  1.0000
  H   H1991     1.0  0.37662  0.76049  0.13290  1.0000
  H   H1992     1.0  0.35660  0.79747  0.18144  1.0000
  H   H1993     1.0  0.38641  0.78935  0.12799  1.0000
  H   H1994     1.0  0.37650  0.80810  0.15191  1.0000
  N   N116      1.0  0.29501  0.61043  0.12319  1.0000
  H   H1995     1.0  0.28753  0.51746  0.06198  1.0000
  H   H1996     1.0  0.28391  0.61721  0.14989  1.0000
  H   H1997     1.0  0.46807  0.95388  0.10732  1.0000
  C   C1647     1.0  0.27755  0.60569  0.12252  1.0000
  C   C1648     1.0  0.26262  0.61978  0.11753  1.0000
  C   C1649     1.0  0.27493  0.58727  0.12631  1.0000
  H   H1998     1.0  0.29073  0.48424  0.09615  1.0000
  H   H1999     1.0  0.24776  0.96236  0.11992  1.0000
  H   H2000     1.0  0.31998  0.96041  0.07486  1.0000
  H   H2001     1.0  0.46780  0.58925  0.25036  1.0000
  H   H2002     1.0  0.29430  0.63293  0.09963  1.0000
  C   C1650     1.0  0.45667  0.58246  0.25977  1.0000
  H   H2003     1.0  0.24523  0.62852  0.99643  1.0000
  H   H2004     1.0  0.45773  0.87840  0.21024  1.0000
  C   C1651     1.0  0.24059  0.93633  0.10774  1.0000
  C   C1652     1.0  0.32333  0.74581  0.00033  1.0000
  H   H2005     1.0  0.46985  0.62659  0.28833  1.0000
  H   H2006     1.0  0.47515  0.90887  0.06833  1.0000
  C   C1653     1.0  0.41708  0.84430  0.01093  1.0000
  H   H2007     1.0  0.28554  0.57554  0.12991  1.0000
  C   C1654     1.0  0.25606  0.63387  0.98508  1.0000
  H   H2008     1.0  0.41264  0.62680  0.26885  1.0000
  N   N117      1.0  0.41876  0.86343  0.00981  1.0000
  C   C1655     1.0  0.31662  0.74933  0.01799  1.0000
  C   C1656     1.0  0.25843  0.58339  0.12493  1.0000
  C   C1657     1.0  0.30897  0.59421  0.12943  1.0000
  C   C1658     1.0  0.42677  0.64122  0.27928  1.0000
  H   H2009     1.0  0.33129  0.49976  0.27113  1.0000
  H   H2010     1.0  0.30936  0.69355  0.05135  1.0000
  H   H2011     1.0  0.43080  0.92321  0.21784  1.0000
  S   S458      1.0  0.35368  0.69685  0.29602  1.0000
  C   C1659     1.0  0.47901  0.92306  0.25746  1.0000
  H   H2012     1.0  0.27210  0.66176  0.96889  1.0000
  C   C1660     1.0  0.37854  0.76918  0.28741  1.0000
  C   C1661     1.0  0.45164  0.91118  0.18806  1.0000
  C   C1662     1.0  0.43328  0.85514  0.03762  1.0000
  H   H2013     1.0  0.26151  0.70442  0.04197  1.0000
  H   H2014     1.0  0.35767  0.49564  0.29736  1.0000
  C   C1663     1.0  0.30180  0.51588  0.06267  1.0000
  H   H2015     1.0  0.42907  0.74362  0.28794  1.0000
  C   C1664     1.0  0.26383  0.88337  0.13571  1.0000
  C   C1665     1.0  0.47698  0.53259  0.27716  1.0000
  H   H2016     1.0  0.33611  0.51475  0.24943  1.0000
  C   C1666     1.0  0.29124  0.62318  0.13601  1.0000
  N   N118      1.0  0.32005  0.81506  0.06672  1.0000
  C   C1667     1.0  0.31760  0.82606  0.04822  1.0000
  C   C1668     1.0  0.31604  0.82722  0.08012  1.0000
  C   C1669     1.0  0.32420  0.84291  0.07583  1.0000
  C   C1670     1.0  0.32126  0.85420  0.08846  1.0000
  C   C1671     1.0  0.31017  0.85018  0.10578  1.0000
  H   H2017     1.0  0.34165  0.79567  0.07863  1.0000
  H   H2018     1.0  0.29315  0.80799  0.07402  1.0000
  H   H2019     1.0  0.32838  0.83446  0.04171  1.0000
  H   H2020     1.0  0.31882  0.81721  0.03830  1.0000
  H   H2021     1.0  0.30387  0.83548  0.04896  1.0000
  H   H2022     1.0  0.33325  0.84641  0.06279  1.0000
  H   H2023     1.0  0.32792  0.86595  0.08487  1.0000
  H   H2024     1.0  0.30838  0.85863  0.11574  1.0000
  Fe  Fe230     1.0  0.47095  0.95303  0.17812  1.0000
  C   C1672     1.0  0.39911  0.47483  0.14888  1.0000
  C   C1673     1.0  0.28848  0.67672  0.99667  1.0000
  C   C1674     1.0  0.29899  0.97296  0.09511  1.0000
  H   H2025     1.0  0.26450  0.72570  0.02620  1.0000
  C   C1675     1.0  0.30832  0.53194  0.06061  1.0000
  C   C1676     1.0  0.43614  0.86699  0.99685  1.0000
  H   H2026     1.0  0.36180  0.53355  0.17609  1.0000
  C   C1677     1.0  0.45655  0.61163  0.27684  1.0000
  H   H2027     1.0  0.31283  0.51202  0.25905  1.0000
  H   H2028     1.0  0.33101  0.48648  0.22020  1.0000
  H   H2029     1.0  0.25434  0.74476  0.18900  1.0000
  C   C1678     1.0  0.32656  0.53096  0.06141  1.0000
  S   S459      1.0  0.40694  0.50595  0.27816  1.0000
  H   H2030     1.0  0.31057  0.79117  0.08478  1.0000
  C   C1679     1.0  0.45147  0.52781  0.26644  1.0000
  C   C1680     1.0  0.48243  0.51102  0.25712  1.0000
  C   C1681     1.0  0.45516  0.93605  0.09925  1.0000
  C   C1682     1.0  0.46361  0.51490  0.25677  1.0000
  C   C1683     1.0  0.45331  0.96891  0.26117  1.0000
  H   H2031     1.0  0.43595  0.86641  0.98252  1.0000
  H   H2032     1.0  0.25693  0.56923  0.12735  1.0000
  H   H2033     1.0  0.26713  0.71822  0.21134  1.0000
  C   C1684     1.0  0.33222  0.49782  0.06551  1.0000
  H   H2034     1.0  0.43688  0.53077  0.26633  1.0000
  C   C1685     1.0  0.45753  0.62653  0.28377  1.0000
  H   H2035     1.0  0.24298  0.92731  0.09771  1.0000
  C   C1686     1.0  0.40606  0.49082  0.14573  1.0000
  H   H2036     1.0  0.30483  0.68774  0.03193  1.0000
  C   C1687     1.0  0.46798  0.93288  0.22860  1.0000
  H   H2037     1.0  0.45417  0.87396  0.18334  1.0000
  H   H2038     1.0  0.44550  0.92105  0.17679  1.0000
  H   H2039     1.0  0.41278  0.91086  0.22111  1.0000
  H   H2040     1.0  0.30363  0.70978  0.00400  1.0000
  C   C1688     1.0  0.28809  0.89525  0.14091  1.0000
  H   H2041     1.0  0.30044  0.74206  0.04445  1.0000
  H   H2042     1.0  0.31654  0.67569  0.98169  1.0000
  Fe  Fe231     1.0  0.38259  0.68146  0.28800  1.0000
  C   C1689     1.0  0.30325  0.61966  0.10456  1.0000
  C   C1690     1.0  0.43082  0.47972  0.12220  1.0000
  H   H2043     1.0  0.41044  0.73267  0.27333  1.0000
  H   H2044     1.0  0.40498  0.84063  0.02163  1.0000
  S   S460      1.0  0.24547  0.67112  0.04688  1.0000
  N   N119      1.0  0.25759  0.93489  0.11454  1.0000
  H   H2045     1.0  0.34707  0.75737  0.28763  1.0000
  C   C1691     1.0  0.38531  0.75363  0.27900  1.0000
  H   H2046     1.0  0.44024  0.47545  0.17638  1.0000
  C   C1692     1.0  0.33504  0.62713  0.24916  1.0000
  H   H2047     1.0  0.44192  0.93983  0.10811  1.0000
  S   S461      1.0  0.31801  0.49550  0.10992  1.0000
  S   S462      1.0  0.37247  0.85490  0.97226  1.0000
  C   C1693     1.0  0.47440  0.91869  0.07652  1.0000
  H   H2048     1.0  0.34225  0.48516  0.06742  1.0000
  H   H2049     1.0  0.30366  0.58666  0.14343  1.0000
  H   H2050     1.0  0.44867  0.54609  0.28467  1.0000
  C   C1694     1.0  0.46986  0.94397  0.09876  1.0000
  H   H2051     1.0  0.41881  0.61155  0.24662  1.0000
  N   N120      1.0  0.37315  0.74742  0.27045  1.0000
  H   H2052     1.0  0.44598  0.91696  0.08906  1.0000
  Fe  Fe232     1.0  0.30529  0.48177  0.13796  1.0000
  H   H2053     1.0  0.44462  0.84849  0.06216  1.0000
  C   C1695     1.0  0.30190  0.47996  0.05147  1.0000
  H   H2054     1.0  0.26557  0.63741  0.99197  1.0000
  C   C1696     1.0  0.46445  0.92963  0.24791  1.0000
  C   C1697     1.0  0.43291  0.60292  0.24524  1.0000
  C   C1698     1.0  0.24118  0.70929  0.22234  1.0000
  C   C1699     1.0  0.38176  0.72999  0.26391  1.0000
  H   H2055     1.0  0.24407  0.90212  0.12157  1.0000
  C   C1700     1.0  0.44271  0.64136  0.28486  1.0000
  C   C1701     1.0  0.27968  0.88055  0.14278  1.0000
  H   H2056     1.0  0.30540  0.61089  0.09434  1.0000
  H   H2057     1.0  0.29777  0.66135  0.27496  1.0000
  C   C1702     1.0  0.46811  0.49446  0.19219  1.0000
  H   H2058     1.0  0.45815  0.91884  0.19444  1.0000
  H   H2059     1.0  0.43227  0.59157  0.23890  1.0000
  S   S463      1.0  0.33658  0.83474  0.98879  1.0000
  C   C1703     1.0  0.40773  0.76580  0.29616  1.0000
  H   H2060     1.0  0.45669  0.93816  0.22140  1.0000
  H   H2061     1.0  0.42946  0.83407  0.01442  1.0000
  H   H2062     1.0  0.23505  0.62683  0.11233  1.0000
  H   H2063     1.0  0.42595  0.52382  0.19920  1.0000
  H   H2064     1.0  0.41143  0.59485  0.27883  1.0000
  H   H2065     1.0  0.34706  0.73839  0.27836  1.0000
  H   H2066     1.0  0.26730  0.95471  0.09070  1.0000
  C   C1704     1.0  0.24414  0.59757  0.11979  1.0000
  H   H2067     1.0  0.39424  0.73140  0.25287  1.0000
  C   C1705     1.0  0.31339  0.49825  0.06585  1.0000
  C   C1706     1.0  0.32727  0.49690  0.22900  1.0000
  H   H2068     1.0  0.30758  0.66935  0.24191  1.0000
  S   S464      1.0  0.37527  0.65353  0.29718  1.0000
  C   C1707     1.0  0.30670  0.47642  0.27514  1.0000
  H   H2069     1.0  0.38093  0.76446  0.24403  1.0000
  H   H2070     1.0  0.46138  0.57527  0.27282  1.0000
  H   H2071     1.0  0.33168  0.64808  0.22497  1.0000
  N   N121      1.0  0.31137  0.62893  0.29886  1.0000
  S   S465      1.0  0.23987  0.77387  0.15417  1.0000
  H   H2072     1.0  0.45530  0.57145  0.25337  1.0000
  Fe  Fe233     1.0  0.24684  0.65399  0.07502  1.0000
  C   C1708     1.0  0.43730  0.96440  0.27325  1.0000
  H   H2073     1.0  0.42941  0.57999  0.28972  1.0000
  C   C1709     1.0  0.36831  0.76167  0.25441  1.0000
  C   C1710     1.0  0.34992  0.47932  0.24704  1.0000
  H   H2074     1.0  0.23718  0.69418  0.12081  1.0000
  H   H2075     1.0  0.44069  0.85930  0.16646  1.0000
  H   H2076     1.0  0.45109  0.49527  0.29284  1.0000
  H   H2077     1.0  0.34570  0.61789  0.24168  1.0000
  C   C1711     1.0  0.31629  0.63424  0.27855  1.0000
  C   C1712     1.0  0.31362  0.65609  0.24932  1.0000
  H   H2078     1.0  0.48368  0.50886  0.21393  1.0000
  C   C1713     1.0  0.32958  0.62213  0.26824  1.0000
  C   C1714     1.0  0.46240  0.48211  0.18470  1.0000
  H   H2079     1.0  0.46617  0.96187  0.26536  1.0000
  C   C1715     1.0  0.24617  0.61574  0.11628  1.0000
  S   S466      1.0  0.47427  0.92060  0.28156  1.0000
  H   H2080     1.0  0.48007  0.47675  0.22293  1.0000
  C   C1716     1.0  0.39158  0.47578  0.08974  1.0000
  C   C1717     1.0  0.31831  0.47560  0.25754  1.0000
  H   H2081     1.0  0.31458  0.47946  0.04045  1.0000
  N   N122      1.0  0.30596  0.48136  0.06891  1.0000
  C   C1718     1.0  0.28860  0.48202  0.08308  1.0000
  H   H2082     1.0  0.46934  0.96896  0.21326  1.0000
  C   C1719     1.0  0.42003  0.97252  0.26898  1.0000
  H   H2083     1.0  0.23565  0.95060  0.10051  1.0000
  H   H2084     1.0  0.41885  0.82542  0.96808  1.0000
  C   C1720     1.0  0.23554  0.66350  0.98237  1.0000
  C   C1721     1.0  0.35063  0.48422  0.30084  1.0000
  C   C1722     1.0  0.48417  0.88444  0.39982  1.0000
  S   S467      1.0  0.28743  0.74923  0.47253  1.0000
  C   C1723     1.0  0.38890  0.71041  0.31621  1.0000
  H   H2085     1.0  0.25004  0.49411  0.46136  1.0000
  S   S468      1.0  0.25606  0.85926  0.58124  1.0000
  H   H2086     1.0  0.38659  0.95201  0.56975  1.0000
  H   H2087     1.0  0.45092  0.69036  0.56772  1.0000
  C   C1724     1.0  0.47422  0.76637  0.53893  1.0000
  S   S469      1.0  0.42557  0.94076  0.55826  1.0000
  C   C1725     1.0  0.29753  0.66616  0.35575  1.0000
  H   H2088     1.0  0.32570  0.50343  0.59062  1.0000
  S   S470      1.0  0.24926  0.55644  0.59554  1.0000
  Fe  Fe234     1.0  0.27209  0.78605  0.52290  1.0000
  S   S471      1.0  0.28571  0.76890  0.54600  1.0000
  S   S472      1.0  0.25243  0.81328  0.52460  1.0000
  Fe  Fe235     1.0  0.28479  0.75552  0.50055  1.0000
  S   S473      1.0  0.29872  0.73582  0.52239  1.0000
  H   H2089     1.0  0.26855  0.64352  0.60063  1.0000
  Fe  Fe236     1.0  0.27375  0.74643  0.54244  1.0000
  Fe  Fe237     1.0  0.30936  0.76010  0.52396  1.0000
  S   S474      1.0  0.33895  0.75441  0.52718  1.0000
  S   S475      1.0  0.29696  0.77934  0.50089  1.0000
  Fe  Fe238     1.0  0.44455  0.83519  0.48660  1.0000
  S   S476      1.0  0.42501  0.82224  0.51046  1.0000
  S   S477      1.0  0.44749  0.86458  0.48279  1.0000
  Fe  Fe239     1.0  0.45436  0.80198  0.46849  1.0000
  S   S478      1.0  0.43592  0.78589  0.49112  1.0000
  H   H2090     1.0  0.44189  0.90603  0.54488  1.0000
  Fe  Fe240     1.0  0.41534  0.81258  0.48987  1.0000
  S   S479      1.0  0.38511  0.81699  0.48886  1.0000
  Fe  Fe241     1.0  0.44717  0.79673  0.50990  1.0000
  S   S480      1.0  0.45304  0.78167  0.53776  1.0000
  S   S481      1.0  0.43303  0.82788  0.46589  1.0000
  S   S482      1.0  0.46753  0.81045  0.48744  1.0000
  S   S483      1.0  0.26629  0.71233  0.37244  1.0000
  C   C1726     1.0  0.45346  0.69960  0.57554  1.0000
  C   C1727     1.0  0.23935  0.84111  0.54381  1.0000
  N   N123      1.0  0.32397  0.72272  0.58088  1.0000
  C   C1728     1.0  0.46795  0.81518  0.33380  1.0000
  H   H2091     1.0  0.26018  0.62485  0.61694  1.0000
  H   H2092     1.0  0.47069  0.70748  0.59788  1.0000
  H   H2093     1.0  0.25797  0.68899  0.55145  1.0000
  C   C1729     1.0  0.33913  0.75037  0.47943  1.0000
  H   H2094     1.0  0.24484  0.77316  0.55883  1.0000
  S   S484      1.0  0.44228  0.74023  0.41046  1.0000
  C   C1730     1.0  0.44624  0.86923  0.55390  1.0000
  H   H2095     1.0  0.29537  0.73567  0.58079  1.0000
  C   C1731     1.0  0.32040  0.93158  0.59240  1.0000
  H   H2096     1.0  0.25000  0.67753  0.52757  1.0000
  S   S485      1.0  0.42649  0.76596  0.36634  1.0000
  H   H2097     1.0  0.45451  0.84275  0.32335  1.0000
  H   H2098     1.0  0.31273  0.48784  0.60760  1.0000
  C   C1732     1.0  0.28276  0.69714  0.35990  1.0000
  C   C1733     1.0  0.28377  0.67816  0.36540  1.0000
  C   C1734     1.0  0.30905  0.69206  0.33484  1.0000
  C   C1735     1.0  0.29541  0.70407  0.34462  1.0000
  H   H2099     1.0  0.27400  0.67270  0.37712  1.0000
  H   H2100     1.0  0.31872  0.69752  0.32307  1.0000
  H   H2101     1.0  0.29466  0.71875  0.34033  1.0000
  C   C1736     1.0  0.32833  0.62330  0.30671  1.0000
  C   C1737     1.0  0.34958  0.71237  0.59935  1.0000
  C   C1738     1.0  0.26104  0.63231  0.60238  1.0000
  H   H2102     1.0  0.29834  0.65148  0.36018  1.0000
  H   H2103     1.0  0.37402  0.73018  0.33306  1.0000
  H   H2104     1.0  0.27325  0.57649  0.60169  1.0000
  H   H2105     1.0  0.25362  0.96558  0.60719  1.0000
  C   C1739     1.0  0.25783  0.70884  0.48442  1.0000
  C   C1740     1.0  0.26707  0.72182  0.48629  1.0000
  C   C1741     1.0  0.25778  0.47857  0.43105  1.0000
  H   H2106     1.0  0.26816  0.72279  0.49980  1.0000
  C   C1742     1.0  0.35152  0.77211  0.51717  1.0000
  C   C1743     1.0  0.34290  0.78964  0.50932  1.0000
  C   C1744     1.0  0.35334  0.80336  0.50091  1.0000
  C   C1745     1.0  0.37238  0.79970  0.50044  1.0000
  C   C1746     1.0  0.38096  0.78222  0.50845  1.0000
  C   C1747     1.0  0.37053  0.76846  0.51678  1.0000
  H   H2107     1.0  0.32822  0.79265  0.50970  1.0000
  H   H2108     1.0  0.34663  0.81687  0.49476  1.0000
  H   H2109     1.0  0.39564  0.77926  0.50808  1.0000
  H   H2110     1.0  0.37729  0.75492  0.52280  1.0000
  H   H2111     1.0  0.28832  0.70595  0.55355  1.0000
  C   C1748     1.0  0.45153  0.75402  0.41955  1.0000
  H   H2112     1.0  0.37066  0.70180  0.61567  1.0000
  H   H2113     1.0  0.34113  0.71440  0.55628  1.0000
  N   N124      1.0  0.47332  0.70037  0.57156  1.0000
  C   C1749     1.0  0.44968  0.76936  0.44435  1.0000
  C   C1750     1.0  0.44384  0.75692  0.43745  1.0000
  C   C1751     1.0  0.26846  0.71028  0.57829  1.0000
  H   H2114     1.0  0.32055  0.75117  0.56673  1.0000
  H   H2115     1.0  0.44332  0.77185  0.45797  1.0000
  H   H2116     1.0  0.43307  0.74980  0.44586  1.0000
  C   C1752     1.0  0.31019  0.67307  0.34047  1.0000
  N   N125      1.0  0.42906  0.88287  0.55845  1.0000
  C   C1753     1.0  0.40995  0.89948  0.58351  1.0000
  H   H2117     1.0  0.47155  0.67685  0.60527  1.0000
  H   H2118     1.0  0.41804  0.90089  0.62471  1.0000
  C   C1754     1.0  0.28367  0.70044  0.56795  1.0000
  S   S486      1.0  0.45004  0.75680  0.32685  1.0000
  C   C1755     1.0  0.35533  0.68131  0.61718  1.0000
  C   C1756     1.0  0.42072  0.71685  0.32341  1.0000
  C   C1757     1.0  0.25480  0.84692  0.56524  1.0000
  C   C1758     1.0  0.26949  0.83251  0.56094  1.0000
  C   C1759     1.0  0.26898  0.82219  0.54837  1.0000
  C   C1760     1.0  0.25391  0.82647  0.53977  1.0000
  H   H2119     1.0  0.39490  0.91404  0.60515  1.0000
  C   C1761     1.0  0.47529  0.85433  0.50240  1.0000
  H   H2120     1.0  0.28126  0.82922  0.56746  1.0000
  H   H2121     1.0  0.28032  0.81105  0.54523  1.0000
  C   C1762     1.0  0.30184  0.61320  0.30394  1.0000
  C   C1763     1.0  0.41223  0.94668  0.57894  1.0000
  H   H2122     1.0  0.45968  0.69011  0.32832  1.0000
  H   H2123     1.0  0.26981  0.62270  0.59344  1.0000
  H   H2124     1.0  0.27948  0.74094  0.44110  1.0000
  C   C1764     1.0  0.42044  0.94616  0.59347  1.0000
  C   C1765     1.0  0.23968  0.85120  0.55669  1.0000
  H   H2125     1.0  0.48360  0.82455  0.54855  1.0000
  C   C1766     1.0  0.46378  0.77838  0.43365  1.0000
  C   C1767     1.0  0.39298  0.95165  0.58098  1.0000
  C   C1768     1.0  0.42216  0.70464  0.31194  1.0000
  C   C1769     1.0  0.25190  0.93714  0.61821  1.0000
  C   C1770     1.0  0.47606  0.71211  0.58298  1.0000
  C   C1771     1.0  0.46708  0.83411  0.32713  1.0000
  C   C1772     1.0  0.27503  0.73335  0.47068  1.0000
  H   H2126     1.0  0.47102  0.76527  0.56786  1.0000
  H   H2127     1.0  0.23557  0.81603  0.57851  1.0000
  H   H2128     1.0  0.26132  0.48108  0.60249  1.0000
  H   H2129     1.0  0.33052  0.78373  0.44224  1.0000
  S   S487      1.0  0.47455  0.94924  0.56190  1.0000
  C   C1773     1.0  0.24719  0.56794  0.61342  1.0000
  S   S488      1.0  0.32751  0.65757  0.32902  1.0000
  C   C1774     1.0  0.25298  0.67621  0.55507  1.0000
  Fe  Fe242     1.0  0.24761  0.69831  0.39669  1.0000
  C   C1775     1.0  0.38196  0.95612  0.59749  1.0000
  H   H2130     1.0  0.27390  0.50684  0.41275  1.0000
  C   C1776     1.0  0.48362  0.87513  0.51688  1.0000
  H   H2131     1.0  0.31831  0.72650  0.55385  1.0000
  H   H2132     1.0  0.45876  0.87443  0.55355  1.0000
  H   H2133     1.0  0.25179  0.69990  0.49653  1.0000
  C   C1777     1.0  0.40701  0.90408  0.60068  1.0000
  C   C1778     1.0  0.24851  0.66978  0.54162  1.0000
  C   C1779     1.0  0.40941  0.95070  0.60996  1.0000
  N   N126      1.0  0.24250  0.63937  0.59779  1.0000
  H   H2134     1.0  0.25511  0.67165  0.58299  1.0000
  C   C1780     1.0  0.24083  0.49960  0.45129  1.0000
  C   C1781     1.0  0.24225  0.65330  0.54622  1.0000
  H   H2135     1.0  0.32585  0.49848  0.31611  1.0000
  C   C1782     1.0  0.25901  0.92085  0.62941  1.0000
  H   H2136     1.0  0.30463  0.67571  0.56819  1.0000
  S   S489      1.0  0.25879  0.76398  0.52047  1.0000
  C   C1783     1.0  0.30497  0.52069  0.61952  1.0000
  H   H2137     1.0  0.32512  0.62114  0.32201  1.0000
  S   S490      1.0  0.25502  0.48148  0.56675  1.0000
  C   C1784     1.0  0.29835  0.53263  0.58899  1.0000
  H   H2138     1.0  0.47560  0.47728  0.33204  1.0000
  H   H2139     1.0  0.47318  0.89131  0.42653  1.0000
  Fe  Fe243     1.0  0.44783  0.74486  0.37951  1.0000
  H   H2140     1.0  0.45454  0.63398  0.33714  1.0000
  H   H2141     1.0  0.44622  0.85590  0.56386  1.0000
  Fe  Fe244     1.0  0.42801  0.74575  0.34921  1.0000
  H   H2142     1.0  0.44626  0.87896  0.61433  1.0000
  C   C1785     1.0  0.47968  0.76025  0.55592  1.0000
  C   C1786     1.0  0.29286  0.68333  0.57623  1.0000
  H   H2143     1.0  0.33853  0.75981  0.48852  1.0000
  H   H2144     1.0  0.29710  0.95331  0.58803  1.0000
  H   H2145     1.0  0.30654  0.49747  0.58573  1.0000
  S   S491      1.0  0.47093  0.79459  0.44158  1.0000
  H   H2146     1.0  0.39808  0.82359  0.37206  1.0000
  H   H2147     1.0  0.25055  0.71048  0.60493  1.0000
  H   H2148     1.0  0.43529  0.94224  0.59201  1.0000
  H   H2149     1.0  0.46880  0.72662  0.57930  1.0000
  H   H2150     1.0  0.46339  0.84910  0.37831  1.0000
  H   H2151     1.0  0.47222  0.76027  0.39535  1.0000
  C   C1787     1.0  0.32640  0.71636  0.56352  1.0000
  H   H2152     1.0  0.27172  0.59240  0.62662  1.0000
  C   C1788     1.0  0.25623  0.70745  0.46699  1.0000
  H   H2153     1.0  0.28018  0.49998  0.62262  1.0000
  H   H2154     1.0  0.47022  0.72388  0.54912  1.0000
  H   H2155     1.0  0.47750  0.84091  0.49923  1.0000
  H   H2156     1.0  0.46739  0.49977  0.30360  1.0000
  H   H2157     1.0  0.45171  0.87015  0.58495  1.0000
  C   C1789     1.0  0.24444  0.64957  0.57846  1.0000
  C   C1790     1.0  0.30296  0.93885  0.58828  1.0000
  H   H2158     1.0  0.48339  0.78124  0.40794  1.0000
  H   H2159     1.0  0.27144  0.91603  0.56676  1.0000
  H   H2160     1.0  0.32595  0.74309  0.45384  1.0000
  C   C1791     1.0  0.27351  0.73193  0.45321  1.0000
  H   H2161     1.0  0.27819  0.96486  0.62355  1.0000
  C   C1792     1.0  0.26599  0.50813  0.42686  1.0000
  C   C1793     1.0  0.45910  0.88597  0.49950  1.0000
  C   C1794     1.0  0.32817  0.77625  0.45681  1.0000
  H   H2162     1.0  0.29867  0.71255  0.59307  1.0000
  H   H2163     1.0  0.41584  0.95044  0.62113  1.0000
  H   H2164     1.0  0.36716  0.95996  0.59892  1.0000
  C   C1795     1.0  0.45513  0.66265  0.33235  1.0000
  H   H2165     1.0  0.33783  0.66367  0.61605  1.0000
  C   C1796     1.0  0.26140  0.57682  0.61292  1.0000
  C   C1797     1.0  0.32791  0.91299  0.59301  1.0000
  H   H2166     1.0  0.44420  0.49871  0.31582  1.0000
  C   C1798     1.0  0.28039  0.51190  0.61084  1.0000
  C   C1799     1.0  0.27297  0.95256  0.62509  1.0000
  C   C1800     1.0  0.29902  0.64400  0.30768  1.0000
  H   H2167     1.0  0.26722  0.68048  0.61972  1.0000
  C   C1801     1.0  0.30412  0.72537  0.58981  1.0000
  C   C1802     1.0  0.35955  0.69878  0.61116  1.0000
  S   S492      1.0  0.37695  0.96257  0.63238  1.0000
  C   C1803     1.0  0.25112  0.66624  0.57318  1.0000
  H   H2168     1.0  0.30172  0.73007  0.60296  1.0000
  N   N127      1.0  0.25051  0.49814  0.43219  1.0000
  Fe  Fe245     1.0  0.45644  0.93325  0.55617  1.0000
  S   S493      1.0  0.47282  0.93117  0.52786  1.0000
  C   C1804     1.0  0.31160  0.50064  0.59680  1.0000
  S   S494      1.0  0.29960  0.65532  0.60508  1.0000
  H   H2169     1.0  0.43303  0.71939  0.32609  1.0000
  H   H2170     1.0  0.32570  0.74568  0.48386  1.0000
  N   N128      1.0  0.28940  0.89584  0.58306  1.0000
  C   C1805     1.0  0.29953  0.88713  0.56721  1.0000
  C   C1806     1.0  0.28699  0.88123  0.59982  1.0000
  C   C1807     1.0  0.27074  0.90511  0.57944  1.0000
  C   C1808     1.0  0.29996  0.90844  0.58575  1.0000
  C   C1809     1.0  0.29277  0.92753  0.58507  1.0000
  C   C1810     1.0  0.31794  0.90157  0.58964  1.0000
  H   H2171     1.0  0.41566  0.87132  0.54359  1.0000
  H   H2172     1.0  0.23859  0.66261  0.61066  1.0000
  C   C1811     1.0  0.33493  0.70874  0.59328  1.0000
  H   H2173     1.0  0.31309  0.87846  0.56944  1.0000
  H   H2174     1.0  0.29160  0.87793  0.56460  1.0000
  H   H2175     1.0  0.30207  0.89770  0.55443  1.0000
  H   H2176     1.0  0.30029  0.87232  0.60254  1.0000
  H   H2177     1.0  0.27845  0.87188  0.59865  1.0000
  H   H2178     1.0  0.28009  0.88729  0.61218  1.0000
  H   H2179     1.0  0.26203  0.91128  0.59119  1.0000
  H   H2180     1.0  0.37661  0.70782  0.31371  1.0000
  H   H2181     1.0  0.26316  0.89533  0.57742  1.0000
  H   H2182     1.0  0.27915  0.93406  0.58246  1.0000
  H   H2183     1.0  0.32430  0.88722  0.59040  1.0000
  Fe  Fe246     1.0  0.23807  0.68987  0.43843  1.0000
  H   H2184     1.0  0.28827  0.54479  0.59317  1.0000
  S   S495      1.0  0.44824  0.80596  0.33655  1.0000
  H   H2185     1.0  0.44821  0.69447  0.59039  1.0000
  Fe  Fe247     1.0  0.46962  0.73603  0.34302  1.0000
  H   H2186     1.0  0.45209  0.47575  0.34108  1.0000
  C   C1812     1.0  0.39016  0.95573  0.61200  1.0000
  H   H2187     1.0  0.28128  0.54282  0.62465  1.0000
  C   C1813     1.0  0.43595  0.88437  0.60584  1.0000
  H   H2188     1.0  0.48171  0.85651  0.31990  1.0000
  H   H2189     1.0  0.47653  0.61097  0.61689  1.0000
  H   H2190     1.0  0.44481  0.71346  0.57174  1.0000
  H   H2191     1.0  0.35365  0.72555  0.59515  1.0000
  H   H2192     1.0  0.26970  0.52355  0.61533  1.0000
  H   H2193     1.0  0.44794  0.86620  0.54002  1.0000
  C   C1814     1.0  0.25904  0.95295  0.61589  1.0000
  C   C1815     1.0  0.42604  0.88707  0.57696  1.0000
  H   H2194     1.0  0.26095  0.52306  0.42689  1.0000
  H   H2195     1.0  0.47960  0.91032  0.46712  1.0000
  C   C1816     1.0  0.43892  0.87945  0.58879  1.0000
  C   C1817     1.0  0.46585  0.76279  0.40897  1.0000
  H   H2196     1.0  0.32039  0.68680  0.59546  1.0000
  C   C1818     1.0  0.38746  0.72291  0.32733  1.0000
  S   S496      1.0  0.40113  0.74195  0.34488  1.0000
  S   S497      1.0  0.32863  0.96837  0.61736  1.0000
  C   C1819     1.0  0.46157  0.86843  0.49581  1.0000
  S   S498      1.0  0.24487  0.69061  0.46535  1.0000
  N   N129      1.0  0.41681  0.81219  0.39087  1.0000
  C   C1820     1.0  0.40735  0.81048  0.37682  1.0000
  C   C1821     1.0  0.42777  0.82678  0.38237  1.0000
  C   C1822     1.0  0.42969  0.79450  0.39537  1.0000
  C   C1823     1.0  0.40394  0.81668  0.40786  1.0000
  C   C1824     1.0  0.38441  0.81940  0.41020  1.0000
  C   C1825     1.0  0.41084  0.81865  0.42268  1.0000
  C   C1826     1.0  0.37267  0.82396  0.42632  1.0000
  C   C1827     1.0  0.39894  0.82319  0.43870  1.0000
  C   C1828     1.0  0.37992  0.82592  0.44050  1.0000
  H   H2197     1.0  0.41735  0.80702  0.36430  1.0000
  H   H2198     1.0  0.39936  0.79924  0.38204  1.0000
  H   H2199     1.0  0.25062  0.77022  0.58084  1.0000
  H   H2200     1.0  0.41861  0.84046  0.37935  1.0000
  H   H2201     1.0  0.43711  0.82415  0.36914  1.0000
  H   H2202     1.0  0.43673  0.82771  0.39137  1.0000
  H   H2203     1.0  0.43817  0.79490  0.40503  1.0000
  H   H2204     1.0  0.42216  0.78302  0.40180  1.0000
  H   H2205     1.0  0.43966  0.79074  0.38288  1.0000
  H   H2206     1.0  0.37781  0.81814  0.39979  1.0000
  H   H2207     1.0  0.42550  0.81664  0.42209  1.0000
  H   H2208     1.0  0.35783  0.82601  0.42786  1.0000
  H   H2209     1.0  0.40441  0.82451  0.44993  1.0000
  H   H2210     1.0  0.37086  0.82934  0.45307  1.0000
  N   N130      1.0  0.34247  0.75929  0.45966  1.0000
  C   C1829     1.0  0.26053  0.58593  0.62698  1.0000
  C   C1830     1.0  0.46255  0.64395  0.33686  1.0000
  C   C1831     1.0  0.34000  0.74650  0.44918  1.0000
  C   C1832     1.0  0.36098  0.76413  0.45409  1.0000
  C   C1833     1.0  0.36553  0.77587  0.46321  1.0000
  C   C1834     1.0  0.37484  0.75765  0.43960  1.0000
  C   C1835     1.0  0.38281  0.78078  0.45823  1.0000
  C   C1836     1.0  0.39207  0.76277  0.43465  1.0000
  C   C1837     1.0  0.39596  0.77442  0.44387  1.0000
  H   H2211     1.0  0.46757  0.90265  0.51340  1.0000
  C   C1838     1.0  0.33113  0.69073  0.59961  1.0000
  C   C1839     1.0  0.48425  0.80411  0.33860  1.0000
  H   H2212     1.0  0.31404  0.77314  0.46030  1.0000
  H   H2213     1.0  0.26264  0.71829  0.43791  1.0000
  H   H2214     1.0  0.32790  0.78590  0.46559  1.0000
  H   H2215     1.0  0.35003  0.73322  0.45115  1.0000
  H   H2216     1.0  0.33707  0.61022  0.30333  1.0000
  H   H2217     1.0  0.34143  0.75265  0.43425  1.0000
  H   H2218     1.0  0.35578  0.78129  0.47437  1.0000
  H   H2219     1.0  0.37284  0.74850  0.43195  1.0000
  H   H2220     1.0  0.38606  0.78956  0.46560  1.0000
  H   H2221     1.0  0.40262  0.75745  0.42378  1.0000
  H   H2222     1.0  0.40924  0.77846  0.44002  1.0000
  N   N131      1.0  0.30980  0.70532  0.40198  1.0000
  C   C1840     1.0  0.29740  0.69187  0.40752  1.0000
  C   C1841     1.0  0.31538  0.70624  0.41892  1.0000
  C   C1842     1.0  0.29905  0.72351  0.39481  1.0000
  C   C1843     1.0  0.32620  0.70051  0.38764  1.0000
  C   C1844     1.0  0.32754  0.68715  0.37716  1.0000
  C   C1845     1.0  0.34106  0.70999  0.38305  1.0000
  C   C1846     1.0  0.34308  0.68314  0.36349  1.0000
  C   C1847     1.0  0.35663  0.70572  0.36951  1.0000
  C   C1848     1.0  0.35766  0.69227  0.35980  1.0000
  H   H2223     1.0  0.28572  0.69520  0.41902  1.0000
  H   H2224     1.0  0.29080  0.69189  0.39614  1.0000
  H   H2225     1.0  0.30490  0.67767  0.41215  1.0000
  H   H2226     1.0  0.32224  0.71795  0.41696  1.0000
  H   H2227     1.0  0.32489  0.69331  0.42375  1.0000
  H   H2228     1.0  0.30325  0.70821  0.43041  1.0000
  H   H2229     1.0  0.29506  0.72346  0.38179  1.0000
  H   H2230     1.0  0.28603  0.72738  0.40473  1.0000
  H   H2231     1.0  0.30702  0.73460  0.39171  1.0000
  H   H2232     1.0  0.31668  0.67972  0.37905  1.0000
  H   H2233     1.0  0.34070  0.72095  0.38971  1.0000
  H   H2234     1.0  0.34371  0.67296  0.35560  1.0000
  H   H2235     1.0  0.36794  0.71299  0.36638  1.0000
  H   H2236     1.0  0.36970  0.68903  0.34925  1.0000
  S   S499      1.0  0.23970  0.88347  0.61917  1.0000
  C   C1849     1.0  0.33262  0.48582  0.31141  1.0000
  S   S500      1.0  0.25815  0.67460  0.41785  1.0000
  H   H2237     1.0  0.38398  0.78652  0.30290  1.0000
  H   H2238     1.0  0.24332  0.47736  0.41007  1.0000
  C   C1850     1.0  0.42007  0.89670  0.61173  1.0000
  H   H2239     1.0  0.34144  0.90740  0.59637  1.0000
  H   H2240     1.0  0.29392  0.52996  0.57727  1.0000
  C   C1851     1.0  0.32924  0.74101  0.57590  1.0000
  H   H2241     1.0  0.31205  0.53666  0.58380  1.0000
  H   H2242     1.0  0.35025  0.73824  0.48246  1.0000
  C   C1852     1.0  0.41339  0.87540  0.55709  1.0000
  C   C1853     1.0  0.47371  0.86300  0.42718  1.0000
  H   H2243     1.0  0.27562  0.50854  0.59971  1.0000
  C   C1854     1.0  0.46537  0.67553  0.33188  1.0000
  H   H2244     1.0  0.36312  0.67082  0.62627  1.0000
  H   H2245     1.0  0.33073  0.49997  0.61981  1.0000
  N   N132      1.0  0.29907  0.51640  0.60433  1.0000
  S   S501      1.0  0.47115  0.90589  0.56936  1.0000
  C   C1855     1.0  0.46993  0.88925  0.51022  1.0000
  S   S502      1.0  0.47187  0.75536  0.35974  1.0000
  H   H2246     1.0  0.39983  0.90631  0.57510  1.0000
  C   C1856     1.0  0.24296  0.77998  0.57058  1.0000
  H   H2247     1.0  0.43245  0.89744  0.53017  1.0000
  H   H2248     1.0  0.41144  0.86304  0.56811  1.0000
  C   C1857     1.0  0.40334  0.72610  0.33102  1.0000
  H   H2249     1.0  0.32801  0.94036  0.59530  1.0000
  C   C1858     1.0  0.47211  0.77477  0.41609  1.0000
  H   H2250     1.0  0.24174  0.61257  0.59390  1.0000
  H   H2251     1.0  0.44854  0.89694  0.49433  1.0000
  H   H2252     1.0  0.29644  0.64005  0.32299  1.0000
  C   C1859     1.0  0.26230  0.70286  0.59687  1.0000
  C   C1860     1.0  0.34114  0.67730  0.61142  1.0000
  S   S503      1.0  0.44745  0.72359  0.36413  1.0000
  H   H2253     1.0  0.24484  0.47454  0.36486  1.0000
  C   C1861     1.0  0.48161  0.67126  0.59435  1.0000
  Fe  Fe248     1.0  0.45043  0.77517  0.34537  1.0000
  H   H2254     1.0  0.27580  0.50290  0.43639  1.0000
  H   H2255     1.0  0.44143  0.66718  0.32918  1.0000
  S   S504      1.0  0.23861  0.63330  0.41543  1.0000
  C   C1862     1.0  0.43028  0.89995  0.54430  1.0000
  S   S505      1.0  0.25743  0.73215  0.56851  1.0000
  H   H2256     1.0  0.32184  0.70317  0.56581  1.0000
  C   C1863     1.0  0.48017  0.63803  0.34110  1.0000
  C   C1864     1.0  0.26401  0.71913  0.45136  1.0000
  H   H2257     1.0  0.41758  0.91073  0.54608  1.0000
  H   H2258     1.0  0.24984  0.79194  0.56496  1.0000
  H   H2259     1.0  0.40020  0.88561  0.55825  1.0000
  H   H2260     1.0  0.28526  0.64788  0.30382  1.0000
  C   C1865     1.0  0.27169  0.68587  0.60524  1.0000
  H   H2261     1.0  0.29768  0.60895  0.31915  1.0000
  H   H2262     1.0  0.34372  0.74035  0.56803  1.0000
  H   H2263     1.0  0.32752  0.74686  0.58825  1.0000
  C   C1866     1.0  0.24027  0.64324  0.56432  1.0000
  C   C1867     1.0  0.28704  0.67615  0.59493  1.0000
  C   C1868     1.0  0.45591  0.49233  0.30598  1.0000
  H   H2264     1.0  0.47125  0.82100  0.40379  1.0000
  H   H2265     1.0  0.46784  0.86009  0.44183  1.0000
  H   H2266     1.0  0.43563  0.69787  0.30569  1.0000
  H   H2267     1.0  0.47535  0.83581  0.42461  1.0000
  C   C1869     1.0  0.47672  0.88061  0.41860  1.0000
  C   C1870     1.0  0.47806  0.84912  0.41702  1.0000
  H   H2268     1.0  0.23563  0.50767  0.36557  1.0000
  C   C1871     1.0  0.47824  0.60217  0.63054  1.0000
  C   C1872     1.0  0.47820  0.84484  0.37213  1.0000
  C   C1873     1.0  0.29410  0.53508  0.62847  1.0000
  H   H2269     1.0  0.47929  0.83382  0.36462  1.0000
  H   H2270     1.0  0.24356  0.50786  0.40525  1.0000
  C   C1874     1.0  0.40625  0.70137  0.30835  1.0000
  Fe  Fe249     1.0  0.34608  0.66914  0.30310  1.0000
  H   H2271     1.0  0.48129  0.76461  0.51033  1.0000
  C   C1875     1.0  0.48438  0.68161  0.57606  1.0000
  H   H2272     1.0  0.47555  0.70208  0.54253  1.0000
  C   C1876     1.0  0.47827  0.70954  0.55198  1.0000
  C   C1877     1.0  0.48298  0.66977  0.33600  1.0000
  C   C1878     1.0  0.48247  0.84192  0.32511  1.0000
  H   H2273     1.0  0.25349  0.90870  0.63143  1.0000
  H   H2274     1.0  0.47487  0.56946  0.62736  1.0000
  H   H2275     1.0  0.23895  0.64830  0.53562  1.0000
  H   H2276     1.0  0.48248  0.85667  0.36145  1.0000
  C   C1879     1.0  0.32158  0.51120  0.62564  1.0000
  H   H2277     1.0  0.41610  0.77002  0.30328  1.0000
  H   H2278     1.0  0.30532  0.65641  0.30401  1.0000
  C   C1880     1.0  0.23720  0.50775  0.42002  1.0000
  H   H2279     1.0  0.36909  0.58496  0.30119  1.0000
  H   H2280     1.0  0.33693  0.63404  0.30160  1.0000
  H   H2281     1.0  0.23552  0.63052  0.56685  1.0000
  Fe  Fe250     1.0  0.28769  0.64330  0.63434  1.0000
  H   H2282     1.0  0.28667  0.91490  0.91382  1.0000
  Fe  Fe251     1.0  0.33504  0.71242  0.90182  1.0000
  S   S506      1.0  0.31978  0.72839  0.92377  1.0000
  S   S507      1.0  0.36235  0.69389  0.90566  1.0000
  Fe  Fe252     1.0  0.30543  0.72785  0.87883  1.0000
  S   S508      1.0  0.28784  0.74552  0.89850  1.0000
  S   S509      1.0  0.29891  0.72839  0.85157  1.0000
  Fe  Fe253     1.0  0.31441  0.75186  0.90033  1.0000
  S   S510      1.0  0.31941  0.78018  0.89805  1.0000
  Fe  Fe254     1.0  0.29469  0.72049  0.92027  1.0000
  S   S511      1.0  0.27182  0.71221  0.94361  1.0000
  S   S512      1.0  0.33151  0.73648  0.87855  1.0000
  S   S513      1.0  0.31035  0.70226  0.90035  1.0000
  C   C1881     1.0  0.28856  0.96076  0.77443  1.0000
  C   C1882     1.0  0.47254  0.67553  0.69144  1.0000
  H   H2283     1.0  0.26910  0.86809  0.83616  1.0000
  S   S514      1.0  0.35659  0.83806  0.94484  1.0000
  C   C1883     1.0  0.28209  0.96046  0.92711  1.0000
  Fe  Fe255     1.0  0.38325  0.83446  0.95390  1.0000
  S   S515      1.0  0.40898  0.83735  0.93223  1.0000
  C   C1884     1.0  0.31221  0.95118  0.79929  1.0000
  H   H2284     1.0  0.27373  0.64927  0.95165  1.0000
  H   H2285     1.0  0.46454  0.58717  0.83599  1.0000
  C   C1885     1.0  0.29955  0.53983  0.64247  1.0000
  S   S516      1.0  0.27369  0.88513  0.90679  1.0000
  S   S517      1.0  0.23639  0.68630  0.85418  1.0000
  C   C1886     1.0  0.23735  0.89449  0.80803  1.0000
  S   S518      1.0  0.46492  0.66095  0.85164  1.0000
  H   H2286     1.0  0.26603  0.82858  0.93320  1.0000
  H   H2287     1.0  0.35254  0.63422  0.70480  1.0000
  S   S519      1.0  0.45425  0.63000  0.83502  1.0000
  H   H2288     1.0  0.38689  0.87576  0.92981  1.0000
  Fe  Fe256     1.0  0.44660  0.66057  0.83302  1.0000
  S   S520      1.0  0.41781  0.67745  0.83273  1.0000
  H   H2289     1.0  0.27883  0.96377  0.76550  1.0000
  H   H2290     1.0  0.47947  0.53568  0.65401  1.0000
  S   S521      1.0  0.46753  0.66657  0.80705  1.0000
  H   H2291     1.0  0.23998  0.79907  0.81305  1.0000
  H   H2292     1.0  0.29367  0.96945  0.88073  1.0000
  Fe  Fe257     1.0  0.29915  0.61785  0.66816  1.0000
  S   S522      1.0  0.32229  0.60033  0.68188  1.0000
  Fe  Fe258     1.0  0.42806  0.60878  0.72368  1.0000
  S   S523      1.0  0.43256  0.62923  0.69718  1.0000
  S   S524      1.0  0.42001  0.61891  0.75040  1.0000
  Fe  Fe259     1.0  0.43431  0.57708  0.70410  1.0000
  S   S525      1.0  0.43974  0.59479  0.67595  1.0000
  S   S526      1.0  0.43333  0.54701  0.70941  1.0000
  Fe  Fe260     1.0  0.45625  0.60737  0.68815  1.0000
  H   H2293     1.0  0.24152  0.76697  0.88662  1.0000
  Fe  Fe261     1.0  0.41546  0.61504  0.68737  1.0000
  S   S527      1.0  0.39452  0.63174  0.67022  1.0000
  S   S528      1.0  0.45309  0.58775  0.71541  1.0000
  S   S529      1.0  0.40878  0.59649  0.71477  1.0000
  H   H2294     1.0  0.32121  0.94757  0.80912  1.0000
  H   H2295     1.0  0.27180  0.91397  0.68002  1.0000
  C   C1887     1.0  0.46946  0.64763  0.65814  1.0000
  C   C1888     1.0  0.44061  0.53750  0.85978  1.0000
  H   H2296     1.0  0.24538  0.84365  0.80926  1.0000
  C   C1889     1.0  0.35737  0.90267  0.90148  1.0000
  H   H2297     1.0  0.27235  0.70689  0.70650  1.0000
  H   H2298     1.0  0.45619  0.64371  0.66349  1.0000
  Fe  Fe262     1.0  0.47462  0.63078  0.85129  1.0000
  Fe  Fe263     1.0  0.26689  0.91055  0.88546  1.0000
  H   H2299     1.0  0.40090  0.72184  0.92392  1.0000
  C   C1890     1.0  0.34312  0.60825  0.67692  1.0000
  C   C1891     1.0  0.35704  0.59852  0.68662  1.0000
  C   C1892     1.0  0.37316  0.60529  0.68415  1.0000
  C   C1893     1.0  0.37542  0.62192  0.67203  1.0000
  C   C1894     1.0  0.36174  0.63140  0.66191  1.0000
  C   C1895     1.0  0.34561  0.62461  0.66435  1.0000
  H   H2300     1.0  0.35528  0.58577  0.69625  1.0000
  H   H2301     1.0  0.38373  0.59768  0.69177  1.0000
  H   H2302     1.0  0.25213  0.88259  0.69224  1.0000
  H   H2303     1.0  0.33508  0.63208  0.65662  1.0000
  C   C1896     1.0  0.46281  0.51493  0.66397  1.0000
  C   C1897     1.0  0.28602  0.97148  0.89419  1.0000
  C   C1898     1.0  0.45854  0.54148  0.67772  1.0000
  C   C1899     1.0  0.44410  0.53538  0.69128  1.0000
  C   C1900     1.0  0.43878  0.51926  0.69092  1.0000
  C   C1901     1.0  0.44792  0.50920  0.67712  1.0000
  Fe  Fe264     1.0  0.47676  0.63607  0.81059  1.0000
  H   H2304     1.0  0.46273  0.55379  0.67816  1.0000
  H   H2305     1.0  0.42752  0.51456  0.70134  1.0000
  H   H2306     1.0  0.44366  0.49683  0.67691  1.0000
  C   C1902     1.0  0.46644  0.61956  0.77784  1.0000
  C   C1903     1.0  0.44860  0.62932  0.78326  1.0000
  C   C1904     1.0  0.43433  0.62872  0.77502  1.0000
  C   C1905     1.0  0.43787  0.61852  0.76124  1.0000
  C   C1906     1.0  0.45563  0.60846  0.75614  1.0000
  C   C1907     1.0  0.46794  0.53123  0.66414  1.0000
  H   H2307     1.0  0.44583  0.63753  0.79362  1.0000
  H   H2308     1.0  0.42058  0.63649  0.77906  1.0000
  H   H2309     1.0  0.45840  0.60032  0.74578  1.0000
  C   C1908     1.0  0.25920  0.86646  0.86522  1.0000
  H   H2310     1.0  0.31543  0.63270  0.69776  1.0000
  N   N133      1.0  0.32407  0.64479  0.71614  1.0000
  H   H2311     1.0  0.34731  0.65824  0.70554  1.0000
  C   C1909     1.0  0.30478  0.66953  0.69650  1.0000
  C   C1910     1.0  0.34180  0.64704  0.70326  1.0000
  H   H2312     1.0  0.31516  0.63618  0.74542  1.0000
  H   H2313     1.0  0.25492  0.94600  0.67672  1.0000
  S   S530      1.0  0.25859  0.66457  0.76913  1.0000
  H   H2314     1.0  0.31669  0.76795  0.96439  1.0000
  C   C1911     1.0  0.42890  0.83304  0.95890  1.0000
  C   C1912     1.0  0.28325  0.69486  0.70830  1.0000
  C   C1913     1.0  0.39318  0.78769  0.92323  1.0000
  C   C1914     1.0  0.32688  0.51602  0.63972  1.0000
  C   C1915     1.0  0.26357  0.65373  0.71883  1.0000
  H   H2315     1.0  0.36594  0.75757  0.94700  1.0000
  C   C1916     1.0  0.30214  0.67231  0.72788  1.0000
  C   C1917     1.0  0.25491  0.66580  0.74702  1.0000
  Fe  Fe265     1.0  0.25922  0.92021  0.84675  1.0000
  H   H2316     1.0  0.34811  0.87624  0.91040  1.0000
  C   C1918     1.0  0.31307  0.88522  0.94290  1.0000
  C   C1919     1.0  0.30491  0.90188  0.93284  1.0000
  C   C1920     1.0  0.29278  0.90205  0.92167  1.0000
  C   C1921     1.0  0.28857  0.88558  0.92079  1.0000
  C   C1922     1.0  0.29649  0.86900  0.93115  1.0000
  C   C1923     1.0  0.30886  0.86878  0.94201  1.0000
  H   H2317     1.0  0.30816  0.91461  0.93350  1.0000
  C   C1924     1.0  0.25735  0.70001  0.86957  1.0000
  H   H2318     1.0  0.29309  0.85625  0.93081  1.0000
  H   H2319     1.0  0.31492  0.85592  0.94993  1.0000
  C   C1925     1.0  0.47472  0.47555  0.70130  1.0000
  C   C1926     1.0  0.45514  0.85248  0.93518  1.0000
  C   C1927     1.0  0.44034  0.85013  0.92879  1.0000
  C   C1928     1.0  0.42716  0.84046  0.94064  1.0000
  C   C1929     1.0  0.30391  0.96957  0.77023  1.0000
  H   H2320     1.0  0.47234  0.47770  0.68714  1.0000
  H   H2321     1.0  0.36652  0.92495  0.91915  1.0000
  H   H2322     1.0  0.43901  0.85599  0.91469  1.0000
  S   S531      1.0  0.25740  0.95032  0.84430  1.0000
  H   H2323     1.0  0.46494  0.86030  0.92604  1.0000
  C   C1930     1.0  0.37910  0.69057  0.88569  1.0000
  C   C1931     1.0  0.39394  0.67555  0.88658  1.0000
  C   C1932     1.0  0.40658  0.67185  0.87047  1.0000
  C   C1933     1.0  0.40436  0.68321  0.85346  1.0000
  C   C1934     1.0  0.39004  0.69870  0.85273  1.0000
  C   C1935     1.0  0.37748  0.70241  0.86881  1.0000
  H   H2324     1.0  0.39537  0.66641  0.89965  1.0000
  H   H2325     1.0  0.41763  0.65987  0.87113  1.0000
  H   H2326     1.0  0.38850  0.70767  0.83961  1.0000
  H   H2327     1.0  0.36642  0.71427  0.86804  1.0000
  C   C1936     1.0  0.32417  0.78360  0.91810  1.0000
  C   C1937     1.0  0.33411  0.79710  0.91692  1.0000
  C   C1938     1.0  0.33785  0.80005  0.93288  1.0000
  C   C1939     1.0  0.33177  0.78941  0.95004  1.0000
  C   C1940     1.0  0.32174  0.77600  0.95116  1.0000
  C   C1941     1.0  0.31791  0.77312  0.93526  1.0000
  H   H2328     1.0  0.33909  0.80519  0.90366  1.0000
  H   H2329     1.0  0.34572  0.81031  0.93183  1.0000
  H   H2330     1.0  0.46483  0.59798  0.63755  1.0000
  H   H2331     1.0  0.30982  0.76302  0.93637  1.0000
  H   H2332     1.0  0.27359  0.71104  0.88194  1.0000
  H   H2333     1.0  0.32404  0.88490  0.89266  1.0000
  C   C1942     1.0  0.24474  0.75397  0.86395  1.0000
  C   C1943     1.0  0.33908  0.92514  0.88048  1.0000
  C   C1944     1.0  0.46987  0.60893  0.76446  1.0000
  H   H2334     1.0  0.33960  0.50862  0.64418  1.0000
  H   H2335     1.0  0.25293  0.89557  0.66909  1.0000
  C   C1945     1.0  0.36745  0.91018  0.92572  1.0000
  S   S532      1.0  0.25881  0.90874  0.82247  1.0000
  H   H2336     1.0  0.25970  0.75077  0.86186  1.0000
  H   H2337     1.0  0.35381  0.90871  0.93493  1.0000
  H   H2338     1.0  0.46437  0.48619  0.70792  1.0000
  C   C1946     1.0  0.25082  0.66810  0.71095  1.0000
  S   S533      1.0  0.28534  0.91200  0.85764  1.0000
  H   H2339     1.0  0.42702  0.53608  0.86794  1.0000
  S   S534      1.0  0.29568  0.64843  0.65859  1.0000
  H   H2340     1.0  0.31047  0.66267  0.68501  1.0000
  H   H2341     1.0  0.32762  0.96323  0.73942  1.0000
  C   C1947     1.0  0.25794  0.80873  0.84540  1.0000
  H   H2342     1.0  0.24266  0.97209  0.65506  1.0000
  C   C1948     1.0  0.32874  0.91228  0.88118  1.0000
  C   C1949     1.0  0.24176  0.67984  0.73936  1.0000
  H   H2343     1.0  0.29436  0.93275  0.81557  1.0000
  C   C1950     1.0  0.33245  0.89471  0.89184  1.0000
  H   H2344     1.0  0.36348  0.64420  0.65244  1.0000
  C   C1951     1.0  0.26101  0.85664  0.88292  1.0000
  H   H2345     1.0  0.38956  0.91596  0.89266  1.0000
  H   H2346     1.0  0.29203  0.83892  0.83996  1.0000
  C   C1952     1.0  0.28192  0.71619  0.85242  1.0000
  H   H2347     1.0  0.36305  0.87582  0.93277  1.0000
  S   S535      1.0  0.29341  0.61252  0.64284  1.0000
  S   S536      1.0  0.26540  0.93983  0.88660  1.0000
  H   H2348     1.0  0.27579  0.64174  0.74270  1.0000
  H   H2349     1.0  0.37592  0.78391  0.95016  1.0000
  H   H2350     1.0  0.39980  0.76146  0.89177  1.0000
  C   C1953     1.0  0.29706  0.94285  0.80300  1.0000
  C   C1954     1.0  0.26144  0.91233  0.69318  1.0000
  C   C1955     1.0  0.28314  0.84365  0.85200  1.0000
  H   H2351     1.0  0.26257  0.70270  0.82365  1.0000
  C   C1956     1.0  0.45718  0.84469  0.95329  1.0000
  H   H2352     1.0  0.36986  0.72725  0.94488  1.0000
  C   C1957     1.0  0.24872  0.79790  0.82260  1.0000
  H   H2353     1.0  0.30525  0.66781  0.74147  1.0000
  H   H2354     1.0  0.46559  0.81867  0.91267  1.0000
  Fe  Fe266     1.0  0.34526  0.85682  0.96496  1.0000
  H   H2355     1.0  0.30779  0.69532  0.95285  1.0000
  S   S537      1.0  0.32735  0.96148  0.66180  1.0000
  C   C1958     1.0  0.31555  0.96445  0.78326  1.0000
  C   C1959     1.0  0.39310  0.72576  0.91258  1.0000
  H   H2356     1.0  0.47961  0.48502  0.76159  1.0000
  H   H2357     1.0  0.35982  0.71988  0.93002  1.0000
  H   H2358     1.0  0.38935  0.71307  0.91119  1.0000
  Fe  Fe267     1.0  0.26378  0.61616  0.65742  1.0000
  Fe  Fe268     1.0  0.26592  0.64891  0.67219  1.0000
  H   H2359     1.0  0.33812  0.62531  0.73638  1.0000
  H   H2360     1.0  0.23892  0.62207  0.79321  1.0000
  S   S538      1.0  0.24852  0.67047  0.68813  1.0000
  C   C1960     1.0  0.23792  0.64413  0.96113  1.0000
  H   H2361     1.0  0.25253  0.86288  0.89418  1.0000
  H   H2362     1.0  0.30365  0.62814  0.72119  1.0000
  H   H2363     1.0  0.37782  0.90665  0.93463  1.0000
  H   H2364     1.0  0.36066  0.93100  0.88961  1.0000
  C   C1961     1.0  0.46023  0.55446  0.83395  1.0000
  H   H2365     1.0  0.39348  0.89315  0.88846  1.0000
  C   C1962     1.0  0.29720  0.69237  0.96489  1.0000
  H   H2366     1.0  0.46804  0.81193  0.93606  1.0000
  N   N134      1.0  0.37226  0.89819  0.91206  1.0000
  C   C1963     1.0  0.26339  0.78281  0.82364  1.0000
  C   C1964     1.0  0.31040  0.66223  0.71363  1.0000
  C   C1965     1.0  0.34645  0.88990  0.90197  1.0000
  H   H2367     1.0  0.27203  0.64368  0.71093  1.0000
  N   N135      1.0  0.48088  0.65110  0.71844  1.0000
  H   H2368     1.0  0.39729  0.79968  0.92487  1.0000
  Fe  Fe269     1.0  0.30869  0.96070  0.64362  1.0000
  N   N136      1.0  0.24313  0.91210  0.68985  1.0000
  H   H2369     1.0  0.28653  0.69025  0.68107  1.0000
  H   H2370     1.0  0.31769  0.91603  0.87357  1.0000
  C   C1966     1.0  0.45619  0.58749  0.82586  1.0000
  H   H2371     1.0  0.23726  0.58963  0.72882  1.0000
  H   H2372     1.0  0.40272  0.73007  0.89955  1.0000
  S   S539      1.0  0.24265  0.59960  0.65831  1.0000
  H   H2373     1.0  0.45950  0.67140  0.69350  1.0000
  N   N137      1.0  0.34771  0.67891  0.84507  1.0000
  C   C1967     1.0  0.35439  0.66868  0.86214  1.0000
  C   C1968     1.0  0.36332  0.67603  0.82929  1.0000
  C   C1969     1.0  0.34283  0.69883  0.84527  1.0000
  C   C1970     1.0  0.33105  0.67284  0.84416  1.0000
  C   C1971     1.0  0.31550  0.67354  0.85888  1.0000
  C   C1972     1.0  0.32939  0.66688  0.82860  1.0000
  C   C1973     1.0  0.29941  0.66835  0.85821  1.0000
  C   C1974     1.0  0.31310  0.66196  0.82799  1.0000
  C   C1975     1.0  0.29815  0.66273  0.84275  1.0000
  H   H2374     1.0  0.35618  0.65358  0.86347  1.0000
  H   H2375     1.0  0.36798  0.67138  0.86236  1.0000
  H   H2376     1.0  0.34496  0.67253  0.87480  1.0000
  H   H2377     1.0  0.37585  0.68016  0.83073  1.0000
  H   H2378     1.0  0.35987  0.68448  0.81606  1.0000
  H   H2379     1.0  0.36757  0.66130  0.82826  1.0000
  H   H2380     1.0  0.33609  0.70679  0.83358  1.0000
  H   H2381     1.0  0.33305  0.70184  0.85808  1.0000
  H   H2382     1.0  0.35513  0.70456  0.84424  1.0000
  H   H2383     1.0  0.31551  0.67853  0.87086  1.0000
  H   H2384     1.0  0.34037  0.66609  0.81665  1.0000
  H   H2385     1.0  0.28766  0.66917  0.86956  1.0000
  H   H2386     1.0  0.31198  0.65770  0.81592  1.0000
  H   H2387     1.0  0.28542  0.65924  0.84211  1.0000
  S   S540      1.0  0.25752  0.64663  0.64689  1.0000
  C   C1976     1.0  0.28525  0.94764  0.79063  1.0000
  C   C1977     1.0  0.32791  0.63855  0.73503  1.0000
  C   C1978     1.0  0.38120  0.77875  0.93750  1.0000
  C   C1979     1.0  0.27126  0.70919  0.86923  1.0000
  H   H2388     1.0  0.25912  0.67195  0.95142  1.0000
  C   C1980     1.0  0.45606  0.52473  0.86442  1.0000
  H   H2389     1.0  0.32725  0.97082  0.78125  1.0000
  H   H2390     1.0  0.35043  0.74209  0.93552  1.0000
  H   H2391     1.0  0.43451  0.96318  0.75194  1.0000
  H   H2392     1.0  0.24904  0.69475  0.88260  1.0000
  H   H2393     1.0  0.24919  0.83768  0.91889  1.0000
  S   S541      1.0  0.47610  0.84652  0.96155  1.0000
  C   C1981     1.0  0.27255  0.79352  0.84636  1.0000
  H   H2394     1.0  0.43505  0.57388  0.81198  1.0000
  C   C1982     1.0  0.27025  0.86004  0.84981  1.0000
  C   C1983     1.0  0.29127  0.68548  0.69399  1.0000
  C   C1984     1.0  0.25413  0.69766  0.85316  1.0000
  H   H2395     1.0  0.45455  0.51343  0.87610  1.0000
  S   S542      1.0  0.30746  0.95414  0.84907  1.0000
  H   H2396     1.0  0.45100  0.65956  0.72344  1.0000
  C   C1985     1.0  0.23629  0.92836  0.67636  1.0000
  H   H2397     1.0  0.45984  0.64656  0.74298  1.0000
  H   H2398     1.0  0.45167  0.58262  0.79340  1.0000
  C   C1986     1.0  0.24088  0.64875  0.94159  1.0000
  H   H2399     1.0  0.26699  0.89943  0.70227  1.0000
  H   H2400     1.0  0.28625  0.95045  0.93885  1.0000
  H   H2401     1.0  0.47790  0.95913  0.76589  1.0000
  C   C1987     1.0  0.26392  0.65857  0.96035  1.0000
  H   H2402     1.0  0.26075  0.92358  0.70022  1.0000
  H   H2403     1.0  0.33392  0.64865  0.73867  1.0000
  H   H2404     1.0  0.24956  0.87950  0.86339  1.0000
  H   H2405     1.0  0.34040  0.65040  0.68866  1.0000
  C   C1988     1.0  0.24512  0.58677  0.64137  1.0000
  H   H2406     1.0  0.24972  0.62829  0.76957  1.0000
  C   C1989     1.0  0.26373  0.83704  0.91955  1.0000
  H   H2407     1.0  0.28694  0.71924  0.82298  1.0000
  H   H2408     1.0  0.25082  0.65698  0.93346  1.0000
  H   H2409     1.0  0.26560  0.77278  0.81514  1.0000
  H   H2410     1.0  0.28210  0.69544  0.73642  1.0000
  C   C1990     1.0  0.35317  0.92047  0.89047  1.0000
  C   C1991     1.0  0.28879  0.68839  0.72513  1.0000
  S   S543      1.0  0.32877  0.88505  0.95626  1.0000
  N   N138      1.0  0.27697  0.82945  0.90415  1.0000
  H   H2411     1.0  0.43025  0.56197  0.84206  1.0000
  C   C1992     1.0  0.27511  0.81012  0.90664  1.0000
  C   C1993     1.0  0.29583  0.82965  0.90588  1.0000
  C   C1994     1.0  0.27402  0.83984  0.88567  1.0000
  C   C1995     1.0  0.24351  0.94474  0.67149  1.0000
  C   C1996     1.0  0.28508  0.83369  0.86963  1.0000
  C   C1997     1.0  0.39975  0.78127  0.90687  1.0000
  N   N139      1.0  0.46198  0.57040  0.81847  1.0000
  Fe  Fe270     1.0  0.34603  0.97161  0.63548  1.0000
  H   H2412     1.0  0.24616  0.60526  0.77895  1.0000
  C   C1998     1.0  0.23987  0.61994  0.77913  1.0000
  H   H2413     1.0  0.26530  0.85104  0.91961  1.0000
  C   C1999     1.0  0.44404  0.83492  0.96511  1.0000
  H   H2414     1.0  0.27791  0.80183  0.92021  1.0000
  H   H2415     1.0  0.28504  0.80291  0.89624  1.0000
  H   H2416     1.0  0.29805  0.84403  0.90302  1.0000
  H   H2417     1.0  0.29842  0.82293  0.91992  1.0000
  H   H2418     1.0  0.30668  0.82223  0.89615  1.0000
  C   C2000     1.0  0.24550  0.81134  0.83346  1.0000
  H   H2419     1.0  0.29577  0.82142  0.87061  1.0000
  H   H2420     1.0  0.26101  0.80938  0.90573  1.0000
  C   C2001     1.0  0.44996  0.57123  0.80562  1.0000
  H   H2421     1.0  0.24475  0.74142  0.84241  1.0000
  H   H2422     1.0  0.33606  0.93881  0.87216  1.0000
  Fe  Fe271     1.0  0.28192  0.94183  0.85770  1.0000
  C   C2002     1.0  0.27869  0.71388  0.83600  1.0000
  H   H2423     1.0  0.25675  0.81827  0.85405  1.0000
  H   H2424     1.0  0.28665  0.76887  0.83625  1.0000
  H   H2425     1.0  0.43420  0.96773  0.71818  1.0000
  C   C2003     1.0  0.38995  0.90130  0.89946  1.0000
  H   H2426     1.0  0.29101  0.55098  0.64898  1.0000
  C   C2004     1.0  0.46283  0.65712  0.73032  1.0000
  C   C2005     1.0  0.26486  0.70457  0.83636  1.0000
  S   S544      1.0  0.26990  0.61869  0.68379  1.0000
  C   C2006     1.0  0.31723  0.62996  0.71220  1.0000
  C   C2007     1.0  0.37544  0.87884  0.92223  1.0000
  C   C2008     1.0  0.26566  0.65265  0.73679  1.0000
  S   S545      1.0  0.29616  0.93556  0.64942  1.0000
  H   H2427     1.0  0.40162  0.89716  0.90688  1.0000
  N   N140      1.0  0.37652  0.74030  0.91628  1.0000
  C   C2009     1.0  0.36726  0.74562  0.90034  1.0000
  H   H2428     1.0  0.48183  0.58165  0.79558  1.0000
  C   C2010     1.0  0.36360  0.73211  0.93244  1.0000
  C   C2011     1.0  0.38205  0.75651  0.91895  1.0000
  C   C2012     1.0  0.39434  0.76590  0.90472  1.0000
  C   C2013     1.0  0.37558  0.76346  0.93547  1.0000
  H   H2429     1.0  0.32700  0.61648  0.71419  1.0000
  H   H2430     1.0  0.45792  0.59982  0.81477  1.0000
  C   C2014     1.0  0.23652  0.95999  0.65900  1.0000
  H   H2431     1.0  0.37651  0.75034  0.88720  1.0000
  H   H2432     1.0  0.36241  0.73386  0.89832  1.0000
  H   H2433     1.0  0.35505  0.75694  0.90229  1.0000
  H   H2434     1.0  0.37925  0.86893  0.91284  1.0000
  H   H2435     1.0  0.46256  0.66994  0.73479  1.0000
  H   H2436     1.0  0.48290  0.57047  0.65516  1.0000
  H   H2437     1.0  0.47549  0.49354  0.72976  1.0000
  C   C2015     1.0  0.27307  0.92040  0.63840  1.0000
  H   H2438     1.0  0.46857  0.63909  0.70291  1.0000
  H   H2439     1.0  0.46657  0.69657  0.66790  1.0000
  S   S546      1.0  0.47631  0.50135  0.64812  1.0000
  H   H2440     1.0  0.27342  0.94110  0.79372  1.0000
  H   H2441     1.0  0.23523  0.77205  0.78310  1.0000
  C   C2016     1.0  0.47356  0.52664  0.85417  1.0000
  C   C2017     1.0  0.44261  0.55220  0.84485  1.0000
  H   H2442     1.0  0.46988  0.79466  0.92335  1.0000
  H   H2443     1.0  0.24011  0.84624  0.84161  1.0000
  C   C2018     1.0  0.24501  0.89480  0.68347  1.0000
  H   H2444     1.0  0.40904  0.78831  0.89576  1.0000
  C   C2019     1.0  0.23980  0.68102  0.72133  1.0000
  H   H2445     1.0  0.24846  0.89456  0.79607  1.0000
  C   C2020     1.0  0.27985  0.93630  0.63651  1.0000
  C   C2021     1.0  0.27859  0.69933  0.96413  1.0000
  H   H2446     1.0  0.44145  0.58975  0.83293  1.0000
  H   H2447     1.0  0.27856  0.90778  0.64704  1.0000
  C   C2022     1.0  0.23872  0.90110  0.82302  1.0000
  C   C2023     1.0  0.47047  0.66542  0.64791  1.0000
  H   H2448     1.0  0.30310  0.94743  0.90732  1.0000
  C   C2024     1.0  0.47344  0.80815  0.92233  1.0000
  H   H2449     1.0  0.32016  0.53409  0.65890  1.0000
  H   H2450     1.0  0.45320  0.55818  0.80054  1.0000
  C   C2025     1.0  0.29158  0.95880  0.90937  1.0000
  S   S547      1.0  0.47907  0.60936  0.87685  1.0000
  C   C2026     1.0  0.27529  0.78063  0.83548  1.0000
  H   H2451     1.0  0.28192  0.79172  0.85552  1.0000
  C   C2027     1.0  0.47573  0.54128  0.83919  1.0000
  H   H2452     1.0  0.47671  0.62347  0.72205  1.0000
  S   S548      1.0  0.23523  0.70384  0.79986  1.0000
  C   C2028     1.0  0.47646  0.68992  0.67670  1.0000
  C   C2029     1.0  0.48109  0.56991  0.80754  1.0000
  H   H2453     1.0  0.48052  0.61096  0.63895  1.0000
  H   H2454     1.0  0.45793  0.67522  0.64567  1.0000
  C   C2030     1.0  0.47968  0.63547  0.71097  1.0000
  Fe  Fe272     1.0  0.24086  0.94612  0.87323  1.0000
  S   S549      1.0  0.24077  0.91649  0.87468  1.0000
  C   C2031     1.0  0.31594  0.53034  0.64806  1.0000
  S   S550      1.0  0.48470  0.61276  0.67433  1.0000
  H   H2455     1.0  0.48361  0.60118  0.76039  1.0000
  S   S551      1.0  0.48468  0.62037  0.78755  1.0000
  C   C2032     1.0  0.23589  0.74859  0.85284  1.0000
  H   H2456     1.0  0.48454  0.95250  0.73459  1.0000
  Fe  Fe273     1.0  0.23581  0.67880  0.78910  1.0000
  H   H2457     1.0  0.69050  0.08638  0.05313  1.0000
  H   H2458     1.0  0.70149  0.19153  0.17129  1.0000
  H   H2459     1.0  0.50817  0.19143  0.05763  1.0000
  C   C2033     1.0  0.54204  0.32939  0.15744  1.0000
  S   S552      1.0  0.57981  0.43542  0.19281  1.0000
  C   C2034     1.0  0.57788  0.03879  0.05767  1.0000
  Fe  Fe274     1.0  0.55552  0.44945  0.15143  1.0000
  S   S553      1.0  0.57936  0.42551  0.15355  1.0000
  Fe  Fe275     1.0  0.56502  0.41898  0.18309  1.0000
  S   S554      1.0  0.56255  0.39067  0.19968  1.0000
  H   H2460     1.0  0.52223  0.23139  0.20036  1.0000
  C   C2035     1.0  0.56028  0.19487  0.16960  1.0000
  S   S555      1.0  0.54018  0.44157  0.18028  1.0000
  N   N141      1.0  0.56901  0.99235  0.08734  1.0000
  H   H2461     1.0  0.65179  0.13414  0.02889  1.0000
  H   H2462     1.0  0.66993  0.08997  0.03151  1.0000
  Fe  Fe276     1.0  0.60381  0.10488  0.03496  1.0000
  S   S556      1.0  0.61372  0.12290  0.00828  1.0000
  S   S557      1.0  0.58589  0.11407  0.06050  1.0000
  Fe  Fe277     1.0  0.62230  0.06998  0.02075  1.0000
  S   S558      1.0  0.63389  0.08494  0.99260  1.0000
  S   S559      1.0  0.62746  0.03936  0.03125  1.0000
  Fe  Fe278     1.0  0.64076  0.10300  0.00788  1.0000
  S   S560      1.0  0.66614  0.11556  0.99698  1.0000
  Fe  Fe279     1.0  0.60605  0.10368  0.99505  1.0000
  S   S561      1.0  0.63155  0.08654  0.03588  1.0000
  S   S562      1.0  0.59375  0.08713  0.02193  1.0000
  Fe  Fe280     1.0  0.54334  0.20656  0.08795  1.0000
  S   S563      1.0  0.56333  0.19868  0.06275  1.0000
  Fe  Fe281     1.0  0.53670  0.23358  0.11302  1.0000
  S   S564      1.0  0.54523  0.25688  0.11984  1.0000
  S   S565      1.0  0.55229  0.20451  0.11429  1.0000
  S   S566      1.0  0.52986  0.23641  0.08555  1.0000
  Fe  Fe282     1.0  0.64020  0.27666  0.18475  1.0000
  S   S567      1.0  0.62517  0.25351  0.19850  1.0000
  S   S568      1.0  0.66971  0.27246  0.18768  1.0000
  Fe  Fe283     1.0  0.60657  0.30139  0.17131  1.0000
  S   S569      1.0  0.58882  0.28037  0.18382  1.0000
  S   S570      1.0  0.59572  0.32839  0.15395  1.0000
  Fe  Fe284     1.0  0.60189  0.27533  0.20826  1.0000
  S   S571      1.0  0.58350  0.27177  0.23637  1.0000
  Fe  Fe285     1.0  0.61366  0.26054  0.17286  1.0000
  S   S572      1.0  0.61317  0.23781  0.15929  1.0000
  S   S573      1.0  0.61772  0.29814  0.19667  1.0000
  S   S574      1.0  0.63054  0.28198  0.15827  1.0000
  H   H2463     1.0  0.50038  0.16364  0.05304  1.0000
  H   H2464     1.0  0.72973  0.41636  0.05252  1.0000
  C   C2036     1.0  0.51621  0.43884  0.99873  1.0000
  H   H2465     1.0  0.65881  0.00203  0.04024  1.0000
  C   C2037     1.0  0.52815  0.43939  0.98150  1.0000
  C   C2038     1.0  0.70542  0.20115  0.15877  1.0000
  C   C2039     1.0  0.59288  0.31331  0.25470  1.0000
  H   H2466     1.0  0.50872  0.41071  0.98154  1.0000
  H   H2467     1.0  0.51318  0.46071  0.10725  1.0000
  H   H2468     1.0  0.53391  0.27949  0.08394  1.0000
  H   H2469     1.0  0.56905  0.20300  0.15828  1.0000
  C   C2040     1.0  0.56497  0.25159  0.12958  1.0000
  C   C2041     1.0  0.56900  0.26506  0.13650  1.0000
  C   C2042     1.0  0.58400  0.26102  0.14528  1.0000
  C   C2043     1.0  0.59509  0.24343  0.14719  1.0000
  C   C2044     1.0  0.59147  0.23009  0.13974  1.0000
  C   C2045     1.0  0.57641  0.23417  0.13095  1.0000
  H   H2470     1.0  0.56045  0.27862  0.13516  1.0000
  H   H2471     1.0  0.58700  0.27154  0.15049  1.0000
  H   H2472     1.0  0.60021  0.21656  0.14090  1.0000
  H   H2473     1.0  0.57370  0.22383  0.12526  1.0000
  C   C2046     1.0  0.57930  0.13768  0.06066  1.0000
  C   C2047     1.0  0.56609  0.14363  0.07541  1.0000
  C   C2048     1.0  0.56086  0.16239  0.07604  1.0000
  C   C2049     1.0  0.56900  0.17522  0.06198  1.0000
  C   C2050     1.0  0.58214  0.16929  0.04716  1.0000
  C   C2051     1.0  0.58721  0.15056  0.04646  1.0000
  H   H2474     1.0  0.55993  0.13370  0.08643  1.0000
  H   H2475     1.0  0.55074  0.16688  0.08751  1.0000
  H   H2476     1.0  0.58851  0.17921  0.03633  1.0000
  H   H2477     1.0  0.59738  0.14607  0.03510  1.0000
  C   C2052     1.0  0.59495  0.00626  0.01389  1.0000
  C   C2053     1.0  0.60273  0.99918  0.02950  1.0000
  C   C2054     1.0  0.61242  0.00958  0.03487  1.0000
  C   C2055     1.0  0.61433  0.02717  0.02471  1.0000
  C   C2056     1.0  0.60617  0.03451  0.00934  1.0000
  C   C2057     1.0  0.59651  0.02403  0.00392  1.0000
  H   H2478     1.0  0.61848  0.00397  0.04692  1.0000
  H   H2479     1.0  0.60754  0.04812  0.00146  1.0000
  H   H2480     1.0  0.59046  0.02962  0.99185  1.0000
  H   H2481     1.0  0.55356  0.14373  0.98408  1.0000
  H   H2482     1.0  0.57209  0.42971  0.01881  1.0000
  N   N142      1.0  0.48863  0.30342  0.04769  1.0000
  C   C2058     1.0  0.49811  0.32145  0.06588  1.0000
  Fe  Fe286     1.0  0.55620  0.45874  0.18737  1.0000
  Fe  Fe287     1.0  0.52485  0.19673  0.12794  1.0000
  C   C2059     1.0  0.62281  0.25181  0.26738  1.0000
  C   C2060     1.0  0.61408  0.25868  0.25224  1.0000
  C   C2061     1.0  0.59482  0.26227  0.25498  1.0000
  H   H2483     1.0  0.63771  0.24923  0.26518  1.0000
  H   H2484     1.0  0.62226  0.26138  0.23848  1.0000
  N   N143      1.0  0.54457  0.20698  0.17938  1.0000
  H   H2485     1.0  0.50389  0.43631  0.09768  1.0000
  H   H2486     1.0  0.49039  0.10016  0.27548  1.0000
  H   H2487     1.0  0.54184  0.36255  0.11872  1.0000
  C   C2062     1.0  0.54989  0.99186  0.09777  1.0000
  H   H2488     1.0  0.50427  0.47172  0.21286  1.0000
  H   H2489     1.0  0.55959  0.33193  0.11174  1.0000
  Fe  Fe288     1.0  0.50447  0.22582  0.10139  1.0000
  C   C2063     1.0  0.56004  0.13301  0.01869  1.0000
  C   C2064     1.0  0.58667  0.42835  0.04957  1.0000
  H   H2490     1.0  0.55331  0.33341  0.16147  1.0000
  H   H2491     1.0  0.52911  0.18519  0.18673  1.0000
  H   H2492     1.0  0.62877  0.14727  0.03316  1.0000
  H   H2493     1.0  0.62363  0.11990  0.05913  1.0000
  C   C2065     1.0  0.57111  0.44133  0.08214  1.0000
  H   H2494     1.0  0.56696  0.13284  0.02989  1.0000
  C   C2066     1.0  0.59309  0.25189  0.28803  1.0000
  C   C2067     1.0  0.56901  0.37323  0.18695  1.0000
  C   C2068     1.0  0.57272  0.35487  0.19608  1.0000
  C   C2069     1.0  0.58042  0.34088  0.18602  1.0000
  C   C2070     1.0  0.58420  0.34527  0.16681  1.0000
  C   C2071     1.0  0.57935  0.36348  0.15769  1.0000
  C   C2072     1.0  0.57182  0.37746  0.16775  1.0000
  H   H2495     1.0  0.57022  0.35153  0.21094  1.0000
  H   H2496     1.0  0.58369  0.32677  0.19315  1.0000
  H   H2497     1.0  0.58202  0.36688  0.14282  1.0000
  H   H2498     1.0  0.56835  0.39151  0.16066  1.0000
  H   H2499     1.0  0.66815  0.25093  0.15489  1.0000
  H   H2500     1.0  0.66142  0.22762  0.19112  1.0000
  H   H2501     1.0  0.55043  0.41971  0.13712  1.0000
  S   S575      1.0  0.49659  0.43383  0.06300  1.0000
  C   C2073     1.0  0.69944  0.27760  0.13528  1.0000
  C   C2074     1.0  0.68474  0.27906  0.15046  1.0000
  C   C2075     1.0  0.68786  0.27156  0.16829  1.0000
  C   C2076     1.0  0.70576  0.26290  0.17085  1.0000
  C   C2077     1.0  0.71753  0.22537  0.12668  1.0000
  H   H2502     1.0  0.69699  0.28335  0.12150  1.0000
  H   H2503     1.0  0.67104  0.28597  0.14835  1.0000
  H   H2504     1.0  0.70829  0.25717  0.18462  1.0000
  H   H2505     1.0  0.53048  0.30926  0.09254  1.0000
  C   C2078     1.0  0.70527  0.10722  0.03609  1.0000
  C   C2079     1.0  0.70714  0.11996  0.01946  1.0000
  C   C2080     1.0  0.69536  0.12209  0.00731  1.0000
  C   C2081     1.0  0.68172  0.11149  0.01172  1.0000
  C   C2082     1.0  0.68016  0.09844  0.02815  1.0000
  C   C2083     1.0  0.69190  0.09633  0.04032  1.0000
  H   H2506     1.0  0.68376  0.31234  0.16857  1.0000
  H   H2507     1.0  0.69666  0.13219  0.99459  1.0000
  Fe  Fe289     1.0  0.49769  0.41724  0.04239  1.0000
  C   C2084     1.0  0.58436  0.25880  0.27290  1.0000
  C   C2085     1.0  0.59009  0.43890  0.07559  1.0000
  H   H2508     1.0  0.54162  0.22819  0.15528  1.0000
  H   H2509     1.0  0.69129  0.24256  0.13142  1.0000
  S   S576      1.0  0.58400  0.99291  0.00601  1.0000
  C   C2086     1.0  0.52489  0.31270  0.13604  1.0000
  N   N144      1.0  0.63047  0.37386  0.16495  1.0000
  C   C2087     1.0  0.61587  0.37165  0.18177  1.0000
  C   C2088     1.0  0.63670  0.39111  0.16363  1.0000
  C   C2089     1.0  0.62230  0.37629  0.14865  1.0000
  C   C2090     1.0  0.64536  0.35724  0.16576  1.0000
  H   H2510     1.0  0.56901  0.18555  0.17917  1.0000
  C   C2091     1.0  0.66394  0.35778  0.16543  1.0000
  C   C2092     1.0  0.67759  0.34173  0.16641  1.0000
  N   N145      1.0  0.55484  0.42658  0.04599  1.0000
  H   H2511     1.0  0.57158  0.33196  0.12915  1.0000
  C   C2093     1.0  0.56895  0.00905  0.07256  1.0000
  H   H2512     1.0  0.60450  0.38401  0.18191  1.0000
  Fe  Fe290     1.0  0.49799  0.40711  0.08343  1.0000
  H   H2513     1.0  0.64236  0.39066  0.17581  1.0000
  H   H2514     1.0  0.52321  0.44918  0.26462  1.0000
  H   H2515     1.0  0.64727  0.39414  0.15092  1.0000
  H   H2516     1.0  0.61638  0.36434  0.14897  1.0000
  C   C2094     1.0  0.59998  0.16043  0.08937  1.0000
  H   H2517     1.0  0.63287  0.37801  0.13571  1.0000
  H   H2518     1.0  0.62764  0.33814  0.16737  1.0000
  H   H2519     1.0  0.66830  0.37040  0.16448  1.0000
  C   C2095     1.0  0.49675  0.32098  0.12418  1.0000
  H   H2520     1.0  0.53211  0.44115  0.03260  1.0000
  C   C2096     1.0  0.57108  0.15935  0.99912  1.0000
  H   H2521     1.0  0.73287  0.18477  0.15353  1.0000
  H   H2522     1.0  0.49692  0.23466  0.03129  1.0000
  H   H2523     1.0  0.61786  0.19819  0.06703  1.0000
  H   H2524     1.0  0.63192  0.99954  0.99374  1.0000
  H   H2525     1.0  0.57539  0.00293  0.10809  1.0000
  H   H2526     1.0  0.53907  0.16559  0.98725  1.0000
  C   C2097     1.0  0.56840  0.04068  0.04377  1.0000
  C   C2098     1.0  0.58054  0.99131  0.10070  1.0000
  C   C2099     1.0  0.56466  0.41951  0.02904  1.0000
  H   H2527     1.0  0.59153  0.18903  0.09085  1.0000
  C   C2100     1.0  0.63092  0.46339  0.14491  1.0000
  S   S577      1.0  0.59027  0.11845  0.97261  1.0000
  C   C2101     1.0  0.51731  0.18367  0.04770  1.0000
  C   C2102     1.0  0.71729  0.26867  0.13785  1.0000
  C   C2103     1.0  0.49448  0.28611  0.04058  1.0000
  H   H2528     1.0  0.58040  0.97846  0.11145  1.0000
  H   H2529     1.0  0.58556  0.04918  0.05704  1.0000
  C   C2104     1.0  0.61234  0.24853  0.28531  1.0000
  C   C2105     1.0  0.64143  0.33973  0.16704  1.0000
  H   H2530     1.0  0.48696  0.34989  0.11509  1.0000
  H   H2531     1.0  0.64246  0.12483  0.97003  1.0000
  H   H2532     1.0  0.54183  0.39542  0.12688  1.0000
  H   H2533     1.0  0.63889  0.29850  0.28428  1.0000
  C   C2106     1.0  0.55981  0.43729  0.07249  1.0000
  S   S578      1.0  0.50993  0.22567  0.12876  1.0000
  H   H2534     1.0  0.59038  0.30583  0.24554  1.0000
  C   C2107     1.0  0.52493  0.15788  0.03245  1.0000
  C   C2108     1.0  0.49603  0.15797  0.17856  1.0000
  H   H2535     1.0  0.58038  0.21131  0.17928  1.0000
  S   S579      1.0  0.51827  0.41844  0.01544  1.0000
  C   C2109     1.0  0.49427  0.46135  0.26864  1.0000
  H   H2536     1.0  0.58014  0.15069  0.98934  1.0000
  H   H2537     1.0  0.56425  0.25063  0.21372  1.0000
  C   C2110     1.0  0.48919  0.31879  0.03143  1.0000
  H   H2538     1.0  0.55305  0.35969  0.13736  1.0000
  H   H2539     1.0  0.72722  0.05863  0.05474  1.0000
  C   C2111     1.0  0.59209  0.34199  0.26273  1.0000
  H   H2540     1.0  0.53519  0.41748  0.07032  1.0000
  C   C2112     1.0  0.49982  0.17161  0.16288  1.0000
  H   H2541     1.0  0.55803  0.18432  0.01792  1.0000
  C   C2113     1.0  0.53362  0.21854  0.16566  1.0000
  Fe  Fe291     1.0  0.59207  0.44406  0.16295  1.0000
  H   H2542     1.0  0.61267  0.43062  0.05429  1.0000
  H   H2543     1.0  0.72245  0.23499  0.11445  1.0000
  S   S580      1.0  0.53956  0.45934  0.12866  1.0000
  C   C2114     1.0  0.48632  0.24094  0.04144  1.0000
  S   S581      1.0  0.55603  0.46889  0.28427  1.0000
  H   H2544     1.0  0.61086  0.38855  0.14771  1.0000
  H   H2545     1.0  0.48828  0.46204  0.20648  1.0000
  C   C2115     1.0  0.60334  0.31290  0.28267  1.0000
  C   C2116     1.0  0.55135  0.47167  0.26235  1.0000
  H   H2546     1.0  0.52956  0.20998  0.15816  1.0000
  H   H2547     1.0  0.71745  0.12838  0.01610  1.0000
  H   H2548     1.0  0.58343  0.33987  0.23881  1.0000
  H   H2549     1.0  0.60144  0.98566  0.03737  1.0000
  C   C2117     1.0  0.54458  0.41251  0.05820  1.0000
  H   H2550     1.0  0.66072  0.23817  0.14205  1.0000
  C   C2118     1.0  0.51208  0.34473  0.12526  1.0000
  H   H2551     1.0  0.63714  0.11384  0.07689  1.0000
  C   C2119     1.0  0.66002  0.13700  0.06070  1.0000
  C   C2120     1.0  0.53248  0.44183  0.12278  1.0000
  S   S582      1.0  0.51720  0.19605  0.10165  1.0000
  C   C2121     1.0  0.54138  0.44356  0.04054  1.0000
  C   C2122     1.0  0.64263  0.14463  0.03659  1.0000
  H   H2552     1.0  0.59524  0.99125  0.09376  1.0000
  S   S583      1.0  0.52259  0.17496  0.15392  1.0000
  H   H2553     1.0  0.50915  0.28421  0.03322  1.0000
  H   H2554     1.0  0.53508  0.30182  0.14185  1.0000
  C   C2123     1.0  0.48543  0.18235  0.15437  1.0000
  H   H2555     1.0  0.55413  0.39987  0.06355  1.0000
  H   H2556     1.0  0.53693  0.20139  0.03982  1.0000
  H   H2557     1.0  0.67081  0.19323  0.17442  1.0000
  H   H2558     1.0  0.49797  0.09390  0.14881  1.0000
  C   C2124     1.0  0.51419  0.43264  0.10608  1.0000
  H   H2559     1.0  0.52846  0.36379  0.14160  1.0000
  C   C2125     1.0  0.51043  0.30760  0.13160  1.0000
  H   H2560     1.0  0.55488  0.41655  0.02202  1.0000
  H   H2561     1.0  0.60993  0.13346  0.08458  1.0000
  C   C2126     1.0  0.61663  0.18387  0.07092  1.0000
  H   H2562     1.0  0.64083  0.17541  0.05178  1.0000
  H   H2563     1.0  0.52875  0.33493  0.16608  1.0000
  H   H2564     1.0  0.65981  0.13267  0.07573  1.0000
  H   H2565     1.0  0.66384  0.20397  0.15285  1.0000
  C   C2127     1.0  0.49758  0.33949  0.12101  1.0000
  C   C2128     1.0  0.72043  0.26134  0.15567  1.0000
  C   C2129     1.0  0.66241  0.23869  0.15590  1.0000
  H   H2566     1.0  0.53220  0.44885  0.05262  1.0000
  H   H2567     1.0  0.64769  0.11001  0.05433  1.0000
  C   C2130     1.0  0.55951  0.32782  0.12675  1.0000
  C   C2131     1.0  0.53542  0.40961  0.12269  1.0000
  H   H2568     1.0  0.58821  0.15660  0.09966  1.0000
  C   C2132     1.0  0.52240  0.41422  0.11141  1.0000
  N   N146      1.0  0.67402  0.22154  0.16418  1.0000
  H   H2569     1.0  0.58618  0.02258  0.08194  1.0000
  H   H2570     1.0  0.54518  0.43941  0.07818  1.0000
  C   C2133     1.0  0.63724  0.11980  0.06206  1.0000
  H   H2571     1.0  0.48773  0.33335  0.06199  1.0000
  C   C2134     1.0  0.51936  0.44644  0.11161  1.0000
  H   H2572     1.0  0.52063  0.22695  0.17198  1.0000
  C   C2135     1.0  0.54121  0.35645  0.13362  1.0000
  C   C2136     1.0  0.51296  0.47074  0.97098  1.0000
  C   C2137     1.0  0.67527  0.22349  0.18258  1.0000
  H   H2573     1.0  0.53857  0.42740  0.97876  1.0000
  C   C2138     1.0  0.55914  0.02707  0.04403  1.0000
  C   C2139     1.0  0.52621  0.33141  0.13298  1.0000
  N   N147      1.0  0.54188  0.33633  0.13757  1.0000
  H   H2574     1.0  0.60696  0.46257  0.20147  1.0000
  H   H2575     1.0  0.58833  0.23090  0.19515  1.0000
  H   H2576     1.0  0.55223  0.02831  0.03289  1.0000
  H   H2577     1.0  0.56771  0.17345  0.99082  1.0000
  C   C2140     1.0  0.62957  0.17074  0.06215  1.0000
  H   H2578     1.0  0.62153  0.36929  0.19439  1.0000
  H   H2579     1.0  0.56946  0.26148  0.27507  1.0000
  H   H2580     1.0  0.51184  0.35932  0.12233  1.0000
  S   S584      1.0  0.73409  0.45793  0.11779  1.0000
  H   H2581     1.0  0.59362  0.42340  0.03712  1.0000
  H   H2582     1.0  0.56221  0.31256  0.13044  1.0000
  H   H2583     1.0  0.64827  0.24114  0.16441  1.0000
  C   C2141     1.0  0.69287  0.21747  0.15303  1.0000
  H   H2584     1.0  0.64832  0.15734  0.03083  1.0000
  H   H2585     1.0  0.62509  0.40325  0.16304  1.0000
  H   H2586     1.0  0.48806  0.97856  0.24973  1.0000
  C   C2142     1.0  0.62787  0.15203  0.06650  1.0000
  H   H2587     1.0  0.66499  0.15018  0.05583  1.0000
  C   C2143     1.0  0.66426  0.20636  0.16647  1.0000
  H   H2588     1.0  0.56507  0.44639  0.09479  1.0000
  H   H2589     1.0  0.65153  0.00242  0.01130  1.0000
  H   H2590     1.0  0.59877  0.44206  0.08315  1.0000
  C   C2144     1.0  0.72943  0.20921  0.13265  1.0000
  H   H2591     1.0  0.48972  0.12103  0.17264  1.0000
  H   H2592     1.0  0.67072  0.12677  0.05379  1.0000
  C   C2145     1.0  0.51081  0.45317  0.27448  1.0000
  C   C2146     1.0  0.58896  0.33244  0.25091  1.0000
  H   H2593     1.0  0.58894  0.35690  0.25969  1.0000
  H   H2594     1.0  0.50602  0.11492  0.14125  1.0000
  H   H2595     1.0  0.52102  0.14580  0.03098  1.0000
  C   C2147     1.0  0.69953  0.22957  0.13666  1.0000
  C   C2148     1.0  0.72342  0.19714  0.14870  1.0000
  C   C2149     1.0  0.65401  0.98918  0.02037  1.0000
  H   H2596     1.0  0.64966  0.20955  0.17397  1.0000
  C   C2150     1.0  0.61267  0.14722  0.08050  1.0000
  H   H2597     1.0  0.53238  0.14453  0.00047  1.0000
  H   H2598     1.0  0.56869  0.05246  0.03247  1.0000
  H   H2599     1.0  0.54446  0.31415  0.16131  1.0000
  N   N148      1.0  0.64160  0.13850  0.05672  1.0000
  C   C2151     1.0  0.50028  0.30477  0.05993  1.0000
  C   C2152     1.0  0.65823  0.98917  0.03710  1.0000
  C   C2153     1.0  0.55929  0.01153  0.05823  1.0000
  C   C2154     1.0  0.59917  0.33245  0.27841  1.0000
  N   N149      1.0  0.55413  0.15207  0.00882  1.0000
  C   C2155     1.0  0.51149  0.45047  0.29297  1.0000
  H   H2600     1.0  0.69167  0.34236  0.16621  1.0000
  C   C2156     1.0  0.54432  0.15148  0.99459  1.0000
  C   C2157     1.0  0.54166  0.16315  0.02200  1.0000
  C   C2158     1.0  0.54560  0.17926  0.02495  1.0000
  S   S585      1.0  0.62281  0.44283  0.15523  1.0000
  C   C2159     1.0  0.53352  0.18930  0.03759  1.0000
  C   C2160     1.0  0.64983  0.46325  0.14207  1.0000
  C   C2161     1.0  0.65519  0.32383  0.16797  1.0000
  H   H2601     1.0  0.57048  0.44696  0.25667  1.0000
  H   H2602     1.0  0.65927  0.45054  0.14594  1.0000
  C   C2162     1.0  0.48798  0.23632  0.05996  1.0000
  H   H2603     1.0  0.56467  0.45098  0.22538  1.0000
  C   C2163     1.0  0.59786  0.43245  0.05934  1.0000
  H   H2604     1.0  0.60269  0.28887  0.27265  1.0000
  H   H2605     1.0  0.50712  0.14966  0.18524  1.0000
  H   H2606     1.0  0.57952  0.15954  0.00895  1.0000
  H   H2607     1.0  0.50996  0.29315  0.13378  1.0000
  H   H2608     1.0  0.62766  0.28005  0.28599  1.0000
  H   H2609     1.0  0.49327  0.10881  0.12761  1.0000
  H   H2610     1.0  0.49896  0.97986  0.22607  1.0000
  H   H2611     1.0  0.54409  0.00384  0.10460  1.0000
  H   H2612     1.0  0.51974  0.20275  0.19971  1.0000
  C   C2164     1.0  0.62878  0.29027  0.29349  1.0000
  H   H2613     1.0  0.73417  0.25445  0.15777  1.0000
  C   C2165     1.0  0.54034  0.42337  0.12849  1.0000
  H   H2614     1.0  0.57255  0.98670  0.27975  1.0000
  C   C2166     1.0  0.51340  0.28958  0.06696  1.0000
  H   H2615     1.0  0.58335  0.47045  0.19909  1.0000
  C   C2167     1.0  0.52210  0.30806  0.08356  1.0000
  S   S586      1.0  0.50156  0.39030  0.06232  1.0000
  H   H2616     1.0  0.56988  0.12443  0.00927  1.0000
  H   H2617     1.0  0.54834  0.12580  0.02503  1.0000
  C   C2168     1.0  0.51300  0.16800  0.04511  1.0000
  H   H2618     1.0  0.49982  0.22651  0.06411  1.0000
  H   H2619     1.0  0.60122  0.34071  0.28697  1.0000
  C   C2169     1.0  0.51365  0.97493  0.08610  1.0000
  C   C2170     1.0  0.56034  0.24191  0.20674  1.0000
  N   N150      1.0  0.61072  0.30223  0.29916  1.0000
  C   C2171     1.0  0.67321  0.32480  0.16771  1.0000
  S   S587      1.0  0.71865  0.10535  0.05233  1.0000
  H   H2620     1.0  0.53574  0.40843  0.05094  1.0000
  C   C2172     1.0  0.60184  0.17873  0.08446  1.0000
  H   H2621     1.0  0.68217  0.21057  0.19055  1.0000
  H   H2622     1.0  0.55544  0.18597  0.16304  1.0000
  H   H2623     1.0  0.68327  0.23423  0.18133  1.0000
  C   C2173     1.0  0.57628  0.97571  0.07918  1.0000
  C   C2174     1.0  0.50276  0.45434  0.00217  1.0000
  H   H2624     1.0  0.60933  0.35987  0.18306  1.0000
  H   H2625     1.0  0.53129  0.25082  0.21608  1.0000
  H   H2626     1.0  0.65189  0.31059  0.16900  1.0000
  C   C2175     1.0  0.56721  0.43065  0.05592  1.0000
  C   C2176     1.0  0.55028  0.21891  0.18855  1.0000
  C   C2177     1.0  0.56908  0.21937  0.18730  1.0000
  C   C2178     1.0  0.53679  0.23072  0.19907  1.0000
  C   C2179     1.0  0.57391  0.23069  0.19634  1.0000
  S   S588      1.0  0.51717  0.39683  0.10354  1.0000
  C   C2180     1.0  0.54180  0.24197  0.20805  1.0000
  C   C2181     1.0  0.53297  0.19489  0.19315  1.0000
  C   C2182     1.0  0.59995  0.30368  0.27031  1.0000
  H   H2627     1.0  0.54040  0.18656  0.20422  1.0000
  C   C2183     1.0  0.50908  0.32309  0.07727  1.0000
  H   H2628     1.0  0.49345  0.45401  0.01542  1.0000
  C   C2184     1.0  0.52409  0.29130  0.07859  1.0000
  H   H2629     1.0  0.57458  0.40637  0.03220  1.0000
  H   H2630     1.0  0.50726  0.33607  0.08139  1.0000
  C   C2185     1.0  0.57824  0.02324  0.07189  1.0000
  C   C2186     1.0  0.49419  0.10851  0.14195  1.0000
  H   H2631     1.0  0.50003  0.39073  0.98256  1.0000
  H   H2632     1.0  0.55199  0.00132  0.05770  1.0000
  C   C2187     1.0  0.56069  0.45874  0.25141  1.0000
  C   C2188     1.0  0.55747  0.46106  0.23365  1.0000
  H   H2633     1.0  0.48676  0.14358  0.14454  1.0000
  H   H2634     1.0  0.51554  0.27614  0.06386  1.0000
  H   H2635     1.0  0.50358  0.31898  0.02367  1.0000
  H   H2636     1.0  0.50755  0.98605  0.07623  1.0000
  H   H2637     1.0  0.54855  0.45470  0.03185  1.0000
  H   H2638     1.0  0.65592  0.99739  0.98224  1.0000
  H   H2639     1.0  0.49267  0.27391  0.05182  1.0000
  H   H2640     1.0  0.63999  0.98968  0.97378  1.0000
  S   S589      1.0  0.56954  0.46870  0.15816  1.0000
  H   H2641     1.0  0.48609  0.28591  0.03066  1.0000
  H   H2642     1.0  0.52456  0.44457  0.29733  1.0000
  H   H2643     1.0  0.48956  0.44164  0.97460  1.0000
  H   H2644     1.0  0.49072  0.40426  0.00010  1.0000
  H   H2645     1.0  0.54915  0.97906  0.10852  1.0000
  H   H2646     1.0  0.49382  0.46368  0.25421  1.0000
  H   H2647     1.0  0.54039  0.99229  0.08878  1.0000
  H   H2648     1.0  0.48819  0.19294  0.14230  1.0000
  H   H2649     1.0  0.60171  0.46988  0.17915  1.0000
  C   C2189     1.0  0.50120  0.47029  0.98832  1.0000
  C   C2190     1.0  0.64387  0.99050  0.98658  1.0000
  C   C2191     1.0  0.49595  0.40503  0.98504  1.0000
  C   C2192     1.0  0.59761  0.47293  0.19323  1.0000
  C   C2193     1.0  0.48671  0.97608  0.23648  1.0000
  H   H2650     1.0  0.59034  0.97598  0.07057  1.0000
  H   H2651     1.0  0.68702  0.22168  0.30014  1.0000
  H   H2652     1.0  0.56739  0.97419  0.07042  1.0000
  H   H2653     1.0  0.61300  0.47397  0.22362  1.0000
  H   H2654     1.0  0.48558  0.31700  0.12069  1.0000
  S   S590      1.0  0.50132  0.02633  0.41553  1.0000
  S   S591      1.0  0.69553  0.22853  0.40718  1.0000
  Fe  Fe292     1.0  0.71813  0.99466  0.61283  1.0000
  H   H2655     1.0  0.57387  0.05672  0.42801  1.0000
  Fe  Fe293     1.0  0.55181  0.98740  0.37838  1.0000
  H   H2656     1.0  0.59507  0.45147  0.43919  1.0000
  S   S592      1.0  0.71185  0.01991  0.59114  1.0000
  Fe  Fe294     1.0  0.68789  0.02780  0.44271  1.0000
  S   S593      1.0  0.66722  0.04540  0.42597  1.0000
  Fe  Fe295     1.0  0.67307  0.04895  0.47395  1.0000
  S   S594      1.0  0.65077  0.06779  0.46005  1.0000
  S   S595      1.0  0.67458  0.05419  0.50114  1.0000
  Fe  Fe296     1.0  0.64688  0.04266  0.45276  1.0000
  S   S596      1.0  0.61952  0.03427  0.45739  1.0000
  Fe  Fe297     1.0  0.67309  0.06896  0.43474  1.0000
  H   H2657     1.0  0.67760  0.35315  0.55977  1.0000
  S   S597      1.0  0.66710  0.02362  0.46913  1.0000
  Fe  Fe298     1.0  0.60644  0.24022  0.33268  1.0000
  S   S598      1.0  0.57771  0.25607  0.34042  1.0000
  H   H2658     1.0  0.53106  0.08663  0.41788  1.0000
  Fe  Fe299     1.0  0.61057  0.22605  0.37249  1.0000
  S   S599      1.0  0.58238  0.24122  0.38353  1.0000
  S   S600      1.0  0.62809  0.20542  0.39104  1.0000
  Fe  Fe300     1.0  0.57338  0.23135  0.36263  1.0000
  S   S601      1.0  0.54607  0.22232  0.37228  1.0000
  Fe  Fe301     1.0  0.58916  0.26462  0.36047  1.0000
  S   S602      1.0  0.58097  0.29497  0.36021  1.0000
  S   S603      1.0  0.60114  0.21446  0.35311  1.0000
  S   S604      1.0  0.61831  0.25044  0.35130  1.0000
  C   C2194     1.0  0.72465  0.23615  0.44142  1.0000
  S   S605      1.0  0.51029  0.12295  0.34712  1.0000
  H   H2659     1.0  0.55489  0.32212  0.34158  1.0000
  C   C2195     1.0  0.66856  0.21454  0.34578  1.0000
  C   C2196     1.0  0.70275  0.21029  0.32164  1.0000
  H   H2660     1.0  0.72444  0.44096  0.59005  1.0000
  H   H2661     1.0  0.52543  0.44310  0.42701  1.0000
  C   C2197     1.0  0.65763  0.98572  0.45323  1.0000
  H   H2662     1.0  0.62363  0.32266  0.30305  1.0000
  H   H2663     1.0  0.52197  0.45176  0.34091  1.0000
  H   H2664     1.0  0.52841  0.30876  0.43554  1.0000
  Fe  Fe302     1.0  0.71406  0.38722  0.61379  1.0000
  H   H2665     1.0  0.57504  0.98466  0.31183  1.0000
  S   S606      1.0  0.68434  0.39361  0.61082  1.0000
  H   H2666     1.0  0.61898  0.30525  0.32308  1.0000
  Fe  Fe303     1.0  0.63792  0.42527  0.52832  1.0000
  S   S607      1.0  0.62869  0.43760  0.50143  1.0000
  S   S608      1.0  0.66792  0.41913  0.53032  1.0000
  Fe  Fe304     1.0  0.59875  0.42606  0.55010  1.0000
  S   S609      1.0  0.58598  0.43829  0.52523  1.0000
  Fe  Fe305     1.0  0.60871  0.41826  0.51148  1.0000
  S   S610      1.0  0.60654  0.40051  0.49278  1.0000
  Fe  Fe306     1.0  0.60685  0.45652  0.51726  1.0000
  H   H2667     1.0  0.68235  0.37153  0.56718  1.0000
  S   S611      1.0  0.61986  0.40439  0.53722  1.0000
  S   S612      1.0  0.61779  0.44592  0.54321  1.0000
  Fe  Fe307     1.0  0.54375  0.34722  0.43735  1.0000
  S   S613      1.0  0.51955  0.35204  0.42419  1.0000
  S   S614      1.0  0.56318  0.31984  0.43664  1.0000
  Fe  Fe308     1.0  0.53151  0.38408  0.44952  1.0000
  H   H2668     1.0  0.61804  0.04572  0.39170  1.0000
  S   S615      1.0  0.53377  0.40526  0.46438  1.0000
  Fe  Fe309     1.0  0.50299  0.36281  0.44906  1.0000
  H   H2669     1.0  0.58584  0.12872  0.37245  1.0000
  Fe  Fe310     1.0  0.52522  0.38046  0.41305  1.0000
  S   S616      1.0  0.52686  0.39179  0.38269  1.0000
  S   S617      1.0  0.52674  0.35571  0.46351  1.0000
  S   S618      1.0  0.55082  0.37503  0.42453  1.0000
  H   H2670     1.0  0.52345  0.43762  0.56306  1.0000
  H   H2671     1.0  0.52012  0.37556  0.35485  1.0000
  H   H2672     1.0  0.50678  0.99372  0.34593  1.0000
  C   C2198     1.0  0.50066  0.31140  0.43225  1.0000
  C   C2199     1.0  0.61352  0.31380  0.31077  1.0000
  H   H2673     1.0  0.51337  0.00565  0.37012  1.0000
  C   C2200     1.0  0.51676  0.41504  0.37636  1.0000
  C   C2201     1.0  0.52357  0.42510  0.35906  1.0000
  C   C2202     1.0  0.51635  0.44395  0.35409  1.0000
  S   S619      1.0  0.53124  0.98133  0.40441  1.0000
  C   C2203     1.0  0.68672  0.36335  0.55622  1.0000
  S   S620      1.0  0.69581  0.05163  0.44903  1.0000
  H   H2674     1.0  0.53480  0.41845  0.34967  1.0000
  N   N151      1.0  0.50020  0.35790  0.36741  1.0000
  H   H2675     1.0  0.49995  0.25957  0.40140  1.0000
  H   H2676     1.0  0.57058  0.45860  0.56304  1.0000
  C   C2204     1.0  0.58587  0.40163  0.48574  1.0000
  C   C2205     1.0  0.58523  0.38859  0.47602  1.0000
  C   C2206     1.0  0.56924  0.38937  0.46965  1.0000
  C   C2207     1.0  0.55380  0.40330  0.47286  1.0000
  C   C2208     1.0  0.55442  0.41635  0.48258  1.0000
  C   C2209     1.0  0.57037  0.41549  0.48906  1.0000
  H   H2677     1.0  0.59719  0.37784  0.47338  1.0000
  H   H2678     1.0  0.56892  0.37925  0.46217  1.0000
  H   H2679     1.0  0.54255  0.42722  0.48503  1.0000
  H   H2680     1.0  0.57076  0.42565  0.49644  1.0000
  H   H2681     1.0  0.70286  0.33482  0.53981  1.0000
  H   H2682     1.0  0.52370  0.42968  0.62047  1.0000
  C   C2210     1.0  0.70966  0.34102  0.57140  1.0000
  C   C2211     1.0  0.50202  0.45265  0.36629  1.0000
  C   C2212     1.0  0.67979  0.40107  0.58846  1.0000
  C   C2213     1.0  0.69358  0.40596  0.57340  1.0000
  C   C2214     1.0  0.68981  0.41139  0.55561  1.0000
  C   C2215     1.0  0.67218  0.41216  0.55278  1.0000
  C   C2216     1.0  0.65825  0.40760  0.56786  1.0000
  C   C2217     1.0  0.66206  0.40208  0.58567  1.0000
  H   H2683     1.0  0.70713  0.40571  0.57545  1.0000
  H   H2684     1.0  0.70057  0.41514  0.54401  1.0000
  H   H2685     1.0  0.64457  0.40820  0.56581  1.0000
  H   H2686     1.0  0.65129  0.39840  0.59729  1.0000
  H   H2687     1.0  0.56461  0.41571  0.43070  1.0000
  C   C2218     1.0  0.66888  0.46338  0.54094  1.0000
  C   C2219     1.0  0.56005  0.42513  0.58444  1.0000
  C   C2220     1.0  0.56069  0.44309  0.41311  1.0000
  C   C2221     1.0  0.57645  0.30168  0.38151  1.0000
  C   C2222     1.0  0.56787  0.31985  0.38275  1.0000
  C   C2223     1.0  0.56366  0.32549  0.39964  1.0000
  C   C2224     1.0  0.56831  0.31303  0.41534  1.0000
  C   C2225     1.0  0.57706  0.29487  0.41407  1.0000
  C   C2226     1.0  0.58100  0.28915  0.39721  1.0000
  H   H2688     1.0  0.56460  0.32966  0.37062  1.0000
  H   H2689     1.0  0.55718  0.33958  0.40045  1.0000
  H   H2690     1.0  0.58074  0.28522  0.42617  1.0000
  H   H2691     1.0  0.58778  0.27514  0.39634  1.0000
  C   C2227     1.0  0.50520  0.35454  0.38561  1.0000
  S   S621      1.0  0.50633  0.39187  0.43683  1.0000
  S   S622      1.0  0.73430  0.00126  0.54461  1.0000
  H   H2692     1.0  0.48910  0.42286  0.57227  1.0000
  C   C2228     1.0  0.51037  0.34257  0.35803  1.0000
  C   C2229     1.0  0.54279  0.20638  0.36094  1.0000
  C   C2230     1.0  0.55605  0.20084  0.34609  1.0000
  C   C2231     1.0  0.55309  0.18821  0.33716  1.0000
  C   C2232     1.0  0.53687  0.18105  0.34301  1.0000
  C   C2233     1.0  0.52367  0.18652  0.35795  1.0000
  C   C2234     1.0  0.52662  0.19916  0.36688  1.0000
  H   H2693     1.0  0.56850  0.20639  0.34131  1.0000
  H   H2694     1.0  0.71973  0.30767  0.61730  1.0000
  H   H2695     1.0  0.51116  0.18107  0.36258  1.0000
  H   H2696     1.0  0.51632  0.20336  0.37838  1.0000
  H   H2697     1.0  0.69385  0.98952  0.58946  1.0000
  C   C2235     1.0  0.69115  0.03931  0.51308  1.0000
  C   C2236     1.0  0.70311  0.02455  0.50603  1.0000
  H   H2698     1.0  0.50601  0.06705  0.35750  1.0000
  H   H2699     1.0  0.50505  0.07338  0.33359  1.0000
  C   C2237     1.0  0.70588  0.03104  0.53955  1.0000
  C   C2238     1.0  0.69261  0.04257  0.52980  1.0000
  H   H2700     1.0  0.70209  0.02200  0.49309  1.0000
  S   S623      1.0  0.55027  0.98036  0.35204  1.0000
  C   C2239     1.0  0.72046  0.26875  0.42922  1.0000
  C   C2240     1.0  0.67688  0.22223  0.40234  1.0000
  C   C2241     1.0  0.67432  0.20408  0.40812  1.0000
  C   C2242     1.0  0.65943  0.19907  0.40434  1.0000
  C   C2243     1.0  0.64685  0.21223  0.39497  1.0000
  C   C2244     1.0  0.64932  0.23042  0.38919  1.0000
  C   C2245     1.0  0.66435  0.23541  0.39287  1.0000
  H   H2701     1.0  0.68341  0.19404  0.41608  1.0000
  H   H2702     1.0  0.65748  0.18504  0.40894  1.0000
  H   H2703     1.0  0.63957  0.24069  0.38208  1.0000
  H   H2704     1.0  0.66619  0.24951  0.38846  1.0000
  H   H2705     1.0  0.72861  0.10232  0.46409  1.0000
  Fe  Fe311     1.0  0.50762  0.15366  0.34008  1.0000
  H   H2706     1.0  0.68367  0.37319  0.54340  1.0000
  C   C2246     1.0  0.49685  0.05041  0.41003  1.0000
  H   H2707     1.0  0.58598  0.42136  0.44656  1.0000
  C   C2247     1.0  0.49413  0.40745  0.55145  1.0000
  C   C2248     1.0  0.48794  0.08898  0.40202  1.0000
  C   C2249     1.0  0.50313  0.07966  0.39104  1.0000
  C   C2250     1.0  0.50774  0.06031  0.39520  1.0000
  H   H2708     1.0  0.54774  0.42163  0.38588  1.0000
  H   H2709     1.0  0.56107  0.04107  0.41203  1.0000
  H   H2710     1.0  0.51148  0.08737  0.37963  1.0000
  H   H2711     1.0  0.51950  0.05309  0.38682  1.0000
  C   C2251     1.0  0.59415  0.01771  0.42590  1.0000
  C   C2252     1.0  0.59982  0.02035  0.44092  1.0000
  C   C2253     1.0  0.61226  0.03190  0.43825  1.0000
  C   C2254     1.0  0.61878  0.04111  0.42046  1.0000
  H   H2712     1.0  0.59478  0.01314  0.45464  1.0000
  H   H2713     1.0  0.62820  0.05026  0.41832  1.0000
  C   C2255     1.0  0.59773  0.29047  0.31088  1.0000
  H   H2714     1.0  0.64628  0.99664  0.45844  1.0000
  H   H2715     1.0  0.72163  0.23335  0.42901  1.0000
  H   H2716     1.0  0.64777  0.01363  0.42635  1.0000
  C   C2256     1.0  0.66887  0.00135  0.54570  1.0000
  H   H2717     1.0  0.55898  0.01625  0.48237  1.0000
  H   H2718     1.0  0.50525  0.98668  0.47575  1.0000
  H   H2719     1.0  0.70697  0.27115  0.43887  1.0000
  H   H2720     1.0  0.71589  0.26244  0.49702  1.0000
  H   H2721     1.0  0.53703  0.04577  0.41210  1.0000
  C   C2257     1.0  0.49810  0.03308  0.36208  1.0000
  C   C2258     1.0  0.58566  0.44918  0.43186  1.0000
  H   H2722     1.0  0.60027  0.32254  0.31625  1.0000
  H   H2723     1.0  0.55047  0.06287  0.40008  1.0000
  H   H2724     1.0  0.52772  0.46726  0.61635  1.0000
  H   H2725     1.0  0.71542  0.37883  0.53756  1.0000
  C   C2259     1.0  0.68647  0.21762  0.31485  1.0000
  H   H2726     1.0  0.49482  0.32137  0.44107  1.0000
  N   N152      1.0  0.63242  0.14126  0.39438  1.0000
  C   C2260     1.0  0.64744  0.13175  0.38144  1.0000
  S   S624      1.0  0.55173  0.00340  0.42254  1.0000
  C   C2261     1.0  0.62940  0.12837  0.41235  1.0000
  C   C2262     1.0  0.61512  0.14703  0.38715  1.0000
  C   C2263     1.0  0.60500  0.16547  0.38475  1.0000
  C   C2264     1.0  0.60760  0.13388  0.38271  1.0000
  C   C2265     1.0  0.58852  0.17029  0.37821  1.0000
  C   C2266     1.0  0.59124  0.13892  0.37597  1.0000
  C   C2267     1.0  0.58173  0.15709  0.37371  1.0000
  H   H2727     1.0  0.64953  0.14063  0.36746  1.0000
  H   H2728     1.0  0.66081  0.12788  0.38620  1.0000
  H   H2729     1.0  0.64467  0.11864  0.38012  1.0000
  H   H2730     1.0  0.61789  0.97476  0.40100  1.0000
  C   C2268     1.0  0.52127  0.02266  0.46403  1.0000
  S   S625      1.0  0.54836  0.01722  0.37900  1.0000
  H   H2731     1.0  0.62622  0.11540  0.41109  1.0000
  H   H2732     1.0  0.64192  0.12418  0.41858  1.0000
  H   H2733     1.0  0.61774  0.13467  0.42229  1.0000
  H   H2734     1.0  0.60945  0.17652  0.38778  1.0000
  C   C2269     1.0  0.68478  0.10472  0.44552  1.0000
  H   H2735     1.0  0.58091  0.18440  0.37654  1.0000
  C   C2270     1.0  0.52492  0.03701  0.44919  1.0000
  H   H2736     1.0  0.55789  0.42165  0.61362  1.0000
  N   N153      1.0  0.52430  0.27031  0.39875  1.0000
  C   C2271     1.0  0.51091  0.26539  0.39059  1.0000
  C   C2272     1.0  0.53899  0.27666  0.38341  1.0000
  C   C2273     1.0  0.53266  0.25331  0.41049  1.0000
  C   C2274     1.0  0.51593  0.28469  0.40986  1.0000
  C   C2275     1.0  0.52712  0.29114  0.41813  1.0000
  H   H2737     1.0  0.67845  0.47190  0.53127  1.0000
  H   H2738     1.0  0.50443  0.27745  0.38119  1.0000
  H   H2739     1.0  0.51773  0.25459  0.38228  1.0000
  S   S626      1.0  0.72601  0.40538  0.62459  1.0000
  H   H2740     1.0  0.53376  0.29029  0.37523  1.0000
  H   H2741     1.0  0.54465  0.26680  0.37392  1.0000
  H   H2742     1.0  0.55097  0.27806  0.38832  1.0000
  H   H2743     1.0  0.52222  0.24839  0.42256  1.0000
  H   H2744     1.0  0.53860  0.24195  0.40275  1.0000
  H   H2745     1.0  0.54414  0.25535  0.41580  1.0000
  H   H2746     1.0  0.54184  0.28596  0.41632  1.0000
  H   H2747     1.0  0.71541  0.16891  0.35140  1.0000
  H   H2748     1.0  0.50242  0.37822  0.34221  1.0000
  C   C2276     1.0  0.60083  0.02666  0.40809  1.0000
  S   S627      1.0  0.72903  0.99011  0.35390  1.0000
  H   H2749     1.0  0.62899  0.16405  0.40758  1.0000
  C   C2277     1.0  0.70539  0.34724  0.58823  1.0000
  S   S628      1.0  0.58428  0.42094  0.57979  1.0000
  C   C2278     1.0  0.70880  0.33528  0.60459  1.0000
  C   C2279     1.0  0.71659  0.31681  0.60472  1.0000
  H   H2750     1.0  0.67138  0.00317  0.58703  1.0000
  S   S629      1.0  0.49726  0.44178  0.59643  1.0000
  H   H2751     1.0  0.65230  0.15210  0.40220  1.0000
  H   H2752     1.0  0.52075  0.43212  0.41099  1.0000
  C   C2280     1.0  0.53105  0.42974  0.60645  1.0000
  H   H2753     1.0  0.48794  0.01421  0.32406  1.0000
  H   H2754     1.0  0.50447  0.30785  0.34033  1.0000
  H   H2755     1.0  0.58376  0.29879  0.31496  1.0000
  S   S630      1.0  0.67602  0.09647  0.41625  1.0000
  H   H2756     1.0  0.70611  0.17815  0.37192  1.0000
  H   H2757     1.0  0.61430  0.11955  0.38446  1.0000
  C   C2281     1.0  0.63755  0.99731  0.36411  1.0000
  C   C2282     1.0  0.48696  0.39786  0.54260  1.0000
  C   C2283     1.0  0.71642  0.07240  0.48539  1.0000
  C   C2284     1.0  0.63907  0.15681  0.39718  1.0000
  H   H2758     1.0  0.49676  0.41594  0.40167  1.0000
  H   H2759     1.0  0.53860  0.30240  0.33299  1.0000
  C   C2285     1.0  0.54092  0.04455  0.44589  1.0000
  H   H2760     1.0  0.69136  0.11160  0.46834  1.0000
  C   C2286     1.0  0.71780  0.01623  0.53257  1.0000
  H   H2761     1.0  0.63499  0.02233  0.37311  1.0000
  H   H2762     1.0  0.56292  0.07862  0.41721  1.0000
  H   H2763     1.0  0.72564  0.00160  0.51030  1.0000
  H   H2764     1.0  0.70693  0.03373  0.55238  1.0000
  H   H2765     1.0  0.52764  0.97998  0.44764  1.0000
  C   C2287     1.0  0.73347  0.08349  0.53531  1.0000
  C   C2288     1.0  0.68473  0.20727  0.35273  1.0000
  C   C2289     1.0  0.64442  0.01045  0.36861  1.0000
  H   H2766     1.0  0.53772  0.34707  0.35722  1.0000
  C   C2290     1.0  0.70081  0.12936  0.44278  1.0000
  H   H2767     1.0  0.71495  0.37577  0.56150  1.0000
  H   H2768     1.0  0.51616  0.07081  0.42717  1.0000
  C   C2291     1.0  0.68411  0.99507  0.57981  1.0000
  C   C2292     1.0  0.53173  0.43335  0.41751  1.0000
  H   H2769     1.0  0.70750  0.02052  0.36992  1.0000
  H   H2770     1.0  0.58491  0.24920  0.30177  1.0000
  S   S631      1.0  0.72002  0.17742  0.40694  1.0000
  H   H2771     1.0  0.59624  0.28000  0.30392  1.0000
  C   C2293     1.0  0.68013  0.46038  0.56861  1.0000
  N   N154      1.0  0.54466  0.05941  0.42969  1.0000
  C   C2294     1.0  0.63409  0.99212  0.55674  1.0000
  C   C2295     1.0  0.69224  0.11494  0.45362  1.0000
  C   C2296     1.0  0.68539  0.10915  0.42655  1.0000
  C   C2297     1.0  0.51955  0.30424  0.42918  1.0000
  C   C2298     1.0  0.49669  0.29243  0.41310  1.0000
  C   C2299     1.0  0.72911  0.97915  0.39098  1.0000
  H   H2772     1.0  0.71373  0.07628  0.47114  1.0000
  Fe  Fe312     1.0  0.57102  0.00763  0.39518  1.0000
  Fe  Fe313     1.0  0.52956  0.01042  0.40612  1.0000
  H   H2773     1.0  0.69414  0.12725  0.40107  1.0000
  S   S632      1.0  0.53367  0.16533  0.33134  1.0000
  C   C2300     1.0  0.71788  0.36830  0.55013  1.0000
  C   C2301     1.0  0.55313  0.03670  0.45837  1.0000
  C   C2302     1.0  0.49481  0.44244  0.38333  1.0000
  H   H2774     1.0  0.70960  0.20891  0.37267  1.0000
  C   C2303     1.0  0.52134  0.43460  0.59217  1.0000
  H   H2775     1.0  0.62047  0.98870  0.56109  1.0000
  H   H2776     1.0  0.55762  0.42883  0.55634  1.0000
  C   C2304     1.0  0.69697  0.46646  0.56016  1.0000
  Fe  Fe314     1.0  0.55524  0.97479  0.41834  1.0000
  C   C2305     1.0  0.71734  0.32201  0.57208  1.0000
  C   C2306     1.0  0.67995  0.44725  0.58543  1.0000
  C   C2307     1.0  0.53095  0.43414  0.57410  1.0000
  C   C2308     1.0  0.67546  0.99306  0.36128  1.0000
  H   H2777     1.0  0.50194  0.34134  0.39441  1.0000
  C   C2309     1.0  0.54843  0.05203  0.41273  1.0000
  Fe  Fe315     1.0  0.73436  0.02963  0.59826  1.0000
  C   C2310     1.0  0.56080  0.06718  0.42928  1.0000
  C   C2311     1.0  0.69348  0.12387  0.41577  1.0000
  H   H2778     1.0  0.71131  0.23785  0.45136  1.0000
  H   H2779     1.0  0.66798  0.44147  0.59278  1.0000
  H   H2780     1.0  0.53242  0.46732  0.39750  1.0000
  H   H2781     1.0  0.55116  0.46060  0.37908  1.0000
  H   H2782     1.0  0.69073  0.00486  0.56827  1.0000
  C   C2312     1.0  0.64741  0.98391  0.56754  1.0000
  H   H2783     1.0  0.53071  0.00384  0.48730  1.0000
  H   H2784     1.0  0.49564  0.35860  0.50232  1.0000
  H   H2785     1.0  0.50861  0.40834  0.54736  1.0000
  H   H2786     1.0  0.62616  0.97688  0.46243  1.0000
  H   H2787     1.0  0.64165  0.16705  0.38410  1.0000
  C   C2313     1.0  0.72312  0.99307  0.37680  1.0000
  H   H2788     1.0  0.67228  0.00631  0.42317  1.0000
  C   C2314     1.0  0.51155  0.31655  0.34413  1.0000
  H   H2789     1.0  0.67841  0.09348  0.45399  1.0000
  C   C2315     1.0  0.71121  0.34543  0.53787  1.0000
  H   H2790     1.0  0.49762  0.38735  0.36282  1.0000
  H   H2791     1.0  0.53573  0.41960  0.42612  1.0000
  H   H2792     1.0  0.70560  0.34047  0.61716  1.0000
  Fe  Fe316     1.0  0.72454  0.16449  0.43546  1.0000
  S   S633      1.0  0.73238  0.05846  0.60190  1.0000
  H   H2793     1.0  0.65658  0.46572  0.53474  1.0000
  C   C2316     1.0  0.50140  0.33084  0.35308  1.0000
  N   N155      1.0  0.54762  0.43947  0.40368  1.0000
  C   C2317     1.0  0.55029  0.42931  0.57026  1.0000
  C   C2318     1.0  0.53077  0.31349  0.33990  1.0000
  S   S634      1.0  0.48941  0.15760  0.31995  1.0000
  C   C2319     1.0  0.57864  0.46317  0.41838  1.0000
  H   H2794     1.0  0.65849  0.01964  0.52253  1.0000
  N   N156      1.0  0.66391  0.46739  0.55973  1.0000
  H   H2795     1.0  0.56904  0.16100  0.36847  1.0000
  C   C2320     1.0  0.52995  0.33890  0.35367  1.0000
  H   H2796     1.0  0.69895  0.02546  0.40197  1.0000
  H   H2797     1.0  0.56333  0.18406  0.32559  1.0000
  C   C2321     1.0  0.71272  0.45953  0.56788  1.0000
  C   C2322     1.0  0.65941  0.00255  0.42228  1.0000
  H   H2798     1.0  0.48702  0.28840  0.40750  1.0000
  H   H2799     1.0  0.68332  0.20359  0.36750  1.0000
  C   C2323     1.0  0.50128  0.00796  0.34702  1.0000
  H   H2800     1.0  0.58488  0.00846  0.42816  1.0000
  H   H2801     1.0  0.72194  0.22223  0.35293  1.0000
  C   C2324     1.0  0.66942  0.21967  0.32689  1.0000
  C   C2325     1.0  0.67767  0.97766  0.63350  1.0000
  C   C2326     1.0  0.70138  0.13379  0.42383  1.0000
  C   C2327     1.0  0.72075  0.31018  0.58853  1.0000
  C   C2328     1.0  0.72332  0.25815  0.46910  1.0000
  H   H2802     1.0  0.52015  0.35401  0.38444  1.0000
  N   N157      1.0  0.70647  0.35415  0.55415  1.0000
  C   C2329     1.0  0.51636  0.97482  0.47666  1.0000
  H   H2803     1.0  0.56927  0.42867  0.38288  1.0000
  C   C2330     1.0  0.53993  0.32462  0.34471  1.0000
  H   H2804     1.0  0.65683  0.22525  0.32156  1.0000
  H   H2805     1.0  0.55337  0.46581  0.59053  1.0000
  N   N158      1.0  0.65509  0.17523  0.46311  1.0000
  C   C2331     1.0  0.66001  0.16329  0.44939  1.0000
  C   C2332     1.0  0.67164  0.17280  0.47101  1.0000
  C   C2333     1.0  0.64036  0.16869  0.47831  1.0000
  C   C2334     1.0  0.64841  0.19448  0.45426  1.0000
  C   C2335     1.0  0.63217  0.19917  0.44685  1.0000
  C   C2336     1.0  0.65775  0.20896  0.45246  1.0000
  C   C2337     1.0  0.62564  0.21719  0.43829  1.0000
  C   C2338     1.0  0.65106  0.22694  0.44388  1.0000
  C   C2339     1.0  0.63506  0.23104  0.43682  1.0000
  H   H2806     1.0  0.67149  0.16737  0.43803  1.0000
  H   H2807     1.0  0.66474  0.14864  0.45568  1.0000
  H   H2808     1.0  0.64824  0.16380  0.44310  1.0000
  H   H2809     1.0  0.68367  0.17639  0.46016  1.0000
  H   H2810     1.0  0.67624  0.15823  0.47769  1.0000
  H   H2811     1.0  0.66893  0.18123  0.48164  1.0000
  H   H2812     1.0  0.62814  0.16795  0.47334  1.0000
  H   H2813     1.0  0.64526  0.15459  0.48593  1.0000
  H   H2814     1.0  0.63554  0.17798  0.48838  1.0000
  H   H2815     1.0  0.62457  0.18889  0.44722  1.0000
  H   H2816     1.0  0.67046  0.20675  0.45716  1.0000
  H   H2817     1.0  0.61354  0.22034  0.43221  1.0000
  H   H2818     1.0  0.65867  0.23767  0.44213  1.0000
  H   H2819     1.0  0.63023  0.24490  0.42975  1.0000
  S   S635      1.0  0.59401  0.02339  0.38903  1.0000
  C   C2340     1.0  0.50226  0.42368  0.38842  1.0000
  C   C2341     1.0  0.52837  0.07478  0.42935  1.0000
  C   C2342     1.0  0.70234  0.20475  0.34088  1.0000
  H   H2820     1.0  0.68345  0.05406  0.53523  1.0000
  H   H2821     1.0  0.72723  0.29588  0.58856  1.0000
  S   S636      1.0  0.57635  0.97832  0.39203  1.0000
  C   C2343     1.0  0.55039  0.42510  0.60257  1.0000
  H   H2822     1.0  0.69959  0.36151  0.58887  1.0000
  C   C2344     1.0  0.61306  0.03848  0.40541  1.0000
  H   H2823     1.0  0.73284  0.36202  0.54810  1.0000
  C   C2345     1.0  0.66334  0.00832  0.36724  1.0000
  C   C2346     1.0  0.71764  0.17782  0.35976  1.0000
  H   H2824     1.0  0.67080  0.98930  0.45361  1.0000
  C   C2347     1.0  0.63810  0.00487  0.54053  1.0000
  C   C2348     1.0  0.57142  0.47334  0.55792  1.0000
  C   C2349     1.0  0.72123  0.20796  0.36064  1.0000
  C   C2350     1.0  0.64767  0.45906  0.56986  1.0000
  S   S637      1.0  0.71010  0.14183  0.45350  1.0000
  C   C2351     1.0  0.48948  0.38809  0.49576  1.0000
  H   H2825     1.0  0.69002  0.99201  0.36047  1.0000
  C   C2352     1.0  0.71643  0.01305  0.51577  1.0000
  Fe  Fe317     1.0  0.71709  0.20398  0.41540  1.0000
  H   H2826     1.0  0.71854  0.05717  0.48925  1.0000
  H   H2827     1.0  0.50893  0.01721  0.46613  1.0000
  H   H2828     1.0  0.69534  0.43018  0.60567  1.0000
  H   H2829     1.0  0.49734  0.45388  0.31972  1.0000
  H   H2830     1.0  0.72558  0.46401  0.56103  1.0000
  H   H2831     1.0  0.66870  0.01862  0.37066  1.0000
  C   C2353     1.0  0.54011  0.45576  0.39051  1.0000
  C   C2354     1.0  0.73441  0.07475  0.50626  1.0000
  C   C2355     1.0  0.53353  0.01517  0.47594  1.0000
  H   H2832     1.0  0.66043  0.00276  0.40756  1.0000
  C   C2356     1.0  0.62533  0.97623  0.44877  1.0000
  Fe  Fe318     1.0  0.48985  0.12742  0.32906  1.0000
  H   H2833     1.0  0.70917  0.25832  0.46896  1.0000
  H   H2834     1.0  0.52421  0.07984  0.44247  1.0000
  C   C2357     1.0  0.49668  0.07379  0.34772  1.0000
  C   C2358     1.0  0.70718  0.01248  0.39903  1.0000
  H   H2835     1.0  0.65525  0.21619  0.35508  1.0000
  H   H2836     1.0  0.62769  0.01131  0.53227  1.0000
  C   C2359     1.0  0.66900  0.97952  0.35629  1.0000
  H   H2837     1.0  0.72632  0.28138  0.42611  1.0000
  H   H2838     1.0  0.68200  0.00559  0.54100  1.0000
  H   H2839     1.0  0.62275  0.99913  0.36527  1.0000
  H   H2840     1.0  0.70355  0.07789  0.49465  1.0000
  S   S638      1.0  0.70709  0.00156  0.43616  1.0000
  H   H2841     1.0  0.51519  0.04187  0.44013  1.0000
  H   H2842     1.0  0.60255  0.28271  0.32372  1.0000
  H   H2843     1.0  0.70809  0.14466  0.41528  1.0000
  H   H2844     1.0  0.54628  0.46333  0.54496  1.0000
  H   H2845     1.0  0.72147  0.31597  0.56001  1.0000
  C   C2360     1.0  0.55709  0.42471  0.39326  1.0000
  C   C2361     1.0  0.56826  0.42912  0.42681  1.0000
  C   C2362     1.0  0.54942  0.02218  0.47311  1.0000
  C   C2363     1.0  0.71206  0.00967  0.38088  1.0000
  H   H2846     1.0  0.49775  0.36577  0.39317  1.0000
  N   N159      1.0  0.65692  0.98457  0.43436  1.0000
  H   H2847     1.0  0.50389  0.38928  0.49194  1.0000
  C   C2364     1.0  0.71211  0.44654  0.58427  1.0000
  C   C2365     1.0  0.71325  0.99863  0.41321  1.0000
  H   H2848     1.0  0.70850  0.35568  0.52520  1.0000
  H   H2849     1.0  0.73406  0.20742  0.50630  1.0000
  C   C2366     1.0  0.72417  0.98193  0.40916  1.0000
  C   C2367     1.0  0.58053  0.43219  0.43601  1.0000
  S   S639      1.0  0.71944  0.19134  0.44466  1.0000
  C   C2368     1.0  0.69574  0.44053  0.59307  1.0000
  H   H2850     1.0  0.55898  0.07271  0.44186  1.0000
  H   H2851     1.0  0.56571  0.04138  0.45701  1.0000
  C   C2369     1.0  0.65545  0.00950  0.53504  1.0000
  H   H2852     1.0  0.67580  0.44880  0.54115  1.0000
  C   C2370     1.0  0.50497  0.01471  0.36068  1.0000
  H   H2853     1.0  0.71544  0.20909  0.31151  1.0000
  H   H2854     1.0  0.56206  0.41157  0.40236  1.0000
  C   C2371     1.0  0.48727  0.04534  0.34976  1.0000
  H   H2855     1.0  0.72614  0.33889  0.53497  1.0000
  H   H2856     1.0  0.64649  0.98206  0.40337  1.0000
  C   C2372     1.0  0.50528  0.37544  0.35629  1.0000
  N   N160      1.0  0.67974  0.98023  0.57344  1.0000
  N   N161      1.0  0.71918  0.19644  0.34863  1.0000
  C   C2373     1.0  0.72696  0.26066  0.48519  1.0000
  C   C2374     1.0  0.66723  0.99418  0.62576  1.0000
  C   C2375     1.0  0.63949  0.98013  0.43312  1.0000
  H   H2857     1.0  0.71733  0.26725  0.41628  1.0000
  H   H2858     1.0  0.53020  0.45261  0.38384  1.0000
  H   H2859     1.0  0.50151  0.03761  0.37285  1.0000
  H   H2860     1.0  0.65087  0.44392  0.57078  1.0000
  S   S640      1.0  0.49379  0.10986  0.30820  1.0000
  H   H2861     1.0  0.64051  0.00812  0.61976  1.0000
  H   H2862     1.0  0.49586  0.39134  0.53162  1.0000
  H   H2863     1.0  0.67348  0.00612  0.61993  1.0000
  H   H2864     1.0  0.70510  0.97751  0.33724  1.0000
  H   H2865     1.0  0.63573  0.46455  0.56284  1.0000
  C   C2376     1.0  0.48927  0.30561  0.42414  1.0000
  H   H2866     1.0  0.63479  0.28203  0.30557  1.0000
  C   C2377     1.0  0.64856  0.99531  0.62579  1.0000
  C   C2378     1.0  0.56636  0.46026  0.40905  1.0000
  H   H2867     1.0  0.72770  0.10286  0.51142  1.0000
  H   H2868     1.0  0.49231  0.08851  0.34886  1.0000
  C   C2379     1.0  0.64957  0.98202  0.35804  1.0000
  C   C2380     1.0  0.66534  0.98824  0.56224  1.0000
  S   S641      1.0  0.61717  0.98166  0.63252  1.0000
  H   H2869     1.0  0.48565  0.98498  0.42212  1.0000
  C   C2381     1.0  0.49069  0.01955  0.33471  1.0000
  C   C2382     1.0  0.64033  0.97991  0.63344  1.0000
  H   H2870     1.0  0.70309  0.98114  0.55047  1.0000
  H   H2871     1.0  0.68962  0.97894  0.32255  1.0000
  H   H2872     1.0  0.71610  0.10686  0.48588  1.0000
  N   N162      1.0  0.73239  0.07932  0.48680  1.0000
  C   C2383     1.0  0.72938  0.09936  0.47890  1.0000
  H   H2873     1.0  0.64281  0.46192  0.58400  1.0000
  C   C2384     1.0  0.49566  0.45605  0.30571  1.0000
  C   C2385     1.0  0.62019  0.97488  0.41435  1.0000
  S   S642      1.0  0.62370  0.24143  0.30403  1.0000
  H   H2874     1.0  0.73040  0.17081  0.36523  1.0000
  C   C2386     1.0  0.73155  0.08836  0.51691  1.0000
  H   H2875     1.0  0.73108  0.09400  0.54329  1.0000
  S   S643      1.0  0.72380  0.36185  0.63380  1.0000
  C   C2387     1.0  0.63642  0.97925  0.41586  1.0000
  N   N163      1.0  0.73343  0.25238  0.43682  1.0000
  H   H2876     1.0  0.73387  0.22367  0.44756  1.0000
  H   H2877     1.0  0.73405  0.20228  0.36633  1.0000
  H   H2878     1.0  0.56146  0.47170  0.39880  1.0000
  S   S644      1.0  0.70106  0.97568  0.63369  1.0000
  H   H2879     1.0  0.58268  0.47385  0.54550  1.0000
  H   H2880     1.0  0.48657  0.33245  0.35590  1.0000
  H   H2881     1.0  0.64321  0.97439  0.58006  1.0000
  Fe  Fe319     1.0  0.48535  0.12866  0.36909  1.0000
  Fe  Fe320     1.0  0.52329  0.01121  0.81085  1.0000
  H   H2882     1.0  0.61698  0.40434  0.85442  1.0000
  S   S645      1.0  0.53360  0.01940  0.83239  1.0000
  S   S646      1.0  0.55913  0.98752  0.75349  1.0000
  H   H2883     1.0  0.61537  0.08628  0.96062  1.0000
  C   C2388     1.0  0.60443  0.44013  0.85197  1.0000
  H   H2884     1.0  0.53808  0.45030  0.81545  1.0000
  H   H2885     1.0  0.63291  0.14000  0.95148  1.0000
  S   S647      1.0  0.52429  0.02446  0.78098  1.0000
  C   C2389     1.0  0.72154  0.12818  0.75650  1.0000
  H   H2886     1.0  0.53430  0.05053  0.80134  1.0000
  Fe  Fe321     1.0  0.61080  0.14139  0.83716  1.0000
  S   S648      1.0  0.60284  0.14465  0.86655  1.0000
  S   S649      1.0  0.63170  0.15458  0.81454  1.0000
  Fe  Fe322     1.0  0.58097  0.11653  0.84018  1.0000
  S   S650      1.0  0.57252  0.11865  0.87122  1.0000
  S   S651      1.0  0.56222  0.09422  0.81682  1.0000
  Fe  Fe323     1.0  0.57378  0.14847  0.86280  1.0000
  S   S652      1.0  0.54977  0.16814  0.87567  1.0000
  Fe  Fe324     1.0  0.60207  0.11465  0.87262  1.0000
  S   S653      1.0  0.61444  0.09433  0.89531  1.0000
  S   S654      1.0  0.58181  0.14801  0.83294  1.0000
  S   S655      1.0  0.61183  0.11108  0.84343  1.0000
  H   H2887     1.0  0.53554  0.45543  0.95429  1.0000
  C   C2390     1.0  0.50173  0.46204  0.75719  1.0000
  H   H2888     1.0  0.54565  0.07948  0.79585  1.0000
  C   C2391     1.0  0.49609  0.31286  0.76325  1.0000
  H   H2889     1.0  0.49707  0.38053  0.77038  1.0000
  Fe  Fe325     1.0  0.54856  0.39697  0.79111  1.0000
  S   S656      1.0  0.54148  0.38185  0.82028  1.0000
  S   S657      1.0  0.57712  0.40125  0.77604  1.0000
  Fe  Fe326     1.0  0.50877  0.40566  0.78579  1.0000
  H   H2890     1.0  0.61776  0.43499  0.85674  1.0000
  H   H2891     1.0  0.53204  0.14880  0.84010  1.0000
  Fe  Fe327     1.0  0.51707  0.40514  0.82280  1.0000
  S   S658      1.0  0.49555  0.22271  0.82659  1.0000
  Fe  Fe328     1.0  0.52381  0.36944  0.80918  1.0000
  S   S659      1.0  0.52504  0.33884  0.81510  1.0000
  S   S660      1.0  0.52532  0.42129  0.79437  1.0000
  S   S661      1.0  0.53275  0.38284  0.77974  1.0000
  S   S662      1.0  0.70304  0.16748  0.83343  1.0000
  Fe  Fe329     1.0  0.70390  0.33900  0.80217  1.0000
  H   H2892     1.0  0.67397  0.28774  0.81277  1.0000
  Fe  Fe330     1.0  0.66914  0.36888  0.80455  1.0000
  S   S663      1.0  0.68001  0.38636  0.77781  1.0000
  S   S664      1.0  0.64067  0.37601  0.82169  1.0000
  Fe  Fe331     1.0  0.68999  0.36001  0.76750  1.0000
  S   S665      1.0  0.68338  0.35803  0.74101  1.0000
  Fe  Fe332     1.0  0.70669  0.37899  0.78787  1.0000
  H   H2893     1.0  0.58009  0.00407  0.64124  1.0000
  S   S666      1.0  0.67698  0.34296  0.79357  1.0000
  S   S667      1.0  0.69498  0.36354  0.81561  1.0000
  H   H2894     1.0  0.55612  0.34153  0.78302  1.0000
  C   C2392     1.0  0.69063  0.47301  0.89497  1.0000
  H   H2895     1.0  0.52121  0.45929  0.87893  1.0000
  C   C2393     1.0  0.56294  0.97625  0.88736  1.0000
  H   H2896     1.0  0.69355  0.46608  0.92980  1.0000
  H   H2897     1.0  0.66903  0.10092  0.96534  1.0000
  Fe  Fe333     1.0  0.72329  0.18136  0.81061  1.0000
  C   C2394     1.0  0.57024  0.34354  0.77823  1.0000
  C   C2395     1.0  0.56200  0.12586  0.82370  1.0000
  H   H2898     1.0  0.61911  0.42055  0.81446  1.0000
  C   C2396     1.0  0.54781  0.41877  0.86959  1.0000
  H   H2899     1.0  0.52116  0.46429  0.68781  1.0000
  H   H2900     1.0  0.50372  0.46838  0.67467  1.0000
  C   C2397     1.0  0.50537  0.42462  0.94545  1.0000
  S   S668      1.0  0.71780  0.35399  0.77513  1.0000
  S   S669      1.0  0.50649  0.99035  0.77810  1.0000
  H   H2901     1.0  0.52149  0.16581  0.80504  1.0000
  C   C2398     1.0  0.73051  0.37013  0.70692  1.0000
  H   H2902     1.0  0.63357  0.15224  0.89100  1.0000
  H   H2903     1.0  0.60326  0.40041  0.84078  1.0000
  C   C2399     1.0  0.51286  0.45165  0.74452  1.0000
  C   C2400     1.0  0.55421  0.11424  0.84205  1.0000
  C   C2401     1.0  0.71718  0.36591  0.72276  1.0000
  C   C2402     1.0  0.70007  0.36365  0.72124  1.0000
  C   C2403     1.0  0.69630  0.36567  0.70377  1.0000
  C   C2404     1.0  0.70956  0.37017  0.68786  1.0000
  H   H2904     1.0  0.68305  0.36394  0.70254  1.0000
  H   H2905     1.0  0.70652  0.37196  0.67440  1.0000
  H   H2906     1.0  0.72189  0.15817  0.76803  1.0000
  C   C2405     1.0  0.66545  0.27752  0.81930  1.0000
  C   C2406     1.0  0.56457  0.43205  0.81400  1.0000
  C   C2407     1.0  0.59469  0.39399  0.78885  1.0000
  C   C2408     1.0  0.61136  0.40019  0.78168  1.0000
  C   C2409     1.0  0.62568  0.39444  0.79154  1.0000
  C   C2410     1.0  0.62325  0.38272  0.80880  1.0000
  C   C2411     1.0  0.60656  0.37665  0.81606  1.0000
  C   C2412     1.0  0.59238  0.38213  0.80602  1.0000
  H   H2907     1.0  0.61317  0.40950  0.76847  1.0000
  H   H2908     1.0  0.63847  0.39933  0.78594  1.0000
  H   H2909     1.0  0.60463  0.36757  0.82940  1.0000
  H   H2910     1.0  0.57976  0.37705  0.81155  1.0000
  C   C2413     1.0  0.51999  0.42607  0.85712  1.0000
  C   C2414     1.0  0.53683  0.41444  0.85965  1.0000
  H   H2911     1.0  0.54119  0.40193  0.85429  1.0000
  H   H2912     1.0  0.56055  0.40950  0.87190  1.0000
  H   H2913     1.0  0.54392  0.46692  0.83654  1.0000
  H   H2914     1.0  0.63958  0.22032  0.82489  1.0000
  S   S670      1.0  0.73450  0.20347  0.81629  1.0000
  C   C2415     1.0  0.50417  0.33103  0.81972  1.0000
  C   C2416     1.0  0.50465  0.31236  0.82095  1.0000
  H   H2915     1.0  0.65267  0.21223  0.84316  1.0000
  S   S671      1.0  0.71705  0.31124  0.81676  1.0000
  H   H2916     1.0  0.51779  0.30300  0.81859  1.0000
  C   C2417     1.0  0.49053  0.41783  0.74606  1.0000
  C   C2418     1.0  0.65074  0.15922  0.82033  1.0000
  C   C2419     1.0  0.66373  0.16738  0.80633  1.0000
  C   C2420     1.0  0.67975  0.17006  0.81027  1.0000
  C   C2421     1.0  0.68279  0.16476  0.82825  1.0000
  C   C2422     1.0  0.66955  0.15703  0.84235  1.0000
  C   C2423     1.0  0.65356  0.15425  0.83840  1.0000
  H   H2917     1.0  0.66161  0.17118  0.79233  1.0000
  H   H2918     1.0  0.68988  0.17586  0.79935  1.0000
  H   H2919     1.0  0.67182  0.15292  0.85631  1.0000
  H   H2920     1.0  0.64356  0.14799  0.84922  1.0000
  C   C2424     1.0  0.60766  0.10102  0.91679  1.0000
  C   C2425     1.0  0.61504  0.08989  0.93184  1.0000
  C   C2426     1.0  0.60979  0.09505  0.94906  1.0000
  C   C2427     1.0  0.59708  0.11137  0.95129  1.0000
  C   C2428     1.0  0.58975  0.12250  0.93624  1.0000
  C   C2429     1.0  0.59505  0.11737  0.91903  1.0000
  H   H2921     1.0  0.62474  0.07719  0.93018  1.0000
  H   H2922     1.0  0.49287  0.30612  0.85963  1.0000
  H   H2923     1.0  0.57991  0.13513  0.93786  1.0000
  H   H2924     1.0  0.58924  0.12601  0.90754  1.0000
  C   C2430     1.0  0.53488  0.18326  0.86178  1.0000
  C   C2431     1.0  0.53842  0.18423  0.84279  1.0000
  C   C2432     1.0  0.52627  0.19635  0.83207  1.0000
  C   C2433     1.0  0.51058  0.20765  0.84027  1.0000
  C   C2434     1.0  0.50695  0.20666  0.85925  1.0000
  C   C2435     1.0  0.51908  0.19447  0.86997  1.0000
  H   H2925     1.0  0.55065  0.17593  0.83628  1.0000
  H   H2926     1.0  0.52920  0.19721  0.81735  1.0000
  H   H2927     1.0  0.64122  0.15041  0.92061  1.0000
  H   H2928     1.0  0.51627  0.19383  0.88465  1.0000
  C   C2436     1.0  0.49262  0.17728  0.81303  1.0000
  C   C2437     1.0  0.54172  0.04009  0.82783  1.0000
  C   C2438     1.0  0.54961  0.04361  0.84097  1.0000
  C   C2439     1.0  0.55617  0.05996  0.83786  1.0000
  C   C2440     1.0  0.55472  0.07306  0.82160  1.0000
  C   C2441     1.0  0.54678  0.06951  0.80850  1.0000
  C   C2442     1.0  0.54035  0.05310  0.81155  1.0000
  H   H2929     1.0  0.55077  0.03356  0.85357  1.0000
  H   H2930     1.0  0.56250  0.06212  0.84800  1.0000
  H   H2931     1.0  0.57026  0.97971  0.67872  1.0000
  H   H2932     1.0  0.72669  0.13362  0.74165  1.0000
  H   H2933     1.0  0.50565  0.29940  0.87799  1.0000
  H   H2934     1.0  0.60105  0.35277  0.73862  1.0000
  H   H2935     1.0  0.71394  0.01202  0.67642  1.0000
  C   C2443     1.0  0.60376  0.40981  0.84947  1.0000
  S   S672      1.0  0.71635  0.24785  0.77812  1.0000
  C   C2444     1.0  0.50517  0.41758  0.91646  1.0000
  H   H2936     1.0  0.55367  0.13828  0.81747  1.0000
  H   H2937     1.0  0.59527  0.01581  0.67729  1.0000
  H   H2938     1.0  0.58629  0.12766  0.79971  1.0000
  C   C2445     1.0  0.62524  0.46802  0.89911  1.0000
  H   H2939     1.0  0.57509  0.01079  0.70401  1.0000
  H   H2940     1.0  0.59224  0.40852  0.86161  1.0000
  H   H2941     1.0  0.66358  0.11667  0.81626  1.0000
  C   C2446     1.0  0.66778  0.22971  0.79814  1.0000
  H   H2942     1.0  0.63503  0.24134  0.84369  1.0000
  H   H2943     1.0  0.57467  0.34045  0.80545  1.0000
  S   S673      1.0  0.49866  0.39125  0.81453  1.0000
  H   H2944     1.0  0.68295  0.12924  0.93121  1.0000
  H   H2945     1.0  0.59292  0.98236  0.66625  1.0000
  C   C2447     1.0  0.56811  0.00915  0.65171  1.0000
  N   N164      1.0  0.57357  0.00770  0.66940  1.0000
  C   C2448     1.0  0.65805  0.47275  0.90687  1.0000
  H   H2946     1.0  0.67970  0.09638  0.94299  1.0000
  H   H2947     1.0  0.62388  0.44742  0.92393  1.0000
  C   C2449     1.0  0.55816  0.01467  0.68363  1.0000
  C   C2450     1.0  0.56148  0.01554  0.70079  1.0000
  C   C2451     1.0  0.53954  0.02029  0.68124  1.0000
  H   H2948     1.0  0.67391  0.13150  0.95477  1.0000
  H   H2949     1.0  0.51815  0.03234  0.72243  1.0000
  H   H2950     1.0  0.51871  0.35675  0.84891  1.0000
  H   H2951     1.0  0.50980  0.36142  0.76051  1.0000
  C   C2452     1.0  0.71624  0.29354  0.80644  1.0000
  H   H2952     1.0  0.58582  0.98577  0.68930  1.0000
  C   C2453     1.0  0.58095  0.98807  0.67626  1.0000
  C   C2454     1.0  0.48979  0.40966  0.92475  1.0000
  H   H2953     1.0  0.49031  0.98725  0.69957  1.0000
  H   H2954     1.0  0.48655  0.28918  0.87929  1.0000
  H   H2955     1.0  0.68455  0.11386  0.83711  1.0000
  H   H2956     1.0  0.64055  0.12452  0.87764  1.0000
  H   H2957     1.0  0.53950  0.14093  0.86156  1.0000
  H   H2958     1.0  0.53555  0.01979  0.66887  1.0000
  C   C2455     1.0  0.64780  0.45959  0.91861  1.0000
  C   C2456     1.0  0.59286  0.10147  0.82014  1.0000
  H   H2959     1.0  0.51596  0.14286  0.86070  1.0000
  H   H2960     1.0  0.67784  0.15289  0.75887  1.0000
  H   H2961     1.0  0.61240  0.46667  0.89643  1.0000
  H   H2962     1.0  0.68436  0.21845  0.83756  1.0000
  H   H2963     1.0  0.71850  0.11441  0.75776  1.0000
  N   N165      1.0  0.66624  0.22798  0.81817  1.0000
  C   C2457     1.0  0.58866  0.01806  0.66534  1.0000
  C   C2458     1.0  0.58119  0.42670  0.82022  1.0000
  C   C2459     1.0  0.63891  0.26833  0.84106  1.0000
  H   H2964     1.0  0.73339  0.42683  0.79950  1.0000
  C   C2460     1.0  0.52917  0.02757  0.71163  1.0000
  H   H2965     1.0  0.66368  0.14720  0.93690  1.0000
  H   H2966     1.0  0.67866  0.23738  0.78966  1.0000
  Fe  Fe334     1.0  0.72993  0.21872  0.78820  1.0000
  H   H2967     1.0  0.69536  0.14953  0.73886  1.0000
  C   C2461     1.0  0.52949  0.10762  0.86915  1.0000
  H   H2968     1.0  0.70704  0.28675  0.76776  1.0000
  C   C2462     1.0  0.50966  0.40664  0.71914  1.0000
  H   H2969     1.0  0.53085  0.09312  0.86801  1.0000
  C   C2463     1.0  0.52534  0.02665  0.69509  1.0000
  C   C2464     1.0  0.58563  0.08974  0.83834  1.0000
  H   H2970     1.0  0.59333  0.43935  0.86459  1.0000
  H   H2971     1.0  0.53811  0.10784  0.87879  1.0000
  C   C2465     1.0  0.64969  0.28155  0.83256  1.0000
  H   H2972     1.0  0.52627  0.98792  0.74067  1.0000
  C   C2466     1.0  0.50721  0.40822  0.73750  1.0000
  H   H2973     1.0  0.55010  0.02237  0.72752  1.0000
  H   H2974     1.0  0.56938  0.34789  0.74968  1.0000
  H   H2975     1.0  0.55777  0.00054  0.65340  1.0000
  H   H2976     1.0  0.63180  0.42600  0.82809  1.0000
  H   H2977     1.0  0.71367  0.16547  0.74724  1.0000
  H   H2978     1.0  0.52259  0.39922  0.71252  1.0000
  H   H2979     1.0  0.72020  0.36444  0.73612  1.0000
  H   H2980     1.0  0.65709  0.09125  0.95409  1.0000
  Fe  Fe335     1.0  0.53459  0.99580  0.77554  1.0000
  C   C2467     1.0  0.72945  0.31499  0.71815  1.0000
  H   H2981     1.0  0.72263  0.32770  0.66575  1.0000
  H   H2982     1.0  0.57321  0.98474  0.88421  1.0000
  C   C2468     1.0  0.51433  0.44211  0.86434  1.0000
  H   H2983     1.0  0.65864  0.20143  0.82394  1.0000
  H   H2984     1.0  0.68960  0.20548  0.81980  1.0000
  Fe  Fe336     1.0  0.50704  0.97972  0.80807  1.0000
  C   C2469     1.0  0.54232  0.43503  0.87648  1.0000
  C   C2470     1.0  0.64393  0.25094  0.83647  1.0000
  C   C2471     1.0  0.54721  0.02207  0.71444  1.0000
  S   S674      1.0  0.55662  0.44044  0.88840  1.0000
  S   S675      1.0  0.71648  0.19784  0.78379  1.0000
  H   H2985     1.0  0.51822  0.40201  0.74498  1.0000
  N   N166      1.0  0.65736  0.12002  0.94321  1.0000
  C   C2472     1.0  0.48630  0.15017  0.79830  1.0000
  C   C2473     1.0  0.67001  0.13255  0.94140  1.0000
  C   C2474     1.0  0.63999  0.12567  0.95612  1.0000
  C   C2475     1.0  0.65329  0.12106  0.92502  1.0000
  C   C2476     1.0  0.64483  0.13803  0.91512  1.0000
  C   C2477     1.0  0.65729  0.10550  0.91672  1.0000
  C   C2478     1.0  0.64047  0.13928  0.89813  1.0000
  C   C2479     1.0  0.65295  0.10696  0.89969  1.0000
  C   C2480     1.0  0.64448  0.12375  0.89048  1.0000
  H   H2986     1.0  0.48868  0.29124  0.82646  1.0000
  C   C2481     1.0  0.66619  0.10129  0.95167  1.0000
  H   H2987     1.0  0.51586  0.14160  0.79209  1.0000
  H   H2988     1.0  0.63007  0.11669  0.95769  1.0000
  H   H2989     1.0  0.54992  0.99180  0.86472  1.0000
  C   C2482     1.0  0.51294  0.42507  0.92677  1.0000
  H   H2990     1.0  0.66994  0.46561  0.94006  1.0000
  C   C2483     1.0  0.58493  0.43560  0.83262  1.0000
  C   C2484     1.0  0.57109  0.45055  0.83810  1.0000
  H   H2991     1.0  0.49061  0.36683  0.73830  1.0000
  H   H2992     1.0  0.66334  0.09192  0.92323  1.0000
  H   H2993     1.0  0.50427  0.44970  0.69386  1.0000
  H   H2994     1.0  0.56244  0.02363  0.64571  1.0000
  H   H2995     1.0  0.60618  0.09661  0.81204  1.0000
  C   C2485     1.0  0.49514  0.33177  0.76051  1.0000
  H   H2996     1.0  0.51010  0.32710  0.85773  1.0000
  C   C2486     1.0  0.48531  0.33475  0.87840  1.0000
  H   H2997     1.0  0.51487  0.11222  0.87576  1.0000
  C   C2487     1.0  0.53791  0.97954  0.73335  1.0000
  C   C2488     1.0  0.58124  0.11959  0.81296  1.0000
  C   C2489     1.0  0.52281  0.11786  0.83893  1.0000
  C   C2490     1.0  0.56652  0.09594  0.84917  1.0000
  H   H2998     1.0  0.72540  0.24671  0.81315  1.0000
  H   H2999     1.0  0.64590  0.29493  0.83629  1.0000
  C   C2491     1.0  0.57776  0.34707  0.75948  1.0000
  H   H3000     1.0  0.58344  0.03308  0.66120  1.0000
  C   C2492     1.0  0.66001  0.24637  0.82304  1.0000
  H   H3001     1.0  0.50125  0.45109  0.86252  1.0000
  C   C2493     1.0  0.71120  0.28347  0.78088  1.0000
  H   H3002     1.0  0.59388  0.07655  0.84324  1.0000
  H   H3003     1.0  0.68709  0.13012  0.75383  1.0000
  Fe  Fe337     1.0  0.49605  0.01789  0.78590  1.0000
  C   C2494     1.0  0.49756  0.36580  0.77095  1.0000
  C   C2495     1.0  0.68882  0.11874  0.82246  1.0000
  S   S676      1.0  0.53602  0.98300  0.80498  1.0000
  H   H3004     1.0  0.52519  0.10340  0.83715  1.0000
  H   H3005     1.0  0.72893  0.02450  0.69192  1.0000
  S   S677      1.0  0.72193  0.40181  0.78441  1.0000
  C   C2496     1.0  0.72140  0.26088  0.80652  1.0000
  C   C2497     1.0  0.72837  0.41596  0.72521  1.0000
  C   C2498     1.0  0.67046  0.26027  0.81451  1.0000
  H   H3006     1.0  0.70750  0.31183  0.78252  1.0000
  H   H3007     1.0  0.51124  0.03084  0.69302  1.0000
  H   H3008     1.0  0.62663  0.27156  0.85137  1.0000
  S   S678      1.0  0.49925  0.41280  0.68619  1.0000
  H   H3009     1.0  0.51112  0.41787  0.90199  1.0000
  H   H3010     1.0  0.49580  0.18778  0.81819  1.0000
  C   C2499     1.0  0.52559  0.44674  0.87373  1.0000
  C   C2500     1.0  0.65365  0.21505  0.82802  1.0000
  H   H3011     1.0  0.68360  0.44877  0.92641  1.0000
  H   H3012     1.0  0.65537  0.09482  0.89391  1.0000
  C   C2501     1.0  0.59591  0.34984  0.75330  1.0000
  H   H3013     1.0  0.50789  0.12217  0.84467  1.0000
  H   H3014     1.0  0.69803  0.16865  0.76855  1.0000
  H   H3015     1.0  0.69538  0.22759  0.81463  1.0000
  H   H3016     1.0  0.65450  0.23698  0.79388  1.0000
  H   H3017     1.0  0.67161  0.21602  0.79420  1.0000
  H   H3018     1.0  0.72619  0.30380  0.66518  1.0000
  H   H3019     1.0  0.69279  0.45907  0.89198  1.0000
  S   S679      1.0  0.48659  0.41930  0.76928  1.0000
  C   C2502     1.0  0.69064  0.14341  0.75361  1.0000
  C   C2503     1.0  0.71666  0.26510  0.78926  1.0000
  C   C2504     1.0  0.58079  0.34285  0.79088  1.0000
  H   H3020     1.0  0.68275  0.25781  0.80416  1.0000
  H   H3021     1.0  0.56188  0.08680  0.86177  1.0000
  C   C2505     1.0  0.68466  0.21956  0.82274  1.0000
  N   N167      1.0  0.62623  0.35238  0.75883  1.0000
  C   C2506     1.0  0.62590  0.37091  0.74684  1.0000
  C   C2507     1.0  0.63602  0.35133  0.77364  1.0000
  C   C2508     1.0  0.63727  0.33845  0.74791  1.0000
  C   C2509     1.0  0.60711  0.34916  0.76580  1.0000
  C   C2510     1.0  0.59898  0.34554  0.78488  1.0000
  H   H3022     1.0  0.63986  0.37452  0.74262  1.0000
  H   H3023     1.0  0.62116  0.37208  0.73397  1.0000
  H   H3024     1.0  0.61637  0.38162  0.75404  1.0000
  H   H3025     1.0  0.62873  0.36170  0.78216  1.0000
  H   H3026     1.0  0.65017  0.35420  0.76798  1.0000
  H   H3027     1.0  0.63758  0.33748  0.78275  1.0000
  H   H3028     1.0  0.63188  0.33933  0.73548  1.0000
  H   H3029     1.0  0.65189  0.34023  0.74295  1.0000
  H   H3030     1.0  0.63742  0.32429  0.75629  1.0000
  H   H3031     1.0  0.60623  0.34503  0.79546  1.0000
  H   H3032     1.0  0.61741  0.44420  0.81493  1.0000
  H   H3033     1.0  0.52493  0.43124  0.92019  1.0000
  S   S680      1.0  0.49407  0.00687  0.81625  1.0000
  C   C2511     1.0  0.71122  0.29768  0.78933  1.0000
  H   H3034     1.0  0.72343  0.03849  0.66106  1.0000
  S   S681      1.0  0.49686  0.45212  0.64513  1.0000
  H   H3035     1.0  0.50742  0.30451  0.75545  1.0000
  H   H3036     1.0  0.69643  0.40953  0.70493  1.0000
  H   H3037     1.0  0.52593  0.12630  0.82490  1.0000
  N   N168      1.0  0.60249  0.42916  0.83935  1.0000
  H   H3038     1.0  0.48657  0.35736  0.82200  1.0000
  H   H3039     1.0  0.59106  0.41535  0.81539  1.0000
  N   N169      1.0  0.70505  0.14079  0.76446  1.0000
  C   C2512     1.0  0.72462  0.00103  0.67177  1.0000
  H   H3040     1.0  0.72461  0.27193  0.82853  1.0000
  C   C2513     1.0  0.55119  0.44653  0.81985  1.0000
  C   C2514     1.0  0.69925  0.13311  0.78428  1.0000
  C   C2515     1.0  0.71105  0.13101  0.79667  1.0000
  C   C2516     1.0  0.68208  0.12738  0.79186  1.0000
  C   C2517     1.0  0.70579  0.12407  0.81547  1.0000
  C   C2518     1.0  0.67706  0.12028  0.81067  1.0000
  H   H3041     1.0  0.50591  0.33756  0.75035  1.0000
  C   C2519     1.0  0.49165  0.30235  0.87478  1.0000
  H   H3042     1.0  0.65177  0.45109  0.93107  1.0000
  H   H3043     1.0  0.60398  0.45482  0.84513  1.0000
  C   C2520     1.0  0.61834  0.43009  0.82353  1.0000
  C   C2521     1.0  0.72669  0.37237  0.68948  1.0000
  S   S682      1.0  0.50512  0.42041  0.84610  1.0000
  H   H3044     1.0  0.71470  0.12335  0.82476  1.0000
  C   C2522     1.0  0.72101  0.27513  0.81518  1.0000
  H   H3045     1.0  0.51920  0.44701  0.71743  1.0000
  C   C2523     1.0  0.71913  0.98537  0.67050  1.0000
  H   H3046     1.0  0.67199  0.12866  0.78372  1.0000
  C   C2524     1.0  0.63168  0.45729  0.91466  1.0000
  S   S683      1.0  0.55725  0.47311  0.91990  1.0000
  H   H3047     1.0  0.60001  0.01367  0.65398  1.0000
  N   N170      1.0  0.53463  0.11948  0.85089  1.0000
  C   C2525     1.0  0.53040  0.13878  0.85335  1.0000
  C   C2526     1.0  0.48713  0.34302  0.82270  1.0000
  H   H3048     1.0  0.51202  0.43048  0.95286  1.0000
  H   H3049     1.0  0.72434  0.13499  0.79198  1.0000
  C   C2527     1.0  0.73289  0.31597  0.66083  1.0000
  C   C2528     1.0  0.73403  0.31965  0.69896  1.0000
  C   C2529     1.0  0.70982  0.15899  0.76204  1.0000
  C   C2530     1.0  0.51057  0.45610  0.72628  1.0000
  C   C2531     1.0  0.49706  0.47138  0.72017  1.0000
  C   C2532     1.0  0.54987  0.98027  0.87636  1.0000
  H   H3050     1.0  0.52281  0.43960  0.74909  1.0000
  H   H3051     1.0  0.50020  0.35806  0.78472  1.0000
  C   C2533     1.0  0.55550  0.97719  0.73695  1.0000
  H   H3052     1.0  0.57239  0.45802  0.84778  1.0000
  C   C2534     1.0  0.48962  0.41672  0.95438  1.0000
  C   C2535     1.0  0.50654  0.35481  0.85950  1.0000
  C   C2536     1.0  0.49554  0.41481  0.70923  1.0000
  H   H3053     1.0  0.71885  0.41793  0.67739  1.0000
  H   H3054     1.0  0.56200  0.42475  0.80476  1.0000
  C   C2537     1.0  0.50139  0.33768  0.86480  1.0000
  H   H3055     1.0  0.49025  0.30932  0.90842  1.0000
  H   H3056     1.0  0.73086  0.41476  0.73885  1.0000
  Fe  Fe338     1.0  0.54797  0.46842  0.89603  1.0000
  H   H3057     1.0  0.49490  0.21537  0.86570  1.0000
  H   H3058     1.0  0.73322  0.12603  0.76350  1.0000
  C   C2538     1.0  0.55452  0.45588  0.83172  1.0000
  H   H3059     1.0  0.49898  0.00006  0.72211  1.0000
  H   H3060     1.0  0.72832  0.33339  0.69248  1.0000
  H   H3061     1.0  0.70461  0.98466  0.67383  1.0000
  C   C2539     1.0  0.71209  0.41206  0.72351  1.0000
  C   C2540     1.0  0.50432  0.15120  0.79812  1.0000
  C   C2541     1.0  0.68066  0.46346  0.92749  1.0000
  C   C2542     1.0  0.50747  0.16475  0.80547  1.0000
  H   H3062     1.0  0.70212  0.40775  0.73572  1.0000
  C   C2543     1.0  0.70886  0.41319  0.70613  1.0000
  H   H3063     1.0  0.50311  0.45806  0.77145  1.0000
  H   H3064     1.0  0.72058  0.32507  0.72593  1.0000
  H   H3065     1.0  0.73254  0.29382  0.74223  1.0000
  C   C2544     1.0  0.72195  0.41811  0.69033  1.0000
  C   C2545     1.0  0.50640  0.46412  0.68893  1.0000
  H   H3066     1.0  0.49994  0.38279  0.86315  1.0000
  C   C2546     1.0  0.48819  0.30566  0.82546  1.0000
  C   C2547     1.0  0.49596  0.36948  0.86748  1.0000
  C   C2548     1.0  0.48514  0.99760  0.72432  1.0000
  H   H3067     1.0  0.73475  0.43942  0.65604  1.0000
  C   C2549     1.0  0.73484  0.46947  0.91706  1.0000
  C   C2550     1.0  0.52647  0.45526  0.96762  1.0000
  H   H3068     1.0  0.58861  0.59104  0.28004  1.0000
  C   C2551     1.0  0.54511  0.47648  0.22669  1.0000
  C   C2552     1.0  0.72488  0.76168  0.29445  1.0000
  H   H3069     1.0  0.70939  0.82726  0.06745  1.0000
  H   H3070     1.0  0.49812  0.49858  0.16597  1.0000
  H   H3071     1.0  0.49777  0.94591  0.08725  1.0000
  H   H3072     1.0  0.61032  0.60656  0.26130  1.0000
  H   H3073     1.0  0.64623  0.58998  0.29045  1.0000
  C   C2553     1.0  0.59515  0.48755  0.24435  1.0000
  C   C2554     1.0  0.63433  0.60086  0.29465  1.0000
  Fe  Fe339     1.0  0.68504  0.50999  0.97747  1.0000
  H   H3074     1.0  0.68632  0.71811  0.28266  1.0000
  C   C2555     1.0  0.63177  0.96350  0.00222  1.0000
  H   H3075     1.0  0.59040  0.61760  0.28817  1.0000
  C   C2556     1.0  0.64368  0.56569  0.04620  1.0000
  H   H3076     1.0  0.65966  0.55094  0.07668  1.0000
  H   H3077     1.0  0.52243  0.52406  0.98957  1.0000
  S   S684      1.0  0.67214  0.90340  0.09633  1.0000
  Fe  Fe340     1.0  0.66651  0.85790  0.28341  1.0000
  S   S685      1.0  0.67118  0.83472  0.26887  1.0000
  C   C2557     1.0  0.63614  0.53168  0.07417  1.0000
  H   H3078     1.0  0.49187  0.50102  0.24971  1.0000
  Fe  Fe341     1.0  0.68629  0.85295  0.24514  1.0000
  S   S686      1.0  0.67826  0.85930  0.21751  1.0000
  Fe  Fe342     1.0  0.69823  0.82528  0.27816  1.0000
  S   S687      1.0  0.72875  0.67596  0.28024  1.0000
  S   S688      1.0  0.67980  0.87692  0.25918  1.0000
  C   C2558     1.0  0.60121  0.48483  0.22627  1.0000
  H   H3079     1.0  0.64592  0.83960  0.23362  1.0000
  C   C2559     1.0  0.71106  0.88919  0.30036  1.0000
  H   H3080     1.0  0.66444  0.86040  0.10404  1.0000
  H   H3081     1.0  0.66402  0.52965  0.02434  1.0000
  H   H3082     1.0  0.63316  0.59333  0.26233  1.0000
  H   H3083     1.0  0.64063  0.86860  0.24359  1.0000
  Fe  Fe343     1.0  0.56975  0.92955  0.01987  1.0000
  C   C2560     1.0  0.53824  0.89427  0.97543  1.0000
  S   S689      1.0  0.54763  0.92207  0.00964  1.0000
  Fe  Fe344     1.0  0.60728  0.92526  0.02975  1.0000
  S   S690      1.0  0.59782  0.94889  0.04429  1.0000
  S   S691      1.0  0.63737  0.91109  0.02708  1.0000
  Fe  Fe345     1.0  0.57211  0.93741  0.05615  1.0000
  S   S692      1.0  0.55937  0.93442  0.08631  1.0000
  C   C2561     1.0  0.62248  0.60466  0.26757  1.0000
  S   S693      1.0  0.58256  0.91232  0.04366  1.0000
  S   S694      1.0  0.59537  0.94048  0.00469  1.0000
  H   H3084     1.0  0.73243  0.89152  0.14886  1.0000
  H   H3085     1.0  0.69979  0.88345  0.29951  1.0000
  C   C2562     1.0  0.69023  0.57653  0.96937  1.0000
  Fe  Fe346     1.0  0.68366  0.51348  0.11296  1.0000
  Fe  Fe347     1.0  0.71435  0.52207  0.08045  1.0000
  S   S695      1.0  0.71821  0.53672  0.05074  1.0000
  S   S696      1.0  0.69641  0.53848  0.10121  1.0000
  H   H3086     1.0  0.50359  0.51678  0.26768  1.0000
  C   C2563     1.0  0.59628  0.58010  0.28879  1.0000
  H   H3087     1.0  0.62292  0.49254  0.17158  1.0000
  H   H3088     1.0  0.63460  0.87023  0.09387  1.0000
  H   H3089     1.0  0.51297  0.95052  0.05711  1.0000
  C   C2564     1.0  0.61983  0.87327  0.29432  1.0000
  C   C2565     1.0  0.65180  0.54716  0.04486  1.0000
  H   H3090     1.0  0.59241  0.50136  0.16576  1.0000
  C   C2566     1.0  0.53600  0.90532  0.98827  1.0000
  S   S697      1.0  0.69780  0.49299  0.00132  1.0000
  H   H3091     1.0  0.64669  0.58593  0.00087  1.0000
  H   H3092     1.0  0.60435  0.86182  0.21239  1.0000
  H   H3093     1.0  0.57421  0.51369  0.97411  1.0000
  C   C2567     1.0  0.53865  0.48682  0.25558  1.0000
  C   C2568     1.0  0.69052  0.86569  0.18030  1.0000
  C   C2569     1.0  0.51243  0.95752  0.11728  1.0000
  C   C2570     1.0  0.70242  0.60485  0.00881  1.0000
  H   H3094     1.0  0.62795  0.61759  0.26216  1.0000
  C   C2571     1.0  0.72730  0.88793  0.28696  1.0000
  C   C2572     1.0  0.64451  0.49604  0.12944  1.0000
  H   H3095     1.0  0.67645  0.87260  0.17960  1.0000
  H   H3096     1.0  0.73309  0.62148  0.98929  1.0000
  H   H3097     1.0  0.61621  0.50892  0.12828  1.0000
  C   C2573     1.0  0.65777  0.54330  0.02686  1.0000
  H   H3098     1.0  0.63557  0.59355  0.03185  1.0000
  C   C2574     1.0  0.72683  0.84770  0.18192  1.0000
  C   C2575     1.0  0.66247  0.85970  0.05417  1.0000
  N   N171      1.0  0.61776  0.60057  0.28797  1.0000
  Fe  Fe348     1.0  0.70627  0.86371  0.26912  1.0000
  C   C2576     1.0  0.60605  0.83802  0.27974  1.0000
  S   S698      1.0  0.71419  0.90042  0.11706  1.0000
  H   H3099     1.0  0.63320  0.88946  0.26973  1.0000
  H   H3100     1.0  0.62929  0.83491  0.22329  1.0000
  C   C2577     1.0  0.70445  0.50526  0.01426  1.0000
  C   C2578     1.0  0.71136  0.49575  0.03005  1.0000
  C   C2579     1.0  0.71593  0.50533  0.04111  1.0000
  C   C2580     1.0  0.71363  0.52447  0.03640  1.0000
  C   C2581     1.0  0.70701  0.53398  0.02042  1.0000
  C   C2582     1.0  0.70242  0.52438  0.00936  1.0000
  H   H3101     1.0  0.71305  0.48094  0.03381  1.0000
  S   S699      1.0  0.51743  0.92251  0.30039  1.0000
  H   H3102     1.0  0.70503  0.54878  0.01676  1.0000
  H   H3103     1.0  0.69709  0.53178  0.99720  1.0000
  H   H3104     1.0  0.62197  0.87505  0.20191  1.0000
  H   H3105     1.0  0.52601  0.50124  0.23245  1.0000
  H   H3106     1.0  0.71653  0.76316  0.24626  1.0000
  H   H3107     1.0  0.53156  0.49682  0.26399  1.0000
  H   H3108     1.0  0.49970  0.94706  0.04240  1.0000
  S   S700      1.0  0.48529  0.54336  0.29020  1.0000
  N   N172      1.0  0.65427  0.53299  0.06165  1.0000
  C   C2583     1.0  0.53838  0.94909  0.09304  1.0000
  C   C2584     1.0  0.52935  0.94619  0.11152  1.0000
  H   H3109     1.0  0.72136  0.49786  0.05321  1.0000
  C   C2585     1.0  0.50063  0.92232  0.22830  1.0000
  C   C2586     1.0  0.62025  0.88588  0.27759  1.0000
  H   H3110     1.0  0.53537  0.93505  0.12142  1.0000
  H   H3111     1.0  0.69259  0.69945  0.30096  1.0000
  H   H3112     1.0  0.70473  0.71788  0.29336  1.0000
  H   H3113     1.0  0.67710  0.51413  0.04921  1.0000
  C   C2587     1.0  0.58693  0.84223  0.28161  1.0000
  H   H3114     1.0  0.58748  0.51904  0.17864  1.0000
  C   C2588     1.0  0.52901  0.51066  0.98539  1.0000
  H   H3115     1.0  0.69989  0.87071  0.15082  1.0000
  C   C2589     1.0  0.66295  0.90596  0.07670  1.0000
  C   C2590     1.0  0.67424  0.90260  0.05997  1.0000
  C   C2591     1.0  0.66632  0.90422  0.04477  1.0000
  C   C2592     1.0  0.64710  0.90931  0.04621  1.0000
  C   C2593     1.0  0.63589  0.91300  0.06285  1.0000
  C   C2594     1.0  0.64379  0.91131  0.07803  1.0000
  H   H3116     1.0  0.68903  0.89867  0.05886  1.0000
  H   H3117     1.0  0.67507  0.90146  0.03190  1.0000
  H   H3118     1.0  0.62107  0.91674  0.06420  1.0000
  H   H3119     1.0  0.63499  0.91392  0.09094  1.0000
  C   C2595     1.0  0.69538  0.85780  0.19745  1.0000
  C   C2596     1.0  0.71360  0.84892  0.19826  1.0000
  C   C2597     1.0  0.72714  0.74615  0.26983  1.0000
  H   H3120     1.0  0.63205  0.84141  0.26263  1.0000
  H   H3121     1.0  0.49785  0.91495  0.04221  1.0000
  C   C2598     1.0  0.68003  0.85404  0.07802  1.0000
  C   C2599     1.0  0.71366  0.77881  0.26696  1.0000
  C   C2600     1.0  0.48684  0.93936  0.08715  1.0000
  C   C2601     1.0  0.58654  0.87741  0.29842  1.0000
  H   H3122     1.0  0.53076  0.50017  0.99814  1.0000
  H   H3123     1.0  0.70728  0.79158  0.25913  1.0000
  C   C2602     1.0  0.53559  0.48927  0.23774  1.0000
  C   C2603     1.0  0.61735  0.84454  0.26317  1.0000
  C   C2604     1.0  0.61778  0.49458  0.18602  1.0000
  H   H3124     1.0  0.69273  0.85001  0.08309  1.0000
  H   H3125     1.0  0.69300  0.61484  0.01698  1.0000
  N   N173      1.0  0.54684  0.51176  0.97216  1.0000
  H   H3126     1.0  0.64488  0.85006  0.21054  1.0000
  N   N174      1.0  0.48731  0.49095  0.19500  1.0000
  C   C2605     1.0  0.69078  0.71461  0.29608  1.0000
  H   H3127     1.0  0.62649  0.52859  0.06714  1.0000
  C   C2606     1.0  0.62562  0.49618  0.13215  1.0000
  H   H3128     1.0  0.66253  0.94368  0.05600  1.0000
  H   H3129     1.0  0.51915  0.50643  0.97952  1.0000
  H   H3130     1.0  0.69619  0.81967  0.05554  1.0000
  C   C2607     1.0  0.66617  0.53819  0.07128  1.0000
  H   H3131     1.0  0.63883  0.56964  0.05943  1.0000
  H   H3132     1.0  0.70630  0.61262  0.99459  1.0000
  H   H3133     1.0  0.67955  0.54031  0.06200  1.0000
  H   H3134     1.0  0.50551  0.95514  0.13157  1.0000
  C   C2608     1.0  0.71047  0.86035  0.04539  1.0000
  H   H3135     1.0  0.70840  0.84531  0.01863  1.0000
  H   H3136     1.0  0.57464  0.95833  0.26875  1.0000
  H   H3137     1.0  0.65466  0.50929  0.05100  1.0000
  H   H3138     1.0  0.56811  0.51788  0.20732  1.0000
  S   S701      1.0  0.73289  0.72602  0.26090  1.0000
  C   C2609     1.0  0.64703  0.86529  0.08453  1.0000
  C   C2610     1.0  0.56909  0.90012  0.98518  1.0000
  C   C2611     1.0  0.55138  0.90824  0.99325  1.0000
  C   C2612     1.0  0.48907  0.51980  0.26738  1.0000
  H   H3139     1.0  0.58103  0.90224  0.98895  1.0000
  Fe  Fe349     1.0  0.72095  0.48747  0.10916  1.0000
  H   H3140     1.0  0.69555  0.65441  0.29951  1.0000
  C   C2613     1.0  0.66398  0.96084  0.98802  1.0000
  H   H3141     1.0  0.72415  0.57196  0.00434  1.0000
  S   S702      1.0  0.71393  0.84124  0.25302  1.0000
  H   H3142     1.0  0.51469  0.91944  0.22075  1.0000
  C   C2614     1.0  0.73328  0.66570  0.05876  1.0000
  H   H3143     1.0  0.68914  0.86393  0.02149  1.0000
  C   C2615     1.0  0.70577  0.82908  0.05386  1.0000
  C   C2616     1.0  0.63604  0.84585  0.22422  1.0000
  C   C2617     1.0  0.52263  0.91545  0.07301  1.0000
  H   H3144     1.0  0.52193  0.90717  0.04172  1.0000
  H   H3145     1.0  0.72338  0.57513  0.04178  1.0000
  H   H3146     1.0  0.73169  0.82527  0.28954  1.0000
  H   H3147     1.0  0.66089  0.55409  0.99770  1.0000
  C   C2618     1.0  0.66014  0.95640  0.04601  1.0000
  H   H3148     1.0  0.48917  0.51947  0.18983  1.0000
  Fe  Fe350     1.0  0.49803  0.90683  0.29616  1.0000
  H   H3149     1.0  0.52021  0.90260  0.08308  1.0000
  H   H3150     1.0  0.50609  0.89611  0.05982  1.0000
  H   H3151     1.0  0.66451  0.97285  0.06288  1.0000
  H   H3152     1.0  0.60260  0.88390  0.21795  1.0000
  H   H3153     1.0  0.64141  0.88003  0.22016  1.0000
  H   H3154     1.0  0.58311  0.86840  0.23977  1.0000
  S   S703      1.0  0.72459  0.90532  0.07218  1.0000
  C   C2619     1.0  0.64183  0.57950  0.03052  1.0000
  C   C2620     1.0  0.57904  0.85319  0.26699  1.0000
  C   C2621     1.0  0.65602  0.55725  0.01131  1.0000
  H   H3155     1.0  0.60388  0.90503  0.25908  1.0000
  S   S704      1.0  0.70013  0.49801  0.09100  1.0000
  C   C2622     1.0  0.60982  0.85526  0.24779  1.0000
  H   H3156     1.0  0.63329  0.87013  0.06202  1.0000
  H   H3157     1.0  0.61215  0.83016  0.29138  1.0000
  C   C2623     1.0  0.64806  0.57528  0.01309  1.0000
  H   H3158     1.0  0.66090  0.86054  0.04037  1.0000
  C   C2624     1.0  0.48961  0.92680  0.07546  1.0000
  H   H3159     1.0  0.71446  0.85908  0.05870  1.0000
  N   N175      1.0  0.59842  0.49207  0.19308  1.0000
  C   C2625     1.0  0.65662  0.47952  0.13430  1.0000
  H   H3160     1.0  0.66688  0.94630  0.99547  1.0000
  S   S705      1.0  0.49122  0.93363  0.19451  1.0000
  C   C2626     1.0  0.59196  0.49559  0.21202  1.0000
  H   H3161     1.0  0.50844  0.91424  0.25482  1.0000
  C   C2627     1.0  0.57058  0.51208  0.23510  1.0000
  Fe  Fe351     1.0  0.53935  0.89800  0.29397  1.0000
  C   C2628     1.0  0.60370  0.89463  0.27157  1.0000
  H   H3162     1.0  0.71402  0.89670  0.17592  1.0000
  H   H3163     1.0  0.65520  0.94320  0.02695  1.0000
  C   C2629     1.0  0.57637  0.50934  0.21700  1.0000
  C   C2630     1.0  0.60276  0.61548  0.29421  1.0000
  C   C2631     1.0  0.72413  0.88871  0.21793  1.0000
  C   C2632     1.0  0.53051  0.96349  0.08032  1.0000
  C   C2633     1.0  0.63196  0.87487  0.23304  1.0000
  C   C2634     1.0  0.71892  0.76274  0.25970  1.0000
  S   S706      1.0  0.65554  0.52472  0.98238  1.0000
  N   N176      1.0  0.71869  0.59531  0.01720  1.0000
  H   H3164     1.0  0.70249  0.59251  0.04487  1.0000
  S   S707      1.0  0.72977  0.87699  0.26860  1.0000
  H   H3165     1.0  0.52405  0.93804  0.03933  1.0000
  H   H3166     1.0  0.72363  0.85687  0.03552  1.0000
  H   H3167     1.0  0.57492  0.50286  0.26289  1.0000
  H   H3168     1.0  0.62946  0.54451  0.07936  1.0000
  H   H3169     1.0  0.71739  0.67075  0.03768  1.0000
  H   H3170     1.0  0.52225  0.91156  0.99444  1.0000
  C   C2635     1.0  0.50455  0.97190  0.10457  1.0000
  Fe  Fe352     1.0  0.58423  0.96332  0.02042  1.0000
  H   H3171     1.0  0.53630  0.91229  0.06371  1.0000
  C   C2636     1.0  0.58717  0.50435  0.17985  1.0000
  C   C2637     1.0  0.66385  0.85972  0.09024  1.0000
  S   S708      1.0  0.71769  0.86501  0.09861  1.0000
  C   C2638     1.0  0.57133  0.88900  0.97237  1.0000
  C   C2639     1.0  0.72192  0.85553  0.16478  1.0000
  Fe  Fe353     1.0  0.70289  0.89457  0.09520  1.0000
  H   H3172     1.0  0.69954  0.89084  0.20815  1.0000
  C   C2640     1.0  0.57990  0.50118  0.24874  1.0000
  N   N177      1.0  0.50752  0.92303  0.06259  1.0000
  S   S709      1.0  0.65258  0.51670  0.12016  1.0000
  C   C2641     1.0  0.67990  0.85403  0.05953  1.0000
  N   N178      1.0  0.62216  0.86166  0.23027  1.0000
  S   S710      1.0  0.70989  0.79779  0.29426  1.0000
  N   N179      1.0  0.69737  0.84840  0.04677  1.0000
  H   H3173     1.0  0.67485  0.74997  0.28911  1.0000
  C   C2642     1.0  0.50077  0.48731  0.17794  1.0000
  H   H3174     1.0  0.68584  0.84036  0.02772  1.0000
  C   C2643     1.0  0.58682  0.89039  0.28195  1.0000
  C   C2644     1.0  0.69499  0.84959  0.02784  1.0000
  S   S711      1.0  0.70324  0.50087  0.13212  1.0000
  C   C2645     1.0  0.51117  0.94041  0.04987  1.0000
  C   C2646     1.0  0.70378  0.86469  0.16399  1.0000
  H   H3175     1.0  0.52627  0.89198  0.97190  1.0000
  H   H3176     1.0  0.66482  0.50404  0.07084  1.0000
  S   S712      1.0  0.69228  0.84709  0.29471  1.0000
  H   H3177     1.0  0.70382  0.57422  0.03373  1.0000
  H   H3178     1.0  0.72902  0.60052  0.04821  1.0000
  C   C2647     1.0  0.49175  0.50655  0.20018  1.0000
  Fe  Fe354     1.0  0.71774  0.52439  0.11837  1.0000
  H   H3179     1.0  0.52413  0.92518  0.08083  1.0000
  C   C2648     1.0  0.59022  0.85968  0.25031  1.0000
  H   H3180     1.0  0.51527  0.48603  0.17929  1.0000
  H   H3181     1.0  0.71881  0.82416  0.04447  1.0000
  H   H3182     1.0  0.66931  0.52739  0.08336  1.0000
  C   C2649     1.0  0.72884  0.60890  0.01860  1.0000
  H   H3183     1.0  0.66139  0.96046  0.97447  1.0000
  H   H3184     1.0  0.60434  0.48007  0.14158  1.0000
  H   H3185     1.0  0.49068  0.48224  0.99098  1.0000
  H   H3186     1.0  0.71771  0.57553  0.97249  1.0000
  H   H3187     1.0  0.60198  0.47878  0.25518  1.0000
  C   C2650     1.0  0.64634  0.86520  0.06658  1.0000
  H   H3188     1.0  0.57816  0.83755  0.29460  1.0000
  H   H3189     1.0  0.67674  0.96640  0.98552  1.0000
  H   H3190     1.0  0.71745  0.84280  0.21143  1.0000
  C   C2651     1.0  0.50823  0.90971  0.05117  1.0000
  H   H3191     1.0  0.60731  0.62889  0.29072  1.0000
  H   H3192     1.0  0.63901  0.61420  0.28904  1.0000
  H   H3193     1.0  0.67031  0.64278  0.29379  1.0000
  H   H3194     1.0  0.62749  0.48462  0.19415  1.0000
  C   C2652     1.0  0.61224  0.87098  0.21501  1.0000
  C   C2653     1.0  0.65252  0.97267  0.01605  1.0000
  S   S713      1.0  0.53846  0.52027  0.29371  1.0000
  H   H3195     1.0  0.70443  0.87507  0.04072  1.0000
  H   H3196     1.0  0.61910  0.50866  0.18624  1.0000
  H   H3197     1.0  0.57718  0.96284  0.08991  1.0000
  H   H3198     1.0  0.62208  0.88697  0.23749  1.0000
  C   C2654     1.0  0.71657  0.77824  0.28440  1.0000
  C   C2655     1.0  0.49712  0.91930  0.24760  1.0000
  H   H3199     1.0  0.67123  0.47928  0.13221  1.0000
  Fe  Fe355     1.0  0.73105  0.87191  0.11835  1.0000
  S   S714      1.0  0.54168  0.48043  0.20407  1.0000
  S   S715      1.0  0.52029  0.88354  0.28742  1.0000
  H   H3200     1.0  0.56413  0.85707  0.26878  1.0000
  S   S716      1.0  0.55766  0.95382  0.03355  1.0000
  C   C2656     1.0  0.57575  0.95749  0.28278  1.0000
  H   H3201     1.0  0.63758  0.52063  0.08666  1.0000
  C   C2657     1.0  0.66305  0.51434  0.05793  1.0000
  N   N180      1.0  0.64809  0.97207  0.99849  1.0000
  C   C2658     1.0  0.61885  0.47987  0.13977  1.0000
  H   H3202     1.0  0.55838  0.52228  0.23876  1.0000
  H   H3203     1.0  0.62712  0.96403  0.98941  1.0000
  C   C2659     1.0  0.65587  0.95628  0.02935  1.0000
  H   H3204     1.0  0.63443  0.94878  0.00906  1.0000
  S   S717      1.0  0.56628  0.90238  0.27458  1.0000
  C   C2660     1.0  0.71182  0.58392  0.03523  1.0000
  H   H3205     1.0  0.69441  0.59498  0.00769  1.0000
  H   H3206     1.0  0.50647  0.50394  0.20132  1.0000
  C   C2661     1.0  0.48613  0.92935  0.21874  1.0000
  H   H3207     1.0  0.72621  0.63751  0.23139  1.0000
  H   H3208     1.0  0.72415  0.65718  0.06807  1.0000
  C   C2662     1.0  0.73108  0.58269  0.00545  1.0000
  C   C2663     1.0  0.61147  0.58282  0.29463  1.0000
  H   H3209     1.0  0.56034  0.50527  0.99533  1.0000
  C   C2664     1.0  0.72920  0.67341  0.04129  1.0000
  C   C2665     1.0  0.71405  0.89162  0.20428  1.0000
  C   C2666     1.0  0.49012  0.47463  0.20995  1.0000
  H   H3210     1.0  0.53741  0.96595  0.06609  1.0000
  C   C2667     1.0  0.73302  0.60977  0.03542  1.0000
  C   C2668     1.0  0.55973  0.51519  0.98202  1.0000
  C   C2669     1.0  0.66128  0.97282  0.04990  1.0000
  S   S718      1.0  0.72848  0.53529  0.13757  1.0000
  H   H3211     1.0  0.72557  0.65972  0.09753  1.0000
  H   H3212     1.0  0.55547  0.52931  0.98495  1.0000
  H   H3213     1.0  0.69070  0.56212  0.97515  1.0000
  C   C2670     1.0  0.73027  0.74570  0.28713  1.0000
  C   C2671     1.0  0.59035  0.56335  0.29451  1.0000
  C   C2672     1.0  0.57814  0.94037  0.29469  1.0000
  H   H3214     1.0  0.57915  0.92844  0.28914  1.0000
  H   H3215     1.0  0.57256  0.50247  0.18392  1.0000
  H   H3216     1.0  0.71745  0.88591  0.23231  1.0000
  C   C2673     1.0  0.72263  0.89505  0.18570  1.0000
  H   H3217     1.0  0.50736  0.78373  0.97474  1.0000
  H   H3218     1.0  0.55450  0.48213  0.97884  1.0000
  H   H3219     1.0  0.72777  0.91572  0.14943  1.0000
  H   H3220     1.0  0.57848  0.56166  0.29019  1.0000
  H   H3221     1.0  0.61993  0.97064  0.01126  1.0000
  H   H3222     1.0  0.72878  0.69266  0.21785  1.0000
  Fe  Fe356     1.0  0.53843  0.48998  0.30058  1.0000
  H   H3223     1.0  0.48784  0.96104  0.23782  1.0000
  H   H3224     1.0  0.72965  0.84351  0.30080  1.0000
  C   C2674     1.0  0.57464  0.97342  0.28892  1.0000
  C   C2675     1.0  0.70542  0.58423  0.96815  1.0000
  H   H3225     1.0  0.50055  0.47418  0.17442  1.0000
  C   C2676     1.0  0.72370  0.90584  0.31594  1.0000
  H   H3226     1.0  0.54428  0.51286  0.54065  1.0000
  C   C2677     1.0  0.54645  0.58206  0.31872  1.0000
  H   H3227     1.0  0.61765  0.87373  0.61027  1.0000
  S   S719      1.0  0.55919  0.95077  0.44180  1.0000
  H   H3228     1.0  0.59412  0.53615  0.31122  1.0000
  N   N181      1.0  0.55359  0.48465  0.55368  1.0000
  H   H3229     1.0  0.60150  0.90775  0.30479  1.0000
  H   H3230     1.0  0.56831  0.50426  0.53398  1.0000
  H   H3231     1.0  0.58515  0.62337  0.48971  1.0000
  H   H3232     1.0  0.51858  0.83199  0.38736  1.0000
  Fe  Fe357     1.0  0.51335  0.90640  0.32945  1.0000
  S   S720      1.0  0.53676  0.88317  0.32336  1.0000
  S   S721      1.0  0.51060  0.91561  0.35602  1.0000
  C   C2678     1.0  0.52093  0.58778  0.60155  1.0000
  H   H3233     1.0  0.48655  0.89815  0.39307  1.0000
  H   H3234     1.0  0.55258  0.79381  0.55440  1.0000
  C   C2679     1.0  0.49905  0.93700  0.45395  1.0000
  S   S722      1.0  0.69978  0.66482  0.33210  1.0000
  C   C2680     1.0  0.48905  0.97165  0.43093  1.0000
  C   C2681     1.0  0.49876  0.83081  0.32995  1.0000
  H   H3235     1.0  0.71095  0.54333  0.57539  1.0000
  H   H3236     1.0  0.51646  0.61740  0.34081  1.0000
  C   C2682     1.0  0.49959  0.81192  0.33673  1.0000
  H   H3237     1.0  0.68520  0.96056  0.59815  1.0000
  C   C2683     1.0  0.50562  0.49519  0.58330  1.0000
  H   H3238     1.0  0.53058  0.77023  0.53311  1.0000
  H   H3239     1.0  0.52384  0.64392  0.31764  1.0000
  S   S723      1.0  0.70505  0.62447  0.57527  1.0000
  H   H3240     1.0  0.67286  0.55769  0.43728  1.0000
  H   H3241     1.0  0.50726  0.92730  0.42805  1.0000
  C   C2684     1.0  0.67278  0.97028  0.42827  1.0000
  C   C2685     1.0  0.66949  0.64539  0.30723  1.0000
  H   H3242     1.0  0.53520  0.75086  0.56137  1.0000
  C   C2686     1.0  0.70928  0.89814  0.31479  1.0000
  S   S724      1.0  0.51013  0.91843  0.54585  1.0000
  H   H3243     1.0  0.59409  0.96759  0.42879  1.0000
  H   H3244     1.0  0.57370  0.87378  0.30634  1.0000
  C   C2687     1.0  0.57099  0.73493  0.62785  1.0000
  C   C2688     1.0  0.60927  0.97162  0.44711  1.0000
  C   C2689     1.0  0.65172  0.68857  0.61445  1.0000
  H   H3245     1.0  0.48637  0.92365  0.49081  1.0000
  C   C2690     1.0  0.70465  0.57385  0.52797  1.0000
  Fe  Fe358     1.0  0.57485  0.61856  0.34022  1.0000
  S   S725      1.0  0.56300  0.62363  0.36869  1.0000
  S   S726      1.0  0.55824  0.61120  0.32352  1.0000
  Fe  Fe359     1.0  0.61049  0.63052  0.33819  1.0000
  S   S727      1.0  0.60180  0.63661  0.36665  1.0000
  S   S728      1.0  0.63630  0.63428  0.31661  1.0000
  Fe  Fe360     1.0  0.59116  0.61035  0.37445  1.0000
  S   S729      1.0  0.59101  0.59114  0.40200  1.0000
  Fe  Fe361     1.0  0.57426  0.64941  0.35897  1.0000
  S   S730      1.0  0.55680  0.67393  0.37023  1.0000
  S   S731      1.0  0.60225  0.60287  0.34667  1.0000
  S   S732      1.0  0.58371  0.64572  0.32981  1.0000
  H   H3246     1.0  0.60264  0.55170  0.42008  1.0000
  C   C2691     1.0  0.54087  0.85273  0.62923  1.0000
  H   H3247     1.0  0.61422  0.68008  0.56051  1.0000
  H   H3248     1.0  0.65097  0.56929  0.43238  1.0000
  H   H3249     1.0  0.55312  0.91834  0.33052  1.0000
  N   N182      1.0  0.50954  0.64521  0.34543  1.0000
  C   C2692     1.0  0.52081  0.78209  0.53711  1.0000
  Fe  Fe362     1.0  0.65135  0.60123  0.51118  1.0000
  S   S733      1.0  0.62829  0.61807  0.49739  1.0000
  S   S734      1.0  0.67323  0.61676  0.50976  1.0000
  Fe  Fe363     1.0  0.63919  0.56540  0.51384  1.0000
  S   S735      1.0  0.61540  0.57960  0.49982  1.0000
  S   S736      1.0  0.64852  0.53454  0.52074  1.0000
  Fe  Fe364     1.0  0.63514  0.59644  0.48057  1.0000
  S   S737      1.0  0.64105  0.60438  0.44971  1.0000
  Fe  Fe365     1.0  0.61076  0.59984  0.51807  1.0000
  S   S738      1.0  0.58174  0.61292  0.52975  1.0000
  S   S739      1.0  0.65934  0.58068  0.49305  1.0000
  S   S740      1.0  0.63331  0.58456  0.53358  1.0000
  Fe  Fe366     1.0  0.53334  0.71198  0.57286  1.0000
  S   S741      1.0  0.52756  0.68416  0.58736  1.0000
  S   S742      1.0  0.52790  0.72453  0.54428  1.0000
  H   H3250     1.0  0.61980  0.65817  0.50666  1.0000
  Fe  Fe367     1.0  0.55499  0.67901  0.59526  1.0000
  S   S743      1.0  0.57569  0.65242  0.59464  1.0000
  Fe  Fe368     1.0  0.51679  0.69659  0.61235  1.0000
  S   S744      1.0  0.56198  0.70575  0.57836  1.0000
  S   S745      1.0  0.52049  0.72487  0.59733  1.0000
  Fe  Fe369     1.0  0.53871  0.51671  0.32374  1.0000
  S   S746      1.0  0.50790  0.52228  0.33289  1.0000
  H   H3251     1.0  0.61128  0.91628  0.31901  1.0000
  C   C2693     1.0  0.50623  0.80367  0.55725  1.0000
  H   H3252     1.0  0.53871  0.59206  0.30930  1.0000
  C   C2694     1.0  0.50214  0.74732  0.52515  1.0000
  H   H3253     1.0  0.51076  0.74224  0.51322  1.0000
  H   H3254     1.0  0.72723  0.76123  0.30792  1.0000
  C   C2695     1.0  0.57944  0.62310  0.54850  1.0000
  C   C2696     1.0  0.59152  0.61620  0.56075  1.0000
  C   C2697     1.0  0.58988  0.62499  0.57524  1.0000
  C   C2698     1.0  0.57629  0.64079  0.57742  1.0000
  C   C2699     1.0  0.56403  0.64749  0.56535  1.0000
  C   C2700     1.0  0.56547  0.63853  0.55104  1.0000
  H   H3255     1.0  0.60214  0.60412  0.55904  1.0000
  H   H3256     1.0  0.59936  0.61973  0.58460  1.0000
  H   H3257     1.0  0.55365  0.65975  0.56677  1.0000
  H   H3258     1.0  0.55612  0.64390  0.54157  1.0000
  C   C2701     1.0  0.55713  0.58781  0.32786  1.0000
  H   H3259     1.0  0.68165  0.94831  0.37777  1.0000
  H   H3260     1.0  0.50905  0.92832  0.48808  1.0000
  C   C2702     1.0  0.55632  0.55029  0.33333  1.0000
  C   C2703     1.0  0.56668  0.55613  0.34273  1.0000
  C   C2704     1.0  0.56706  0.57484  0.34004  1.0000
  H   H3261     1.0  0.51215  0.80328  0.34053  1.0000
  N   N183      1.0  0.50488  0.91881  0.46550  1.0000
  H   H3262     1.0  0.57471  0.54610  0.35188  1.0000
  H   H3263     1.0  0.57525  0.57913  0.34721  1.0000
  C   C2705     1.0  0.62612  0.60165  0.43698  1.0000
  C   C2706     1.0  0.63020  0.60718  0.41781  1.0000
  C   C2707     1.0  0.61929  0.60422  0.40703  1.0000
  C   C2708     1.0  0.60431  0.59562  0.41539  1.0000
  C   C2709     1.0  0.60001  0.59036  0.43460  1.0000
  C   C2710     1.0  0.61089  0.59340  0.44542  1.0000
  H   H3264     1.0  0.64204  0.61349  0.41124  1.0000
  H   H3265     1.0  0.62282  0.60811  0.39221  1.0000
  H   H3266     1.0  0.58835  0.58377  0.44111  1.0000
  H   H3267     1.0  0.60756  0.58924  0.46022  1.0000
  C   C2711     1.0  0.53966  0.68697  0.35801  1.0000
  C   C2712     1.0  0.52403  0.69778  0.36695  1.0000
  C   C2713     1.0  0.50988  0.70779  0.35758  1.0000
  C   C2714     1.0  0.51152  0.70726  0.33913  1.0000
  C   C2715     1.0  0.52736  0.69683  0.33008  1.0000
  C   C2716     1.0  0.54130  0.68650  0.33956  1.0000
  H   H3268     1.0  0.52272  0.69824  0.38122  1.0000
  H   H3269     1.0  0.66703  0.69142  0.32096  1.0000
  H   H3270     1.0  0.55344  0.67845  0.33249  1.0000
  C   C2717     1.0  0.60468  0.51863  0.51276  1.0000
  C   C2718     1.0  0.61582  0.52926  0.51569  1.0000
  C   C2719     1.0  0.63419  0.52161  0.51700  1.0000
  H   H3271     1.0  0.49692  0.48568  0.61238  1.0000
  H   H3272     1.0  0.59053  0.52469  0.51158  1.0000
  H   H3273     1.0  0.61008  0.54328  0.51719  1.0000
  H   H3274     1.0  0.51946  0.64957  0.55741  1.0000
  C   C2720     1.0  0.55077  0.93370  0.60335  1.0000
  C   C2721     1.0  0.53874  0.92743  0.61949  1.0000
  C   C2722     1.0  0.52287  0.92186  0.61847  1.0000
  C   C2723     1.0  0.51878  0.92284  0.60134  1.0000
  C   C2724     1.0  0.53059  0.92952  0.58524  1.0000
  C   C2725     1.0  0.54659  0.93481  0.58626  1.0000
  H   H3275     1.0  0.62839  0.52093  0.47582  1.0000
  C   C2726     1.0  0.67906  0.67031  0.59887  1.0000
  H   H3276     1.0  0.52753  0.93038  0.57199  1.0000
  C   C2727     1.0  0.50946  0.83590  0.37716  1.0000
  C   C2728     1.0  0.69613  0.62187  0.55731  1.0000
  C   C2729     1.0  0.70369  0.62905  0.53914  1.0000
  C   C2730     1.0  0.69668  0.62699  0.52475  1.0000
  C   C2731     1.0  0.68216  0.61764  0.52841  1.0000
  C   C2732     1.0  0.67476  0.61010  0.54657  1.0000
  C   C2733     1.0  0.68171  0.61231  0.56105  1.0000
  H   H3277     1.0  0.70240  0.63287  0.51070  1.0000
  H   H3278     1.0  0.66362  0.60275  0.54944  1.0000
  H   H3279     1.0  0.67590  0.60666  0.57513  1.0000
  H   H3280     1.0  0.63145  0.59925  0.30989  1.0000
  Fe  Fe370     1.0  0.51583  0.87064  0.31749  1.0000
  C   C2734     1.0  0.51966  0.78775  0.55374  1.0000
  C   C2735     1.0  0.50753  0.74111  0.54222  1.0000
  H   H3281     1.0  0.53746  0.64770  0.33180  1.0000
  C   C2736     1.0  0.54910  0.47745  0.53942  1.0000
  C   C2737     1.0  0.68283  0.65537  0.32776  1.0000
  C   C2738     1.0  0.66745  0.65224  0.34179  1.0000
  C   C2739     1.0  0.65313  0.64569  0.33859  1.0000
  C   C2740     1.0  0.65410  0.64227  0.32127  1.0000
  S   S747      1.0  0.48851  0.69309  0.62843  1.0000
  H   H3282     1.0  0.68502  0.70354  0.33257  1.0000
  H   H3283     1.0  0.66658  0.65497  0.35520  1.0000
  H   H3284     1.0  0.64139  0.64330  0.34951  1.0000
  H   H3285     1.0  0.66187  0.97230  0.59946  1.0000
  C   C2741     1.0  0.52906  0.97101  0.46074  1.0000
  C   C2742     1.0  0.53822  0.48453  0.56992  1.0000
  C   C2743     1.0  0.55642  0.50374  0.54587  1.0000
  H   H3286     1.0  0.63444  0.69149  0.57281  1.0000
  H   H3287     1.0  0.65917  0.51684  0.46861  1.0000
  H   H3288     1.0  0.59605  0.66018  0.53226  1.0000
  H   H3289     1.0  0.69400  0.96049  0.55646  1.0000
  C   C2744     1.0  0.65943  0.67957  0.55610  1.0000
  C   C2745     1.0  0.49630  0.74773  0.55753  1.0000
  C   C2746     1.0  0.54324  0.95548  0.46180  1.0000
  C   C2747     1.0  0.54447  0.94359  0.47883  1.0000
  C   C2748     1.0  0.53159  0.94733  0.49478  1.0000
  H   H3290     1.0  0.49849  0.56137  0.61789  1.0000
  H   H3291     1.0  0.53017  0.89908  0.46854  1.0000
  S   S748      1.0  0.55778  0.52657  0.33572  1.0000
  H   H3292     1.0  0.55543  0.93155  0.47971  1.0000
  H   H3293     1.0  0.53264  0.93826  0.50794  1.0000
  H   H3294     1.0  0.62930  0.67724  0.50723  1.0000
  H   H3295     1.0  0.49019  0.64640  0.61330  1.0000
  C   C2749     1.0  0.62338  0.52769  0.46334  1.0000
  N   N184      1.0  0.73229  0.56965  0.56474  1.0000
  C   C2750     1.0  0.54380  0.78967  0.56811  1.0000
  H   H3296     1.0  0.60625  0.86010  0.62985  1.0000
  H   H3297     1.0  0.52016  0.66600  0.32329  1.0000
  C   C2751     1.0  0.53726  0.59409  0.59258  1.0000
  C   C2752     1.0  0.52416  0.93707  0.37106  1.0000
  C   C2753     1.0  0.52056  0.93436  0.35497  1.0000
  C   C2754     1.0  0.52533  0.94633  0.33829  1.0000
  H   H3298     1.0  0.52868  0.90978  0.44524  1.0000
  N   N185      1.0  0.67745  0.72482  0.30957  1.0000
  H   H3299     1.0  0.55353  0.76304  0.54905  1.0000
  H   H3300     1.0  0.52241  0.94450  0.32586  1.0000
  H   H3301     1.0  0.60260  0.85934  0.31770  1.0000
  C   C2755     1.0  0.52001  0.77295  0.58562  1.0000
  C   C2756     1.0  0.64675  0.55246  0.46741  1.0000
  H   H3302     1.0  0.67094  0.95448  0.58615  1.0000
  C   C2757     1.0  0.67337  0.95104  0.34449  1.0000
  H   H3303     1.0  0.64218  0.63165  0.53542  1.0000
  C   C2758     1.0  0.56713  0.91057  0.32570  1.0000
  C   C2759     1.0  0.57617  0.97225  0.30692  1.0000
  H   H3304     1.0  0.71478  0.63647  0.53612  1.0000
  C   C2760     1.0  0.53441  0.60995  0.61691  1.0000
  Fe  Fe371     1.0  0.72552  0.67009  0.31098  1.0000
  H   H3305     1.0  0.52877  0.69665  0.31573  1.0000
  H   H3306     1.0  0.50547  0.61971  0.36427  1.0000
  Fe  Fe372     1.0  0.48898  0.90502  0.54141  1.0000
  H   H3307     1.0  0.70590  0.95804  0.32834  1.0000
  H   H3308     1.0  0.65570  0.49752  0.51580  1.0000
  N   N186      1.0  0.65059  0.54335  0.45158  1.0000
  H   H3309     1.0  0.50796  0.66936  0.35608  1.0000
  C   C2761     1.0  0.58436  0.89235  0.62502  1.0000
  S   S749      1.0  0.51776  0.84032  0.32908  1.0000
  H   H3310     1.0  0.66235  0.65394  0.52515  1.0000
  S   S750      1.0  0.72660  0.66807  0.55029  1.0000
  C   C2762     1.0  0.50570  0.64594  0.58577  1.0000
  C   C2763     1.0  0.66235  0.70026  0.61698  1.0000
  C   C2764     1.0  0.61174  0.50018  0.51154  1.0000
  H   H3311     1.0  0.55664  0.60995  0.59327  1.0000
  C   C2765     1.0  0.68984  0.68152  0.60110  1.0000
  H   H3312     1.0  0.67116  0.95640  0.43656  1.0000
  H   H3313     1.0  0.67755  0.52801  0.45583  1.0000
  S   S751      1.0  0.72066  0.91733  0.33403  1.0000
  C   C2766     1.0  0.69480  0.55982  0.53595  1.0000
  C   C2767     1.0  0.68168  0.69624  0.61004  1.0000
  H   H3314     1.0  0.52046  0.92786  0.38400  1.0000
  H   H3315     1.0  0.55200  0.75298  0.57284  1.0000
  H   H3316     1.0  0.50026  0.74315  0.57068  1.0000
  C   C2768     1.0  0.64036  0.68342  0.56222  1.0000
  C   C2769     1.0  0.70961  0.55203  0.56213  1.0000
  C   C2770     1.0  0.49088  0.65085  0.34097  1.0000
  H   H3317     1.0  0.65679  0.97240  0.46304  1.0000
  H   H3318     1.0  0.60875  0.85522  0.60735  1.0000
  C   C2771     1.0  0.63315  0.53981  0.44933  1.0000
  H   H3319     1.0  0.49767  0.71581  0.36465  1.0000
  N   N187      1.0  0.57211  0.65181  0.42107  1.0000
  C   C2772     1.0  0.58860  0.65621  0.40702  1.0000
  C   C2773     1.0  0.56487  0.63856  0.41498  1.0000
  C   C2774     1.0  0.55805  0.66907  0.42137  1.0000
  C   C2775     1.0  0.57603  0.64394  0.43974  1.0000
  C   C2776     1.0  0.59384  0.64118  0.44376  1.0000
  C   C2777     1.0  0.56169  0.63891  0.45468  1.0000
  C   C2778     1.0  0.59692  0.63401  0.46162  1.0000
  C   C2779     1.0  0.56499  0.63159  0.47247  1.0000
  C   C2780     1.0  0.58258  0.62915  0.47593  1.0000
  H   H3320     1.0  0.59948  0.64365  0.40552  1.0000
  H   H3321     1.0  0.58514  0.66225  0.39319  1.0000
  H   H3322     1.0  0.59452  0.66654  0.41040  1.0000
  H   H3323     1.0  0.57466  0.62512  0.41544  1.0000
  H   H3324     1.0  0.56267  0.64359  0.40061  1.0000
  H   H3325     1.0  0.55140  0.63592  0.42359  1.0000
  H   H3326     1.0  0.55528  0.67577  0.40738  1.0000
  H   H3327     1.0  0.54454  0.66674  0.43016  1.0000
  H   H3328     1.0  0.56270  0.67914  0.42654  1.0000
  H   H3329     1.0  0.60578  0.64412  0.43334  1.0000
  H   H3330     1.0  0.54782  0.64055  0.45267  1.0000
  H   H3331     1.0  0.61068  0.63188  0.46426  1.0000
  H   H3332     1.0  0.55391  0.62771  0.48368  1.0000
  H   H3333     1.0  0.56738  0.90835  0.31192  1.0000
  S   S752      1.0  0.50148  0.96858  0.51321  1.0000
  H   H3334     1.0  0.66835  0.68464  0.56183  1.0000
  C   C2781     1.0  0.62949  0.66235  0.51281  1.0000
  S   S753      1.0  0.54124  0.48606  0.32979  1.0000
  C   C2782     1.0  0.48645  0.85774  0.51273  1.0000
  Fe  Fe373     1.0  0.54870  0.71669  0.60412  1.0000
  H   H3335     1.0  0.59185  0.92707  0.34658  1.0000
  S   S754      1.0  0.57186  0.93888  0.60386  1.0000
  H   H3336     1.0  0.57946  0.95539  0.33270  1.0000
  C   C2783     1.0  0.69171  0.95258  0.36507  1.0000
  H   H3337     1.0  0.66609  0.51780  0.44423  1.0000
  N   N188      1.0  0.53161  0.77779  0.56710  1.0000
  H   H3338     1.0  0.64412  0.74928  0.30339  1.0000
  H   H3339     1.0  0.63666  0.56564  0.46529  1.0000
  C   C2784     1.0  0.68381  0.65195  0.31043  1.0000
  H   H3340     1.0  0.61022  0.70922  0.31767  1.0000
  H   H3341     1.0  0.66350  0.94472  0.35626  1.0000
  C   C2785     1.0  0.69730  0.54890  0.55298  1.0000
  H   H3342     1.0  0.52914  0.62138  0.35536  1.0000
  Fe  Fe374     1.0  0.49088  0.92162  0.57285  1.0000
  H   H3343     1.0  0.62441  0.63473  0.55525  1.0000
  H   H3344     1.0  0.53798  0.55889  0.31420  1.0000
  H   H3345     1.0  0.56069  0.47677  0.52725  1.0000
  H   H3346     1.0  0.54481  0.59048  0.57954  1.0000
  C   C2786     1.0  0.54401  0.60508  0.60027  1.0000
  C   C2787     1.0  0.50869  0.65559  0.56766  1.0000
  C   C2788     1.0  0.49633  0.95601  0.42335  1.0000
  H   H3347     1.0  0.53616  0.95300  0.38279  1.0000
  H   H3348     1.0  0.59068  0.88018  0.58403  1.0000
  S   S755      1.0  0.61017  0.93281  0.62916  1.0000
  H   H3349     1.0  0.65177  0.66496  0.60385  1.0000
  H   H3350     1.0  0.57596  0.47816  0.56827  1.0000
  C   C2789     1.0  0.62883  0.67680  0.55490  1.0000
  C   C2790     1.0  0.52499  0.91222  0.45951  1.0000
  C   C2791     1.0  0.59017  0.88923  0.59350  1.0000
  S   S756      1.0  0.54381  0.68939  0.62172  1.0000
  H   H3351     1.0  0.66311  0.54932  0.42273  1.0000
  H   H3352     1.0  0.51655  0.57930  0.59482  1.0000
  C   C2792     1.0  0.63011  0.49251  0.51284  1.0000
  S   S757      1.0  0.55963  0.73932  0.60936  1.0000
  H   H3353     1.0  0.49959  0.65078  0.37276  1.0000
  H   H3354     1.0  0.72884  0.97116  0.42011  1.0000
  H   H3355     1.0  0.70047  0.96036  0.36855  1.0000
  H   H3356     1.0  0.71578  0.73772  0.63369  1.0000
  H   H3357     1.0  0.55297  0.89287  0.60569  1.0000
  H   H3358     1.0  0.65454  0.73584  0.60154  1.0000
  C   C2793     1.0  0.52330  0.65100  0.32884  1.0000
  N   N189      1.0  0.58800  0.87904  0.61293  1.0000
  H   H3359     1.0  0.52400  0.64989  0.36427  1.0000
  H   H3360     1.0  0.64326  0.97246  0.35471  1.0000
  H   H3361     1.0  0.68195  0.66578  0.53813  1.0000
  C   C2794     1.0  0.48553  0.85263  0.39778  1.0000
  H   H3362     1.0  0.68507  0.55756  0.52896  1.0000
  C   C2795     1.0  0.50869  0.79135  0.52528  1.0000
  C   C2796     1.0  0.62763  0.63831  0.53995  1.0000
  Fe  Fe375     1.0  0.50763  0.52335  0.30342  1.0000
  H   H3363     1.0  0.49307  0.71064  0.54812  1.0000
  H   H3364     1.0  0.64095  0.54387  0.48055  1.0000
  H   H3365     1.0  0.70940  0.58541  0.58062  1.0000
  H   H3366     1.0  0.49817  0.90278  0.44934  1.0000
  C   C2797     1.0  0.53297  0.95135  0.37041  1.0000
  C   C2798     1.0  0.60671  0.97093  0.42997  1.0000
  H   H3367     1.0  0.51319  0.82496  0.36890  1.0000
  H   H3368     1.0  0.55581  0.93970  0.57372  1.0000
  H   H3369     1.0  0.64338  0.65456  0.50746  1.0000
  C   C2799     1.0  0.53809  0.96309  0.35365  1.0000
  C   C2800     1.0  0.60446  0.66593  0.53856  1.0000
  H   H3370     1.0  0.63683  0.68436  0.32428  1.0000
  C   C2801     1.0  0.66389  0.52574  0.45520  1.0000
  C   C2802     1.0  0.58047  0.92122  0.34511  1.0000
  C   C2803     1.0  0.51522  0.62506  0.35178  1.0000
  C   C2804     1.0  0.65570  0.66236  0.53526  1.0000
  H   H3371     1.0  0.55312  0.78247  0.57796  1.0000
  H   H3372     1.0  0.70466  0.67869  0.59600  1.0000
  C   C2805     1.0  0.53407  0.96064  0.33765  1.0000
  H   H3373     1.0  0.50944  0.78654  0.51292  1.0000
  C   C2806     1.0  0.59947  0.53269  0.44604  1.0000
  H   H3374     1.0  0.59566  0.90015  0.62186  1.0000
  C   C2807     1.0  0.59996  0.90949  0.31907  1.0000
  H   H3375     1.0  0.51407  0.63251  0.58950  1.0000
  H   H3376     1.0  0.54182  0.92658  0.63274  1.0000
  H   H3377     1.0  0.51744  0.50248  0.55493  1.0000
  N   N190      1.0  0.58162  0.92041  0.32568  1.0000
  N   N191      1.0  0.62453  0.65847  0.53325  1.0000
  Fe  Fe376     1.0  0.51042  0.49191  0.33636  1.0000
  C   C2808     1.0  0.60685  0.52415  0.46164  1.0000
  C   C2809     1.0  0.59913  0.54894  0.30641  1.0000
  S   S758      1.0  0.63979  0.86402  0.30349  1.0000
  H   H3378     1.0  0.58656  0.53007  0.44481  1.0000
  H   H3379     1.0  0.48928  0.95327  0.47571  1.0000
  H   H3380     1.0  0.59798  0.61224  0.30935  1.0000
  H   H3381     1.0  0.61426  0.74150  0.30730  1.0000
  H   H3382     1.0  0.70243  0.58253  0.51483  1.0000
  H   H3383     1.0  0.59937  0.66220  0.55366  1.0000
  C   C2810     1.0  0.65974  0.55536  0.43522  1.0000
  H   H3384     1.0  0.60292  0.89510  0.58903  1.0000
  H   H3385     1.0  0.70104  0.93984  0.36124  1.0000
  H   H3386     1.0  0.53585  0.80249  0.57281  1.0000
  H   H3387     1.0  0.72987  0.57867  0.58995  1.0000
  C   C2811     1.0  0.66006  0.67384  0.60551  1.0000
  H   H3388     1.0  0.65947  0.55564  0.46943  1.0000
  Fe  Fe377     1.0  0.57962  0.93795  0.63070  1.0000
  S   S759      1.0  0.59753  0.48707  0.50803  1.0000
  H   H3389     1.0  0.49401  0.87447  0.37494  1.0000
  C   C2812     1.0  0.48655  0.97023  0.44981  1.0000
  H   H3390     1.0  0.60122  0.68115  0.53417  1.0000
  H   H3391     1.0  0.68550  0.65879  0.59208  1.0000
  H   H3392     1.0  0.49453  0.81458  0.40782  1.0000
  H   H3393     1.0  0.65219  0.74505  0.62161  1.0000
  H   H3394     1.0  0.69729  0.72179  0.32642  1.0000
  C   C2813     1.0  0.60860  0.54477  0.43208  1.0000
  C   C2814     1.0  0.57741  0.74924  0.63106  1.0000
  H   H3395     1.0  0.49817  0.89177  0.47277  1.0000
  Fe  Fe378     1.0  0.72935  0.63850  0.56437  1.0000
  H   H3396     1.0  0.60239  0.89542  0.32771  1.0000
  C   C2815     1.0  0.64136  0.50329  0.51533  1.0000
  C   C2816     1.0  0.62520  0.54834  0.43360  1.0000
  H   H3397     1.0  0.66910  0.75310  0.31276  1.0000
  H   H3398     1.0  0.52653  0.87812  0.61506  1.0000
  C   C2817     1.0  0.57222  0.86952  0.61794  1.0000
  H   H3399     1.0  0.49195  0.50285  0.58163  1.0000
  C   C2818     1.0  0.62364  0.71251  0.31605  1.0000
  H   H3400     1.0  0.59853  0.96883  0.45915  1.0000
  C   C2819     1.0  0.55495  0.87885  0.61326  1.0000
  C   C2820     1.0  0.51026  0.65415  0.36026  1.0000
  H   H3401     1.0  0.52840  0.76402  0.59572  1.0000
  H   H3402     1.0  0.66883  0.49516  0.54930  1.0000
  C   C2821     1.0  0.60588  0.86639  0.61515  1.0000
  C   C2822     1.0  0.57922  0.93870  0.31329  1.0000
  H   H3403     1.0  0.62697  0.72172  0.62038  1.0000
  H   H3404     1.0  0.63128  0.55813  0.42238  1.0000
  S   S760      1.0  0.49714  0.87863  0.53071  1.0000
  N   N192      1.0  0.48969  0.83857  0.38638  1.0000
  S   S761      1.0  0.49943  0.91474  0.60040  1.0000
  H   H3405     1.0  0.56702  0.92959  0.35073  1.0000
  C   C2823     1.0  0.52029  0.49480  0.56812  1.0000
  H   H3406     1.0  0.53681  0.48610  0.53415  1.0000
  H   H3407     1.0  0.71621  0.56215  0.59213  1.0000
  C   C2824     1.0  0.49136  0.95321  0.46125  1.0000
  H   H3408     1.0  0.55928  0.50984  0.55634  1.0000
  H   H3409     1.0  0.51307  0.84844  0.36725  1.0000
  H   H3410     1.0  0.50945  0.76548  0.58507  1.0000
  C   C2825     1.0  0.65892  0.73305  0.61493  1.0000
  H   H3411     1.0  0.59970  0.51477  0.47255  1.0000
  H   H3412     1.0  0.51264  0.78517  0.59161  1.0000
  H   H3413     1.0  0.61900  0.63187  0.53466  1.0000
  C   C2826     1.0  0.64329  0.73496  0.30803  1.0000
  C   C2827     1.0  0.63620  0.66618  0.54098  1.0000
  C   C2828     1.0  0.61993  0.56792  0.30706  1.0000
  H   H3414     1.0  0.58270  0.47637  0.41517  1.0000
  H   H3415     1.0  0.50491  0.80916  0.56928  1.0000
  H   H3416     1.0  0.53963  0.61867  0.62277  1.0000
  C   C2829     1.0  0.66708  0.66901  0.54269  1.0000
  H   H3417     1.0  0.51375  0.91671  0.63096  1.0000
  C   C2830     1.0  0.60296  0.86909  0.30473  1.0000
  C   C2831     1.0  0.63371  0.71868  0.63240  1.0000
  H   H3418     1.0  0.69663  0.89915  0.32504  1.0000
  C   C2832     1.0  0.51086  0.59238  0.61865  1.0000
  C   C2833     1.0  0.69624  0.96982  0.33387  1.0000
  H   H3419     1.0  0.72716  0.82090  0.31410  1.0000
  H   H3420     1.0  0.53290  0.92250  0.45982  1.0000
  C   C2834     1.0  0.54356  0.76046  0.56230  1.0000
  H   H3421     1.0  0.53780  0.96978  0.32467  1.0000
  H   H3422     1.0  0.57138  0.90252  0.62366  1.0000
  C   C2835     1.0  0.57861  0.95518  0.31892  1.0000
  C   C2836     1.0  0.65815  0.48757  0.55839  1.0000
  H   H3423     1.0  0.66615  0.95835  0.33299  1.0000
  H   H3424     1.0  0.50152  0.67995  0.54854  1.0000
  C   C2837     1.0  0.49402  0.81265  0.54544  1.0000
  H   H3425     1.0  0.69074  0.70432  0.61163  1.0000
  H   H3426     1.0  0.56865  0.89670  0.33481  1.0000
  C   C2838     1.0  0.49481  0.90538  0.46353  1.0000
  C   C2839     1.0  0.54598  0.56332  0.32150  1.0000
  H   H3427     1.0  0.58154  0.90730  0.35416  1.0000
  H   H3428     1.0  0.57884  0.90138  0.59133  1.0000
  H   H3429     1.0  0.64545  0.49323  0.55253  1.0000
  H   H3430     1.0  0.73176  0.59831  0.55262  1.0000
  C   C2840     1.0  0.51757  0.96305  0.49367  1.0000
  H   H3431     1.0  0.63697  0.69038  0.61942  1.0000
  H   H3432     1.0  0.49849  0.95721  0.40860  1.0000
  S   S762      1.0  0.49358  0.71857  0.32737  1.0000
  H   H3433     1.0  0.70775  0.96474  0.57042  1.0000
  C   C2841     1.0  0.51811  0.60372  0.62598  1.0000
  C   C2842     1.0  0.62597  0.73067  0.31020  1.0000
  H   H3434     1.0  0.67351  0.72541  0.33824  1.0000
  C   C2843     1.0  0.50132  0.91909  0.48538  1.0000
  S   S763      1.0  0.49202  0.89265  0.32595  1.0000
  H   H3435     1.0  0.49039  0.68037  0.33518  1.0000
  C   C2844     1.0  0.48548  0.75994  0.52349  1.0000
  C   C2845     1.0  0.71977  0.56632  0.55447  1.0000
  S   S764      1.0  0.50768  0.49340  0.30766  1.0000
  H   H3436     1.0  0.68376  0.93934  0.33951  1.0000
  H   H3437     1.0  0.50569  0.90525  0.49381  1.0000
  C   C2846     1.0  0.71690  0.57719  0.53704  1.0000
  C   C2847     1.0  0.49220  0.65374  0.59910  1.0000
  H   H3438     1.0  0.68950  0.53808  0.55918  1.0000
  H   H3439     1.0  0.62016  0.54016  0.32250  1.0000
  S   S765      1.0  0.49329  0.47632  0.36082  1.0000
  H   H3440     1.0  0.67437  0.96989  0.41355  1.0000
  C   C2848     1.0  0.68353  0.71865  0.32746  1.0000
  N   N193      1.0  0.65416  0.71566  0.62680  1.0000
  H   H3441     1.0  0.48951  0.81006  0.38804  1.0000
  C   C2849     1.0  0.63859  0.69854  0.31981  1.0000
  C   C2850     1.0  0.48604  0.82033  0.39702  1.0000
  H   H3442     1.0  0.68607  0.97284  0.42970  1.0000
  H   H3443     1.0  0.69814  0.47638  0.54735  1.0000
  C   C2851     1.0  0.50132  0.93894  0.43463  1.0000
  H   H3444     1.0  0.67396  0.73298  0.61207  1.0000
  H   H3445     1.0  0.58527  0.84345  0.63366  1.0000
  C   C2852     1.0  0.50837  0.48549  0.60067  1.0000
  C   C2853     1.0  0.49822  0.67316  0.56276  1.0000
  H   H3446     1.0  0.63115  0.56883  0.31278  1.0000
  N   N194      1.0  0.68220  0.96350  0.35000  1.0000
  H   H3447     1.0  0.49099  0.71206  0.58128  1.0000
  H   H3448     1.0  0.72361  0.58865  0.53022  1.0000
  C   C2854     1.0  0.69681  0.97124  0.56221  1.0000
  C   C2855     1.0  0.52575  0.47522  0.60290  1.0000
  C   C2856     1.0  0.72151  0.57407  0.58263  1.0000
  C   C2857     1.0  0.65884  0.72098  0.31179  1.0000
  H   H3449     1.0  0.63572  0.47838  0.51150  1.0000
  C   C2858     1.0  0.48847  0.87072  0.38952  1.0000
  C   C2859     1.0  0.61377  0.55127  0.31279  1.0000
  N   N195      1.0  0.49353  0.58603  0.62862  1.0000
  C   C2860     1.0  0.53958  0.87052  0.61875  1.0000
  H   H3450     1.0  0.65520  0.49117  0.57217  1.0000
  C   C2861     1.0  0.65589  0.70269  0.31780  1.0000
  C   C2862     1.0  0.49508  0.80632  0.52964  1.0000
  C   C2863     1.0  0.57298  0.85147  0.62886  1.0000
  H   H3451     1.0  0.57527  0.76270  0.62226  1.0000
  Fe  Fe379     1.0  0.49231  0.94483  0.53455  1.0000
  H   H3452     1.0  0.49724  0.84687  0.51758  1.0000
  C   C2864     1.0  0.67415  0.96626  0.58995  1.0000
  C   C2865     1.0  0.48785  0.57410  0.61933  1.0000
  C   C2866     1.0  0.67835  0.74460  0.30298  1.0000
  H   H3453     1.0  0.48507  0.62336  0.34443  1.0000
  H   H3454     1.0  0.48511  0.78953  0.34368  1.0000
  C   C2867     1.0  0.54048  0.47457  0.58782  1.0000
  C   C2868     1.0  0.55751  0.84325  0.63431  1.0000
  H   H3455     1.0  0.52886  0.84640  0.63362  1.0000
  H   H3456     1.0  0.48525  0.81292  0.52080  1.0000
  C   C2869     1.0  0.73431  0.92945  0.63428  1.0000
  H   H3457     1.0  0.69247  0.74698  0.30159  1.0000
  H   H3458     1.0  0.48506  0.58149  0.60553  1.0000
  H   H3459     1.0  0.68870  0.62854  0.94927  1.0000
  C   C2870     1.0  0.56549  0.71807  0.75397  1.0000
  Fe  Fe380     1.0  0.50888  0.89449  0.91560  1.0000
  S   S766      1.0  0.50645  0.88476  0.94609  1.0000
  N   N196      1.0  0.70242  0.58646  0.90624  1.0000
  Fe  Fe381     1.0  0.52872  0.85671  0.90749  1.0000
  S   S767      1.0  0.52820  0.84415  0.93735  1.0000
  S   S768      1.0  0.54006  0.84210  0.88349  1.0000
  H   H3460     1.0  0.64309  0.85145  0.66212  1.0000
  Fe  Fe382     1.0  0.53582  0.87027  0.93895  1.0000
  H   H3461     1.0  0.51266  0.82506  0.91221  1.0000
  S   S769      1.0  0.49887  0.87097  0.91164  1.0000
  S   S770      1.0  0.53875  0.88150  0.90858  1.0000
  Fe  Fe383     1.0  0.52868  0.49018  0.92565  1.0000
  S   S771      1.0  0.54679  0.95124  0.69292  1.0000
  C   C2871     1.0  0.56112  0.53038  0.94237  1.0000
  Fe  Fe384     1.0  0.52952  0.50856  0.88547  1.0000
  S   S772      1.0  0.55791  0.49264  0.87642  1.0000
  H   H3462     1.0  0.72209  0.73421  0.68177  1.0000
  C   C2872     1.0  0.63492  0.48105  0.88739  1.0000
  H   H3463     1.0  0.62867  0.83602  0.72511  1.0000
  Fe  Fe385     1.0  0.56463  0.49881  0.90076  1.0000
  S   S773      1.0  0.59008  0.51073  0.89579  1.0000
  H   H3464     1.0  0.50715  0.56308  0.64643  1.0000
  S   S774      1.0  0.53689  0.51641  0.90846  1.0000
  H   H3465     1.0  0.50990  0.62011  0.89589  1.0000
  C   C2873     1.0  0.60714  0.49043  0.94417  1.0000
  H   H3466     1.0  0.49533  0.96064  0.88313  1.0000
  C   C2874     1.0  0.72717  0.76600  0.65512  1.0000
  Fe  Fe386     1.0  0.70225  0.67901  0.92943  1.0000
  C   C2875     1.0  0.52776  0.53597  0.95108  1.0000
  H   H3467     1.0  0.51886  0.77419  0.91095  1.0000
  H   H3468     1.0  0.57802  0.54338  0.87084  1.0000
  H   H3469     1.0  0.50326  0.90492  0.87687  1.0000
  Fe  Fe387     1.0  0.60412  0.91554  0.65752  1.0000
  S   S775      1.0  0.57391  0.91893  0.65810  1.0000
  S   S776      1.0  0.62326  0.88813  0.66438  1.0000
  C   C2876     1.0  0.50331  0.79301  0.92953  1.0000
  Fe  Fe388     1.0  0.57096  0.94358  0.67032  1.0000
  H   H3470     1.0  0.49209  0.83016  0.92880  1.0000
  S   S777      1.0  0.60083  0.93897  0.67171  1.0000
  Fe  Fe389     1.0  0.57704  0.74171  0.87106  1.0000
  S   S778      1.0  0.59185  0.71224  0.87709  1.0000
  C   C2877     1.0  0.52368  0.70193  0.83384  1.0000
  Fe  Fe390     1.0  0.58587  0.74325  0.82985  1.0000
  S   S779      1.0  0.60183  0.71432  0.83258  1.0000
  S   S780      1.0  0.57939  0.75981  0.80261  1.0000
  Fe  Fe391     1.0  0.57841  0.70797  0.85592  1.0000
  Fe  Fe392     1.0  0.61387  0.72113  0.85336  1.0000
  S   S781      1.0  0.64464  0.71308  0.85261  1.0000
  S   S782      1.0  0.56157  0.73661  0.85207  1.0000
  S   S783      1.0  0.59997  0.75096  0.84848  1.0000
  Fe  Fe393     1.0  0.65031  0.76085  0.66265  1.0000
  S   S784      1.0  0.62338  0.76879  0.65317  1.0000
  C   C2878     1.0  0.50258  0.67215  0.69845  1.0000
  Fe  Fe394     1.0  0.63192  0.75913  0.70300  1.0000
  S   S785      1.0  0.60337  0.76645  0.69709  1.0000
  S   S786      1.0  0.64049  0.75185  0.73048  1.0000
  Fe  Fe395     1.0  0.61421  0.74730  0.67724  1.0000
  S   S787      1.0  0.60080  0.72482  0.67551  1.0000
  Fe  Fe396     1.0  0.61478  0.78750  0.67352  1.0000
  S   S788      1.0  0.59603  0.81535  0.66838  1.0000
  S   S789      1.0  0.64177  0.73802  0.68537  1.0000
  S   S790      1.0  0.64270  0.78154  0.68087  1.0000
  C   C2879     1.0  0.53453  0.92438  0.92585  1.0000
  H   H3471     1.0  0.58894  0.48416  0.93011  1.0000
  C   C2880     1.0  0.58912  0.72899  0.65727  1.0000
  S   S791      1.0  0.67690  0.75257  0.64315  1.0000
  H   H3472     1.0  0.51064  0.49698  0.69366  1.0000
  C   C2881     1.0  0.49787  0.95711  0.85552  1.0000
  H   H3473     1.0  0.72039  0.59219  0.87962  1.0000
  C   C2882     1.0  0.67381  0.60634  0.95645  1.0000
  H   H3474     1.0  0.68058  0.57192  0.90927  1.0000
  H   H3475     1.0  0.68589  0.57304  0.93063  1.0000
  H   H3476     1.0  0.48622  0.50584  0.69946  1.0000
  H   H3477     1.0  0.54179  0.56302  0.90986  1.0000
  C   C2883     1.0  0.59622  0.75641  0.78273  1.0000
  C   C2884     1.0  0.61432  0.74732  0.78389  1.0000
  C   C2885     1.0  0.62777  0.74580  0.76775  1.0000
  C   C2886     1.0  0.62311  0.75307  0.75043  1.0000
  C   C2887     1.0  0.60486  0.76155  0.74932  1.0000
  C   C2888     1.0  0.59149  0.76338  0.76543  1.0000
  H   H3478     1.0  0.61808  0.74194  0.79720  1.0000
  H   H3479     1.0  0.64185  0.73915  0.76872  1.0000
  H   H3480     1.0  0.60104  0.76682  0.73609  1.0000
  H   H3481     1.0  0.57748  0.77033  0.76448  1.0000
  C   C2889     1.0  0.61558  0.86782  0.66604  1.0000
  C   C2890     1.0  0.62851  0.85146  0.66435  1.0000
  C   C2891     1.0  0.62271  0.83518  0.66519  1.0000
  C   C2892     1.0  0.60392  0.83526  0.66763  1.0000
  C   C2893     1.0  0.59098  0.85156  0.66953  1.0000
  C   C2894     1.0  0.59679  0.86769  0.66907  1.0000
  C   C2895     1.0  0.58643  0.74629  0.64572  1.0000
  H   H3482     1.0  0.63279  0.82271  0.66359  1.0000
  H   H3483     1.0  0.57641  0.85166  0.67158  1.0000
  H   H3484     1.0  0.58669  0.88004  0.67105  1.0000
  C   C2896     1.0  0.72477  0.71669  0.73557  1.0000
  H   H3485     1.0  0.50845  0.63808  0.72277  1.0000
  C   C2897     1.0  0.57375  0.71758  0.63933  1.0000
  C   C2898     1.0  0.69625  0.75824  0.64721  1.0000
  C   C2899     1.0  0.69406  0.77218  0.65677  1.0000
  C   C2900     1.0  0.70950  0.77619  0.66052  1.0000
  C   C2901     1.0  0.72265  0.50127  0.90458  1.0000
  H   H3486     1.0  0.51810  0.61064  0.85908  1.0000
  H   H3487     1.0  0.68049  0.78005  0.66107  1.0000
  H   H3488     1.0  0.70773  0.78701  0.66793  1.0000
  H   H3489     1.0  0.67882  0.73643  0.71563  1.0000
  C   C2902     1.0  0.69918  0.62080  0.89621  1.0000
  C   C2903     1.0  0.65110  0.48340  0.89113  1.0000
  C   C2904     1.0  0.52669  0.54934  0.93496  1.0000
  C   C2905     1.0  0.55989  0.54359  0.92621  1.0000
  H   H3490     1.0  0.49137  0.83638  0.90499  1.0000
  Fe  Fe397     1.0  0.72342  0.64137  0.94388  1.0000
  C   C2906     1.0  0.66561  0.69581  0.90658  1.0000
  C   C2907     1.0  0.67808  0.69762  0.88972  1.0000
  C   C2908     1.0  0.67158  0.70233  0.87318  1.0000
  C   C2909     1.0  0.65265  0.70498  0.87343  1.0000
  C   C2910     1.0  0.64037  0.70213  0.89029  1.0000
  C   C2911     1.0  0.64680  0.69779  0.90681  1.0000
  H   H3491     1.0  0.69261  0.69613  0.88942  1.0000
  H   H3492     1.0  0.68118  0.70441  0.86016  1.0000
  H   H3493     1.0  0.62586  0.70371  0.89062  1.0000
  H   H3494     1.0  0.63713  0.69615  0.91983  1.0000
  H   H3495     1.0  0.69215  0.71526  0.72539  1.0000
  C   C2912     1.0  0.61016  0.80419  0.71595  1.0000
  H   H3496     1.0  0.57972  0.92652  0.91786  1.0000
  H   H3497     1.0  0.50197  0.54341  0.89683  1.0000
  C   C2913     1.0  0.67460  0.58744  0.96301  1.0000
  S   S792      1.0  0.49849  0.92465  0.90595  1.0000
  C   C2914     1.0  0.49757  0.82545  0.91558  1.0000
  S   S793      1.0  0.49786  0.63474  0.82700  1.0000
  C   C2915     1.0  0.67192  0.49498  0.91324  1.0000
  C   C2916     1.0  0.60960  0.74303  0.90379  1.0000
  C   C2917     1.0  0.53669  0.96940  0.88025  1.0000
  C   C2918     1.0  0.60123  0.50703  0.91418  1.0000
  S   S794      1.0  0.63001  0.49828  0.96212  1.0000
  H   H3498     1.0  0.52726  0.65650  0.83568  1.0000
  C   C2919     1.0  0.54511  0.52624  0.95541  1.0000
  H   H3499     1.0  0.49076  0.63345  0.74228  1.0000
  C   C2920     1.0  0.49501  0.94774  0.74290  1.0000
  H   H3500     1.0  0.49278  0.59475  0.84355  1.0000
  Fe  Fe398     1.0  0.49882  0.85991  0.94167  1.0000
  H   H3501     1.0  0.49562  0.79092  0.89639  1.0000
  H   H3502     1.0  0.57960  0.82538  0.75418  1.0000
  H   H3503     1.0  0.63169  0.52456  0.92729  1.0000
  H   H3504     1.0  0.53515  0.91254  0.93772  1.0000
  C   C2921     1.0  0.61354  0.51822  0.91330  1.0000
  H   H3505     1.0  0.52672  0.58089  0.86907  1.0000
  H   H3506     1.0  0.69529  0.65040  0.88840  1.0000
  C   C2922     1.0  0.50958  0.78176  0.96077  1.0000
  C   C2923     1.0  0.54767  0.81805  0.88697  1.0000
  C   C2924     1.0  0.55143  0.80933  0.87201  1.0000
  C   C2925     1.0  0.55703  0.79011  0.87441  1.0000
  C   C2926     1.0  0.55893  0.77955  0.89181  1.0000
  C   C2927     1.0  0.55551  0.78830  0.90669  1.0000
  C   C2928     1.0  0.54980  0.80748  0.90432  1.0000
  H   H3507     1.0  0.54984  0.81744  0.85855  1.0000
  H   H3508     1.0  0.55965  0.78347  0.86286  1.0000
  C   C2929     1.0  0.55424  0.49370  0.96673  1.0000
  H   H3509     1.0  0.54719  0.81406  0.91589  1.0000
  S   S795      1.0  0.56804  0.68205  0.85836  1.0000
  H   H3510     1.0  0.59818  0.72465  0.71490  1.0000
  C   C2930     1.0  0.61929  0.50176  0.94341  1.0000
  H   H3511     1.0  0.54600  0.55095  0.86596  1.0000
  C   C2931     1.0  0.49933  0.93204  0.88219  1.0000
  S   S796      1.0  0.51692  0.52925  0.86307  1.0000
  H   H3512     1.0  0.59106  0.75750  0.64821  1.0000
  C   C2932     1.0  0.50275  0.64016  0.65399  1.0000
  H   H3513     1.0  0.56850  0.49280  0.95855  1.0000
  H   H3514     1.0  0.68859  0.48327  0.88219  1.0000
  C   C2933     1.0  0.55863  0.69574  0.79174  1.0000
  H   H3515     1.0  0.56860  0.68386  0.78679  1.0000
  C   C2934     1.0  0.63127  0.74908  0.91831  1.0000
  C   C2935     1.0  0.48537  0.66636  0.70295  1.0000
  C   C2936     1.0  0.52458  0.76378  0.93754  1.0000
  C   C2937     1.0  0.49734  0.95086  0.87446  1.0000
  H   H3516     1.0  0.52499  0.60087  0.90709  1.0000
  S   S797      1.0  0.70718  0.66441  0.95774  1.0000
  C   C2938     1.0  0.49452  0.58358  0.85521  1.0000
  H   H3517     1.0  0.70082  0.55784  0.91669  1.0000
  C   C2939     1.0  0.48853  0.58691  0.87307  1.0000
  H   H3518     1.0  0.72719  0.59392  0.90872  1.0000
  N   N197      1.0  0.49362  0.80727  0.91629  1.0000
  H   H3519     1.0  0.51536  0.93559  0.72203  1.0000
  H   H3520     1.0  0.53502  0.91856  0.91381  1.0000
  C   C2940     1.0  0.69187  0.57178  0.91612  1.0000
  C   C2941     1.0  0.61391  0.77422  0.89790  1.0000
  H   H3521     1.0  0.57477  0.52312  0.94431  1.0000
  H   H3522     1.0  0.62160  0.79225  0.71852  1.0000
  H   H3523     1.0  0.54619  0.69833  0.78570  1.0000
  C   C2942     1.0  0.50646  0.68636  0.68347  1.0000
  C   C2943     1.0  0.54870  0.94049  0.93968  1.0000
  H   H3524     1.0  0.61532  0.72821  0.90824  1.0000
  C   C2944     1.0  0.57664  0.56962  0.87705  1.0000
  H   H3525     1.0  0.54136  0.71332  0.84401  1.0000
  H   H3526     1.0  0.57235  0.54600  0.91622  1.0000
  C   C2945     1.0  0.71064  0.58301  0.88742  1.0000
  C   C2946     1.0  0.49574  0.57532  0.64722  1.0000
  Fe  Fe399     1.0  0.65305  0.51318  0.95913  1.0000
  C   C2947     1.0  0.49976  0.94458  0.84439  1.0000
  C   C2948     1.0  0.62747  0.82600  0.71740  1.0000
  H   H3527     1.0  0.50311  0.91603  0.84356  1.0000
  H   H3528     1.0  0.52081  0.93357  0.92885  1.0000
  H   H3529     1.0  0.59705  0.74681  0.91427  1.0000
  H   H3530     1.0  0.51159  0.59762  0.89250  1.0000
  H   H3531     1.0  0.56524  0.72291  0.72501  1.0000
  S   S798      1.0  0.71663  0.65481  0.91625  1.0000
  H   H3532     1.0  0.71181  0.58768  0.92994  1.0000
  N   N198      1.0  0.56724  0.71211  0.78735  1.0000
  C   C2949     1.0  0.55278  0.72826  0.79154  1.0000
  C   C2950     1.0  0.58038  0.70855  0.79981  1.0000
  C   C2951     1.0  0.57600  0.71573  0.76758  1.0000
  C   C2952     1.0  0.59488  0.71714  0.76121  1.0000
  C   C2953     1.0  0.60270  0.72026  0.74240  1.0000
  H   H3533     1.0  0.54138  0.73087  0.78405  1.0000
  H   H3534     1.0  0.54639  0.72643  0.80646  1.0000
  H   H3535     1.0  0.55868  0.74093  0.78778  1.0000
  H   H3536     1.0  0.58649  0.72076  0.79814  1.0000
  H   H3537     1.0  0.57345  0.70553  0.81458  1.0000
  H   H3538     1.0  0.59167  0.69651  0.79749  1.0000
  H   H3539     1.0  0.60388  0.71611  0.77042  1.0000
  H   H3540     1.0  0.61709  0.72142  0.73782  1.0000
  N   N199      1.0  0.53683  0.92956  0.77608  1.0000
  C   C2954     1.0  0.53981  0.94549  0.78185  1.0000
  C   C2955     1.0  0.53036  0.91629  0.79279  1.0000
  C   C2956     1.0  0.55507  0.92059  0.76663  1.0000
  C   C2957     1.0  0.52272  0.93573  0.76443  1.0000
  C   C2958     1.0  0.52604  0.93218  0.74642  1.0000
  C   C2959     1.0  0.50485  0.94541  0.77115  1.0000
  C   C2960     1.0  0.68911  0.61406  0.95503  1.0000
  C   C2961     1.0  0.48843  0.47714  0.75162  1.0000
  H   H3541     1.0  0.51332  0.55629  0.93173  1.0000
  H   H3542     1.0  0.52739  0.95195  0.79074  1.0000
  H   H3543     1.0  0.55095  0.94163  0.78989  1.0000
  H   H3544     1.0  0.54355  0.95630  0.76978  1.0000
  H   H3545     1.0  0.54065  0.91119  0.80187  1.0000
  H   H3546     1.0  0.52751  0.90425  0.78914  1.0000
  H   H3547     1.0  0.51742  0.92257  0.80140  1.0000
  H   H3548     1.0  0.56076  0.93015  0.75409  1.0000
  H   H3549     1.0  0.56544  0.91646  0.77562  1.0000
  H   H3550     1.0  0.55419  0.90788  0.76268  1.0000
  H   H3551     1.0  0.53925  0.92528  0.73985  1.0000
  H   H3552     1.0  0.50123  0.94849  0.78476  1.0000
  H   H3553     1.0  0.66161  0.61492  0.95183  1.0000
  H   H3554     1.0  0.59067  0.56605  0.87935  1.0000
  H   H3555     1.0  0.56888  0.91581  0.90620  1.0000
  C   C2962     1.0  0.50045  0.79494  0.94805  1.0000
  H   H3556     1.0  0.49063  0.57116  0.81578  1.0000
  C   C2963     1.0  0.52166  0.76623  0.95551  1.0000
  S   S799      1.0  0.51880  0.48372  0.90317  1.0000
  C   C2964     1.0  0.53007  0.66881  0.83791  1.0000
  H   H3557     1.0  0.64707  0.62925  0.91827  1.0000
  H   H3558     1.0  0.61605  0.52899  0.90134  1.0000
  C   C2965     1.0  0.72504  0.72774  0.71760  1.0000
  H   H3559     1.0  0.53838  0.62030  0.84891  1.0000
  C   C2966     1.0  0.49130  0.95145  0.76047  1.0000
  H   H3560     1.0  0.55342  0.65469  0.85044  1.0000
  S   S800      1.0  0.57385  0.96290  0.64289  1.0000
  S   S801      1.0  0.55931  0.87203  0.95125  1.0000
  C   C2967     1.0  0.62247  0.51568  0.92794  1.0000
  H   H3561     1.0  0.52582  0.94676  0.89732  1.0000
  C   C2968     1.0  0.49483  0.64436  0.73033  1.0000
  H   H3562     1.0  0.58486  0.70120  0.66290  1.0000
  C   C2969     1.0  0.54904  0.68384  0.84841  1.0000
  C   C2970     1.0  0.56287  0.96135  0.90230  1.0000
  C   C2971     1.0  0.60137  0.80416  0.90698  1.0000
  S   S802      1.0  0.66065  0.53731  0.93742  1.0000
  H   H3563     1.0  0.51974  0.69043  0.68007  1.0000
  S   S803      1.0  0.50245  0.68779  0.81918  1.0000
  C   C2972     1.0  0.69104  0.60528  0.90521  1.0000
  H   H3564     1.0  0.63989  0.81480  0.71757  1.0000
  C   C2973     1.0  0.53643  0.95453  0.89520  1.0000
  H   H3565     1.0  0.68780  0.73552  0.73519  1.0000
  S   S804      1.0  0.69574  0.53345  0.95704  1.0000
  C   C2974     1.0  0.49682  0.49540  0.69274  1.0000
  H   H3566     1.0  0.52662  0.97253  0.87154  1.0000
  C   C2975     1.0  0.67006  0.64173  0.90307  1.0000
  H   H3567     1.0  0.61181  0.80900  0.70080  1.0000
  H   H3568     1.0  0.49659  0.70599  0.66080  1.0000
  S   S805      1.0  0.72702  0.69257  0.92213  1.0000
  C   C2976     1.0  0.57347  0.72121  0.73521  1.0000
  C   C2977     1.0  0.54477  0.62311  0.88132  1.0000
  H   H3569     1.0  0.72773  0.95900  0.66284  1.0000
  S   S806      1.0  0.56485  0.75539  0.89558  1.0000
  C   C2978     1.0  0.63851  0.75079  0.88572  1.0000
  C   C2979     1.0  0.55047  0.96079  0.71002  1.0000
  H   H3570     1.0  0.66215  0.65567  0.90246  1.0000
  C   C2980     1.0  0.54954  0.95004  0.90676  1.0000
  H   H3571     1.0  0.66011  0.49770  0.92478  1.0000
  H   H3572     1.0  0.53606  0.95121  0.94233  1.0000
  H   H3573     1.0  0.65541  0.72292  0.65177  1.0000
  C   C2981     1.0  0.59811  0.49307  0.92958  1.0000
  H   H3574     1.0  0.59703  0.79899  0.72094  1.0000
  H   H3575     1.0  0.55099  0.71751  0.75779  1.0000
  N   N200      1.0  0.54991  0.93421  0.92253  1.0000
  H   H3576     1.0  0.55719  0.78023  0.92013  1.0000
  H   H3577     1.0  0.57211  0.59619  0.88270  1.0000
  H   H3578     1.0  0.51336  0.66583  0.70616  1.0000
  H   H3579     1.0  0.51120  0.60781  0.63889  1.0000
  N   N201      1.0  0.49396  0.47639  0.70109  1.0000
  C   C2982     1.0  0.66936  0.96234  0.64139  1.0000
  H   H3580     1.0  0.59884  0.81280  0.91694  1.0000
  H   H3581     1.0  0.48650  0.55712  0.80195  1.0000
  S   S807      1.0  0.49919  0.95217  0.82090  1.0000
  H   H3582     1.0  0.64448  0.95148  0.64719  1.0000
  C   C2983     1.0  0.70529  0.75606  0.70607  1.0000
  Fe  Fe400     1.0  0.48652  0.66489  0.82580  1.0000
  H   H3583     1.0  0.56800  0.90835  0.93047  1.0000
  H   H3584     1.0  0.63875  0.73445  0.92023  1.0000
  H   H3585     1.0  0.49588  0.49914  0.67796  1.0000
  H   H3586     1.0  0.55682  0.62550  0.86998  1.0000
  Fe  Fe401     1.0  0.73312  0.67576  0.94937  1.0000
  C   C2984     1.0  0.49913  0.80389  0.89722  1.0000
  C   C2985     1.0  0.50379  0.65787  0.64352  1.0000
  H   H3587     1.0  0.70372  0.76115  0.71886  1.0000
  S   S808      1.0  0.65663  0.57739  0.96197  1.0000
  N   N202      1.0  0.62323  0.75465  0.90149  1.0000
  C   C2986     1.0  0.50166  0.92576  0.85213  1.0000
  C   C2987     1.0  0.50173  0.91946  0.87097  1.0000
  H   H3588     1.0  0.55844  0.82952  0.64279  1.0000
  H   H3589     1.0  0.51849  0.63242  0.86253  1.0000
  H   H3590     1.0  0.62901  0.70670  0.64252  1.0000
  H   H3591     1.0  0.54576  0.49126  0.95803  1.0000
  C   C2988     1.0  0.70506  0.60290  0.96057  1.0000
  H   H3592     1.0  0.65894  0.69867  0.65281  1.0000
  C   C2989     1.0  0.52731  0.61861  0.86144  1.0000
  S   S809      1.0  0.68183  0.49649  0.95597  1.0000
  C   C2990     1.0  0.56957  0.55676  0.87229  1.0000
  H   H3593     1.0  0.58416  0.96444  0.73007  1.0000
  H   H3594     1.0  0.64780  0.76082  0.88210  1.0000
  H   H3595     1.0  0.56079  0.94625  0.93931  1.0000
  C   C2991     1.0  0.51555  0.77687  0.92470  1.0000
  H   H3596     1.0  0.65794  0.49390  0.88177  1.0000
  H   H3597     1.0  0.62947  0.48981  0.87567  1.0000
  Fe  Fe402     1.0  0.66590  0.54740  0.96037  1.0000
  H   H3598     1.0  0.71286  0.71443  0.69451  1.0000
  H   H3599     1.0  0.69791  0.73542  0.68605  1.0000
  H   H3600     1.0  0.54814  0.92897  0.95190  1.0000
  H   H3601     1.0  0.58709  0.82530  0.88813  1.0000
  H   H3602     1.0  0.69273  0.76264  0.70015  1.0000
  H   H3603     1.0  0.70382  0.47430  0.89779  1.0000
  H   H3604     1.0  0.50829  0.56337  0.83856  1.0000
  C   C2992     1.0  0.58279  0.71463  0.65402  1.0000
  H   H3605     1.0  0.51423  0.80322  0.89189  1.0000
  C   C2993     1.0  0.50000  0.55458  0.88522  1.0000
  S   S810      1.0  0.70800  0.52243  0.90758  1.0000
  H   H3606     1.0  0.67736  0.94956  0.64753  1.0000
  H   H3607     1.0  0.62804  0.73059  0.63940  1.0000
  C   C2994     1.0  0.67184  0.60884  0.91302  1.0000
  C   C2995     1.0  0.48762  0.67058  0.64066  1.0000
  C   C2996     1.0  0.56741  0.92071  0.91910  1.0000
  H   H3608     1.0  0.64148  0.75752  0.91755  1.0000
  S   S811      1.0  0.67274  0.69264  0.92749  1.0000
  H   H3609     1.0  0.66443  0.59802  0.92047  1.0000
  C   C2997     1.0  0.69110  0.73041  0.72213  1.0000
  C   C2998     1.0  0.54486  0.66782  0.84620  1.0000
  C   C2999     1.0  0.53547  0.97149  0.71980  1.0000
  C   C3000     1.0  0.53834  0.70091  0.84230  1.0000
  H   H3610     1.0  0.52194  0.97355  0.71681  1.0000
  H   H3611     1.0  0.72089  0.93671  0.64022  1.0000
  C   C3001     1.0  0.68878  0.63871  0.89515  1.0000
  H   H3612     1.0  0.55386  0.69126  0.80679  1.0000
  C   C3002     1.0  0.59205  0.72223  0.72945  1.0000
  C   C3003     1.0  0.56799  0.95802  0.71396  1.0000
  C   C3004     1.0  0.55156  0.56108  0.86947  1.0000
  Fe  Fe403     1.0  0.68979  0.52147  0.93586  1.0000
  H   H3613     1.0  0.57341  0.95867  0.91029  1.0000
  C   C3005     1.0  0.66169  0.71191  0.64371  1.0000
  H   H3614     1.0  0.53550  0.63680  0.88199  1.0000
  C   C3006     1.0  0.60689  0.78191  0.88156  1.0000
  C   C3007     1.0  0.56576  0.58694  0.87891  1.0000
  H   H3615     1.0  0.63349  0.75114  0.87318  1.0000
  H   H3616     1.0  0.49202  0.81512  0.88750  1.0000
  H   H3617     1.0  0.71371  0.61922  0.89011  1.0000
  H   H3618     1.0  0.71705  0.76130  0.69605  1.0000
  H   H3619     1.0  0.51557  0.71518  0.82892  1.0000
  C   C3008     1.0  0.61082  0.78591  0.91061  1.0000
  C   C3009     1.0  0.59481  0.81128  0.89071  1.0000
  H   H3620     1.0  0.60806  0.77366  0.87164  1.0000
  H   H3621     1.0  0.64718  0.73684  0.88880  1.0000
  H   H3622     1.0  0.49885  0.58350  0.65573  1.0000
  C   C3010     1.0  0.50322  0.56582  0.85238  1.0000
  C   C3011     1.0  0.51982  0.60698  0.89412  1.0000
  N   N203      1.0  0.67500  0.47585  0.91068  1.0000
  N   N204      1.0  0.53518  0.60986  0.87815  1.0000
  C   C3012     1.0  0.71035  0.72967  0.69234  1.0000
  N   N205      1.0  0.70818  0.73573  0.70983  1.0000
  S   S812      1.0  0.51058  0.49084  0.95387  1.0000
  H   H3623     1.0  0.57962  0.94956  0.70670  1.0000
  C   C3013     1.0  0.54271  0.55315  0.92258  1.0000
  C   C3014     1.0  0.59766  0.80021  0.87799  1.0000
  H   H3624     1.0  0.51529  0.63049  0.65649  1.0000
  C   C3015     1.0  0.54735  0.59188  0.87590  1.0000
  H   H3625     1.0  0.56888  0.70645  0.63695  1.0000
  C   C3016     1.0  0.51230  0.93807  0.73592  1.0000
  C   C3017     1.0  0.50595  0.55128  0.86733  1.0000
  C   C3018     1.0  0.66161  0.62683  0.91193  1.0000
  H   H3626     1.0  0.49655  0.65559  0.73620  1.0000
  H   H3627     1.0  0.62039  0.75011  0.93095  1.0000
  C   C3019     1.0  0.51952  0.68590  0.83162  1.0000
  C   C3020     1.0  0.54061  0.57833  0.87124  1.0000
  H   H3628     1.0  0.59211  0.80567  0.86558  1.0000
  H   H3629     1.0  0.61534  0.78125  0.92355  1.0000
  H   H3630     1.0  0.60488  0.74447  0.89082  1.0000
  C   C3021     1.0  0.48559  0.63505  0.66137  1.0000
  N   N206      1.0  0.60999  0.81908  0.72513  1.0000
  C   C3022     1.0  0.59465  0.83450  0.72042  1.0000
  C   C3023     1.0  0.60826  0.81168  0.74515  1.0000
  C   C3024     1.0  0.59179  0.81622  0.75815  1.0000
  C   C3025     1.0  0.62302  0.79874  0.75210  1.0000
  C   C3026     1.0  0.59046  0.80853  0.77691  1.0000
  C   C3027     1.0  0.62162  0.79138  0.77091  1.0000
  C   C3028     1.0  0.60537  0.79624  0.78328  1.0000
  H   H3631     1.0  0.58124  0.82993  0.72379  1.0000
  H   H3632     1.0  0.59334  0.84590  0.72753  1.0000
  H   H3633     1.0  0.59691  0.84046  0.70541  1.0000
  H   H3634     1.0  0.62837  0.83306  0.70270  1.0000
  H   H3635     1.0  0.63553  0.79367  0.74301  1.0000
  H   H3636     1.0  0.57764  0.81170  0.78660  1.0000
  H   H3637     1.0  0.63291  0.78122  0.77585  1.0000
  H   H3638     1.0  0.60405  0.78988  0.79776  1.0000
  H   H3639     1.0  0.54960  0.61834  0.89458  1.0000
  H   H3640     1.0  0.53426  0.75185  0.93332  1.0000
  H   H3641     1.0  0.49632  0.97166  0.84964  1.0000
  H   H3642     1.0  0.49121  0.80675  0.95282  1.0000
  H   H3643     1.0  0.68424  0.49770  0.91648  1.0000
  Fe  Fe404     1.0  0.60408  0.95655  0.64325  1.0000
  C   C3029     1.0  0.73217  0.97085  0.66428  1.0000
  H   H3644     1.0  0.49281  0.63083  0.70155  1.0000
  C   C3030     1.0  0.65076  0.96341  0.64124  1.0000
  C   C3031     1.0  0.72425  0.48671  0.91964  1.0000
  H   H3645     1.0  0.52888  0.75614  0.96534  1.0000
  C   C3032     1.0  0.72947  0.75225  0.64526  1.0000
  H   H3646     1.0  0.71218  0.71346  0.74463  1.0000
  H   H3647     1.0  0.73447  0.71765  0.95025  1.0000
  H   H3648     1.0  0.51707  0.66178  0.63797  1.0000
  C   C3033     1.0  0.49124  0.57236  0.88808  1.0000
  H   H3649     1.0  0.66908  0.50537  0.90076  1.0000
  C   C3034     1.0  0.57053  0.96640  0.72723  1.0000
  C   C3035     1.0  0.71751  0.58452  0.91600  1.0000
  H   H3650     1.0  0.58261  0.88536  0.63967  1.0000
  S   S813      1.0  0.72501  0.61159  0.95757  1.0000
  H   H3651     1.0  0.69972  0.58510  0.87941  1.0000
  H   H3652     1.0  0.48977  0.54204  0.83221  1.0000
  C   C3036     1.0  0.71400  0.74846  0.64119  1.0000
  H   H3653     1.0  0.67683  0.71135  0.64064  1.0000
  H   H3654     1.0  0.51479  0.53318  0.95963  1.0000
  C   C3037     1.0  0.49342  0.69524  0.67264  1.0000
  H   H3655     1.0  0.60483  0.47951  0.95603  1.0000
  H   H3656     1.0  0.71857  0.56862  0.88773  1.0000
  C   C3038     1.0  0.73214  0.49864  0.88694  1.0000
  C   C3039     1.0  0.48614  0.48184  0.73338  1.0000
  H   H3657     1.0  0.48662  0.57487  0.90193  1.0000
  H   H3658     1.0  0.72591  0.57030  0.91777  1.0000
  H   H3659     1.0  0.71745  0.48872  0.93333  1.0000
  H   H3660     1.0  0.72523  0.90414  0.63830  1.0000
  H   H3661     1.0  0.58505  0.88260  0.96630  1.0000
  H   H3662     1.0  0.73099  0.50988  0.87523  1.0000
  C   C3040     1.0  0.55592  0.88599  0.96748  1.0000
  H   H3663     1.0  0.48561  0.51687  0.85803  1.0000
  H   H3664     1.0  0.77073  0.98053  0.07225  1.0000
  S   S814      1.0  0.93249  0.44262  0.17614  1.0000
  H   H3665     1.0  0.81693  0.44593  0.10756  1.0000
  H   H3666     1.0  0.78683  0.16155  0.13218  1.0000
  H   H3667     1.0  0.83602  0.25426  0.07216  1.0000
  Fe  Fe405     1.0  0.95047  0.43558  0.14981  1.0000
  S   S815      1.0  0.94292  0.42579  0.12767  1.0000
  Fe  Fe406     1.0  0.95831  0.43106  0.18779  1.0000
  S   S816      1.0  0.95632  0.41349  0.21641  1.0000
  C   C3041     1.0  0.79557  0.13833  0.11878  1.0000
  C   C3042     1.0  0.79260  0.21135  0.99449  1.0000
  S   S817      1.0  0.79514  0.02158  0.11258  1.0000
  H   H3668     1.0  0.80346  0.19451  0.02682  1.0000
  S   S818      1.0  0.85540  0.21624  0.27131  1.0000
  H   H3669     1.0  0.89297  0.44924  0.12816  1.0000
  Fe  Fe407     1.0  0.84699  0.16684  0.27788  1.0000
  S   S819      1.0  0.87167  0.17640  0.25861  1.0000
  C   C3043     1.0  0.80778  0.26190  0.20732  1.0000
  Fe  Fe408     1.0  0.87346  0.18940  0.28125  1.0000
  C   C3044     1.0  0.76051  0.40747  0.08047  1.0000
  Fe  Fe409     1.0  0.85143  0.20227  0.25035  1.0000
  S   S820      1.0  0.85368  0.21418  0.21979  1.0000
  H   H3670     1.0  0.81493  0.13159  0.07657  1.0000
  S   S821      1.0  0.82657  0.19184  0.26826  1.0000
  Fe  Fe410     1.0  0.88132  0.02660  0.22372  1.0000
  S   S822      1.0  0.88069  0.00208  0.24707  1.0000
  S   S823      1.0  0.87775  0.02916  0.19474  1.0000
  Fe  Fe411     1.0  0.88696  0.05113  0.24680  1.0000
  S   S824      1.0  0.88591  0.02906  0.27223  1.0000
  S   S825      1.0  0.89601  0.07745  0.24493  1.0000
  Fe  Fe412     1.0  0.90415  0.01065  0.25365  1.0000
  Fe  Fe413     1.0  0.86261  0.02252  0.26377  1.0000
  S   S826      1.0  0.83754  0.01777  0.28598  1.0000
  S   S827      1.0  0.90661  0.03301  0.22859  1.0000
  S   S828      1.0  0.86169  0.04667  0.24000  1.0000
  H   H3671     1.0  0.83486  0.15930  0.97594  1.0000
  H   H3672     1.0  0.83204  0.13565  0.24685  1.0000
  C   C3045     1.0  0.90098  0.23591  0.29876  1.0000
  Fe  Fe414     1.0  0.78314  0.11315  0.04330  1.0000
  S   S829      1.0  0.78584  0.14238  0.03017  1.0000
  S   S830      1.0  0.80796  0.09194  0.05051  1.0000
  Fe  Fe415     1.0  0.74256  0.12016  0.04293  1.0000
  C   C3046     1.0  0.80686  0.15647  0.97855  1.0000
  Fe  Fe416     1.0  0.76822  0.14034  0.01159  1.0000
  S   S831      1.0  0.77100  0.15354  0.98141  1.0000
  Fe  Fe417     1.0  0.75907  0.14998  0.04937  1.0000
  S   S832      1.0  0.75153  0.17490  0.06244  1.0000
  S   S833      1.0  0.76794  0.11039  0.02293  1.0000
  S   S834      1.0  0.75781  0.12094  0.06420  1.0000
  Fe  Fe418     1.0  0.78757  0.23216  0.15221  1.0000
  S   S835      1.0  0.81296  0.22709  0.13042  1.0000
  S   S836      1.0  0.78544  0.22290  0.18297  1.0000
  H   H3673     1.0  0.76109  0.22585  0.01490  1.0000
  Fe  Fe419     1.0  0.79444  0.21972  0.11588  1.0000
  S   S837      1.0  0.80512  0.19514  0.10210  1.0000
  Fe  Fe420     1.0  0.80331  0.25625  0.11655  1.0000
  S   S838      1.0  0.82453  0.27391  0.10177  1.0000
  S   S839      1.0  0.76968  0.22240  0.13883  1.0000
  H   H3674     1.0  0.83057  0.29627  0.14626  1.0000
  Fe  Fe421     1.0  0.83593  0.36805  0.11259  1.0000
  S   S840      1.0  0.83755  0.37996  0.08256  1.0000
  S   S841      1.0  0.81739  0.34786  0.12770  1.0000
  Fe  Fe422     1.0  0.85809  0.39403  0.11732  1.0000
  S   S842      1.0  0.86160  0.40810  0.08763  1.0000
  S   S843      1.0  0.86542  0.40392  0.13949  1.0000
  Fe  Fe423     1.0  0.83194  0.40738  0.09025  1.0000
  S   S844      1.0  0.81454  0.43146  0.07458  1.0000
  Fe  Fe424     1.0  0.86706  0.37966  0.08208  1.0000
  S   S845      1.0  0.88813  0.37407  0.05676  1.0000
  S   S846      1.0  0.82772  0.39569  0.12045  1.0000
  S   S847      1.0  0.86615  0.36530  0.11171  1.0000
  H   H3675     1.0  0.79461  0.39794  0.09134  1.0000
  Fe  Fe425     1.0  0.87479  0.32380  0.98816  1.0000
  C   C3047     1.0  0.82181  0.10728  0.10779  1.0000
  S   S848      1.0  0.86812  0.31924  0.01904  1.0000
  H   H3676     1.0  0.80576  0.35832  0.09092  1.0000
  H   H3677     1.0  0.84507  0.36015  0.01843  1.0000
  C   C3048     1.0  0.77291  0.13304  0.10455  1.0000
  H   H3678     1.0  0.78075  0.99682  0.22212  1.0000
  H   H3679     1.0  0.84508  0.24609  0.01614  1.0000
  C   C3049     1.0  0.88308  0.35840  0.04645  1.0000
  C   C3050     1.0  0.89123  0.35758  0.02806  1.0000
  C   C3051     1.0  0.88675  0.34559  0.01944  1.0000
  C   C3052     1.0  0.87439  0.33415  0.02937  1.0000
  C   C3053     1.0  0.86642  0.33482  0.04781  1.0000
  C   C3054     1.0  0.87065  0.34703  0.05630  1.0000
  H   H3680     1.0  0.90103  0.36620  0.02050  1.0000
  H   H3681     1.0  0.89309  0.34501  0.00527  1.0000
  H   H3682     1.0  0.85689  0.32595  0.05555  1.0000
  H   H3683     1.0  0.86457  0.34737  0.07058  1.0000
  C   C3055     1.0  0.77334  0.05680  0.04556  1.0000
  H   H3684     1.0  0.77877  0.26303  0.21024  1.0000
  H   H3685     1.0  0.79063  0.35576  0.07795  1.0000
  H   H3686     1.0  0.83426  0.21739  0.02825  1.0000
  H   H3687     1.0  0.79558  0.41965  0.11186  1.0000
  H   H3688     1.0  0.77154  0.99678  0.05075  1.0000
  C   C3056     1.0  0.82178  0.29524  0.10784  1.0000
  C   C3057     1.0  0.80629  0.30166  0.12044  1.0000
  C   C3058     1.0  0.80498  0.31801  0.12616  1.0000
  C   C3059     1.0  0.81903  0.32818  0.11914  1.0000
  C   C3060     1.0  0.83422  0.32218  0.10600  1.0000
  C   C3061     1.0  0.83562  0.30567  0.10042  1.0000
  H   H3689     1.0  0.79542  0.29392  0.12598  1.0000
  H   H3690     1.0  0.79319  0.32259  0.13635  1.0000
  H   H3691     1.0  0.84512  0.32997  0.10051  1.0000
  H   H3692     1.0  0.84762  0.30083  0.09058  1.0000
  N   N207      1.0  0.80446  0.11268  0.10061  1.0000
  H   H3693     1.0  0.76601  0.41540  0.08685  1.0000
  H   H3694     1.0  0.87251  0.26543  0.16029  1.0000
  H   H3695     1.0  0.89147  0.01106  0.14263  1.0000
  H   H3696     1.0  0.80623  0.14775  0.99206  1.0000
  H   H3697     1.0  0.96384  0.97800  0.27514  1.0000
  C   C3062     1.0  0.76699  0.18076  0.07263  1.0000
  C   C3063     1.0  0.78494  0.17056  0.07247  1.0000
  C   C3064     1.0  0.79672  0.17536  0.08117  1.0000
  C   C3065     1.0  0.79057  0.19030  0.09013  1.0000
  C   C3066     1.0  0.77280  0.20078  0.08986  1.0000
  C   C3067     1.0  0.76104  0.19600  0.08114  1.0000
  H   H3698     1.0  0.78960  0.15881  0.06593  1.0000
  H   H3699     1.0  0.81048  0.16724  0.08136  1.0000
  H   H3700     1.0  0.76806  0.21246  0.09653  1.0000
  C   C3068     1.0  0.79166  0.16104  0.97007  1.0000
  H   H3701     1.0  0.79591  0.98764  0.08002  1.0000
  C   C3069     1.0  0.88835  0.39137  0.97752  1.0000
  C   C3070     1.0  0.90818  0.97890  0.15678  1.0000
  C   C3071     1.0  0.88180  0.46012  0.12425  1.0000
  C   C3072     1.0  0.74175  0.05287  0.05458  1.0000
  H   H3702     1.0  0.80161  0.37533  0.07071  1.0000
  H   H3703     1.0  0.87880  0.98330  0.14269  1.0000
  H   H3704     1.0  0.86509  0.26582  0.01027  1.0000
  C   C3073     1.0  0.87030  0.45625  0.11473  1.0000
  C   C3074     1.0  0.83467  0.21635  0.20973  1.0000
  C   C3075     1.0  0.81698  0.21593  0.22046  1.0000
  C   C3076     1.0  0.80201  0.21797  0.21206  1.0000
  C   C3077     1.0  0.80459  0.22056  0.19288  1.0000
  C   C3078     1.0  0.82228  0.22095  0.18213  1.0000
  C   C3079     1.0  0.83728  0.21882  0.19054  1.0000
  H   H3705     1.0  0.81473  0.21438  0.23519  1.0000
  H   H3706     1.0  0.78833  0.21774  0.22043  1.0000
  H   H3707     1.0  0.82437  0.22276  0.16737  1.0000
  H   H3708     1.0  0.85097  0.21899  0.18220  1.0000
  S   S849      1.0  0.74142  0.14992  0.02995  1.0000
  C   C3080     1.0  0.74764  0.41747  0.06967  1.0000
  H   H3709     1.0  0.83369  0.43480  0.13319  1.0000
  H   H3710     1.0  0.91851  0.97464  0.05610  1.0000
  C   C3081     1.0  0.82453  0.26369  0.19509  1.0000
  H   H3711     1.0  0.74777  0.00794  0.09572  1.0000
  H   H3712     1.0  0.96765  0.45084  0.26797  1.0000
  H   H3713     1.0  0.96165  0.31637  0.97945  1.0000
  C   C3082     1.0  0.76846  0.43657  0.11433  1.0000
  H   H3714     1.0  0.83656  0.26041  0.20118  1.0000
  C   C3083     1.0  0.85532  0.12181  0.27277  1.0000
  C   C3084     1.0  0.87340  0.12398  0.26465  1.0000
  C   C3085     1.0  0.88591  0.11009  0.25646  1.0000
  C   C3086     1.0  0.88041  0.09396  0.25643  1.0000
  C   C3087     1.0  0.86243  0.09161  0.26486  1.0000
  C   C3088     1.0  0.84992  0.10553  0.27303  1.0000
  H   H3715     1.0  0.87775  0.13638  0.26453  1.0000
  H   H3716     1.0  0.89982  0.11193  0.24995  1.0000
  H   H3717     1.0  0.85812  0.07919  0.26489  1.0000
  H   H3718     1.0  0.82296  0.03824  0.24667  1.0000
  N   N208      1.0  0.84549  0.42064  0.02142  1.0000
  H   H3719     1.0  0.83128  0.09535  0.10237  1.0000
  H   H3720     1.0  0.84015  0.17491  0.23590  1.0000
  H   H3721     1.0  0.80480  0.22478  0.00915  1.0000
  H   H3722     1.0  0.84099  0.40592  0.04946  1.0000
  C   C3089     1.0  0.80400  0.22283  0.99592  1.0000
  C   C3090     1.0  0.79892  0.04092  0.09514  1.0000
  C   C3091     1.0  0.81664  0.04252  0.08506  1.0000
  C   C3092     1.0  0.81924  0.05819  0.07127  1.0000
  C   C3093     1.0  0.80414  0.07218  0.06737  1.0000
  C   C3094     1.0  0.78640  0.07045  0.07731  1.0000
  C   C3095     1.0  0.78382  0.05490  0.09122  1.0000
  H   H3723     1.0  0.82836  0.03177  0.08795  1.0000
  H   H3724     1.0  0.83300  0.05945  0.06360  1.0000
  H   H3725     1.0  0.77464  0.08104  0.07427  1.0000
  H   H3726     1.0  0.77006  0.05365  0.09888  1.0000
  H   H3727     1.0  0.78520  0.46115  0.06429  1.0000
  C   C3096     1.0  0.85475  0.00373  0.16862  1.0000
  C   C3097     1.0  0.86139  0.01688  0.17364  1.0000
  C   C3098     1.0  0.86911  0.01238  0.18935  1.0000
  C   C3099     1.0  0.87024  0.99459  0.20004  1.0000
  H   H3728     1.0  0.76054  0.36453  0.07507  1.0000
  H   H3729     1.0  0.84851  0.00747  0.15668  1.0000
  H   H3730     1.0  0.86040  0.03066  0.16540  1.0000
  H   H3731     1.0  0.79382  0.03448  0.05440  1.0000
  C   C3100     1.0  0.92751  0.98413  0.10539  1.0000
  C   C3101     1.0  0.92202  0.41822  0.13169  1.0000
  C   C3102     1.0  0.90991  0.41739  0.14877  1.0000
  C   C3103     1.0  0.89269  0.41265  0.15110  1.0000
  C   C3104     1.0  0.88764  0.40844  0.13647  1.0000
  C   C3105     1.0  0.89995  0.40881  0.11953  1.0000
  C   C3106     1.0  0.91706  0.41378  0.11714  1.0000
  H   H3732     1.0  0.91373  0.42054  0.16012  1.0000
  H   H3733     1.0  0.88325  0.41227  0.16426  1.0000
  H   H3734     1.0  0.89619  0.40555  0.10820  1.0000
  H   H3735     1.0  0.92641  0.41434  0.10392  1.0000
  C   C3107     1.0  0.83545  0.39872  0.98648  1.0000
  C   C3108     1.0  0.96903  0.00031  0.28439  1.0000
  H   H3736     1.0  0.93406  0.05188  0.23823  1.0000
  H   H3737     1.0  0.96980  0.00435  0.21075  1.0000
  H   H3738     1.0  0.86493  0.40303  0.03765  1.0000
  C   C3109     1.0  0.96241  0.01835  0.28711  1.0000
  N   N209      1.0  0.80482  0.98035  0.23205  1.0000
  C   C3110     1.0  0.76580  0.38799  0.08283  1.0000
  C   C3111     1.0  0.88344  0.97868  0.29237  1.0000
  S   S850      1.0  0.89992  0.18538  0.29160  1.0000
  H   H3739     1.0  0.84930  0.98554  0.26905  1.0000
  C   C3112     1.0  0.79159  0.26511  0.20076  1.0000
  C   C3113     1.0  0.95869  0.99197  0.27718  1.0000
  H   H3740     1.0  0.95060  0.02311  0.22940  1.0000
  H   H3741     1.0  0.76863  0.12620  0.09611  1.0000
  H   H3742     1.0  0.74345  0.20626  0.12497  1.0000
  C   C3114     1.0  0.83817  0.38019  0.99483  1.0000
  H   H3743     1.0  0.79973  0.02228  0.26887  1.0000
  H   H3744     1.0  0.81181  0.98699  0.20230  1.0000
  H   H3745     1.0  0.82357  0.44925  0.16030  1.0000
  S   S851      1.0  0.85038  0.32690  0.97574  1.0000
  H   H3746     1.0  0.82002  0.10809  0.07392  1.0000
  C   C3115     1.0  0.81236  0.45236  0.11945  1.0000
  C   C3116     1.0  0.75468  0.06382  0.04558  1.0000
  H   H3747     1.0  0.77991  0.35601  0.11900  1.0000
  C   C3117     1.0  0.82952  0.23015  0.06869  1.0000
  H   H3748     1.0  0.82360  0.24033  0.98168  1.0000
  C   C3118     1.0  0.85974  0.43066  0.00911  1.0000
  C   C3119     1.0  0.84294  0.40654  0.01262  1.0000
  C   C3120     1.0  0.84550  0.38749  0.02082  1.0000
  C   C3121     1.0  0.84305  0.37462  0.01199  1.0000
  H   H3749     1.0  0.80909  0.13582  0.12192  1.0000
  H   H3750     1.0  0.87302  0.42095  0.00565  1.0000
  H   H3751     1.0  0.86255  0.44083  0.01568  1.0000
  H   H3752     1.0  0.85558  0.43849  0.99601  1.0000
  H   H3753     1.0  0.84954  0.38208  0.03399  1.0000
  C   C3122     1.0  0.98262  0.44665  0.26832  1.0000
  Fe  Fe426     1.0  0.94321  0.46884  0.16758  1.0000
  C   C3123     1.0  0.94894  0.04816  0.23699  1.0000
  H   H3754     1.0  0.74720  0.20401  0.08120  1.0000
  H   H3755     1.0  0.91609  0.46257  0.12847  1.0000
  H   H3756     1.0  0.80400  0.17809  0.01348  1.0000
  N   N210      1.0  0.78177  0.20153  0.01126  1.0000
  H   H3757     1.0  0.76084  0.18481  0.02023  1.0000
  N   N211      1.0  0.97972  0.34508  0.27296  1.0000
  C   C3124     1.0  0.82308  0.16294  0.96938  1.0000
  N   N212      1.0  0.90755  0.98485  0.13690  1.0000
  H   H3758     1.0  0.75015  0.07785  0.03879  1.0000
  C   C3125     1.0  0.82185  0.44608  0.13385  1.0000
  H   H3759     1.0  0.75350  0.47185  0.08116  1.0000
  H   H3760     1.0  0.85496  0.29303  0.14346  1.0000
  C   C3126     1.0  0.79467  0.18793  0.02194  1.0000
  C   C3127     1.0  0.76931  0.19147  0.00737  1.0000
  C   C3128     1.0  0.83574  0.24671  0.06210  1.0000
  C   C3129     1.0  0.79293  0.20922  0.97651  1.0000
  H   H3761     1.0  0.75068  0.99725  0.06795  1.0000
  S   S852      1.0  0.78687  0.24844  0.10023  1.0000
  S   S853      1.0  0.83194  0.97977  0.09594  1.0000
  H   H3762     1.0  0.82974  0.11856  0.10350  1.0000
  C   C3130     1.0  0.78280  0.15317  0.12494  1.0000
  Fe  Fe427     1.0  0.85861  0.97899  0.10382  1.0000
  H   H3763     1.0  0.77630  0.39597  0.11171  1.0000
  H   H3764     1.0  0.75806  0.37146  0.11810  1.0000
  H   H3765     1.0  0.97695  0.39036  0.07431  1.0000
  H   H3766     1.0  0.82401  0.20684  0.06184  1.0000
  C   C3131     1.0  0.86388  0.98133  0.19483  1.0000
  C   C3132     1.0  0.77920  0.03877  0.05457  1.0000
  H   H3767     1.0  0.76093  0.20773  0.03501  1.0000
  C   C3133     1.0  0.90354  0.00528  0.13268  1.0000
  H   H3768     1.0  0.77830  0.22100  0.02871  1.0000
  C   C3134     1.0  0.82811  0.99822  0.28903  1.0000
  C   C3135     1.0  0.76299  0.00635  0.09340  1.0000
  H   H3769     1.0  0.73686  0.02688  0.07045  1.0000
  C   C3136     1.0  0.76520  0.15793  0.12095  1.0000
  H   H3770     1.0  0.76566  0.35366  0.10488  1.0000
  H   H3771     1.0  0.88782  0.22518  0.28298  1.0000
  H   H3772     1.0  0.74377  0.43231  0.06820  1.0000
  H   H3773     1.0  0.83157  0.40293  0.97312  1.0000
  C   C3137     1.0  0.92482  0.97763  0.12473  1.0000
  H   H3774     1.0  0.87527  0.47076  0.16518  1.0000
  C   C3138     1.0  0.75733  0.37929  0.07378  1.0000
  C   C3139     1.0  0.97713  0.05505  0.23974  1.0000
  H   H3775     1.0  0.89844  0.47170  0.16578  1.0000
  C   C3140     1.0  0.82289  0.00624  0.22292  1.0000
  H   H3776     1.0  0.83529  0.42598  0.98823  1.0000
  C   C3141     1.0  0.76024  0.14785  0.11082  1.0000
  C   C3142     1.0  0.79097  0.12774  0.10837  1.0000
  H   H3777     1.0  0.94016  0.04186  0.28484  1.0000
  C   C3143     1.0  0.78717  0.38820  0.10225  1.0000
  H   H3778     1.0  0.77940  0.27269  0.17690  1.0000
  C   C3144     1.0  0.75654  0.45130  0.10575  1.0000
  H   H3779     1.0  0.95253  0.35447  0.26649  1.0000
  H   H3780     1.0  0.86978  0.98690  0.28988  1.0000
  H   H3781     1.0  0.78332  0.06557  0.03887  1.0000
  H   H3782     1.0  0.79729  0.12141  0.07376  1.0000
  H   H3783     1.0  0.97498  0.18547  0.27243  1.0000
  H   H3784     1.0  0.87272  0.44266  0.11168  1.0000
  C   C3145     1.0  0.79686  0.46664  0.12040  1.0000
  S   S854      1.0  0.97557  0.42178  0.16208  1.0000
  H   H3785     1.0  0.76819  0.99276  0.10174  1.0000
  C   C3146     1.0  0.78060  0.45435  0.07831  1.0000
  H   H3786     1.0  0.95343  0.19102  0.28797  1.0000
  H   H3787     1.0  0.82896  0.44428  0.03232  1.0000
  C   C3147     1.0  0.94537  0.02789  0.28281  1.0000
  C   C3148     1.0  0.74452  0.38945  0.06294  1.0000
  C   C3149     1.0  0.83675  0.98428  0.27916  1.0000
  H   H3788     1.0  0.87628  0.99100  0.21213  1.0000
  C   C3150     1.0  0.82886  0.21969  0.05653  1.0000
  H   H3789     1.0  0.75950  0.20080  0.99891  1.0000
  C   C3151     1.0  0.80938  0.11872  0.08038  1.0000
  C   C3152     1.0  0.88979  0.46893  0.15739  1.0000
  S   S855      1.0  0.83879  0.13967  0.28150  1.0000
  S   S856      1.0  0.96759  0.45797  0.18110  1.0000
  C   C3153     1.0  0.79199  0.27049  0.18196  1.0000
  C   C3154     1.0  0.95808  0.05977  0.24106  1.0000
  H   H3790     1.0  0.76381  0.42967  0.12831  1.0000
  H   H3791     1.0  0.80663  0.08408  0.10017  1.0000
  H   H3792     1.0  0.82519  0.22537  0.08338  1.0000
  C   C3155     1.0  0.85612  0.98588  0.17911  1.0000
  S   S857      1.0  0.89273  0.30257  0.97241  1.0000
  C   C3156     1.0  0.80150  0.00275  0.25224  1.0000
  C   C3157     1.0  0.76269  0.46042  0.08783  1.0000
  H   H3793     1.0  0.82986  0.00265  0.20985  1.0000
  H   H3794     1.0  0.83649  0.37010  0.98798  1.0000
  H   H3795     1.0  0.77718  0.18015  0.00015  1.0000
  N   N213      1.0  0.83612  0.15586  0.22148  1.0000
  C   C3158     1.0  0.82389  0.17110  0.21137  1.0000
  C   C3159     1.0  0.82408  0.14647  0.23762  1.0000
  C   C3160     1.0  0.84768  0.14249  0.21019  1.0000
  C   C3161     1.0  0.84824  0.14497  0.19104  1.0000
  C   C3162     1.0  0.85940  0.13199  0.18086  1.0000
  C   C3163     1.0  0.87033  0.11633  0.18934  1.0000
  H   H3796     1.0  0.81478  0.18030  0.22054  1.0000
  H   H3797     1.0  0.83195  0.17997  0.20002  1.0000
  H   H3798     1.0  0.81459  0.16591  0.20566  1.0000
  H   H3799     1.0  0.81494  0.13983  0.23326  1.0000
  H   H3800     1.0  0.81529  0.15618  0.24647  1.0000
  H   H3801     1.0  0.84029  0.15687  0.18358  1.0000
  H   H3802     1.0  0.85965  0.13412  0.16629  1.0000
  H   H3803     1.0  0.87897  0.10628  0.18147  1.0000
  C   C3164     1.0  0.79493  0.36615  0.08291  1.0000
  H   H3804     1.0  0.94522  0.98237  0.07889  1.0000
  C   C3165     1.0  0.77030  0.36396  0.10967  1.0000
  H   H3805     1.0  0.74679  0.15204  0.10707  1.0000
  H   H3806     1.0  0.76574  0.01706  0.09928  1.0000
  H   H3807     1.0  0.83594  0.10378  0.27933  1.0000
  C   C3166     1.0  0.98368  0.36021  0.23890  1.0000
  H   H3808     1.0  0.94138  0.36001  0.97632  1.0000
  H   H3809     1.0  0.91695  0.99406  0.09909  1.0000
  C   C3167     1.0  0.97767  0.99734  0.22183  1.0000
  C   C3168     1.0  0.77008  0.21465  0.02288  1.0000
  C   C3169     1.0  0.81914  0.02690  0.24342  1.0000
  H   H3810     1.0  0.80812  0.27695  0.15520  1.0000
  Fe  Fe428     1.0  0.83208  0.20343  0.28996  1.0000
  H   H3811     1.0  0.97022  0.35891  0.23792  1.0000
  H   H3812     1.0  0.96729  0.37106  0.28093  1.0000
  S   S858      1.0  0.88425  0.98142  0.08177  1.0000
  C   C3170     1.0  0.85571  0.46974  0.10918  1.0000
  N   N214      1.0  0.77192  0.00803  0.07365  1.0000
  C   C3171     1.0  0.79218  0.00206  0.07251  1.0000
  H   H3813     1.0  0.81895  0.10316  0.12307  1.0000
  C   C3172     1.0  0.76594  0.99514  0.06582  1.0000
  C   C3173     1.0  0.76635  0.02714  0.06380  1.0000
  H   H3814     1.0  0.97113  0.41312  0.09399  1.0000
  H   H3815     1.0  0.78709  0.17980  0.03436  1.0000
  C   C3174     1.0  0.97288  0.40461  0.24616  1.0000
  H   H3816     1.0  0.73825  0.38251  0.05613  1.0000
  C   C3175     1.0  0.80982  0.99644  0.23559  1.0000
  H   H3817     1.0  0.79754  0.01066  0.07888  1.0000
  H   H3818     1.0  0.84000  0.29917  0.16418  1.0000
  H   H3819     1.0  0.79978  0.00264  0.05802  1.0000
  C   C3176     1.0  0.79636  0.09600  0.10481  1.0000
  H   H3820     1.0  0.79106  0.09184  0.11983  1.0000
  H   H3821     1.0  0.79735  0.37966  0.11064  1.0000
  H   H3822     1.0  0.96474  0.33251  0.26073  1.0000
  C   C3177     1.0  0.82755  0.02113  0.22694  1.0000
  H   H3823     1.0  0.78510  0.20048  0.97399  1.0000
  H   H3824     1.0  0.89449  0.45416  0.15657  1.0000
  C   C3178     1.0  0.84824  0.16407  0.22813  1.0000
  H   H3825     1.0  0.86151  0.26746  0.05932  1.0000
  C   C3179     1.0  0.87029  0.11366  0.20799  1.0000
  C   C3180     1.0  0.85149  0.41290  0.03925  1.0000
  H   H3826     1.0  0.87063  0.28212  0.03888  1.0000
  Fe  Fe429     1.0  0.81914  0.99794  0.11651  1.0000
  H   H3827     1.0  0.83030  0.28424  0.05817  1.0000
  S   S859      1.0  0.77923  0.26201  0.13956  1.0000
  H   H3828     1.0  0.82301  0.44160  0.01214  1.0000
  C   C3181     1.0  0.80066  0.46866  0.15022  1.0000
  C   C3182     1.0  0.85924  0.12655  0.21824  1.0000
  S   S860      1.0  0.84611  0.99949  0.12222  1.0000
  H   H3829     1.0  0.92007  0.98275  0.15984  1.0000
  C   C3183     1.0  0.97729  0.45368  0.29820  1.0000
  H   H3830     1.0  0.81668  0.42672  0.03389  1.0000
  C   C3184     1.0  0.85955  0.26441  0.17077  1.0000
  H   H3831     1.0  0.91556  0.01076  0.13321  1.0000
  S   S861      1.0  0.95889  0.46295  0.14021  1.0000
  C   C3185     1.0  0.84155  0.25336  0.04299  1.0000
  C   C3186     1.0  0.94191  0.00177  0.27232  1.0000
  H   H3832     1.0  0.96632  0.35147  0.29959  1.0000
  C   C3187     1.0  0.83366  0.28605  0.04291  1.0000
  C   C3188     1.0  0.86474  0.26942  0.04406  1.0000
  C   C3189     1.0  0.84081  0.24230  0.03089  1.0000
  H   H3833     1.0  0.83801  0.29957  0.03763  1.0000
  H   H3834     1.0  0.83495  0.26599  0.13900  1.0000
  C   C3190     1.0  0.79245  0.43943  0.08685  1.0000
  H   H3835     1.0  0.82068  0.28708  0.03828  1.0000
  H   H3836     1.0  0.87578  0.25770  0.04023  1.0000
  C   C3191     1.0  0.80860  0.27258  0.16962  1.0000
  H   H3837     1.0  0.96770  0.99328  0.23478  1.0000
  H   H3838     1.0  0.80748  0.25735  0.22196  1.0000
  N   N215      1.0  0.84824  0.27090  0.03645  1.0000
  C   C3192     1.0  0.83455  0.22571  0.03766  1.0000
  C   C3193     1.0  0.80599  0.01788  0.25592  1.0000
  H   H3839     1.0  0.85643  0.15372  0.23758  1.0000
  H   H3840     1.0  0.78485  0.09791  0.09764  1.0000
  S   S862      1.0  0.88506  0.34754  0.96809  1.0000
  H   H3841     1.0  0.83789  0.02815  0.21728  1.0000
  C   C3194     1.0  0.97414  0.41280  0.22746  1.0000
  H   H3842     1.0  0.92267  0.02765  0.27116  1.0000
  Fe  Fe430     1.0  0.76341  0.25188  0.12439  1.0000
  C   C3195     1.0  0.84213  0.29068  0.15370  1.0000
  C   C3196     1.0  0.96652  0.18061  0.28610  1.0000
  H   H3843     1.0  0.89993  0.01110  0.11893  1.0000
  C   C3197     1.0  0.94360  0.97738  0.09363  1.0000
  H   H3844     1.0  0.86064  0.24972  0.17796  1.0000
  H   H3845     1.0  0.85810  0.17063  0.21650  1.0000
  H   H3846     1.0  0.85334  0.42373  0.04559  1.0000
  C   C3198     1.0  0.83770  0.41176  0.99522  1.0000
  C   C3199     1.0  0.93530  0.01974  0.27520  1.0000
  C   C3200     1.0  0.96217  0.34147  0.27088  1.0000
  H   H3847     1.0  0.84158  0.27793  0.00939  1.0000
  C   C3201     1.0  0.84551  0.26048  0.14772  1.0000
  H   H3848     1.0  0.85902  0.26093  0.13800  1.0000
  C   C3202     1.0  0.81608  0.45428  0.14914  1.0000
  H   H3849     1.0  0.85992  0.12397  0.23257  1.0000
  H   H3850     1.0  0.87893  0.10155  0.21458  1.0000
  S   S863      1.0  0.92955  0.99149  0.26240  1.0000
  H   H3851     1.0  0.89481  0.25008  0.29392  1.0000
  C   C3203     1.0  0.85346  0.27611  0.01607  1.0000
  N   N216      1.0  0.84294  0.27099  0.16234  1.0000
  C   C3204     1.0  0.82548  0.26890  0.17575  1.0000
  H   H3852     1.0  0.84485  0.24581  0.15375  1.0000
  N   N217      1.0  0.77932  0.37689  0.09422  1.0000
  H   H3853     1.0  0.96075  0.39917  0.25371  1.0000
  H   H3854     1.0  0.85825  0.28941  0.01158  1.0000
  H   H3855     1.0  0.85940  0.27275  0.18080  1.0000
  H   H3856     1.0  0.95031  0.07240  0.24534  1.0000
  C   C3205     1.0  0.78645  0.43084  0.10500  1.0000
  H   H3857     1.0  0.89024  0.98299  0.11931  1.0000
  C   C3206     1.0  0.73969  0.40850  0.06089  1.0000
  C   C3207     1.0  0.82781  0.43389  0.02498  1.0000
  C   C3208     1.0  0.95872  0.03160  0.23185  1.0000
  C   C3209     1.0  0.89696  0.22183  0.29259  1.0000
  C   C3210     1.0  0.74743  0.03478  0.06354  1.0000
  C   C3211     1.0  0.90485  0.20349  0.29878  1.0000
  S   S864      1.0  0.73534  0.26663  0.11856  1.0000
  H   H3858     1.0  0.96234  0.16793  0.28551  1.0000
  H   H3859     1.0  0.98264  0.31973  0.29324  1.0000
  C   C3212     1.0  0.97819  0.02631  0.23041  1.0000
  C   C3213     1.0  0.97461  0.31719  0.96973  1.0000
  S   S865      1.0  0.97484  0.02915  0.29630  1.0000
  C   C3214     1.0  0.81490  0.23170  0.98033  1.0000
  H   H3860     1.0  0.75562  0.16987  0.12512  1.0000
  C   C3215     1.0  0.89211  0.97829  0.13381  1.0000
  H   H3861     1.0  0.95467  0.33432  0.28410  1.0000
  H   H3862     1.0  0.84692  0.46670  0.10168  1.0000
  H   H3863     1.0  0.77627  0.98609  0.24605  1.0000
  H   H3864     1.0  0.89552  0.98547  0.16550  1.0000
  H   H3865     1.0  0.98425  0.06409  0.24293  1.0000
  H   H3866     1.0  0.87720  0.38802  0.98887  1.0000
  H   H3867     1.0  0.75566  0.47078  0.14669  1.0000
  C   C3216     1.0  0.97501  0.35724  0.28643  1.0000
  H   H3868     1.0  0.79170  0.99585  0.26273  1.0000
  H   H3869     1.0  0.89395  0.98617  0.28280  1.0000
  Fe  Fe431     1.0  0.98256  0.44987  0.15431  1.0000
  C   C3217     1.0  0.78474  0.98414  0.23233  1.0000
  C   C3218     1.0  0.98206  0.41352  0.08178  1.0000
  H   H3870     1.0  0.78972  0.47070  0.10904  1.0000
  C   C3219     1.0  0.90441  0.39404  0.98107  1.0000
  H   H3871     1.0  0.96235  0.45957  0.29866  1.0000
  H   H3872     1.0  0.98200  0.99272  0.28804  1.0000
  H   H3873     1.0  0.90570  0.39296  0.99508  1.0000
  H   H3874     1.0  0.93181  0.39913  0.96942  1.0000
  C   C3220     1.0  0.81469  0.97550  0.21405  1.0000
  Fe  Fe432     1.0  0.84171  0.97472  0.14456  1.0000
  S   S866      1.0  0.81367  0.97459  0.14035  1.0000
  H   H3875     1.0  0.98272  0.14279  0.29490  1.0000
  H   H3876     1.0  0.98418  0.33128  0.98539  1.0000
  N   N218      1.0  0.97676  0.17782  0.30102  1.0000
  H   H3877     1.0  0.98217  0.27050  0.40918  1.0000
  C   C3221     1.0  0.76677  0.12794  0.59196  1.0000
  Fe  Fe433     1.0  0.93892  0.24346  0.33627  1.0000
  Fe  Fe434     1.0  0.75029  0.17728  0.39970  1.0000
  S   S867      1.0  0.74701  0.20515  0.40556  1.0000
  S   S868      1.0  0.76614  0.16738  0.37390  1.0000
  Fe  Fe435     1.0  0.74992  0.19012  0.43422  1.0000
  S   S869      1.0  0.77047  0.19923  0.44500  1.0000
  H   H3878     1.0  0.88225  0.38376  0.56715  1.0000
  S   S870      1.0  0.75534  0.16203  0.42765  1.0000
  C   C3222     1.0  0.77180  0.12248  0.56130  1.0000
  H   H3879     1.0  0.89190  0.00250  0.30872  1.0000
  H   H3880     1.0  0.76825  0.03588  0.60596  1.0000
  H   H3881     1.0  0.95287  0.17995  0.32311  1.0000
  Fe  Fe436     1.0  0.75972  0.99231  0.60115  1.0000
  H   H3882     1.0  0.97337  0.36846  0.38775  1.0000
  H   H3883     1.0  0.91424  0.27452  0.54129  1.0000
  H   H3884     1.0  0.91784  0.24382  0.56147  1.0000
  H   H3885     1.0  0.77818  0.14420  0.53904  1.0000
  S   S871      1.0  0.73808  0.00591  0.62176  1.0000
  C   C3223     1.0  0.91492  0.11381  0.63135  1.0000
  C   C3224     1.0  0.85065  0.44183  0.60534  1.0000
  C   C3225     1.0  0.96270  0.07682  0.31568  1.0000
  S   S872      1.0  0.76425  0.42296  0.58803  1.0000
  S   S873      1.0  0.94326  0.26503  0.34915  1.0000
  C   C3226     1.0  0.79522  0.43885  0.62382  1.0000
  H   H3886     1.0  0.85462  0.40639  0.57497  1.0000
  H   H3887     1.0  0.73915  0.19854  0.47610  1.0000
  Fe  Fe437     1.0  0.75106  0.39860  0.60300  1.0000
  H   H3888     1.0  0.95377  0.07701  0.32957  1.0000
  H   H3889     1.0  0.78753  0.46663  0.60928  1.0000
  H   H3890     1.0  0.78634  0.19016  0.53289  1.0000
  C   C3227     1.0  0.97618  0.36036  0.53247  1.0000
  Fe  Fe438     1.0  0.77656  0.23554  0.52798  1.0000
  S   S874      1.0  0.80478  0.22140  0.53304  1.0000
  S   S875      1.0  0.75659  0.22104  0.52254  1.0000
  Fe  Fe439     1.0  0.77917  0.27087  0.53719  1.0000
  S   S876      1.0  0.80750  0.25978  0.54331  1.0000
  S   S877      1.0  0.76491  0.30031  0.53784  1.0000
  Fe  Fe440     1.0  0.81357  0.24794  0.51811  1.0000
  S   S878      1.0  0.84214  0.24542  0.50027  1.0000
  Fe  Fe441     1.0  0.79693  0.23405  0.55787  1.0000
  S   S879      1.0  0.80839  0.21683  0.58243  1.0000
  S   S880      1.0  0.78597  0.26109  0.51046  1.0000
  S   S881      1.0  0.76782  0.24621  0.55430  1.0000
  H   H3891     1.0  0.84981  0.42868  0.61548  1.0000
  Fe  Fe442     1.0  0.74890  0.35793  0.61145  1.0000
  Fe  Fe443     1.0  0.94718  0.32196  0.49008  1.0000
  S   S882      1.0  0.92728  0.30904  0.51368  1.0000
  S   S883      1.0  0.95269  0.35024  0.48725  1.0000
  Fe  Fe444     1.0  0.95467  0.29048  0.47006  1.0000
  S   S884      1.0  0.93546  0.27491  0.49199  1.0000
  H   H3892     1.0  0.74875  0.18789  0.34071  1.0000
  Fe  Fe445     1.0  0.91638  0.30223  0.49211  1.0000
  S   S885      1.0  0.88569  0.30797  0.49340  1.0000
  Fe  Fe446     1.0  0.94810  0.28281  0.51168  1.0000
  H   H3893     1.0  0.89254  0.22723  0.57171  1.0000
  S   S886      1.0  0.93457  0.31733  0.46851  1.0000
  S   S887      1.0  0.96899  0.29629  0.48968  1.0000
  H   H3894     1.0  0.96105  0.10429  0.32949  1.0000
  C   C3228     1.0  0.88335  0.39574  0.57159  1.0000
  C   C3229     1.0  0.87410  0.28989  0.49639  1.0000
  C   C3230     1.0  0.85482  0.29317  0.50200  1.0000
  C   C3231     1.0  0.84496  0.27946  0.50362  1.0000
  C   C3232     1.0  0.85429  0.26253  0.49916  1.0000
  C   C3233     1.0  0.87356  0.25924  0.49349  1.0000
  C   C3234     1.0  0.88350  0.27279  0.49234  1.0000
  H   H3895     1.0  0.84747  0.30641  0.50508  1.0000
  H   H3896     1.0  0.83008  0.28216  0.50789  1.0000
  H   H3897     1.0  0.88075  0.24622  0.48981  1.0000
  H   H3898     1.0  0.89834  0.27016  0.48788  1.0000
  H   H3899     1.0  0.80846  0.18073  0.31513  1.0000
  H   H3900     1.0  0.76899  0.15421  0.59435  1.0000
  S   S888      1.0  0.97567  0.23278  0.36660  1.0000
  C   C3235     1.0  0.76653  0.19014  0.60899  1.0000
  C   C3236     1.0  0.77653  0.20330  0.59753  1.0000
  C   C3237     1.0  0.79545  0.20079  0.59684  1.0000
  C   C3238     1.0  0.80433  0.18509  0.60759  1.0000
  H   H3901     1.0  0.90653  0.44367  0.62347  1.0000
  H   H3902     1.0  0.77247  0.11335  0.55231  1.0000
  H   H3903     1.0  0.76955  0.21548  0.58944  1.0000
  H   H3904     1.0  0.91011  0.22811  0.49773  1.0000
  S   S889      1.0  0.97168  0.28072  0.44440  1.0000
  C   C3239     1.0  0.94221  0.25586  0.41447  1.0000
  C   C3240     1.0  0.96868  0.26738  0.41563  1.0000
  C   C3241     1.0  0.96032  0.27080  0.43325  1.0000
  C   C3242     1.0  0.94305  0.26641  0.44162  1.0000
  C   C3243     1.0  0.93413  0.25873  0.43234  1.0000
  H   H3905     1.0  0.93657  0.26884  0.45527  1.0000
  H   H3906     1.0  0.92089  0.25510  0.43899  1.0000
  C   C3244     1.0  0.92100  0.21344  0.31716  1.0000
  H   H3907     1.0  0.92782  0.45710  0.56538  1.0000
  H   H3908     1.0  0.88079  0.99299  0.33156  1.0000
  C   C3245     1.0  0.96120  0.35367  0.50522  1.0000
  C   C3246     1.0  0.97248  0.33934  0.51504  1.0000
  H   H3909     1.0  0.89592  0.23181  0.35391  1.0000
  C   C3247     1.0  0.77511  0.14030  0.55385  1.0000
  C   C3248     1.0  0.76997  0.14575  0.58467  1.0000
  H   H3910     1.0  0.90020  0.11745  0.63217  1.0000
  S   S890      1.0  0.76311  0.15712  0.63222  1.0000
  C   C3249     1.0  0.76309  0.32084  0.58947  1.0000
  C   C3250     1.0  0.75908  0.33330  0.57355  1.0000
  C   C3251     1.0  0.76028  0.32689  0.55756  1.0000
  C   C3252     1.0  0.76524  0.30803  0.55750  1.0000
  C   C3253     1.0  0.76962  0.29560  0.57330  1.0000
  C   C3254     1.0  0.76856  0.30201  0.58925  1.0000
  C   C3255     1.0  0.97320  0.30283  0.33522  1.0000
  H   H3911     1.0  0.73911  0.20802  0.32606  1.0000
  H   H3912     1.0  0.77347  0.28103  0.57335  1.0000
  H   H3913     1.0  0.86785  0.00295  0.31357  1.0000
  H   H3914     1.0  0.94988  0.13555  0.62769  1.0000
  C   C3256     1.0  0.78702  0.45237  0.61063  1.0000
  C   C3257     1.0  0.77786  0.44742  0.59933  1.0000
  C   C3258     1.0  0.77656  0.42903  0.60148  1.0000
  H   H3915     1.0  0.79597  0.16655  0.53225  1.0000
  C   C3259     1.0  0.73644  0.19446  0.33442  1.0000
  H   H3916     1.0  0.75732  0.18284  0.57925  1.0000
  C   C3260     1.0  0.91727  0.45968  0.57735  1.0000
  H   H3917     1.0  0.74775  0.26208  0.49896  1.0000
  H   H3918     1.0  0.97705  0.42782  0.47373  1.0000
  C   C3261     1.0  0.92669  0.06275  0.63210  1.0000
  C   C3262     1.0  0.79447  0.42044  0.62545  1.0000
  C   C3263     1.0  0.78336  0.17603  0.53776  1.0000
  C   C3264     1.0  0.83468  0.43538  0.58523  1.0000
  S   S891      1.0  0.93752  0.43004  0.59742  1.0000
  C   C3265     1.0  0.79760  0.20486  0.32699  1.0000
  H   H3919     1.0  0.75145  0.05525  0.47864  1.0000
  N   N219      1.0  0.77830  0.17124  0.55816  1.0000
  H   H3920     1.0  0.95888  0.09015  0.30626  1.0000
  H   H3921     1.0  0.93005  0.21015  0.32684  1.0000
  C   C3266     1.0  0.91896  0.44868  0.59464  1.0000
  C   C3267     1.0  0.86753  0.40894  0.57610  1.0000
  C   C3268     1.0  0.75031  0.06139  0.61099  1.0000
  C   C3269     1.0  0.85484  0.45695  0.57337  1.0000
  C   C3270     1.0  0.96386  0.33665  0.38111  1.0000
  H   H3922     1.0  0.96837  0.23213  0.56401  1.0000
  C   C3271     1.0  0.76070  0.21462  0.50114  1.0000
  H   H3923     1.0  0.81896  0.18309  0.60713  1.0000
  C   C3272     1.0  0.74979  0.20337  0.47949  1.0000
  C   C3273     1.0  0.76641  0.20467  0.46688  1.0000
  C   C3274     1.0  0.78021  0.21074  0.47154  1.0000
  C   C3275     1.0  0.77740  0.21567  0.48863  1.0000
  H   H3924     1.0  0.82284  0.44664  0.58867  1.0000
  H   H3925     1.0  0.97567  0.32573  0.51199  1.0000
  H   H3926     1.0  0.79312  0.21171  0.46185  1.0000
  H   H3927     1.0  0.78808  0.22044  0.49205  1.0000
  H   H3928     1.0  0.84733  0.98530  0.31704  1.0000
  H   H3929     1.0  0.88505  0.28868  0.53070  1.0000
  S   S892      1.0  0.93024  0.24721  0.40276  1.0000
  C   C3276     1.0  0.96470  0.37461  0.52278  1.0000
  C   C3277     1.0  0.77662  0.20049  0.35672  1.0000
  C   C3278     1.0  0.90522  0.45210  0.61006  1.0000
  H   H3930     1.0  0.73573  0.08747  0.61788  1.0000
  C   C3279     1.0  0.77866  0.18192  0.35640  1.0000
  C   C3280     1.0  0.79012  0.17491  0.34133  1.0000
  H   H3931     1.0  0.79164  0.16058  0.34093  1.0000
  H   H3932     1.0  0.76771  0.20606  0.36818  1.0000
  S   S893      1.0  0.95317  0.26180  0.53744  1.0000
  H   H3933     1.0  0.79102  0.97995  0.31471  1.0000
  Fe  Fe447     1.0  0.94509  0.24267  0.37431  1.0000
  S   S894      1.0  0.78469  0.97580  0.61240  1.0000
  C   C3281     1.0  0.88120  0.99434  0.31668  1.0000
  H   H3934     1.0  0.79082  0.17089  0.58071  1.0000
  S   S895      1.0  0.93236  0.97455  0.63173  1.0000
  C   C3282     1.0  0.80387  0.98097  0.30496  1.0000
  H   H3935     1.0  0.76178  0.07448  0.47674  1.0000
  H   H3936     1.0  0.75185  0.19219  0.60969  1.0000
  H   H3937     1.0  0.95910  0.06610  0.31041  1.0000
  H   H3938     1.0  0.83800  0.45196  0.60952  1.0000
  H   H3939     1.0  0.95561  0.32856  0.34010  1.0000
  S   S896      1.0  0.93798  0.22210  0.36225  1.0000
  H   H3940     1.0  0.75732  0.33649  0.54520  1.0000
  C   C3283     1.0  0.95007  0.22900  0.50923  1.0000
  C   C3284     1.0  0.97298  0.30936  0.56727  1.0000
  S   S897      1.0  0.80998  0.21914  0.30910  1.0000
  C   C3285     1.0  0.93141  0.22876  0.51121  1.0000
  Fe  Fe448     1.0  0.97350  0.25383  0.34046  1.0000
  C   C3286     1.0  0.90168  0.47382  0.57551  1.0000
  S   S898      1.0  0.96956  0.44853  0.50344  1.0000
  C   C3287     1.0  0.98352  0.31084  0.39604  1.0000
  C   C3288     1.0  0.94374  0.09193  0.63277  1.0000
  H   H3941     1.0  0.80492  0.00725  0.30961  1.0000
  C   C3289     1.0  0.96558  0.16997  0.31872  1.0000
  C   C3290     1.0  0.76159  0.07864  0.62722  1.0000
  C   C3291     1.0  0.76173  0.18494  0.56408  1.0000
  H   H3942     1.0  0.85625  0.45574  0.55890  1.0000
  S   S899      1.0  0.96907  0.23418  0.32530  1.0000
  C   C3292     1.0  0.96964  0.32155  0.33580  1.0000
  S   S900      1.0  0.97570  0.44489  0.55460  1.0000
  H   H3943     1.0  0.74853  0.07447  0.46033  1.0000
  Fe  Fe449     1.0  0.96851  0.21419  0.35225  1.0000
  H   H3944     1.0  0.97137  0.30620  0.40599  1.0000
  C   C3293     1.0  0.93640  0.22786  0.47911  1.0000
  H   H3945     1.0  0.93097  0.22777  0.46735  1.0000
  H   H3946     1.0  0.86734  0.46149  0.57404  1.0000
  C   C3294     1.0  0.89970  0.08493  0.62554  1.0000
  H   H3947     1.0  0.76528  0.10245  0.58604  1.0000
  C   C3295     1.0  0.98157  0.11446  0.33588  1.0000
  H   H3948     1.0  0.84304  0.46839  0.57645  1.0000
  C   C3296     1.0  0.88966  0.46619  0.60821  1.0000
  H   H3949     1.0  0.97389  0.25338  0.50242  1.0000
  N   N220      1.0  0.88507  0.97602  0.31176  1.0000
  H   H3950     1.0  0.97594  0.46605  0.46509  1.0000
  H   H3951     1.0  0.75698  0.26113  0.41733  1.0000
  S   S901      1.0  0.76109  0.32821  0.61000  1.0000
  H   H3952     1.0  0.96085  0.31924  0.56378  1.0000
  C   C3297     1.0  0.91686  0.19935  0.31108  1.0000
  H   H3953     1.0  0.91558  0.41489  0.57935  1.0000
  N   N221      1.0  0.98211  0.22961  0.49008  1.0000
  H   H3954     1.0  0.97894  0.05494  0.34312  1.0000
  H   H3955     1.0  0.96149  0.38820  0.52576  1.0000
  C   C3298     1.0  0.97969  0.23754  0.55436  1.0000
  C   C3299     1.0  0.95277  0.10639  0.63050  1.0000
  H   H3956     1.0  0.98241  0.04366  0.32424  1.0000
  H   H3957     1.0  0.96759  0.28817  0.55672  1.0000
  Fe  Fe450     1.0  0.95930  0.42418  0.57255  1.0000
  C   C3300     1.0  0.97187  0.34172  0.43800  1.0000
  C   C3301     1.0  0.77444  0.15246  0.56540  1.0000
  H   H3958     1.0  0.78444  0.22631  0.34225  1.0000
  H   H3959     1.0  0.79715  0.18708  0.56048  1.0000
  C   C3302     1.0  0.92462  0.22810  0.49620  1.0000
  C   C3303     1.0  0.97682  0.29191  0.56326  1.0000
  S   S902      1.0  0.98110  0.18409  0.35465  1.0000
  C   C3304     1.0  0.96829  0.36083  0.43401  1.0000
  N   N222      1.0  0.85000  0.20890  0.34156  1.0000
  C   C3305     1.0  0.83489  0.22448  0.34600  1.0000
  C   C3306     1.0  0.85734  0.21245  0.32146  1.0000
  C   C3307     1.0  0.84189  0.19218  0.34618  1.0000
  C   C3308     1.0  0.86488  0.20723  0.35147  1.0000
  C   C3309     1.0  0.87009  0.19147  0.36493  1.0000
  C   C3310     1.0  0.87454  0.22178  0.34791  1.0000
  C   C3311     1.0  0.88416  0.19045  0.37407  1.0000
  C   C3312     1.0  0.88857  0.22059  0.35712  1.0000
  C   C3313     1.0  0.89338  0.20496  0.37016  1.0000
  H   H3960     1.0  0.83951  0.23785  0.34134  1.0000
  H   H3961     1.0  0.82324  0.22584  0.33910  1.0000
  H   H3962     1.0  0.82930  0.22260  0.36107  1.0000
  H   H3963     1.0  0.86232  0.22558  0.31633  1.0000
  H   H3964     1.0  0.84664  0.21344  0.31356  1.0000
  H   H3965     1.0  0.86897  0.20119  0.31762  1.0000
  H   H3966     1.0  0.85251  0.17996  0.34283  1.0000
  C   C3314     1.0  0.94295  0.12444  0.62881  1.0000
  H   H3967     1.0  0.83115  0.19376  0.33810  1.0000
  H   H3968     1.0  0.86358  0.17972  0.36861  1.0000
  H   H3969     1.0  0.87150  0.23418  0.33780  1.0000
  H   H3970     1.0  0.88800  0.17829  0.38422  1.0000
  H   H3971     1.0  0.87920  0.46869  0.62020  1.0000
  C   C3315     1.0  0.77988  0.04966  0.62035  1.0000
  N   N223      1.0  0.98011  0.33116  0.38999  1.0000
  H   H3972     1.0  0.90527  0.09005  0.61075  1.0000
  C   C3316     1.0  0.79443  0.17172  0.61867  1.0000
  H   H3973     1.0  0.77327  0.25747  0.47247  1.0000
  S   S903      1.0  0.75753  0.01683  0.57797  1.0000
  H   H3974     1.0  0.96197  0.29553  0.33903  1.0000
  H   H3975     1.0  0.96174  0.35134  0.37400  1.0000
  H   H3976     1.0  0.90433  0.20408  0.37720  1.0000
  C   C3317     1.0  0.74812  0.07695  0.61843  1.0000
  H   H3977     1.0  0.96505  0.20584  0.30438  1.0000
  H   H3978     1.0  0.73616  0.18548  0.32515  1.0000
  H   H3979     1.0  0.83464  0.43405  0.57113  1.0000
  C   C3318     1.0  0.98410  0.33118  0.33090  1.0000
  H   H3980     1.0  0.80146  0.15945  0.62662  1.0000
  H   H3981     1.0  0.95102  0.33439  0.39136  1.0000
  C   C3319     1.0  0.97607  0.25250  0.53998  1.0000
  H   H3982     1.0  0.92268  0.18515  0.31614  1.0000
  H   H3983     1.0  0.76358  0.12317  0.60677  1.0000
  C   C3320     1.0  0.90215  0.41322  0.57839  1.0000
  H   H3984     1.0  0.97171  0.12590  0.34081  1.0000
  H   H3985     1.0  0.83497  0.18922  0.36091  1.0000
  H   H3986     1.0  0.98192  0.45953  0.30777  1.0000
  H   H3987     1.0  0.73965  0.06137  0.55792  1.0000
  H   H3988     1.0  0.92210  0.22960  0.52434  1.0000
  C   C3321     1.0  0.97562  0.10186  0.32936  1.0000
  C   C3322     1.0  0.74997  0.24918  0.42202  1.0000
  C   C3323     1.0  0.79386  0.17309  0.56548  1.0000
  C   C3324     1.0  0.95740  0.37131  0.50907  1.0000
  H   H3989     1.0  0.95439  0.23037  0.52113  1.0000
  H   H3990     1.0  0.83159  0.42265  0.59519  1.0000
  S   S904      1.0  0.74013  0.97951  0.59358  1.0000
  H   H3991     1.0  0.74983  0.18432  0.55848  1.0000
  H   H3992     1.0  0.96584  0.25807  0.39236  1.0000
  H   H3993     1.0  0.77141  0.45788  0.58922  1.0000
  H   H3994     1.0  0.96547  0.32865  0.37036  1.0000
  H   H3995     1.0  0.80656  0.16293  0.56148  1.0000
  S   S905      1.0  0.76417  0.37378  0.62134  1.0000
  H   H3996     1.0  0.96114  0.15748  0.31799  1.0000
  H   H3997     1.0  0.86235  0.44710  0.60690  1.0000
  N   N224      1.0  0.88312  0.30738  0.43745  1.0000
  C   C3325     1.0  0.86967  0.32002  0.44863  1.0000
  C   C3326     1.0  0.90083  0.30298  0.44379  1.0000
  C   C3327     1.0  0.88592  0.31750  0.41804  1.0000
  C   C3328     1.0  0.87706  0.29007  0.43887  1.0000
  C   C3329     1.0  0.88769  0.27720  0.42790  1.0000
  C   C3330     1.0  0.86095  0.28520  0.45133  1.0000
  C   C3331     1.0  0.88251  0.26059  0.42926  1.0000
  C   C3332     1.0  0.85585  0.26858  0.45248  1.0000
  C   C3333     1.0  0.86663  0.25627  0.44155  1.0000
  H   H3998     1.0  0.86769  0.31380  0.46355  1.0000
  H   H3999     1.0  0.87451  0.33296  0.44723  1.0000
  H   H4000     1.0  0.85600  0.32389  0.44455  1.0000
  H   H4001     1.0  0.89953  0.29451  0.45798  1.0000
  H   H4002     1.0  0.90540  0.31558  0.44411  1.0000
  H   H4003     1.0  0.91216  0.29515  0.43481  1.0000
  H   H4004     1.0  0.87323  0.31991  0.41239  1.0000
  H   H4005     1.0  0.88944  0.33109  0.41669  1.0000
  H   H4006     1.0  0.89743  0.30998  0.40893  1.0000
  H   H4007     1.0  0.90035  0.27965  0.41838  1.0000
  H   H4008     1.0  0.85218  0.29376  0.46063  1.0000
  H   H4009     1.0  0.89104  0.25091  0.42086  1.0000
  H   H4010     1.0  0.84365  0.26502  0.46225  1.0000
  H   H4011     1.0  0.86277  0.24327  0.44278  1.0000
  H   H4012     1.0  0.96484  0.36829  0.44512  1.0000
  H   H4013     1.0  0.94861  0.38243  0.50158  1.0000
  H   H4014     1.0  0.91287  0.38770  0.56914  1.0000
  C   C3334     1.0  0.75928  0.25795  0.47133  1.0000
  N   N225      1.0  0.85241  0.43937  0.58634  1.0000
  H   H4015     1.0  0.77175  0.29231  0.60150  1.0000
  H   H4016     1.0  0.78456  0.40135  0.61591  1.0000
  C   C3335     1.0  0.97659  0.34105  0.40522  1.0000
  N   N226      1.0  0.98261  0.07271  0.31641  1.0000
  C   C3336     1.0  0.88647  0.42649  0.58287  1.0000
  C   C3337     1.0  0.98015  0.34276  0.52843  1.0000
  N   N227      1.0  0.85698  0.23919  0.56306  1.0000
  C   C3338     1.0  0.86014  0.22139  0.57623  1.0000
  C   C3339     1.0  0.84087  0.25136  0.57225  1.0000
  C   C3340     1.0  0.85231  0.23552  0.54686  1.0000
  C   C3341     1.0  0.87305  0.24837  0.55698  1.0000
  C   C3342     1.0  0.87179  0.26586  0.54499  1.0000
  C   C3343     1.0  0.89017  0.24050  0.56270  1.0000
  C   C3344     1.0  0.88647  0.27515  0.53955  1.0000
  C   C3345     1.0  0.90487  0.24986  0.55695  1.0000
  C   C3346     1.0  0.90295  0.26718  0.54551  1.0000
  H   H4017     1.0  0.86332  0.22318  0.58900  1.0000
  H   H4018     1.0  0.84763  0.21507  0.58066  1.0000
  H   H4019     1.0  0.87145  0.21117  0.56995  1.0000
  H   H4020     1.0  0.83614  0.26429  0.56276  1.0000
  H   H4021     1.0  0.84414  0.25519  0.58397  1.0000
  H   H4022     1.0  0.82869  0.24464  0.57774  1.0000
  H   H4023     1.0  0.84808  0.24836  0.53706  1.0000
  H   H4024     1.0  0.86427  0.22708  0.53906  1.0000
  H   H4025     1.0  0.84059  0.22812  0.55088  1.0000
  H   H4026     1.0  0.85936  0.27260  0.53978  1.0000
  H   H4027     1.0  0.74084  0.10554  0.47967  1.0000
  S   S906      1.0  0.91745  0.24982  0.31872  1.0000
  C   C3347     1.0  0.79964  0.18631  0.32670  1.0000
  C   C3348     1.0  0.78603  0.21195  0.34199  1.0000
  S   S907      1.0  0.98407  0.40203  0.57780  1.0000
  C   C3349     1.0  0.95952  0.26019  0.40614  1.0000
  C   C3350     1.0  0.77552  0.17421  0.61935  1.0000
  H   H4028     1.0  0.96323  0.22860  0.46320  1.0000
  C   C3351     1.0  0.76772  0.11629  0.58030  1.0000
  Fe  Fe451     1.0  0.97441  0.43266  0.53141  1.0000
  H   H4029     1.0  0.77185  0.17604  0.53125  1.0000
  C   C3352     1.0  0.75586  0.25516  0.45524  1.0000
  C   C3353     1.0  0.86867  0.42483  0.58184  1.0000
  S   S908      1.0  0.95534  0.41409  0.54900  1.0000
  H   H4030     1.0  0.76425  0.19925  0.55921  1.0000
  Fe  Fe452     1.0  0.73542  0.00538  0.57243  1.0000
  C   C3354     1.0  0.77736  0.06479  0.62849  1.0000
  H   H4031     1.0  0.91638  0.14215  0.62853  1.0000
  C   C3355     1.0  0.76636  0.04787  0.61175  1.0000
  H   H4032     1.0  0.76777  0.25258  0.44448  1.0000
  H   H4033     1.0  0.88841  0.43816  0.58710  1.0000
  C   C3356     1.0  0.90062  0.39790  0.57270  1.0000
  H   H4034     1.0  0.97783  0.25837  0.47798  1.0000
  C   C3357     1.0  0.74697  0.20832  0.49660  1.0000
  H   H4035     1.0  0.76008  0.23666  0.42667  1.0000
  C   C3358     1.0  0.78502  0.41558  0.61448  1.0000
  H   H4036     1.0  0.93479  0.06501  0.61776  1.0000
  C   C3359     1.0  0.91304  0.23179  0.31101  1.0000
  C   C3360     1.0  0.92406  0.12813  0.62928  1.0000
  H   H4037     1.0  0.74064  0.04496  0.50841  1.0000
  C   C3361     1.0  0.95508  0.22817  0.47696  1.0000
  H   H4038     1.0  0.75504  0.34784  0.57357  1.0000
  H   H4039     1.0  0.97128  0.33448  0.45220  1.0000
  H   H4040     1.0  0.96855  0.40708  0.48432  1.0000
  C   C3362     1.0  0.97885  0.41317  0.47284  1.0000
  C   C3363     1.0  0.96259  0.22844  0.49209  1.0000
  C   C3364     1.0  0.98284  0.24872  0.48996  1.0000
  S   S909      1.0  0.80412  0.11467  0.63093  1.0000
  C   C3365     1.0  0.97598  0.33188  0.42391  1.0000
  H   H4041     1.0  0.79216  0.03903  0.62106  1.0000
  H   H4042     1.0  0.97355  0.16614  0.32993  1.0000
  Fe  Fe453     1.0  0.98149  0.39364  0.55257  1.0000
  H   H4043     1.0  0.97849  0.31710  0.42810  1.0000
  H   H4044     1.0  0.91885  0.05178  0.63369  1.0000
  H   H4045     1.0  0.97508  0.41308  0.45980  1.0000
  S   S910      1.0  0.97913  0.35448  0.33237  1.0000
  C   C3366     1.0  0.74927  0.07049  0.47519  1.0000
  H   H4046     1.0  0.98231  0.32823  0.57763  1.0000
  H   H4047     1.0  0.78795  0.97597  0.57392  1.0000
  C   C3367     1.0  0.73767  0.25521  0.45362  1.0000
  H   H4048     1.0  0.88306  0.97657  0.56690  1.0000
  H   H4049     1.0  0.74634  0.24686  0.40969  1.0000
  C   C3368     1.0  0.74490  0.26056  0.48630  1.0000
  Fe  Fe454     1.0  0.81330  0.47228  0.63286  1.0000
  H   H4050     1.0  0.96736  0.10349  0.63078  1.0000
  H   H4051     1.0  0.97873  0.43873  0.30419  1.0000
  C   C3369     1.0  0.96902  0.37025  0.41584  1.0000
  C   C3370     1.0  0.97311  0.36056  0.40162  1.0000
  H   H4052     1.0  0.96626  0.38515  0.41276  1.0000
  C   C3371     1.0  0.74114  0.05147  0.53358  1.0000
  H   H4053     1.0  0.74468  0.03713  0.54012  1.0000
  C   C3372     1.0  0.73830  0.06509  0.54361  1.0000
  S   S911      1.0  0.73820  0.38219  0.59070  1.0000
  C   C3373     1.0  0.73899  0.05614  0.51529  1.0000
  H   H4054     1.0  0.75953  0.09038  0.63345  1.0000
  H   H4055     1.0  0.91430  0.97624  0.30387  1.0000
  C   C3374     1.0  0.92449  0.09524  0.63298  1.0000
  H   H4056     1.0  0.89344  0.07296  0.62656  1.0000
  C   C3375     1.0  0.81170  0.99648  0.30198  1.0000
  C   C3376     1.0  0.97868  0.19627  0.30228  1.0000
  H   H4057     1.0  0.98317  0.47016  0.59602  1.0000
  H   H4058     1.0  0.88781  0.09554  0.63041  1.0000
  H   H4059     1.0  0.98420  0.22203  0.51889  1.0000
  S   S912      1.0  0.85031  0.17749  0.30129  1.0000
  H   H4060     1.0  0.98482  0.19552  0.31422  1.0000
  C   C3377     1.0  0.74563  0.30685  0.68836  1.0000
  C   C3378     1.0  0.77162  0.44864  0.77726  1.0000
  Fe  Fe455     1.0  0.86617  0.19820  0.87192  1.0000
  S   S913      1.0  0.84895  0.22548  0.86167  1.0000
  S   S914      1.0  0.88742  0.18514  0.85013  1.0000
  Fe  Fe456     1.0  0.84563  0.19767  0.91151  1.0000
  S   S915      1.0  0.82708  0.22495  0.90453  1.0000
  S   S916      1.0  0.84472  0.18174  0.94053  1.0000
  Fe  Fe457     1.0  0.82491  0.21428  0.88049  1.0000
  S   S917      1.0  0.79665  0.21745  0.87429  1.0000
  Fe  Fe458     1.0  0.85283  0.23353  0.88645  1.0000
  S   S918      1.0  0.86165  0.26041  0.88301  1.0000
  S   S919      1.0  0.84174  0.18632  0.88886  1.0000
  S   S920      1.0  0.87171  0.20702  0.89539  1.0000
  C   C3379     1.0  0.81930  0.46682  0.74049  1.0000
  C   C3380     1.0  0.94527  0.35714  0.96260  1.0000
  C   C3381     1.0  0.73988  0.41304  0.80515  1.0000
  C   C3382     1.0  0.85901  0.11305  0.66528  1.0000
  Fe  Fe459     1.0  0.81926  0.11421  0.65274  1.0000
  H   H4061     1.0  0.74473  0.45608  0.67555  1.0000
  C   C3383     1.0  0.96828  0.05063  0.79879  1.0000
  Fe  Fe460     1.0  0.76160  0.18963  0.80136  1.0000
  S   S921      1.0  0.78954  0.18481  0.80873  1.0000
  H   H4062     1.0  0.76592  0.24806  0.77115  1.0000
  S   S922      1.0  0.75797  0.20694  0.77366  1.0000
  H   H4063     1.0  0.79183  0.14431  0.88383  1.0000
  H   H4064     1.0  0.84921  0.25177  0.95024  1.0000
  S   S923      1.0  0.87844  0.32963  0.93553  1.0000
  H   H4065     1.0  0.79224  0.17513  0.88703  1.0000
  H   H4066     1.0  0.77500  0.29638  0.81982  1.0000
  S   S924      1.0  0.84397  0.37653  0.94639  1.0000
  S   S925      1.0  0.92945  0.32826  0.93375  1.0000
  Fe  Fe461     1.0  0.78358  0.41330  0.84419  1.0000
  S   S926      1.0  0.80973  0.42267  0.82894  1.0000
  S   S927      1.0  0.77726  0.38858  0.83786  1.0000
  C   C3384     1.0  0.85433  0.01581  0.65642  1.0000
  H   H4067     1.0  0.96253  0.98978  0.74825  1.0000
  H   H4068     1.0  0.98423  0.02952  0.70310  1.0000
  Fe  Fe462     1.0  0.81496  0.42228  0.85646  1.0000
  S   S928      1.0  0.84326  0.40839  0.86200  1.0000
  H   H4069     1.0  0.82578  0.33745  0.85656  1.0000
  S   S929      1.0  0.79012  0.41059  0.87171  1.0000
  C   C3385     1.0  0.79968  0.44385  0.75432  1.0000
  H   H4070     1.0  0.98279  0.97573  0.87173  1.0000
  Fe  Fe463     1.0  0.78620  0.10901  0.68380  1.0000
  C   C3386     1.0  0.90563  0.07651  0.65628  1.0000
  S   S930      1.0  0.77881  0.10524  0.71481  1.0000
  C   C3387     1.0  0.97609  0.16711  0.64388  1.0000
  H   H4071     1.0  0.82355  0.23589  0.95085  1.0000
  C   C3388     1.0  0.95629  0.02038  0.65786  1.0000
  S   S931      1.0  0.81000  0.08913  0.67121  1.0000
  S   S932      1.0  0.79669  0.13403  0.66671  1.0000
  Fe  Fe464     1.0  0.95579  0.08266  0.68644  1.0000
  S   S933      1.0  0.94038  0.07620  0.71542  1.0000
  H   H4072     1.0  0.89904  0.06428  0.66020  1.0000
  S   S934      1.0  0.92843  0.12100  0.71322  1.0000
  Fe  Fe465     1.0  0.95221  0.09831  0.71998  1.0000
  C   C3389     1.0  0.84273  0.14213  0.89090  1.0000
  Fe  Fe466     1.0  0.91806  0.09932  0.70593  1.0000
  H   H4073     1.0  0.75504  0.42192  0.82052  1.0000
  C   C3390     1.0  0.96700  0.03223  0.65925  1.0000
  C   C3391     1.0  0.95936  0.04553  0.67007  1.0000
  C   C3392     1.0  0.93044  0.03486  0.67847  1.0000
  C   C3393     1.0  0.82889  0.32892  0.92746  1.0000
  H   H4074     1.0  0.82776  0.36882  0.85376  1.0000
  H   H4075     1.0  0.93525  0.05682  0.68840  1.0000
  C   C3394     1.0  0.87736  0.10252  0.69496  1.0000
  C   C3395     1.0  0.86285  0.09427  0.69519  1.0000
  C   C3396     1.0  0.85378  0.09944  0.68033  1.0000
  H   H4076     1.0  0.85880  0.08366  0.70678  1.0000
  H   H4077     1.0  0.84292  0.09267  0.68045  1.0000
  H   H4078     1.0  0.83937  0.16441  0.84022  1.0000
  S   S935      1.0  0.92383  0.00833  0.66444  1.0000
  S   S936      1.0  0.88853  0.09572  0.71367  1.0000
  Fe  Fe467     1.0  0.86212  0.34892  0.95413  1.0000
  C   C3397     1.0  0.81472  0.44817  0.72160  1.0000
  C   C3398     1.0  0.84333  0.39954  0.88544  1.0000
  C   C3399     1.0  0.82970  0.40713  0.89893  1.0000
  C   C3400     1.0  0.83015  0.40010  0.91761  1.0000
  C   C3401     1.0  0.84382  0.38504  0.92287  1.0000
  C   C3402     1.0  0.85719  0.37719  0.90936  1.0000
  C   C3403     1.0  0.85714  0.38465  0.89068  1.0000
  H   H4079     1.0  0.81896  0.41862  0.89497  1.0000
  H   H4080     1.0  0.86760  0.36544  0.91325  1.0000
  H   H4081     1.0  0.86763  0.37866  0.88027  1.0000
  Fe  Fe468     1.0  0.94488  0.12373  0.68429  1.0000
  C   C3404     1.0  0.88250  0.11629  0.67999  1.0000
  C   C3405     1.0  0.81259  0.36014  0.92749  1.0000
  C   C3406     1.0  0.82802  0.36621  0.86866  1.0000
  C   C3407     1.0  0.97391  0.20319  0.85350  1.0000
  H   H4082     1.0  0.75589  0.28060  0.77413  1.0000
  H   H4083     1.0  0.81970  0.40619  0.92799  1.0000
  H   H4084     1.0  0.88131  0.46954  0.83047  1.0000
  C   C3408     1.0  0.82826  0.02200  0.68822  1.0000
  C   C3409     1.0  0.95554  0.34920  0.92742  1.0000
  C   C3410     1.0  0.94089  0.34227  0.94005  1.0000
  H   H4085     1.0  0.89260  0.00070  0.65188  1.0000
  H   H4086     1.0  0.80220  0.26936  0.82079  1.0000
  H   H4087     1.0  0.95938  0.34626  0.91375  1.0000
  H   H4088     1.0  0.94921  0.01256  0.74302  1.0000
  H   H4089     1.0  0.91625  0.03600  0.68583  1.0000
  C   C3411     1.0  0.75636  0.15907  0.73547  1.0000
  C   C3412     1.0  0.76314  0.14310  0.74731  1.0000
  C   C3413     1.0  0.76975  0.12647  0.74100  1.0000
  C   C3414     1.0  0.76974  0.12587  0.72284  1.0000
  C   C3415     1.0  0.76284  0.14184  0.71113  1.0000
  C   C3416     1.0  0.75619  0.15837  0.71744  1.0000
  H   H4090     1.0  0.77209  0.41302  0.77980  1.0000
  H   H4091     1.0  0.95368  0.99705  0.72754  1.0000
  H   H4092     1.0  0.76265  0.14149  0.69715  1.0000
  Fe  Fe469     1.0  0.77526  0.43996  0.87005  1.0000
  N   N228      1.0  0.75006  0.31215  0.66802  1.0000
  C   C3417     1.0  0.84356  0.00756  0.68936  1.0000
  N   N229      1.0  0.87352  0.98907  0.67526  1.0000
  C   C3418     1.0  0.73613  0.29741  0.72736  1.0000
  H   H4093     1.0  0.96208  0.01059  0.64897  1.0000
  C   C3419     1.0  0.91010  0.17439  0.85295  1.0000
  C   C3420     1.0  0.92319  0.16954  0.83761  1.0000
  C   C3421     1.0  0.94147  0.16118  0.83912  1.0000
  C   C3422     1.0  0.94679  0.15742  0.85607  1.0000
  C   C3423     1.0  0.93371  0.16225  0.87147  1.0000
  C   C3424     1.0  0.91540  0.17079  0.86992  1.0000
  H   H4094     1.0  0.91919  0.17229  0.82445  1.0000
  H   H4095     1.0  0.95142  0.15757  0.82715  1.0000
  H   H4096     1.0  0.93776  0.15941  0.88460  1.0000
  H   H4097     1.0  0.90539  0.17439  0.88185  1.0000
  C   C3425     1.0  0.86088  0.26646  0.90391  1.0000
  C   C3426     1.0  0.85479  0.25530  0.92071  1.0000
  C   C3427     1.0  0.85397  0.26043  0.93727  1.0000
  C   C3428     1.0  0.85938  0.27665  0.93715  1.0000
  C   C3429     1.0  0.86576  0.28770  0.92034  1.0000
  C   C3430     1.0  0.86644  0.28264  0.90374  1.0000
  H   H4098     1.0  0.85066  0.24271  0.92095  1.0000
  H   H4099     1.0  0.87005  0.30017  0.92013  1.0000
  H   H4100     1.0  0.87126  0.29126  0.89077  1.0000
  C   C3431     1.0  0.79509  0.20734  0.85664  1.0000
  C   C3432     1.0  0.77776  0.20523  0.85531  1.0000
  C   C3433     1.0  0.77590  0.19826  0.84072  1.0000
  C   C3434     1.0  0.79141  0.19319  0.82746  1.0000
  C   C3435     1.0  0.80880  0.19492  0.82903  1.0000
  C   C3436     1.0  0.81065  0.20200  0.84356  1.0000
  H   H4101     1.0  0.76568  0.20919  0.86549  1.0000
  H   H4102     1.0  0.76248  0.19680  0.83975  1.0000
  H   H4103     1.0  0.82085  0.19103  0.81878  1.0000
  H   H4104     1.0  0.82409  0.20353  0.84450  1.0000
  C   C3437     1.0  0.97983  0.44994  0.85884  1.0000
  C   C3438     1.0  0.85719  0.00413  0.67352  1.0000
  C   C3439     1.0  0.75739  0.44510  0.67502  1.0000
  C   C3440     1.0  0.82422  0.17393  0.95168  1.0000
  C   C3441     1.0  0.80901  0.17856  0.94319  1.0000
  H   H4105     1.0  0.80976  0.18724  0.92963  1.0000
  H   H4106     1.0  0.97659  0.36517  0.92274  1.0000
  H   H4107     1.0  0.84475  0.99921  0.70280  1.0000
  H   H4108     1.0  0.77577  0.45936  0.78194  1.0000
  C   C3442     1.0  0.74401  0.02275  0.68622  1.0000
  Fe  Fe470     1.0  0.90090  0.32672  0.95090  1.0000
  N   N230      1.0  0.91702  0.23113  0.86612  1.0000
  C   C3443     1.0  0.91549  0.25131  0.85992  1.0000
  C   C3444     1.0  0.90422  0.22566  0.85765  1.0000
  C   C3445     1.0  0.91052  0.22693  0.88636  1.0000
  C   C3446     1.0  0.93649  0.22165  0.86133  1.0000
  C   C3447     1.0  0.95046  0.22568  0.86808  1.0000
  H   H4109     1.0  0.75403  0.42363  0.71154  1.0000
  H   H4110     1.0  0.76691  0.30243  0.64381  1.0000
  C   C3448     1.0  0.74417  0.46672  0.89945  1.0000
  N   N231      1.0  0.80764  0.14987  0.90088  1.0000
  H   H4111     1.0  0.92093  0.25498  0.84487  1.0000
  H   H4112     1.0  0.90084  0.25874  0.86274  1.0000
  H   H4113     1.0  0.92306  0.25698  0.86710  1.0000
  H   H4114     1.0  0.90811  0.22858  0.84237  1.0000
  H   H4115     1.0  0.88975  0.23320  0.86131  1.0000
  H   H4116     1.0  0.90383  0.21078  0.86247  1.0000
  H   H4117     1.0  0.89582  0.23368  0.89051  1.0000
  H   H4118     1.0  0.91164  0.21184  0.89161  1.0000
  H   H4119     1.0  0.91848  0.23182  0.89381  1.0000
  H   H4120     1.0  0.94718  0.23573  0.87668  1.0000
  H   H4121     1.0  0.81780  0.12773  0.92188  1.0000
  H   H4122     1.0  0.81950  0.15037  0.92347  1.0000
  C   C3449     1.0  0.79693  0.16898  0.90024  1.0000
  C   C3450     1.0  0.82488  0.14967  0.88669  1.0000
  H   H4123     1.0  0.73591  0.45821  0.92877  1.0000
  S   S937      1.0  0.96688  0.09249  0.74344  1.0000
  S   S938      1.0  0.84088  0.47287  0.63773  1.0000
  S   S939      1.0  0.93257  0.10390  0.67641  1.0000
  C   C3451     1.0  0.82809  0.33114  0.90897  1.0000
  C   C3452     1.0  0.87324  0.12162  0.66523  1.0000
  H   H4124     1.0  0.79082  0.34585  0.88621  1.0000
  C   C3453     1.0  0.84025  0.15808  0.85438  1.0000
  S   S940      1.0  0.79636  0.47124  0.80316  1.0000
  H   H4125     1.0  0.79776  0.14336  0.93039  1.0000
  H   H4126     1.0  0.74372  0.37191  0.70820  1.0000
  C   C3454     1.0  0.79622  0.13862  0.89726  1.0000
  C   C3455     1.0  0.94216  0.20801  0.85035  1.0000
  H   H4127     1.0  0.79506  0.26714  0.84540  1.0000
  S   S941      1.0  0.76799  0.10873  0.66494  1.0000
  H   H4128     1.0  0.89337  0.12306  0.67994  1.0000
  C   C3456     1.0  0.98346  0.05924  0.81924  1.0000
  C   C3457     1.0  0.82120  0.34340  0.93666  1.0000
  H   H4129     1.0  0.80401  0.12431  0.89697  1.0000
  C   C3458     1.0  0.94117  0.04665  0.67991  1.0000
  H   H4130     1.0  0.97223  0.15885  0.68635  1.0000
  H   H4131     1.0  0.77514  0.11413  0.75009  1.0000
  H   H4132     1.0  0.81734  0.44459  0.70823  1.0000
  H   H4133     1.0  0.97875  0.08924  0.81651  1.0000
  N   N232      1.0  0.90033  0.39492  0.92561  1.0000
  C   C3459     1.0  0.89760  0.37656  0.92524  1.0000
  C   C3460     1.0  0.88428  0.40889  0.92016  1.0000
  C   C3461     1.0  0.91702  0.39854  0.91148  1.0000
  C   C3462     1.0  0.90177  0.39532  0.94443  1.0000
  H   H4134     1.0  0.96809  0.18001  0.64731  1.0000
  H   H4135     1.0  0.81999  0.32294  0.87849  1.0000
  H   H4136     1.0  0.83753  0.45745  0.79905  1.0000
  C   C3463     1.0  0.79878  0.35646  0.87767  1.0000
  C   C3464     1.0  0.73600  0.39800  0.80056  1.0000
  H   H4137     1.0  0.88413  0.37373  0.93369  1.0000
  H   H4138     1.0  0.89783  0.37511  0.91110  1.0000
  H   H4139     1.0  0.90857  0.36551  0.93063  1.0000
  H   H4140     1.0  0.88307  0.40922  0.90589  1.0000
  H   H4141     1.0  0.88537  0.42287  0.92094  1.0000
  H   H4142     1.0  0.87092  0.40603  0.92904  1.0000
  H   H4143     1.0  0.92941  0.38780  0.91427  1.0000
  H   H4144     1.0  0.91546  0.39835  0.89747  1.0000
  H   H4145     1.0  0.91985  0.41227  0.91085  1.0000
  H   H4146     1.0  0.93020  0.40013  0.93822  1.0000
  H   H4147     1.0  0.93643  0.05671  0.64161  1.0000
  C   C3465     1.0  0.82692  0.33471  0.87125  1.0000
  C   C3466     1.0  0.87212  0.46716  0.82304  1.0000
  Fe  Fe471     1.0  0.78061  0.13228  0.64665  1.0000
  H   H4148     1.0  0.80529  0.17818  0.90199  1.0000
  C   C3467     1.0  0.97926  0.04573  0.81206  1.0000
  C   C3468     1.0  0.93795  0.02181  0.66732  1.0000
  N   N233      1.0  0.82388  0.13940  0.71539  1.0000
  C   C3469     1.0  0.82237  0.11988  0.71854  1.0000
  C   C3470     1.0  0.81287  0.15011  0.70134  1.0000
  C   C3471     1.0  0.84340  0.14099  0.70753  1.0000
  C   C3472     1.0  0.81777  0.14568  0.73309  1.0000
  C   C3473     1.0  0.82739  0.13725  0.74765  1.0000
  C   C3474     1.0  0.80222  0.15999  0.73655  1.0000
  C   C3475     1.0  0.82194  0.14295  0.76451  1.0000
  C   C3476     1.0  0.79684  0.16549  0.75349  1.0000
  C   C3477     1.0  0.80669  0.15706  0.76741  1.0000
  H   H4149     1.0  0.80831  0.11783  0.72603  1.0000
  H   H4150     1.0  0.82492  0.11512  0.70539  1.0000
  H   H4151     1.0  0.83241  0.11046  0.72667  1.0000
  H   H4152     1.0  0.79820  0.14860  0.70582  1.0000
  H   H4153     1.0  0.81809  0.14530  0.68807  1.0000
  H   H4154     1.0  0.81343  0.16495  0.69823  1.0000
  H   H4155     1.0  0.85314  0.13135  0.71589  1.0000
  H   H4156     1.0  0.84797  0.13769  0.69356  1.0000
  H   H4157     1.0  0.84539  0.15516  0.70634  1.0000
  H   H4158     1.0  0.83923  0.12616  0.74606  1.0000
  H   H4159     1.0  0.79379  0.16706  0.72651  1.0000
  H   H4160     1.0  0.82956  0.13641  0.77539  1.0000
  H   H4161     1.0  0.78486  0.17633  0.75583  1.0000
  H   H4162     1.0  0.80247  0.16147  0.78049  1.0000
  H   H4163     1.0  0.74324  0.04876  0.65430  1.0000
  C   C3478     1.0  0.96511  0.08265  0.79898  1.0000
  H   H4164     1.0  0.79194  0.40894  0.76231  1.0000
  H   H4165     1.0  0.91582  0.07429  0.66512  1.0000
  C   C3479     1.0  0.79276  0.17210  0.95238  1.0000
  H   H4166     1.0  0.86386  0.01430  0.64361  1.0000
  C   C3480     1.0  0.78053  0.41994  0.76713  1.0000
  C   C3481     1.0  0.88696  0.98790  0.65765  1.0000
  C   C3482     1.0  0.77010  0.41288  0.67577  1.0000
  C   C3483     1.0  0.79818  0.42644  0.78565  1.0000
  H   H4167     1.0  0.78130  0.41621  0.66378  1.0000
  C   C3484     1.0  0.74759  0.42894  0.65740  1.0000
  C   C3485     1.0  0.75658  0.37743  0.81981  1.0000
  C   C3486     1.0  0.86264  0.45276  0.83125  1.0000
  H   H4168     1.0  0.84268  0.36313  0.87013  1.0000
  H   H4169     1.0  0.77679  0.29426  0.66387  1.0000
  S   S942      1.0  0.85749  0.28284  0.95827  1.0000
  C   C3487     1.0  0.82416  0.15728  0.86791  1.0000
  H   H4170     1.0  0.78977  0.41894  0.79801  1.0000
  H   H4171     1.0  0.73570  0.31959  0.64550  1.0000
  H   H4172     1.0  0.74824  0.03536  0.68714  1.0000
  C   C3488     1.0  0.85749  0.15121  0.85907  1.0000
  H   H4173     1.0  0.97922  0.21958  0.86982  1.0000
  H   H4174     1.0  0.76074  0.27817  0.69140  1.0000
  C   C3489     1.0  0.75214  0.41028  0.81701  1.0000
  H   H4175     1.0  0.96735  0.01797  0.70123  1.0000
  H   H4176     1.0  0.78338  0.13792  0.90800  1.0000
  H   H4177     1.0  0.94900  0.13097  0.73608  1.0000
  C   C3490     1.0  0.80795  0.45800  0.75566  1.0000
  C   C3491     1.0  0.85873  0.14308  0.87723  1.0000
  H   H4178     1.0  0.77137  0.42538  0.75694  1.0000
  H   H4179     1.0  0.79736  0.35841  0.86314  1.0000
  H   H4180     1.0  0.83440  0.31931  0.90275  1.0000
  S   S943      1.0  0.96954  0.10288  0.69166  1.0000
  H   H4181     1.0  0.83556  0.31589  0.93473  1.0000
  H   H4182     1.0  0.74555  0.41561  0.65577  1.0000
  C   C3492     1.0  0.75208  0.28895  0.69819  1.0000
  H   H4183     1.0  0.75207  0.29233  0.83090  1.0000
  H   H4184     1.0  0.80563  0.46247  0.76846  1.0000
  S   S944      1.0  0.74366  0.37796  0.67006  1.0000
  C   C3493     1.0  0.81089  0.14248  0.91993  1.0000
  C   C3494     1.0  0.96130  0.06906  0.79220  1.0000
  S   S945      1.0  0.84845  0.11900  0.64616  1.0000
  C   C3495     1.0  0.96913  0.15095  0.65141  1.0000
  H   H4185     1.0  0.89902  0.97649  0.65959  1.0000
  N   N234      1.0  0.91439  0.08008  0.63654  1.0000
  H   H4186     1.0  0.81819  0.02460  0.70052  1.0000
  H   H4187     1.0  0.76309  0.36361  0.82537  1.0000
  N   N235      1.0  0.77357  0.26790  0.83129  1.0000
  C   C3496     1.0  0.76248  0.25768  0.84757  1.0000
  C   C3497     1.0  0.79316  0.26286  0.83325  1.0000
  C   C3498     1.0  0.76701  0.28780  0.83152  1.0000
  C   C3499     1.0  0.77191  0.26294  0.81436  1.0000
  C   C3500     1.0  0.77782  0.24448  0.81197  1.0000
  C   C3501     1.0  0.76428  0.27595  0.80002  1.0000
  C   C3502     1.0  0.77579  0.23924  0.79651  1.0000
  C   C3503     1.0  0.76237  0.27057  0.78456  1.0000
  C   C3504     1.0  0.76793  0.25224  0.78289  1.0000
  H   H4188     1.0  0.74051  0.03348  0.64136  1.0000
  H   H4189     1.0  0.76324  0.26115  0.86059  1.0000
  H   H4190     1.0  0.74771  0.26071  0.84654  1.0000
  H   H4191     1.0  0.76263  0.33270  0.64711  1.0000
  H   H4192     1.0  0.79848  0.24775  0.83545  1.0000
  H   H4193     1.0  0.96736  0.30483  0.95158  1.0000
  H   H4194     1.0  0.77230  0.03304  0.66023  1.0000
  C   C3505     1.0  0.83888  0.03013  0.65543  1.0000
  H   H4195     1.0  0.76846  0.29113  0.84435  1.0000
  H   H4196     1.0  0.78392  0.23387  0.82216  1.0000
  H   H4197     1.0  0.75906  0.29028  0.80063  1.0000
  C   C3506     1.0  0.96886  0.21654  0.86421  1.0000
  C   C3507     1.0  0.97529  0.14287  0.75951  1.0000
  H   H4198     1.0  0.97096  0.16038  0.70957  1.0000
  H   H4199     1.0  0.84480  0.13601  0.90471  1.0000
  Fe  Fe472     1.0  0.79279  0.09111  0.65062  1.0000
  H   H4200     1.0  0.95306  0.07290  0.78167  1.0000
  H   H4201     1.0  0.97900  0.04475  0.72800  1.0000
  H   H4202     1.0  0.79173  0.36971  0.88192  1.0000
  S   S946      1.0  0.75641  0.44457  0.89692  1.0000
  H   H4203     1.0  0.96528  0.04012  0.79344  1.0000
  H   H4204     1.0  0.75793  0.28508  0.66150  1.0000
  H   H4205     1.0  0.87223  0.13799  0.88079  1.0000
  S   S947      1.0  0.76654  0.44176  0.84361  1.0000
  N   N236      1.0  0.75306  0.42721  0.67515  1.0000
  C   C3508     1.0  0.82273  0.46186  0.72351  1.0000
  H   H4206     1.0  0.89477  0.08834  0.65996  1.0000
  S   S948      1.0  0.97164  0.37738  0.95696  1.0000
  H   H4207     1.0  0.77102  0.98750  0.65584  1.0000
  H   H4208     1.0  0.97178  0.13874  0.70433  1.0000
  H   H4209     1.0  0.82206  0.34173  0.95090  1.0000
  C   C3509     1.0  0.81178  0.36258  0.90901  1.0000
  H   H4210     1.0  0.97415  0.12182  0.65267  1.0000
  C   C3510     1.0  0.80392  0.21812  0.96103  1.0000
  H   H4211     1.0  0.80688  0.37147  0.93465  1.0000
  C   C3511     1.0  0.97493  0.46410  0.84445  1.0000
  Fe  Fe473     1.0  0.93952  0.98232  0.65496  1.0000
  C   C3512     1.0  0.74150  0.42102  0.70950  1.0000
  C   C3513     1.0  0.76351  0.29777  0.65905  1.0000
  H   H4212     1.0  0.87539  0.99020  0.70274  1.0000
  H   H4213     1.0  0.76371  0.45576  0.76624  1.0000
  H   H4214     1.0  0.78428  0.16977  0.91128  1.0000
  H   H4215     1.0  0.82157  0.37947  0.87305  1.0000
  C   C3514     1.0  0.96060  0.19903  0.84653  1.0000
  C   C3515     1.0  0.91794  0.39810  0.94854  1.0000
  S   S949      1.0  0.96982  0.14718  0.85802  1.0000
  H   H4216     1.0  0.84292  0.43817  0.82900  1.0000
  H   H4217     1.0  0.96451  0.18836  0.83851  1.0000
  C   C3516     1.0  0.76074  0.39247  0.82413  1.0000
  C   C3517     1.0  0.80333  0.43922  0.73672  1.0000
  C   C3518     1.0  0.88689  0.39225  0.95948  1.0000
  S   S950      1.0  0.74800  0.18028  0.74241  1.0000
  H   H4218     1.0  0.77734  0.00881  0.66871  1.0000
  C   C3519     1.0  0.98329  0.11014  0.75976  1.0000
  H   H4219     1.0  0.80526  0.37599  0.90246  1.0000
  S   S951      1.0  0.80090  0.45164  0.85681  1.0000
  Fe  Fe474     1.0  0.79343  0.45113  0.83035  1.0000
  H   H4220     1.0  0.81114  0.16304  0.86355  1.0000
  H   H4221     1.0  0.75095  0.17071  0.70822  1.0000
  H   H4222     1.0  0.77015  0.32728  0.66864  1.0000
  H   H4223     1.0  0.87702  0.13250  0.65383  1.0000
  H   H4224     1.0  0.81086  0.41653  0.78106  1.0000
  H   H4225     1.0  0.97236  0.45034  0.87282  1.0000
  H   H4226     1.0  0.95375  0.15823  0.74493  1.0000
  C   C3520     1.0  0.82596  0.03327  0.67129  1.0000
  H   H4227     1.0  0.76750  0.39925  0.67565  1.0000
  H   H4228     1.0  0.76346  0.14358  0.76120  1.0000
  H   H4229     1.0  0.80114  0.40985  0.63532  1.0000
  H   H4230     1.0  0.83686  0.03901  0.64232  1.0000
  C   C3521     1.0  0.75645  0.98749  0.66048  1.0000
  C   C3522     1.0  0.96210  0.14484  0.74896  1.0000
  H   H4231     1.0  0.98451  0.07690  0.84633  1.0000
  C   C3523     1.0  0.97950  0.13430  0.64700  1.0000
  C   C3524     1.0  0.98336  0.29887  0.91971  1.0000
  N   N237      1.0  0.78770  0.43478  0.77069  1.0000
  C   C3525     1.0  0.84746  0.46002  0.80557  1.0000
  C   C3526     1.0  0.75803  0.32901  0.66233  1.0000
  S   S952      1.0  0.94788  0.15156  0.66691  1.0000
  H   H4232     1.0  0.76752  0.44958  0.66237  1.0000
  H   H4233     1.0  0.76199  0.44230  0.78926  1.0000
  Fe  Fe475     1.0  0.74491  0.18485  0.77104  1.0000
  H   H4234     1.0  0.78017  0.22497  0.79518  1.0000
  C   C3527     1.0  0.85036  0.44921  0.82250  1.0000
  H   H4235     1.0  0.86996  0.15247  0.84865  1.0000
  C   C3528     1.0  0.96519  0.35997  0.93244  1.0000
  S   S953      1.0  0.75081  0.16627  0.79755  1.0000
  H   H4236     1.0  0.89677  0.98175  0.68883  1.0000
  C   C3529     1.0  0.95943  0.12943  0.74392  1.0000
  H   H4237     1.0  0.95976  0.09700  0.79366  1.0000
  H   H4238     1.0  0.93260  0.20370  0.84481  1.0000
  C   C3530     1.0  0.81489  0.22929  0.96292  1.0000
  S   S954      1.0  0.97879  0.16218  0.76559  1.0000
  C   C3531     1.0  0.81947  0.34815  0.89914  1.0000
  H   H4239     1.0  0.84190  0.33038  0.87154  1.0000
  N   N238      1.0  0.81839  0.35116  0.87955  1.0000
  C   C3532     1.0  0.98423  0.03392  0.73860  1.0000
  H   H4240     1.0  0.75843  0.43318  0.64539  1.0000
  S   S955      1.0  0.79340  0.06500  0.64145  1.0000
  C   C3533     1.0  0.93566  0.34639  0.95759  1.0000
  C   C3534     1.0  0.96007  0.36390  0.95009  1.0000
  C   C3535     1.0  0.74414  0.38017  0.80816  1.0000
  H   H4241     1.0  0.80248  0.43691  0.79051  1.0000
  H   H4242     1.0  0.86460  0.44435  0.84456  1.0000
  C   C3536     1.0  0.88346  0.99180  0.68842  1.0000
  C   C3537     1.0  0.74733  0.28440  0.71741  1.0000
  H   H4243     1.0  0.76739  0.24260  0.84923  1.0000
  H   H4244     1.0  0.78095  0.17583  0.94587  1.0000
  C   C3538     1.0  0.96998  0.11204  0.74940  1.0000
  C   C3539     1.0  0.73853  0.03579  0.65554  1.0000
  C   C3540     1.0  0.76875  0.01980  0.66013  1.0000
  H   H4245     1.0  0.76378  0.44451  0.68671  1.0000
  H   H4246     1.0  0.77569  0.41131  0.68824  1.0000
  H   H4247     1.0  0.75101  0.01086  0.69542  1.0000
  H   H4248     1.0  0.74116  0.36850  0.80473  1.0000
  C   C3541     1.0  0.95983  0.00172  0.73687  1.0000
  H   H4249     1.0  0.77312  0.01789  0.64563  1.0000
  H   H4250     1.0  0.87425  0.38976  0.95748  1.0000
  S   S956      1.0  0.97258  0.06078  0.67102  1.0000
  H   H4251     1.0  0.98001  0.28674  0.93049  1.0000
  H   H4252     1.0  0.75227  0.27065  0.72468  1.0000
  S   S957      1.0  0.80587  0.44433  0.63902  1.0000
  H   H4253     1.0  0.97065  0.30985  0.91965  1.0000
  C   C3542     1.0  0.97735  0.15162  0.69918  1.0000
  C   C3543     1.0  0.97608  0.07793  0.81222  1.0000
  H   H4254     1.0  0.79755  0.42881  0.73422  1.0000
  Fe  Fe476     1.0  0.86886  0.30725  0.95852  1.0000
  H   H4255     1.0  0.88685  0.00577  0.68444  1.0000
  H   H4256     1.0  0.81416  0.04455  0.67042  1.0000
  C   C3544     1.0  0.91908  0.39758  0.96659  1.0000
  H   H4257     1.0  0.88084  0.98488  0.64727  1.0000
  H   H4258     1.0  0.96064  0.03457  0.71540  1.0000
  Fe  Fe477     1.0  0.73826  0.37950  0.64217  1.0000
  C   C3545     1.0  0.98413  0.01509  0.73994  1.0000
  C   C3546     1.0  0.73871  0.42227  0.69153  1.0000
  N   N239      1.0  0.97682  0.00872  0.72697  1.0000
  C   C3547     1.0  0.97211  0.02336  0.71107  1.0000
  H   H4259     1.0  0.92458  0.34088  0.96752  1.0000
  H   H4260     1.0  0.97325  0.04709  0.85549  1.0000
  C   C3548     1.0  0.97812  0.31060  0.95350  1.0000
  H   H4261     1.0  0.80427  0.21602  0.94746  1.0000
  C   C3549     1.0  0.74343  0.00272  0.66652  1.0000
  H   H4262     1.0  0.98110  0.03131  0.65164  1.0000
  H   H4263     1.0  0.74795  0.34124  0.66625  1.0000
  H   H4264     1.0  0.98028  0.98082  0.91860  1.0000
  H   H4265     1.0  0.83154  0.46873  0.71176  1.0000
  H   H4266     1.0  0.97765  0.97753  0.94275  1.0000
  N   N240      1.0  0.74873  0.01988  0.66704  1.0000
  H   H4267     1.0  0.98470  0.45604  0.68272  1.0000
  H   H4268     1.0  0.98461  0.03126  0.81654  1.0000
  C   C3550     1.0  0.98492  0.46394  0.82661  1.0000
  H   H4269     1.0  0.95208  0.07827  0.63493  1.0000
  C   C3551     1.0  0.74285  0.88920  0.21309  1.0000
  C   C3552     1.0  0.74281  0.62271  0.03612  1.0000
  Fe  Fe478     1.0  0.77386  0.61623  0.13234  1.0000
  C   C3553     1.0  0.81419  0.59018  0.22101  1.0000
  H   H4270     1.0  0.78875  0.72335  0.06360  1.0000
  C   C3554     1.0  0.95717  0.96355  0.10065  1.0000
  C   C3555     1.0  0.93551  0.95065  0.06951  1.0000
  H   H4271     1.0  0.74954  0.58765  0.09198  1.0000
  H   H4272     1.0  0.83421  0.56635  0.25162  1.0000
  H   H4273     1.0  0.90889  0.96384  0.16164  1.0000
  H   H4274     1.0  0.97237  0.71846  0.97223  1.0000
  H   H4275     1.0  0.98426  0.65460  0.19199  1.0000
  H   H4276     1.0  0.89674  0.50276  0.14920  1.0000
  S   S958      1.0  0.84827  0.96900  0.17291  1.0000
  C   C3556     1.0  0.74718  0.63981  0.24466  1.0000
  Fe  Fe479     1.0  0.80525  0.61298  0.15158  1.0000
  S   S959      1.0  0.83275  0.59520  0.15639  1.0000
  Fe  Fe480     1.0  0.79677  0.73121  0.02413  1.0000
  S   S960      1.0  0.80665  0.74222  0.99411  1.0000
  S   S961      1.0  0.80630  0.70133  0.03589  1.0000
  Fe  Fe481     1.0  0.77250  0.76765  0.03093  1.0000
  S   S962      1.0  0.78003  0.78171  0.00147  1.0000
  S   S963      1.0  0.75335  0.78089  0.05380  1.0000
  Fe  Fe482     1.0  0.77702  0.75594  0.99456  1.0000
  Fe  Fe483     1.0  0.80897  0.76682  0.00356  1.0000
  S   S964      1.0  0.83190  0.78268  0.99086  1.0000
  S   S965      1.0  0.76686  0.74303  0.02392  1.0000
  S   S966      1.0  0.80174  0.75464  0.03361  1.0000
  H   H4277     1.0  0.97427  0.51520  0.12962  1.0000
  S   S967      1.0  0.91501  0.81420  0.00658  1.0000
  H   H4278     1.0  0.85826  0.80408  0.98901  1.0000
  Fe  Fe484     1.0  0.96129  0.78048  0.01263  1.0000
  S   S968      1.0  0.93894  0.78717  0.03655  1.0000
  H   H4279     1.0  0.90694  0.77606  0.98692  1.0000
  Fe  Fe485     1.0  0.91956  0.78442  0.02012  1.0000
  S   S969      1.0  0.89706  0.76808  0.03302  1.0000
  Fe  Fe486     1.0  0.93656  0.81625  0.02088  1.0000
  S   S970      1.0  0.93333  0.83770  0.03766  1.0000
  S   S971      1.0  0.94225  0.77517  0.99740  1.0000
  S   S972      1.0  0.96032  0.80980  0.99781  1.0000
  Fe  Fe487     1.0  0.93255  0.57116  0.21528  1.0000
  S   S973      1.0  0.92003  0.58939  0.19178  1.0000
  S   S974      1.0  0.94345  0.54054  0.21901  1.0000
  Fe  Fe488     1.0  0.92753  0.60234  0.23494  1.0000
  S   S975      1.0  0.91488  0.62314  0.21302  1.0000
  S   S976      1.0  0.92631  0.61106  0.26127  1.0000
  Fe  Fe489     1.0  0.89901  0.60210  0.21355  1.0000
  S   S977      1.0  0.86883  0.61321  0.21381  1.0000
  Fe  Fe490     1.0  0.93697  0.60894  0.19308  1.0000
  S   S978      1.0  0.94782  0.62654  0.16618  1.0000
  S   S979      1.0  0.90987  0.58222  0.23705  1.0000
  S   S980      1.0  0.95135  0.58978  0.21496  1.0000
  C   C3557     1.0  0.95209  0.84881  0.03253  1.0000
  H   H4280     1.0  0.94207  0.65374  0.25269  1.0000
  H   H4281     1.0  0.87724  0.76334  0.97442  1.0000
  H   H4282     1.0  0.80650  0.57901  0.27633  1.0000
  Fe  Fe491     1.0  0.73734  0.90872  0.09434  1.0000
  H   H4283     1.0  0.94863  0.72440  0.99981  1.0000
  S   S981      1.0  0.82162  0.93029  0.11810  1.0000
  C   C3558     1.0  0.73534  0.62152  0.00267  1.0000
  H   H4284     1.0  0.74976  0.64393  0.99117  1.0000
  S   S982      1.0  0.73690  0.51005  0.09661  1.0000
  H   H4285     1.0  0.75804  0.67644  0.23923  1.0000
  H   H4286     1.0  0.92411  0.65829  0.28698  1.0000
  H   H4287     1.0  0.75721  0.67165  0.10470  1.0000
  N   N241      1.0  0.75133  0.89939  0.16072  1.0000
  H   H4288     1.0  0.77860  0.50157  0.10734  1.0000
  H   H4289     1.0  0.75658  0.50901  0.15369  1.0000
  S   S983      1.0  0.75562  0.86321  0.05245  1.0000
  H   H4290     1.0  0.96499  0.58319  0.15883  1.0000
  H   H4291     1.0  0.77253  0.88473  0.14211  1.0000
  H   H4292     1.0  0.78057  0.97260  0.22904  1.0000
  C   C3559     1.0  0.73819  0.55515  0.12996  1.0000
  S   S984      1.0  0.75501  0.88050  0.09690  1.0000
  H   H4293     1.0  0.76808  0.84163  0.02468  1.0000
  C   C3560     1.0  0.77553  0.68621  0.20295  1.0000
  H   H4294     1.0  0.79070  0.96047  0.11200  1.0000
  C   C3561     1.0  0.95449  0.85787  0.04529  1.0000
  C   C3562     1.0  0.76187  0.70298  0.98197  1.0000
  C   C3563     1.0  0.93893  0.96344  0.13146  1.0000
  S   S985      1.0  0.74637  0.93468  0.09469  1.0000
  C   C3564     1.0  0.76546  0.71986  0.98255  1.0000
  S   S986      1.0  0.74649  0.68055  0.97049  1.0000
  H   H4295     1.0  0.75439  0.89458  0.27783  1.0000
  H   H4296     1.0  0.92030  0.48111  0.13576  1.0000
  H   H4297     1.0  0.95841  0.75134  0.12221  1.0000
  N   N242      1.0  0.81945  0.59433  0.25078  1.0000
  H   H4298     1.0  0.77662  0.88002  0.16497  1.0000
  C   C3565     1.0  0.78801  0.59230  0.24642  1.0000
  H   H4299     1.0  0.74104  0.69143  0.19497  1.0000
  C   C3566     1.0  0.79048  0.47524  0.13585  1.0000
  H   H4300     1.0  0.74640  0.90628  0.13296  1.0000
  C   C3567     1.0  0.97710  0.48560  0.25595  1.0000
  H   H4301     1.0  0.77179  0.68347  0.05285  1.0000
  C   C3568     1.0  0.80061  0.93169  0.11175  1.0000
  C   C3569     1.0  0.78781  0.94826  0.10959  1.0000
  C   C3570     1.0  0.77115  0.94893  0.10450  1.0000
  C   C3571     1.0  0.76727  0.93313  0.10139  1.0000
  C   C3572     1.0  0.78003  0.91656  0.10370  1.0000
  C   C3573     1.0  0.79663  0.91584  0.10889  1.0000
  H   H4302     1.0  0.73684  0.69075  0.01496  1.0000
  H   H4303     1.0  0.98349  0.54306  0.12486  1.0000
  H   H4304     1.0  0.77722  0.90433  0.10128  1.0000
  H   H4305     1.0  0.80647  0.90298  0.11058  1.0000
  C   C3574     1.0  0.96949  0.63208  0.16365  1.0000
  H   H4306     1.0  0.74364  0.57549  0.01113  1.0000
  Fe  Fe492     1.0  0.74064  0.69972  0.28096  1.0000
  H   H4307     1.0  0.86972  0.64811  0.29726  1.0000
  H   H4308     1.0  0.96499  0.65496  0.14117  1.0000
  S   S987      1.0  0.78771  0.68023  0.12269  1.0000
  C   C3575     1.0  0.75773  0.48317  0.13574  1.0000
  C   C3576     1.0  0.97169  0.74350  0.04821  1.0000
  C   C3577     1.0  0.75158  0.89265  0.19455  1.0000
  H   H4309     1.0  0.95885  0.75087  0.04422  1.0000
  H   H4310     1.0  0.95840  0.72920  0.07418  1.0000
  C   C3578     1.0  0.75417  0.80369  0.05341  1.0000
  C   C3579     1.0  0.76177  0.81484  0.03730  1.0000
  C   C3580     1.0  0.76218  0.83307  0.03721  1.0000
  C   C3581     1.0  0.75491  0.84027  0.05320  1.0000
  H   H4311     1.0  0.84099  0.49751  0.10908  1.0000
  C   C3582     1.0  0.96969  0.65573  0.23767  1.0000
  H   H4312     1.0  0.76723  0.80945  0.02487  1.0000
  C   C3583     1.0  0.74505  0.63440  0.00356  1.0000
  C   C3584     1.0  0.95482  0.95655  0.11950  1.0000
  C   C3585     1.0  0.93671  0.93722  0.08556  1.0000
  C   C3586     1.0  0.84925  0.77888  0.00345  1.0000
  C   C3587     1.0  0.85208  0.76316  0.01716  1.0000
  C   C3588     1.0  0.86658  0.76014  0.02647  1.0000
  C   C3589     1.0  0.87822  0.77283  0.02214  1.0000
  C   C3590     1.0  0.87490  0.78887  0.00893  1.0000
  C   C3591     1.0  0.86055  0.79180  0.99948  1.0000
  H   H4313     1.0  0.84342  0.75311  0.02029  1.0000
  H   H4314     1.0  0.86902  0.74775  0.03679  1.0000
  H   H4315     1.0  0.88358  0.79888  0.00574  1.0000
  C   C3592     1.0  0.92852  0.74175  0.98433  1.0000
  C   C3593     1.0  0.84327  0.60062  0.17177  1.0000
  C   C3594     1.0  0.85940  0.58902  0.17664  1.0000
  C   C3595     1.0  0.86773  0.59295  0.18924  1.0000
  C   C3596     1.0  0.85994  0.60857  0.19687  1.0000
  C   C3597     1.0  0.84414  0.62038  0.19164  1.0000
  C   C3598     1.0  0.83579  0.61636  0.17922  1.0000
  H   H4316     1.0  0.86528  0.57680  0.17091  1.0000
  H   H4317     1.0  0.87987  0.58368  0.19335  1.0000
  H   H4318     1.0  0.83816  0.63254  0.19739  1.0000
  H   H4319     1.0  0.82357  0.62548  0.17549  1.0000
  C   C3599     1.0  0.97270  0.79400  0.10495  1.0000
  C   C3600     1.0  0.80220  0.69589  0.06003  1.0000
  C   C3601     1.0  0.80754  0.67769  0.06898  1.0000
  H   H4320     1.0  0.82957  0.61563  0.22917  1.0000
  H   H4321     1.0  0.81476  0.66732  0.06097  1.0000
  H   H4322     1.0  0.80739  0.65871  0.09503  1.0000
  C   C3602     1.0  0.75310  0.63397  0.21365  1.0000
  H   H4323     1.0  0.96664  0.55866  0.18662  1.0000
  H   H4324     1.0  0.75636  0.64504  0.02077  1.0000
  C   C3603     1.0  0.92956  0.50895  0.18257  1.0000
  C   C3604     1.0  0.93872  0.49962  0.19692  1.0000
  C   C3605     1.0  0.94273  0.50943  0.20814  1.0000
  C   C3606     1.0  0.93744  0.52863  0.20520  1.0000
  C   C3607     1.0  0.92799  0.53793  0.19103  1.0000
  C   C3608     1.0  0.92406  0.52812  0.17975  1.0000
  H   H4325     1.0  0.78035  0.50392  0.15490  1.0000
  H   H4326     1.0  0.92386  0.55268  0.18862  1.0000
  H   H4327     1.0  0.91691  0.53542  0.16871  1.0000
  H   H4328     1.0  0.92258  0.92694  0.11288  1.0000
  H   H4329     1.0  0.87304  0.50393  0.15013  1.0000
  C   C3609     1.0  0.76563  0.88301  0.15691  1.0000
  C   C3610     1.0  0.94654  0.61333  0.26664  1.0000
  C   C3611     1.0  0.96389  0.60895  0.25547  1.0000
  C   C3612     1.0  0.74181  0.89550  0.28818  1.0000
  C   C3613     1.0  0.76908  0.49778  0.15362  1.0000
  C   C3614     1.0  0.96073  0.62252  0.28706  1.0000
  C   C3615     1.0  0.94506  0.61985  0.28255  1.0000
  C   C3616     1.0  0.90430  0.96426  0.08340  1.0000
  H   H4330     1.0  0.82247  0.66259  0.17574  1.0000
  C   C3617     1.0  0.76477  0.77476  0.29325  1.0000
  H   H4331     1.0  0.76579  0.48712  0.16613  1.0000
  Fe  Fe493     1.0  0.75760  0.65970  0.28024  1.0000
  H   H4332     1.0  0.76596  0.69748  0.23678  1.0000
  C   C3618     1.0  0.79305  0.70930  0.07041  1.0000
  S   S988      1.0  0.92534  0.49700  0.16769  1.0000
  H   H4333     1.0  0.76114  0.96167  0.10309  1.0000
  C   C3619     1.0  0.87899  0.47761  0.12868  1.0000
  C   C3620     1.0  0.90549  0.95069  0.09933  1.0000
  C   C3621     1.0  0.92167  0.93729  0.10044  1.0000
  H   H4334     1.0  0.77423  0.72037  0.99146  1.0000
  C   C3622     1.0  0.73966  0.65107  0.09528  1.0000
  C   C3623     1.0  0.75060  0.70212  0.97046  1.0000
  H   H4335     1.0  0.76794  0.69051  0.99044  1.0000
  H   H4336     1.0  0.81062  0.96345  0.21167  1.0000
  C   C3624     1.0  0.98315  0.86482  0.02546  1.0000
  C   C3625     1.0  0.75419  0.71500  0.20609  1.0000
  C   C3626     1.0  0.82910  0.96862  0.28240  1.0000
  C   C3627     1.0  0.74806  0.58037  0.10614  1.0000
  H   H4337     1.0  0.78018  0.82868  0.28215  1.0000
  C   C3628     1.0  0.95141  0.65420  0.23944  1.0000
  H   H4338     1.0  0.82845  0.59039  0.21464  1.0000
  C   C3629     1.0  0.88708  0.50043  0.14167  1.0000
  H   H4339     1.0  0.79284  0.63503  0.22520  1.0000
  C   C3630     1.0  0.95479  0.56388  0.28863  1.0000
  H   H4340     1.0  0.97946  0.49224  0.14216  1.0000
  C   C3631     1.0  0.94531  0.65237  0.22445  1.0000
  C   C3632     1.0  0.77677  0.59051  0.23533  1.0000
  H   H4341     1.0  0.97610  0.49871  0.17905  1.0000
  S   S989      1.0  0.76977  0.68397  0.27850  1.0000
  H   H4342     1.0  0.94452  0.80064  0.06728  1.0000
  H   H4343     1.0  0.82987  0.97166  0.21323  1.0000
  H   H4344     1.0  0.76480  0.51733  0.12124  1.0000
  C   C3633     1.0  0.76497  0.83257  0.28326  1.0000
  H   H4345     1.0  0.84562  0.58065  0.25861  1.0000
  H   H4346     1.0  0.74472  0.49369  0.13736  1.0000
  C   C3634     1.0  0.74249  0.68755  0.20957  1.0000
  C   C3635     1.0  0.86381  0.49105  0.12300  1.0000
  C   C3636     1.0  0.96234  0.78126  0.08429  1.0000
  C   C3637     1.0  0.74427  0.56147  0.14264  1.0000
  H   H4347     1.0  0.84596  0.58312  0.23508  1.0000
  H   H4348     1.0  0.73765  0.64207  0.25732  1.0000
  H   H4349     1.0  0.81153  0.62378  0.24685  1.0000
  C   C3638     1.0  0.80335  0.67280  0.08825  1.0000
  C   C3639     1.0  0.97145  0.73106  0.06510  1.0000
  H   H4350     1.0  0.76476  0.68460  0.08260  1.0000
  C   C3640     1.0  0.94959  0.54686  0.29463  1.0000
  H   H4351     1.0  0.89327  0.79006  0.97070  1.0000
  C   C3641     1.0  0.94561  0.73034  0.98621  1.0000
  H   H4352     1.0  0.89051  0.75150  0.99125  1.0000
  C   C3642     1.0  0.75393  0.67679  0.09070  1.0000
  H   H4353     1.0  0.80114  0.96578  0.26047  1.0000
  S   S990      1.0  0.79219  0.63879  0.16235  1.0000
  C   C3643     1.0  0.96998  0.86596  0.04172  1.0000
  N   N243      1.0  0.77388  0.49018  0.13662  1.0000
  H   H4354     1.0  0.91886  0.74441  0.99682  1.0000
  S   S991      1.0  0.75824  0.64220  0.14195  1.0000
  H   H4355     1.0  0.94484  0.82713  0.07971  1.0000
  C   C3644     1.0  0.77875  0.68754  0.18363  1.0000
  N   N244      1.0  0.89136  0.48118  0.13896  1.0000
  H   H4356     1.0  0.89151  0.74110  0.97238  1.0000
  C   C3645     1.0  0.97054  0.55507  0.17316  1.0000
  H   H4357     1.0  0.93794  0.95720  0.14585  1.0000
  H   H4358     1.0  0.82078  0.59329  0.27889  1.0000
  C   C3646     1.0  0.79406  0.68617  0.09863  1.0000
  C   C3647     1.0  0.97385  0.50467  0.24971  1.0000
  H   H4359     1.0  0.75057  0.88675  0.22388  1.0000
  H   H4360     1.0  0.79889  0.60372  0.27337  1.0000
  H   H4361     1.0  0.83448  0.61469  0.25100  1.0000
  H   H4362     1.0  0.77521  0.58797  0.20847  1.0000
  C   C3648     1.0  0.96493  0.84834  0.01601  1.0000
  H   H4363     1.0  0.93131  0.65052  0.22612  1.0000
  H   H4364     1.0  0.94709  0.95071  0.05799  1.0000
  H   H4365     1.0  0.78117  0.59457  0.26003  1.0000
  H   H4366     1.0  0.75659  0.58205  0.14708  1.0000
  H   H4367     1.0  0.97195  0.87270  0.05172  1.0000
  H   H4368     1.0  0.94446  0.85850  0.05800  1.0000
  C   C3649     1.0  0.82395  0.61289  0.24418  1.0000
  C   C3650     1.0  0.73886  0.90343  0.14752  1.0000
  C   C3651     1.0  0.74660  0.81099  0.06933  1.0000
  N   N245      1.0  0.89406  0.64000  0.15073  1.0000
  C   C3652     1.0  0.90757  0.65022  0.13728  1.0000
  C   C3653     1.0  0.89249  0.64376  0.16917  1.0000
  C   C3654     1.0  0.90183  0.62009  0.15158  1.0000
  C   C3655     1.0  0.87580  0.64604  0.14535  1.0000
  C   C3656     1.0  0.86671  0.66478  0.14363  1.0000
  C   C3657     1.0  0.86652  0.63380  0.14167  1.0000
  C   C3658     1.0  0.84956  0.67088  0.13837  1.0000
  C   C3659     1.0  0.84939  0.64007  0.13640  1.0000
  C   C3660     1.0  0.84093  0.65855  0.13474  1.0000
  H   H4369     1.0  0.90386  0.66521  0.13706  1.0000
  H   H4370     1.0  0.92165  0.64551  0.14059  1.0000
  H   H4371     1.0  0.90869  0.64830  0.12309  1.0000
  H   H4372     1.0  0.88847  0.65865  0.16941  1.0000
  H   H4373     1.0  0.90584  0.63872  0.17396  1.0000
  H   H4374     1.0  0.88200  0.63684  0.17958  1.0000
  H   H4375     1.0  0.90374  0.61627  0.13805  1.0000
  H   H4376     1.0  0.91567  0.61610  0.15538  1.0000
  H   H4377     1.0  0.89289  0.61148  0.16218  1.0000
  H   H4378     1.0  0.87285  0.67486  0.14629  1.0000
  H   H4379     1.0  0.87203  0.61923  0.14294  1.0000
  H   H4380     1.0  0.84292  0.68527  0.13700  1.0000
  H   H4381     1.0  0.84253  0.63045  0.13377  1.0000
  H   H4382     1.0  0.82764  0.66329  0.13062  1.0000
  H   H4383     1.0  0.96527  0.94545  0.12478  1.0000
  H   H4384     1.0  0.96477  0.74435  0.10039  1.0000
  C   C3661     1.0  0.96670  0.56850  0.29719  1.0000
  H   H4385     1.0  0.97337  0.57515  0.12809  1.0000
  Fe  Fe494     1.0  0.76603  0.62812  0.16912  1.0000
  C   C3662     1.0  0.81099  0.59241  0.27070  1.0000
  H   H4386     1.0  0.76399  0.69695  0.02290  1.0000
  C   C3663     1.0  0.76604  0.63888  0.24302  1.0000
  C   C3664     1.0  0.80281  0.58851  0.21003  1.0000
  C   C3665     1.0  0.75593  0.69137  0.23309  1.0000
  C   C3666     1.0  0.77149  0.64905  0.08052  1.0000
  C   C3667     1.0  0.77682  0.50559  0.12073  1.0000
  H   H4387     1.0  0.78920  0.51089  0.12048  1.0000
  H   H4388     1.0  0.94249  0.48482  0.19959  1.0000
  S   S992      1.0  0.73872  0.85383  0.14453  1.0000
  H   H4389     1.0  0.81802  0.66033  0.20930  1.0000
  H   H4390     1.0  0.74524  0.67230  0.21329  1.0000
  C   C3668     1.0  0.98153  0.53147  0.15420  1.0000
  H   H4391     1.0  0.78918  0.67443  0.22658  1.0000
  S   S993      1.0  0.77496  0.64086  0.26130  1.0000
  H   H4392     1.0  0.80845  0.58746  0.19576  1.0000
  H   H4393     1.0  0.94984  0.50209  0.21918  1.0000
  H   H4394     1.0  0.96762  0.51079  0.23777  1.0000
  C   C3669     1.0  0.76034  0.91540  0.15691  1.0000
  N   N246      1.0  0.81674  0.80911  0.04563  1.0000
  C   C3670     1.0  0.83654  0.80223  0.04644  1.0000
  C   C3671     1.0  0.81355  0.80563  0.02862  1.0000
  C   C3672     1.0  0.81275  0.82935  0.04413  1.0000
  C   C3673     1.0  0.80527  0.79934  0.06192  1.0000
  C   C3674     1.0  0.79197  0.80851  0.07503  1.0000
  C   C3675     1.0  0.80728  0.77996  0.06506  1.0000
  C   C3676     1.0  0.78126  0.79878  0.09010  1.0000
  C   C3677     1.0  0.79622  0.77044  0.07993  1.0000
  C   C3678     1.0  0.78319  0.77985  0.09240  1.0000
  H   H4395     1.0  0.84111  0.78744  0.04575  1.0000
  H   H4396     1.0  0.84565  0.80962  0.03471  1.0000
  H   H4397     1.0  0.83943  0.80383  0.05942  1.0000
  H   H4398     1.0  0.81691  0.79081  0.02814  1.0000
  H   H4399     1.0  0.82211  0.81253  0.01601  1.0000
  H   H4400     1.0  0.79889  0.81063  0.02739  1.0000
  H   H4401     1.0  0.79810  0.83548  0.04307  1.0000
  H   H4402     1.0  0.81558  0.83307  0.05615  1.0000
  H   H4403     1.0  0.82142  0.83627  0.03162  1.0000
  H   H4404     1.0  0.78922  0.82323  0.07380  1.0000
  H   H4405     1.0  0.81725  0.77201  0.05583  1.0000
  H   H4406     1.0  0.77093  0.80610  0.09973  1.0000
  H   H4407     1.0  0.79755  0.75572  0.08162  1.0000
  H   H4408     1.0  0.77440  0.77248  0.10373  1.0000
  N   N247      1.0  0.87369  0.91748  0.08034  1.0000
  C   C3679     1.0  0.87671  0.91352  0.09944  1.0000
  C   C3680     1.0  0.86715  0.93760  0.07470  1.0000
  C   C3681     1.0  0.85861  0.90834  0.08047  1.0000
  C   C3682     1.0  0.89126  0.91131  0.06794  1.0000
  C   C3683     1.0  0.89385  0.89685  0.05839  1.0000
  C   C3684     1.0  0.90664  0.91955  0.06548  1.0000
  C   C3685     1.0  0.91074  0.89138  0.04690  1.0000
  C   C3686     1.0  0.92343  0.91398  0.05400  1.0000
  C   C3687     1.0  0.92542  0.90005  0.04459  1.0000
  H   H4409     1.0  0.86366  0.91751  0.10930  1.0000
  H   H4410     1.0  0.88217  0.89863  0.10408  1.0000
  H   H4411     1.0  0.88676  0.92117  0.10080  1.0000
  H   H4412     1.0  0.87655  0.94579  0.07637  1.0000
  H   H4413     1.0  0.85344  0.94245  0.08318  1.0000
  H   H4414     1.0  0.86584  0.94140  0.06002  1.0000
  H   H4415     1.0  0.86196  0.89328  0.08590  1.0000
  H   H4416     1.0  0.84548  0.91359  0.08953  1.0000
  H   H4417     1.0  0.85559  0.91085  0.06648  1.0000
  H   H4418     1.0  0.88314  0.88947  0.05958  1.0000
  H   H4419     1.0  0.90584  0.93031  0.07253  1.0000
  H   H4420     1.0  0.91256  0.88022  0.03983  1.0000
  H   H4421     1.0  0.74062  0.80242  0.08181  1.0000
  H   H4422     1.0  0.93845  0.89585  0.03562  1.0000
  C   C3688     1.0  0.91934  0.96419  0.06848  1.0000
  C   C3689     1.0  0.77827  0.63580  0.22665  1.0000
  S   S994      1.0  0.76338  0.75706  0.97121  1.0000
  C   C3690     1.0  0.78916  0.70447  0.08970  1.0000
  C   C3691     1.0  0.97423  0.56433  0.14024  1.0000
  C   C3692     1.0  0.75404  0.58674  0.11888  1.0000
  C   C3693     1.0  0.83697  0.58047  0.24895  1.0000
  C   C3694     1.0  0.87864  0.65558  0.30003  1.0000
  Fe  Fe495     1.0  0.82857  0.95654  0.12016  1.0000
  H   H4423     1.0  0.74151  0.83460  0.08170  1.0000
  Fe  Fe496     1.0  0.93906  0.80519  0.98477  1.0000
  H   H4424     1.0  0.90179  0.64253  0.28177  1.0000
  C   C3695     1.0  0.80720  0.59202  0.23961  1.0000
  S   S995      1.0  0.76372  0.60667  0.11159  1.0000
  Fe  Fe497     1.0  0.78564  0.65065  0.13449  1.0000
  C   C3696     1.0  0.79553  0.67920  0.17397  1.0000
  H   H4425     1.0  0.78192  0.71486  0.09768  1.0000
  C   C3697     1.0  0.97440  0.64707  0.15007  1.0000
  H   H4426     1.0  0.78152  0.63062  0.19974  1.0000
  C   C3698     1.0  0.97549  0.65448  0.20544  1.0000
  C   C3699     1.0  0.77182  0.63348  0.21201  1.0000
  C   C3700     1.0  0.74018  0.68468  0.02842  1.0000
  H   H4427     1.0  0.96183  0.77006  0.07830  1.0000
  H   H4428     1.0  0.96280  0.84212  0.00579  1.0000
  H   H4429     1.0  0.94943  0.57366  0.27732  1.0000
  C   C3701     1.0  0.75971  0.68041  0.05021  1.0000
  H   H4430     1.0  0.97824  0.61014  0.18533  1.0000
  H   H4431     1.0  0.76206  0.59141  0.24057  1.0000
  S   S996      1.0  0.85624  0.95436  0.12652  1.0000
  H   H4432     1.0  0.77562  0.64341  0.09411  1.0000
  C   C3702     1.0  0.74876  0.63503  0.02023  1.0000
  C   C3703     1.0  0.95259  0.81369  0.08484  1.0000
  C   C3704     1.0  0.80926  0.96403  0.24658  1.0000
  C   C3705     1.0  0.74075  0.63714  0.23003  1.0000
  C   C3706     1.0  0.75543  0.68813  0.03287  1.0000
  C   C3707     1.0  0.75213  0.57722  0.13714  1.0000
  C   C3708     1.0  0.74171  0.89583  0.18025  1.0000
  H   H4433     1.0  0.76618  0.89265  0.19149  1.0000
  C   C3709     1.0  0.95243  0.79868  0.07782  1.0000
  N   N248      1.0  0.75742  0.69481  0.21287  1.0000
  C   C3710     1.0  0.98009  0.54592  0.13855  1.0000
  C   C3711     1.0  0.74862  0.66916  0.06383  1.0000
  S   S997      1.0  0.74495  0.63068  0.19542  1.0000
  C   C3712     1.0  0.75908  0.79382  0.29116  1.0000
  H   H4434     1.0  0.77140  0.63709  0.07480  1.0000
  H   H4435     1.0  0.76681  0.91905  0.14209  1.0000
  C   C3713     1.0  0.78414  0.58865  0.21719  1.0000
  C   C3714     1.0  0.95730  0.65261  0.20744  1.0000
  H   H4436     1.0  0.82411  0.96120  0.24729  1.0000
  H   H4437     1.0  0.75244  0.80099  0.27973  1.0000
  H   H4438     1.0  0.95258  0.65109  0.19577  1.0000
  H   H4439     1.0  0.76547  0.72085  0.20784  1.0000
  H   H4440     1.0  0.80630  0.95144  0.24413  1.0000
  H   H4441     1.0  0.93502  0.92041  0.05253  1.0000
  C   C3715     1.0  0.89714  0.65223  0.29096  1.0000
  H   H4442     1.0  0.78261  0.65599  0.07145  1.0000
  C   C3716     1.0  0.80708  0.66807  0.20210  1.0000
  N   N249      1.0  0.75320  0.66160  0.08228  1.0000
  H   H4443     1.0  0.79745  0.68010  0.15927  1.0000
  H   H4444     1.0  0.86507  0.96749  0.20296  1.0000
  C   C3717     1.0  0.79033  0.67635  0.21191  1.0000
  H   H4445     1.0  0.96512  0.60392  0.24316  1.0000
  S   S998      1.0  0.80092  0.62580  0.12286  1.0000
  H   H4446     1.0  0.83601  0.95772  0.27498  1.0000
  S   S999      1.0  0.77943  0.60124  0.16026  1.0000
  H   H4447     1.0  0.89406  0.95054  0.11085  1.0000
  C   C3718     1.0  0.80963  0.66936  0.18321  1.0000
  C   C3719     1.0  0.89085  0.75434  0.97623  1.0000
  S   S1000     1.0  0.95670  0.92020  0.08761  1.0000
  Fe  Fe498     1.0  0.98051  0.91929  0.06333  1.0000
  H   H4448     1.0  0.76822  0.69484  0.17582  1.0000
  S   S1001     1.0  0.97780  0.92049  0.03454  1.0000
  H   H4449     1.0  0.74593  0.62309  0.04905  1.0000
  H   H4450     1.0  0.88839  0.51040  0.12831  1.0000
  H   H4451     1.0  0.76260  0.76780  0.28350  1.0000
  C   C3720     1.0  0.96951  0.56890  0.15752  1.0000
  H   H4452     1.0  0.74274  0.55426  0.15684  1.0000
  H   H4453     1.0  0.96098  0.50867  0.15219  1.0000
  H   H4454     1.0  0.97577  0.53076  0.25385  1.0000
  H   H4455     1.0  0.73924  0.63862  0.09053  1.0000
  H   H4456     1.0  0.73689  0.73308  0.29490  1.0000
  C   C3721     1.0  0.74704  0.82923  0.06927  1.0000
  C   C3722     1.0  0.96275  0.81138  0.09832  1.0000
  H   H4457     1.0  0.75940  0.87055  0.16036  1.0000
  C   C3723     1.0  0.90608  0.77954  0.97216  1.0000
  H   H4458     1.0  0.74100  0.72202  0.21379  1.0000
  H   H4459     1.0  0.97009  0.58192  0.29184  1.0000
  C   C3724     1.0  0.97031  0.74657  0.11158  1.0000
  H   H4460     1.0  0.91247  0.48528  0.11455  1.0000
  C   C3725     1.0  0.90974  0.66109  0.29382  1.0000
  H   H4461     1.0  0.96284  0.82316  0.10370  1.0000
  H   H4462     1.0  0.75014  0.92774  0.16055  1.0000
  H   H4463     1.0  0.93172  0.62289  0.29141  1.0000
  C   C3726     1.0  0.97970  0.61120  0.26026  1.0000
  C   C3727     1.0  0.97846  0.51598  0.25879  1.0000
  H   H4464     1.0  0.76167  0.82883  0.27150  1.0000
  H   H4465     1.0  0.96927  0.95779  0.09140  1.0000
  Fe  Fe499     1.0  0.74030  0.87605  0.07693  1.0000
  H   H4466     1.0  0.77160  0.91280  0.16457  1.0000
  H   H4467     1.0  0.75341  0.71891  0.19129  1.0000
  C   C3728     1.0  0.97809  0.61812  0.27601  1.0000
  H   H4468     1.0  0.74056  0.68679  0.09190  1.0000
  C   C3729     1.0  0.98181  0.62186  0.17498  1.0000
  C   C3730     1.0  0.81261  0.96696  0.29524  1.0000
  C   C3731     1.0  0.85243  0.48708  0.11336  1.0000
  C   C3732     1.0  0.97269  0.77834  0.09819  1.0000
  H   H4469     1.0  0.88531  0.96530  0.28828  1.0000
  H   H4470     1.0  0.76092  0.84785  0.28111  1.0000
  H   H4471     1.0  0.74086  0.84062  0.18258  1.0000
  H   H4472     1.0  0.73555  0.55978  0.10179  1.0000
  H   H4473     1.0  0.97740  0.73265  0.11776  1.0000
  H   H4474     1.0  0.75921  0.47926  0.12238  1.0000
  H   H4475     1.0  0.86046  0.50474  0.12578  1.0000
  C   C3733     1.0  0.97639  0.53661  0.17165  1.0000
  C   C3734     1.0  0.74016  0.56460  0.11165  1.0000
  N   N250      1.0  0.98304  0.75973  0.10481  1.0000
  C   C3735     1.0  0.91082  0.47738  0.12897  1.0000
  H   H4476     1.0  0.74345  0.64580  0.10904  1.0000
  H   H4477     1.0  0.97655  0.52667  0.18441  1.0000
  S   S1002     1.0  0.80294  0.94753  0.29852  1.0000
  C   C3736     1.0  0.97516  0.50689  0.14360  1.0000
  H   H4478     1.0  0.97359  0.65639  0.25006  1.0000
  H   H4479     1.0  0.98023  0.79319  0.11541  1.0000
  C   C3737     1.0  0.98050  0.85618  0.01255  1.0000
  H   H4480     1.0  0.97314  0.47774  0.24821  1.0000
  H   H4481     1.0  0.98236  0.76268  0.13228  1.0000
  H   H4482     1.0  0.74202  0.69759  0.24016  1.0000
  H   H4483     1.0  0.89451  0.96301  0.13698  1.0000
  H   H4484     1.0  0.95933  0.62789  0.29917  1.0000
  H   H4485     1.0  0.94031  0.54344  0.28793  1.0000
  C   C3738     1.0  0.75807  0.73599  0.97132  1.0000
  C   C3739     1.0  0.95902  0.72705  0.97069  1.0000
  C   C3740     1.0  0.98237  0.65578  0.22054  1.0000
  H   H4486     1.0  0.73573  0.59003  0.99117  1.0000
  H   H4487     1.0  0.79692  0.47424  0.16255  1.0000
  Fe  Fe500     1.0  0.84815  0.69532  0.39028  1.0000
  S   S1003     1.0  0.84268  0.72064  0.36862  1.0000
  S   S1004     1.0  0.86720  0.66853  0.38566  1.0000
  Fe  Fe501     1.0  0.82456  0.71386  0.42141  1.0000
  S   S1005     1.0  0.81705  0.74085  0.40242  1.0000
  S   S1006     1.0  0.81875  0.70968  0.45232  1.0000
  Fe  Fe502     1.0  0.81343  0.72349  0.38429  1.0000
  S   S1007     1.0  0.79045  0.73249  0.36835  1.0000
  Fe  Fe503     1.0  0.84684  0.73566  0.38844  1.0000
  S   S1008     1.0  0.86505  0.75666  0.37905  1.0000
  S   S1009     1.0  0.81845  0.69680  0.40460  1.0000
  S   S1010     1.0  0.85474  0.71009  0.40876  1.0000
  H   H4488     1.0  0.76724  0.73404  0.34333  1.0000
  H   H4489     1.0  0.77348  0.67044  0.58513  1.0000
  S   S1011     1.0  0.88489  0.88961  0.56322  1.0000
  H   H4490     1.0  0.83814  0.92806  0.59750  1.0000
  Fe  Fe504     1.0  0.85100  0.86399  0.60140  1.0000
  S   S1012     1.0  0.84711  0.87317  0.57226  1.0000
  H   H4491     1.0  0.90698  0.74221  0.36124  1.0000
  Fe  Fe505     1.0  0.87758  0.86274  0.56491  1.0000
  S   S1013     1.0  0.89096  0.84564  0.54345  1.0000
  Fe  Fe506     1.0  0.85471  0.89921  0.57342  1.0000
  S   S1014     1.0  0.84010  0.92643  0.55961  1.0000
  S   S1015     1.0  0.88109  0.85143  0.59404  1.0000
  Fe  Fe507     1.0  0.76956  0.92621  0.36244  1.0000
  S   S1016     1.0  0.77818  0.90911  0.38836  1.0000
  S   S1017     1.0  0.73932  0.93684  0.36408  1.0000
  H   H4492     1.0  0.78254  0.95981  0.38756  1.0000
  Fe  Fe508     1.0  0.90853  0.84282  0.42177  1.0000
  S   S1018     1.0  0.89086  0.87098  0.42150  1.0000
  S   S1019     1.0  0.93946  0.83846  0.41250  1.0000
  Fe  Fe509     1.0  0.87574  0.82399  0.43240  1.0000
  S   S1020     1.0  0.85530  0.85051  0.43310  1.0000
  S   S1021     1.0  0.86387  0.79826  0.44097  1.0000
  Fe  Fe510     1.0  0.87363  0.86182  0.40711  1.0000
  S   S1022     1.0  0.86407  0.88012  0.38179  1.0000
  Fe  Fe511     1.0  0.87396  0.85753  0.44750  1.0000
  S   S1023     1.0  0.86014  0.87332  0.47008  1.0000
  S   S1024     1.0  0.89267  0.83462  0.40511  1.0000
  S   S1025     1.0  0.89312  0.82995  0.44908  1.0000
  C   C3741     1.0  0.96234  0.84991  0.44951  1.0000
  H   H4493     1.0  0.84552  0.69619  0.30260  1.0000
  S   S1026     1.0  0.80006  0.69757  0.62102  1.0000
  C   C3742     1.0  0.93058  0.88129  0.47919  1.0000
  H   H4494     1.0  0.87620  0.96474  0.60005  1.0000
  C   C3743     1.0  0.86874  0.80428  0.55907  1.0000
  Fe  Fe512     1.0  0.84289  0.49401  0.61153  1.0000
  C   C3744     1.0  0.90457  0.96740  0.31292  1.0000
  C   C3745     1.0  0.76138  0.80336  0.30384  1.0000
  Fe  Fe513     1.0  0.76364  0.67718  0.30935  1.0000
  H   H4495     1.0  0.90026  0.48212  0.56207  1.0000
  H   H4496     1.0  0.91734  0.91852  0.57259  1.0000
  S   S1027     1.0  0.78613  0.67377  0.32512  1.0000
  C   C3746     1.0  0.88771  0.47694  0.59091  1.0000
  H   H4497     1.0  0.88162  0.68668  0.32369  1.0000
  S   S1028     1.0  0.77728  0.95353  0.34890  1.0000
  C   C3747     1.0  0.77840  0.93736  0.42001  1.0000
  H   H4498     1.0  0.78860  0.74172  0.51788  1.0000
  S   S1029     1.0  0.74605  0.64055  0.58378  1.0000
  C   C3748     1.0  0.80167  0.90098  0.61983  1.0000
  S   S1030     1.0  0.77372  0.91605  0.33643  1.0000
  S   S1031     1.0  0.79605  0.61257  0.56655  1.0000
  C   C3749     1.0  0.78590  0.61759  0.61903  1.0000
  S   S1032     1.0  0.83621  0.76635  0.62308  1.0000
  C   C3750     1.0  0.94026  0.73746  0.37360  1.0000
  H   H4499     1.0  0.94796  0.69105  0.37590  1.0000
  C   C3751     1.0  0.79768  0.68529  0.35043  1.0000
  C   C3752     1.0  0.76521  0.72783  0.49285  1.0000
  H   H4500     1.0  0.94928  0.91698  0.57265  1.0000
  H   H4501     1.0  0.78887  0.96168  0.43314  1.0000
  C   C3753     1.0  0.94471  0.94336  0.57965  1.0000
  H   H4502     1.0  0.85542  0.91273  0.39992  1.0000
  C   C3754     1.0  0.84490  0.94367  0.34461  1.0000
  H   H4503     1.0  0.92146  0.85151  0.50510  1.0000
  C   C3755     1.0  0.79561  0.95103  0.39128  1.0000
  C   C3756     1.0  0.90758  0.72712  0.36498  1.0000
  C   C3757     1.0  0.74676  0.55298  0.56824  1.0000
  C   C3758     1.0  0.82766  0.92871  0.40416  1.0000
  S   S1033     1.0  0.97588  0.96383  0.59492  1.0000
  C   C3759     1.0  0.78508  0.68258  0.60098  1.0000
  C   C3760     1.0  0.88287  0.93100  0.57643  1.0000
  S   S1034     1.0  0.94160  0.68227  0.33027  1.0000
  H   H4504     1.0  0.86918  0.80559  0.57309  1.0000
  H   H4505     1.0  0.76146  0.74327  0.54026  1.0000
  S   S1035     1.0  0.75344  0.65162  0.31100  1.0000
  H   H4506     1.0  0.81553  0.89351  0.61396  1.0000
  C   C3761     1.0  0.94257  0.88966  0.46370  1.0000
  H   H4507     1.0  0.84566  0.64621  0.32255  1.0000
  C   C3762     1.0  0.97284  0.72410  0.36678  1.0000
  C   C3763     1.0  0.75273  0.70941  0.60164  1.0000
  H   H4508     1.0  0.86084  0.95139  0.59842  1.0000
  H   H4509     1.0  0.73652  0.71811  0.52187  1.0000
  C   C3764     1.0  0.77472  0.70759  0.33546  1.0000
  H   H4510     1.0  0.82856  0.93287  0.38949  1.0000
  C   C3765     1.0  0.78782  0.74525  0.47324  1.0000
  H   H4511     1.0  0.74528  0.72906  0.55267  1.0000
  C   C3766     1.0  0.78430  0.55733  0.60118  1.0000
  C   C3767     1.0  0.80244  0.55925  0.59298  1.0000
  C   C3768     1.0  0.80600  0.57622  0.58219  1.0000
  C   C3769     1.0  0.79143  0.59121  0.57943  1.0000
  C   C3770     1.0  0.77328  0.58919  0.58750  1.0000
  C   C3771     1.0  0.76976  0.57233  0.59845  1.0000
  H   H4512     1.0  0.81374  0.54770  0.59497  1.0000
  H   H4513     1.0  0.82007  0.57774  0.57598  1.0000
  H   H4514     1.0  0.73762  0.96629  0.38793  1.0000
  H   H4515     1.0  0.76587  0.94496  0.41440  1.0000
  H   H4516     1.0  0.93988  0.49121  0.56550  1.0000
  C   C3772     1.0  0.80201  0.90094  0.38623  1.0000
  C   C3773     1.0  0.81407  0.90433  0.36927  1.0000
  C   C3774     1.0  0.83312  0.89762  0.36796  1.0000
  C   C3775     1.0  0.84013  0.88782  0.38362  1.0000
  C   C3776     1.0  0.82802  0.88462  0.40055  1.0000
  C   C3777     1.0  0.80900  0.89110  0.40184  1.0000
  H   H4517     1.0  0.80872  0.91186  0.35713  1.0000
  H   H4518     1.0  0.84244  0.89997  0.35478  1.0000
  H   H4519     1.0  0.83327  0.87759  0.41275  1.0000
  H   H4520     1.0  0.79972  0.88862  0.41502  1.0000
  H   H4521     1.0  0.78282  0.91268  0.58174  1.0000
  C   C3778     1.0  0.85255  0.66666  0.34256  1.0000
  H   H4522     1.0  0.85963  0.67526  0.34709  1.0000
  H   H4523     1.0  0.79799  0.93846  0.38558  1.0000
  C   C3779     1.0  0.87567  0.95128  0.59750  1.0000
  H   H4524     1.0  0.85832  0.82395  0.60615  1.0000
  H   H4525     1.0  0.86111  0.79085  0.60724  1.0000
  H   H4526     1.0  0.82897  0.83582  0.55725  1.0000
  C   C3780     1.0  0.92266  0.91634  0.62848  1.0000
  H   H4527     1.0  0.79503  0.75058  0.45957  1.0000
  N   N251      1.0  0.88718  0.94768  0.57957  1.0000
  H   H4528     1.0  0.91383  0.68022  0.30792  1.0000
  C   C3781     1.0  0.88178  0.85312  0.52346  1.0000
  C   C3782     1.0  0.88746  0.84244  0.50994  1.0000
  C   C3783     1.0  0.88086  0.84856  0.49352  1.0000
  C   C3784     1.0  0.86833  0.86522  0.49068  1.0000
  C   C3785     1.0  0.86236  0.87571  0.50439  1.0000
  C   C3786     1.0  0.86913  0.86972  0.52075  1.0000
  H   H4529     1.0  0.89713  0.82951  0.51206  1.0000
  H   H4530     1.0  0.88542  0.84030  0.48314  1.0000
  H   H4531     1.0  0.85268  0.88864  0.50224  1.0000
  H   H4532     1.0  0.86475  0.87808  0.53110  1.0000
  C   C3787     1.0  0.82557  0.94091  0.57403  1.0000
  C   C3788     1.0  0.81158  0.95471  0.56735  1.0000
  H   H4533     1.0  0.80673  0.95882  0.38399  1.0000
  H   H4534     1.0  0.89023  0.96119  0.55112  1.0000
  C   C3789     1.0  0.81505  0.94967  0.60379  1.0000
  C   C3790     1.0  0.82734  0.93849  0.59225  1.0000
  H   H4535     1.0  0.81016  0.95664  0.55326  1.0000
  C   C3791     1.0  0.90696  0.94591  0.57958  1.0000
  C   C3792     1.0  0.95051  0.84385  0.44191  1.0000
  H   H4536     1.0  0.88038  0.94053  0.60901  1.0000
  H   H4537     1.0  0.94167  0.83463  0.45053  1.0000
  C   C3793     1.0  0.80137  0.69761  0.46523  1.0000
  C   C3794     1.0  0.78781  0.69526  0.45718  1.0000
  Fe  Fe514     1.0  0.96768  0.66053  0.32960  1.0000
  H   H4538     1.0  0.84283  0.82938  0.57433  1.0000
  C   C3795     1.0  0.78663  0.68179  0.49491  1.0000
  C   C3796     1.0  0.80080  0.69078  0.48408  1.0000
  H   H4539     1.0  0.78807  0.70064  0.44268  1.0000
  H   H4540     1.0  0.79370  0.92626  0.58990  1.0000
  H   H4541     1.0  0.78647  0.67635  0.50933  1.0000
  H   H4542     1.0  0.81132  0.69254  0.49032  1.0000
  C   C3797     1.0  0.86558  0.76735  0.39660  1.0000
  C   C3798     1.0  0.85527  0.76276  0.41434  1.0000
  C   C3799     1.0  0.85529  0.77196  0.42802  1.0000
  C   C3800     1.0  0.86560  0.78578  0.42402  1.0000
  C   C3801     1.0  0.87637  0.78993  0.40642  1.0000
  C   C3802     1.0  0.87630  0.78078  0.39271  1.0000
  H   H4543     1.0  0.84708  0.75229  0.41749  1.0000
  H   H4544     1.0  0.84704  0.76859  0.44165  1.0000
  H   H4545     1.0  0.88464  0.80028  0.40331  1.0000
  H   H4546     1.0  0.88443  0.78425  0.37904  1.0000
  C   C3803     1.0  0.78837  0.71595  0.35705  1.0000
  C   C3804     1.0  0.79920  0.69827  0.35972  1.0000
  H   H4547     1.0  0.81640  0.94771  0.61790  1.0000
  C   C3805     1.0  0.95092  0.84892  0.42299  1.0000
  C   C3806     1.0  0.77026  0.72945  0.50895  1.0000
  H   H4548     1.0  0.80028  0.93105  0.44660  1.0000
  H   H4549     1.0  0.80861  0.69456  0.36909  1.0000
  S   S1036     1.0  0.96950  0.63047  0.33147  1.0000
  C   C3807     1.0  0.78258  0.69692  0.61020  1.0000
  C   C3808     1.0  0.92105  0.67740  0.34514  1.0000
  C   C3809     1.0  0.90523  0.69132  0.34526  1.0000
  C   C3810     1.0  0.88883  0.68863  0.35779  1.0000
  C   C3811     1.0  0.88789  0.67178  0.36992  1.0000
  C   C3812     1.0  0.90355  0.65757  0.36945  1.0000
  C   C3813     1.0  0.92021  0.66043  0.35718  1.0000
  H   H4550     1.0  0.90573  0.70434  0.33574  1.0000
  H   H4551     1.0  0.87690  0.69958  0.35784  1.0000
  H   H4552     1.0  0.90292  0.64446  0.37877  1.0000
  H   H4553     1.0  0.87886  0.81207  0.54912  1.0000
  H   H4554     1.0  0.93238  0.64960  0.35714  1.0000
  H   H4555     1.0  0.93471  0.92118  0.62866  1.0000
  C   C3814     1.0  0.84470  0.69159  0.31770  1.0000
  H   H4556     1.0  0.92979  0.74981  0.37437  1.0000
  Fe  Fe515     1.0  0.75271  0.65882  0.53084  1.0000
  C   C3815     1.0  0.96259  0.86060  0.41188  1.0000
  C   C3816     1.0  0.93806  0.89498  0.44627  1.0000
  C   C3817     1.0  0.90391  0.67347  0.30561  1.0000
  C   C3818     1.0  0.95871  0.73938  0.36875  1.0000
  H   H4557     1.0  0.75121  0.91036  0.30344  1.0000
  S   S1037     1.0  0.75434  0.66936  0.50035  1.0000
  Fe  Fe516     1.0  0.77917  0.94441  0.32269  1.0000
  C   C3819     1.0  0.78579  0.68999  0.33797  1.0000
  C   C3820     1.0  0.78414  0.73976  0.50632  1.0000
  C   C3821     1.0  0.87224  0.66809  0.31227  1.0000
  C   C3822     1.0  0.86360  0.93657  0.34437  1.0000
  H   H4558     1.0  0.94774  0.90071  0.43454  1.0000
  H   H4559     1.0  0.95432  0.89222  0.49471  1.0000
  C   C3823     1.0  0.77275  0.76458  0.30808  1.0000
  H   H4560     1.0  0.78509  0.69819  0.52893  1.0000
  H   H4561     1.0  0.76281  0.68496  0.46189  1.0000
  H   H4562     1.0  0.80687  0.90560  0.58313  1.0000
  H   H4563     1.0  0.74023  0.71984  0.60189  1.0000
  H   H4564     1.0  0.77029  0.73376  0.46321  1.0000
  S   S1038     1.0  0.81624  0.49171  0.60556  1.0000
  N   N252      1.0  0.84998  0.81131  0.55492  1.0000
  C   C3824     1.0  0.83747  0.79922  0.56714  1.0000
  C   C3825     1.0  0.85069  0.81129  0.53542  1.0000
  C   C3826     1.0  0.84551  0.82751  0.52243  1.0000
  C   C3827     1.0  0.85697  0.79461  0.52883  1.0000
  C   C3828     1.0  0.84660  0.82691  0.50408  1.0000
  C   C3829     1.0  0.85814  0.79423  0.51041  1.0000
  C   C3830     1.0  0.85300  0.81035  0.49805  1.0000
  H   H4565     1.0  0.83596  0.79950  0.58191  1.0000
  H   H4566     1.0  0.84256  0.78457  0.56603  1.0000
  H   H4567     1.0  0.82342  0.80354  0.56387  1.0000
  H   H4568     1.0  0.87389  0.78953  0.55844  1.0000
  H   H4569     1.0  0.84098  0.84093  0.52592  1.0000
  H   H4570     1.0  0.86122  0.78176  0.53786  1.0000
  H   H4571     1.0  0.84292  0.83950  0.49431  1.0000
  H   H4572     1.0  0.86319  0.78139  0.50561  1.0000
  H   H4573     1.0  0.85417  0.81005  0.48371  1.0000
  H   H4574     1.0  0.78232  0.64466  0.62426  1.0000
  C   C3831     1.0  0.84840  0.79859  0.61387  1.0000
  C   C3832     1.0  0.95449  0.48803  0.56580  1.0000
  H   H4575     1.0  0.75478  0.54887  0.55512  1.0000
  C   C3833     1.0  0.81586  0.81852  0.63142  1.0000
  C   C3834     1.0  0.83929  0.96127  0.33479  1.0000
  C   C3835     1.0  0.96809  0.53887  0.31799  1.0000
  C   C3836     1.0  0.96857  0.70685  0.36955  1.0000
  H   H4576     1.0  0.90686  0.96512  0.32716  1.0000
  H   H4577     1.0  0.90411  0.74311  0.39280  1.0000
  H   H4578     1.0  0.75122  0.58719  0.56282  1.0000
  H   H4579     1.0  0.89077  0.72596  0.40109  1.0000
  H   H4580     1.0  0.90370  0.87350  0.48735  1.0000
  H   H4581     1.0  0.78599  0.71607  0.53972  1.0000
  H   H4582     1.0  0.95672  0.87209  0.51243  1.0000
  H   H4583     1.0  0.97587  0.54602  0.34877  1.0000
  S   S1039     1.0  0.82853  0.85088  0.62156  1.0000
  C   C3837     1.0  0.75203  0.73517  0.53851  1.0000
  S   S1040     1.0  0.73835  0.69418  0.58099  1.0000
  H   H4584     1.0  0.85524  0.90105  0.43307  1.0000
  C   C3838     1.0  0.91365  0.87933  0.47619  1.0000
  H   H4585     1.0  0.86690  0.96466  0.56401  1.0000
  H   H4586     1.0  0.93881  0.84916  0.51762  1.0000
  H   H4587     1.0  0.97960  0.69503  0.36762  1.0000
  S   S1041     1.0  0.77926  0.53666  0.61546  1.0000
  H   H4588     1.0  0.75576  0.57095  0.60509  1.0000
  H   H4589     1.0  0.97893  0.81110  0.42402  1.0000
  H   H4590     1.0  0.89314  0.72516  0.36719  1.0000
  C   C3839     1.0  0.78876  0.59873  0.62637  1.0000
  H   H4591     1.0  0.77174  0.79844  0.32935  1.0000
  H   H4592     1.0  0.78469  0.62256  0.60472  1.0000
  H   H4593     1.0  0.91902  0.69144  0.37590  1.0000
  H   H4594     1.0  0.74715  0.95276  0.62869  1.0000
  C   C3840     1.0  0.81142  0.93416  0.41706  1.0000
  N   N253      1.0  0.91574  0.71844  0.38147  1.0000
  H   H4595     1.0  0.76439  0.72144  0.61767  1.0000
  C   C3841     1.0  0.90851  0.89813  0.61619  1.0000
  H   H4596     1.0  0.93623  0.96979  0.58702  1.0000
  H   H4597     1.0  0.86788  0.92277  0.35199  1.0000
  C   C3842     1.0  0.97439  0.86125  0.43828  1.0000
  C   C3843     1.0  0.90931  0.88462  0.45871  1.0000
  C   C3844     1.0  0.92062  0.93031  0.57544  1.0000
  S   S1042     1.0  0.85615  0.89108  0.60328  1.0000
  H   H4598     1.0  0.77064  0.70092  0.55097  1.0000
  N   N254      1.0  0.83037  0.83079  0.39399  1.0000
  C   C3845     1.0  0.81868  0.83310  0.41226  1.0000
  C   C3846     1.0  0.83154  0.81176  0.39204  1.0000
  C   C3847     1.0  0.84906  0.83317  0.39404  1.0000
  C   C3848     1.0  0.82322  0.84391  0.37837  1.0000
  C   C3849     1.0  0.83366  0.84443  0.36016  1.0000
  C   C3850     1.0  0.80581  0.85615  0.38057  1.0000
  C   C3851     1.0  0.82730  0.85677  0.34518  1.0000
  C   C3852     1.0  0.79949  0.86825  0.36544  1.0000
  C   C3853     1.0  0.81027  0.86869  0.34783  1.0000
  H   H4599     1.0  0.81729  0.84722  0.41452  1.0000
  H   H4600     1.0  0.80471  0.83025  0.41382  1.0000
  H   H4601     1.0  0.82478  0.82339  0.42371  1.0000
  H   H4602     1.0  0.81796  0.80966  0.39099  1.0000
  H   H4603     1.0  0.83592  0.80147  0.40402  1.0000
  H   H4604     1.0  0.84174  0.80820  0.37964  1.0000
  H   H4605     1.0  0.84906  0.84775  0.39364  1.0000
  H   H4606     1.0  0.85410  0.82485  0.40659  1.0000
  H   H4607     1.0  0.84689  0.83536  0.35741  1.0000
  H   H4608     1.0  0.79689  0.85695  0.39383  1.0000
  H   H4609     1.0  0.83570  0.85717  0.33145  1.0000
  H   H4610     1.0  0.78633  0.87774  0.36749  1.0000
  H   H4611     1.0  0.80546  0.87842  0.33624  1.0000
  H   H4612     1.0  0.91189  0.72288  0.40896  1.0000
  H   H4613     1.0  0.95908  0.94231  0.57989  1.0000
  H   H4614     1.0  0.88652  0.91878  0.58725  1.0000
  S   S1043     1.0  0.86756  0.49362  0.58794  1.0000
  C   C3854     1.0  0.97812  0.55991  0.34113  1.0000
  C   C3855     1.0  0.95017  0.70475  0.37446  1.0000
  H   H4615     1.0  0.98416  0.50604  0.51345  1.0000
  H   H4616     1.0  0.80912  0.56375  0.62672  1.0000
  C   C3856     1.0  0.97377  0.55607  0.31216  1.0000
  H   H4617     1.0  0.90888  0.95413  0.30812  1.0000
  N   N255      1.0  0.85290  0.67174  0.32249  1.0000
  N   N256      1.0  0.78769  0.90153  0.60921  1.0000
  N   N257      1.0  0.79451  0.94636  0.41151  1.0000
  H   H4618     1.0  0.78140  0.92317  0.41742  1.0000
  H   H4619     1.0  0.86793  0.93262  0.57666  1.0000
  H   H4620     1.0  0.74248  0.70317  0.54224  1.0000
  C   C3857     1.0  0.91307  0.69912  0.38723  1.0000
  H   H4621     1.0  0.85250  0.83944  0.55146  1.0000
  H   H4622     1.0  0.92442  0.88033  0.52506  1.0000
  C   C3858     1.0  0.77349  0.68646  0.46809  1.0000
  H   H4623     1.0  0.91583  0.72123  0.35286  1.0000
  S   S1044     1.0  0.75373  0.62890  0.54329  1.0000
  C   C3859     1.0  0.92410  0.90412  0.61708  1.0000
  C   C3860     1.0  0.79286  0.74739  0.48870  1.0000
  C   C3861     1.0  0.84085  0.66131  0.31848  1.0000
  H   H4624     1.0  0.75503  0.72005  0.49331  1.0000
  H   H4625     1.0  0.85165  0.70038  0.32213  1.0000
  H   H4626     1.0  0.77444  0.93632  0.43513  1.0000
  C   C3862     1.0  0.74842  0.70962  0.52799  1.0000
  Fe  Fe517     1.0  0.88594  0.87941  0.59311  1.0000
  C   C3863     1.0  0.93918  0.92917  0.57546  1.0000
  S   S1045     1.0  0.83024  0.51810  0.62551  1.0000
  C   C3864     1.0  0.87155  0.96495  0.32372  1.0000
  H   H4627     1.0  0.75675  0.55523  0.57547  1.0000
  C   C3865     1.0  0.75527  0.69503  0.59245  1.0000
  C   C3866     1.0  0.84323  0.82983  0.55959  1.0000
  H   H4628     1.0  0.91839  0.89592  0.43011  1.0000
  C   C3867     1.0  0.87683  0.94697  0.33406  1.0000
  C   C3868     1.0  0.83362  0.78981  0.62299  1.0000
  H   H4629     1.0  0.85964  0.82892  0.38221  1.0000
  N   N258      1.0  0.83407  0.64671  0.44753  1.0000
  C   C3869     1.0  0.84687  0.63078  0.44060  1.0000
  C   C3870     1.0  0.81940  0.65323  0.43647  1.0000
  C   C3871     1.0  0.84430  0.66176  0.44403  1.0000
  C   C3872     1.0  0.82687  0.64133  0.46755  1.0000
  C   C3873     1.0  0.83918  0.63484  0.47998  1.0000
  C   C3874     1.0  0.80774  0.64229  0.47532  1.0000
  C   C3875     1.0  0.83277  0.62957  0.49893  1.0000
  C   C3876     1.0  0.80150  0.63687  0.49427  1.0000
  C   C3877     1.0  0.81396  0.63057  0.50606  1.0000
  H   H4630     1.0  0.83984  0.61898  0.44336  1.0000
  H   H4631     1.0  0.85224  0.63432  0.42547  1.0000
  H   H4632     1.0  0.85918  0.62594  0.44706  1.0000
  H   H4633     1.0  0.81132  0.64248  0.43811  1.0000
  H   H4634     1.0  0.82528  0.65691  0.42149  1.0000
  H   H4635     1.0  0.80977  0.66582  0.44032  1.0000
  H   H4636     1.0  0.85685  0.65745  0.45009  1.0000
  H   H4637     1.0  0.84898  0.66696  0.42902  1.0000
  H   H4638     1.0  0.83547  0.67357  0.44999  1.0000
  H   H4639     1.0  0.85388  0.63387  0.47514  1.0000
  H   H4640     1.0  0.79719  0.64744  0.46716  1.0000
  H   H4641     1.0  0.84240  0.62473  0.50819  1.0000
  H   H4642     1.0  0.78683  0.63789  0.49989  1.0000
  H   H4643     1.0  0.80900  0.62657  0.52077  1.0000
  S   S1046     1.0  0.78924  0.75064  0.62638  1.0000
  H   H4644     1.0  0.76538  0.71128  0.32601  1.0000
  C   C3878     1.0  0.93173  0.95886  0.58368  1.0000
  C   C3879     1.0  0.93540  0.72003  0.37693  1.0000
  H   H4645     1.0  0.90366  0.97259  0.58667  1.0000
  Fe  Fe518     1.0  0.74391  0.92916  0.33671  1.0000
  H   H4646     1.0  0.89817  0.69829  0.39110  1.0000
  H   H4647     1.0  0.93733  0.89952  0.60869  1.0000
  H   H4648     1.0  0.85947  0.65209  0.34666  1.0000
  C   C3880     1.0  0.83061  0.82736  0.62209  1.0000
  Fe  Fe519     1.0  0.77033  0.63320  0.56157  1.0000
  C   C3881     1.0  0.97415  0.86687  0.41953  1.0000
  H   H4649     1.0  0.91992  0.89963  0.50657  1.0000
  C   C3882     1.0  0.77278  0.67983  0.48700  1.0000
  H   H4650     1.0  0.97281  0.52879  0.32937  1.0000
  C   C3883     1.0  0.84330  0.91707  0.40997  1.0000
  H   H4651     1.0  0.96459  0.56966  0.34277  1.0000
  H   H4652     1.0  0.83821  0.66844  0.35080  1.0000
  Fe  Fe520     1.0  0.74546  0.66946  0.56789  1.0000
  H   H4653     1.0  0.78956  0.58967  0.61735  1.0000
  Fe  Fe521     1.0  0.80340  0.51396  0.62179  1.0000
  H   H4654     1.0  0.89108  0.94052  0.33424  1.0000
  H   H4655     1.0  0.82637  0.66447  0.32614  1.0000
  C   C3884     1.0  0.79297  0.91192  0.59021  1.0000
  H   H4656     1.0  0.75501  0.69821  0.52049  1.0000
  H   H4657     1.0  0.91942  0.69169  0.39929  1.0000
  C   C3885     1.0  0.77513  0.77344  0.32087  1.0000
  H   H4658     1.0  0.80385  0.75469  0.48696  1.0000
  C   C3886     1.0  0.93518  0.85470  0.50381  1.0000
  H   H4659     1.0  0.90714  0.88148  0.51282  1.0000
  H   H4660     1.0  0.76199  0.60073  0.58560  1.0000
  S   S1047     1.0  0.77147  0.66242  0.54737  1.0000
  H   H4661     1.0  0.80332  0.91492  0.61999  1.0000
  C   C3887     1.0  0.96756  0.49102  0.54947  1.0000
  H   H4662     1.0  0.77335  0.82883  0.31600  1.0000
  S   S1048     1.0  0.74961  0.95662  0.32067  1.0000
  C   C3888     1.0  0.92108  0.88449  0.51107  1.0000
  H   H4663     1.0  0.94520  0.84678  0.49394  1.0000
  C   C3889     1.0  0.77144  0.68158  0.59217  1.0000
  C   C3890     1.0  0.77591  0.72050  0.34513  1.0000
  C   C3891     1.0  0.84324  0.91039  0.42863  1.0000
  H   H4664     1.0  0.80233  0.87606  0.60076  1.0000
  S   S1049     1.0  0.91092  0.88373  0.60076  1.0000
  N   N259      1.0  0.93515  0.87467  0.49772  1.0000
  H   H4665     1.0  0.74111  0.74494  0.53172  1.0000
  N   N260      1.0  0.76188  0.72078  0.52774  1.0000
  Fe  Fe522     1.0  0.74714  0.96332  0.34817  1.0000
  C   C3892     1.0  0.95355  0.87740  0.49843  1.0000
  C   C3893     1.0  0.77654  0.70849  0.53718  1.0000
  C   C3894     1.0  0.76637  0.71034  0.61057  1.0000
  H   H4666     1.0  0.96208  0.75284  0.36626  1.0000
  H   H4667     1.0  0.96481  0.86997  0.48891  1.0000
  H   H4668     1.0  0.82986  0.69467  0.32449  1.0000
  C   C3895     1.0  0.79900  0.96562  0.57903  1.0000
  H   H4669     1.0  0.80565  0.67148  0.35300  1.0000
  H   H4670     1.0  0.95580  0.89177  0.46446  1.0000
  H   H4671     1.0  0.83472  0.93546  0.35223  1.0000
  C   C3896     1.0  0.77386  0.73572  0.47533  1.0000
  C   C3897     1.0  0.84685  0.81733  0.61326  1.0000
  C   C3898     1.0  0.76935  0.91074  0.61810  1.0000
  H   H4672     1.0  0.82749  0.63325  0.62437  1.0000
  C   C3899     1.0  0.90532  0.72797  0.39673  1.0000
  C   C3900     1.0  0.92159  0.89225  0.44373  1.0000
  H   H4673     1.0  0.89642  0.88260  0.45676  1.0000
  C   C3901     1.0  0.91314  0.96024  0.58355  1.0000
  C   C3902     1.0  0.95621  0.53437  0.30930  1.0000
  C   C3903     1.0  0.80073  0.96307  0.59726  1.0000
  H   H4674     1.0  0.89024  0.92797  0.56272  1.0000
  C   C3904     1.0  0.88545  0.67701  0.31464  1.0000
  H   H4675     1.0  0.97921  0.59000  0.31463  1.0000
  H   H4676     1.0  0.75357  0.84675  0.31328  1.0000
  H   H4677     1.0  0.75068  0.82597  0.32956  1.0000
  H   H4678     1.0  0.77689  0.74976  0.30978  1.0000
  H   H4679     1.0  0.95202  0.52118  0.31402  1.0000
  H   H4680     1.0  0.79765  0.67223  0.60061  1.0000
  H   H4681     1.0  0.96253  0.84543  0.46398  1.0000
  H   H4682     1.0  0.96289  0.86461  0.39725  1.0000
  H   H4683     1.0  0.75046  0.58261  0.54136  1.0000
  H   H4684     1.0  0.80298  0.97092  0.41202  1.0000
  H   H4685     1.0  0.78112  0.76536  0.33256  1.0000
  C   C3905     1.0  0.76638  0.92930  0.61989  1.0000
  H   H4686     1.0  0.97998  0.79423  0.40167  1.0000
  C   C3906     1.0  0.97882  0.47614  0.58301  1.0000
  Fe  Fe523     1.0  0.96245  0.96236  0.62473  1.0000
  C   C3907     1.0  0.74911  0.93847  0.62779  1.0000
  H   H4687     1.0  0.87945  0.89916  0.62687  1.0000
  H   H4688     1.0  0.77737  0.93699  0.61506  1.0000
  C   C3908     1.0  0.85236  0.97181  0.32460  1.0000
  C   C3909     1.0  0.89149  0.90395  0.62726  1.0000
  H   H4689     1.0  0.77838  0.88164  0.59997  1.0000
  H   H4690     1.0  0.98285  0.87601  0.41084  1.0000
  C   C3910     1.0  0.74003  0.90444  0.30265  1.0000
  C   C3911     1.0  0.81200  0.92738  0.43599  1.0000
  H   H4691     1.0  0.94993  0.47752  0.59499  1.0000
  C   C3912     1.0  0.78461  0.63002  0.62999  1.0000
  C   C3913     1.0  0.78845  0.88233  0.60792  1.0000
  C   C3914     1.0  0.75841  0.83152  0.31572  1.0000
  C   C3915     1.0  0.76960  0.79255  0.31884  1.0000
  H   H4692     1.0  0.82775  0.91022  0.45612  1.0000
  C   C3916     1.0  0.82765  0.91557  0.44161  1.0000
  H   H4693     1.0  0.82475  0.96667  0.33471  1.0000
  H   H4694     1.0  0.74099  0.54102  0.57709  1.0000
  C   C3917     1.0  0.88161  0.96323  0.56478  1.0000
  H   H4695     1.0  0.78596  0.87327  0.62178  1.0000
  C   C3918     1.0  0.73679  0.91113  0.63309  1.0000
  H   H4696     1.0  0.98097  0.82445  0.39210  1.0000
  C   C3919     1.0  0.81730  0.79979  0.63177  1.0000
  H   H4697     1.0  0.75496  0.88763  0.62477  1.0000
  C   C3920     1.0  0.79108  0.96384  0.41792  1.0000
  C   C3921     1.0  0.96011  0.48037  0.58248  1.0000
  C   C3922     1.0  0.75402  0.90180  0.62518  1.0000
  C   C3923     1.0  0.74181  0.58510  0.55486  1.0000
  H   H4698     1.0  0.84000  0.66491  0.30368  1.0000
  H   H4699     1.0  0.96219  0.49665  0.53704  1.0000
  N   N261      1.0  0.75516  0.82359  0.30127  1.0000
  C   C3924     1.0  0.73510  0.82851  0.30148  1.0000
  H   H4700     1.0  0.77852  0.97347  0.41383  1.0000
  S   S1050     1.0  0.73537  0.69516  0.31179  1.0000
  H   H4701     1.0  0.79792  0.89373  0.63436  1.0000
  H   H4702     1.0  0.97157  0.57927  0.77908  1.0000
  S   S1051     1.0  0.96053  0.74530  0.86607  1.0000
  C   C3925     1.0  0.83505  0.61722  0.64973  1.0000
  C   C3926     1.0  0.74295  0.48137  0.88436  1.0000
  S   S1052     1.0  0.94918  0.79064  0.86043  1.0000
  C   C3927     1.0  0.97877  0.85597  0.83993  1.0000
  H   H4703     1.0  0.74122  0.74761  0.95087  1.0000
  S   S1053     1.0  0.98031  0.81555  0.81351  1.0000
  Fe  Fe524     1.0  0.94158  0.76816  0.85121  1.0000
  S   S1054     1.0  0.91247  0.76366  0.85509  1.0000
  H   H4704     1.0  0.85698  0.72235  0.70107  1.0000
  S   S1055     1.0  0.96201  0.77073  0.82446  1.0000
  C   C3928     1.0  0.82850  0.63341  0.63819  1.0000
  H   H4705     1.0  0.98024  0.64835  0.80679  1.0000
  H   H4706     1.0  0.90787  0.49742  0.78792  1.0000
  H   H4707     1.0  0.96716  0.50440  0.73922  1.0000
  C   C3929     1.0  0.77895  0.64570  0.82460  1.0000
  C   C3930     1.0  0.82643  0.65206  0.69851  1.0000
  S   S1056     1.0  0.93503  0.95620  0.67494  1.0000
  H   H4708     1.0  0.87703  0.92012  0.64782  1.0000
  S   S1057     1.0  0.93638  0.81582  0.95516  1.0000
  H   H4709     1.0  0.93229  0.57302  0.79902  1.0000
  H   H4710     1.0  0.96427  0.60249  0.76801  1.0000
  H   H4711     1.0  0.80326  0.82620  0.63829  1.0000
  S   S1058     1.0  0.82890  0.49665  0.67997  1.0000
  C   C3931     1.0  0.95196  0.70967  0.84665  1.0000
  Fe  Fe525     1.0  0.83122  0.71750  0.82422  1.0000
  H   H4712     1.0  0.87904  0.50126  0.82304  1.0000
  S   S1059     1.0  0.95464  0.51481  0.80221  1.0000
  H   H4713     1.0  0.87801  0.75484  0.66106  1.0000
  S   S1060     1.0  0.85860  0.69852  0.82539  1.0000
  Fe  Fe526     1.0  0.83683  0.72333  0.78271  1.0000
  S   S1061     1.0  0.86480  0.70477  0.78008  1.0000
  S   S1062     1.0  0.82279  0.74038  0.75960  1.0000
  Fe  Fe527     1.0  0.85154  0.68631  0.80491  1.0000
  S   S1063     1.0  0.85631  0.65547  0.80968  1.0000
  Fe  Fe528     1.0  0.86954  0.71859  0.80073  1.0000
  S   S1064     1.0  0.89684  0.72716  0.79636  1.0000
  S   S1065     1.0  0.82308  0.70367  0.80582  1.0000
  S   S1066     1.0  0.84267  0.73877  0.80128  1.0000
  Fe  Fe529     1.0  0.84795  0.56622  0.72604  1.0000
  S   S1067     1.0  0.86273  0.54177  0.74372  1.0000
  S   S1068     1.0  0.84016  0.56833  0.69890  1.0000
  Fe  Fe530     1.0  0.84980  0.59322  0.74852  1.0000
  S   S1069     1.0  0.86490  0.57135  0.76802  1.0000
  S   S1070     1.0  0.84228  0.62393  0.74682  1.0000
  Fe  Fe531     1.0  0.88149  0.56034  0.74322  1.0000
  S   S1071     1.0  0.91249  0.55229  0.73705  1.0000
  Fe  Fe532     1.0  0.84487  0.55450  0.76729  1.0000
  S   S1072     1.0  0.83361  0.53877  0.79521  1.0000
  S   S1073     1.0  0.86826  0.58374  0.72363  1.0000
  S   S1074     1.0  0.82831  0.57740  0.74970  1.0000
  C   C3932     1.0  0.80477  0.69372  0.93491  1.0000
  H   H4714     1.0  0.86587  0.71724  0.73038  1.0000
  H   H4715     1.0  0.95050  0.87942  0.81422  1.0000
  C   C3933     1.0  0.81313  0.76637  0.90633  1.0000
  H   H4716     1.0  0.83425  0.66259  0.68946  1.0000
  Fe  Fe533     1.0  0.80239  0.72307  0.67326  1.0000
  S   S1075     1.0  0.81228  0.70413  0.69821  1.0000
  H   H4717     1.0  0.86103  0.51051  0.78000  1.0000
  S   S1076     1.0  0.79638  0.75389  0.66647  1.0000
  C   C3934     1.0  0.75079  0.97186  0.65940  1.0000
  H   H4718     1.0  0.77891  0.54942  0.65674  1.0000
  H   H4719     1.0  0.83833  0.78306  0.87734  1.0000
  C   C3935     1.0  0.80831  0.67940  0.90897  1.0000
  C   C3936     1.0  0.82313  0.52020  0.79705  1.0000
  C   C3937     1.0  0.81818  0.50933  0.81446  1.0000
  H   H4720     1.0  0.82728  0.77248  0.66368  1.0000
  C   C3938     1.0  0.80658  0.49008  0.80106  1.0000
  C   C3939     1.0  0.81161  0.50091  0.78360  1.0000
  C   C3940     1.0  0.81997  0.51590  0.78157  1.0000
  H   H4721     1.0  0.81820  0.66247  0.63534  1.0000
  H   H4722     1.0  0.76773  0.69525  0.93553  1.0000
  H   H4723     1.0  0.80898  0.49774  0.77163  1.0000
  H   H4724     1.0  0.82374  0.52425  0.76810  1.0000
  C   C3941     1.0  0.81997  0.72996  0.74277  1.0000
  C   C3942     1.0  0.82739  0.71140  0.74253  1.0000
  C   C3943     1.0  0.82515  0.70364  0.72863  1.0000
  C   C3944     1.0  0.81528  0.71432  0.71515  1.0000
  C   C3945     1.0  0.80782  0.73283  0.71546  1.0000
  C   C3946     1.0  0.81024  0.74064  0.72919  1.0000
  H   H4725     1.0  0.83494  0.70308  0.75295  1.0000
  H   H4726     1.0  0.83107  0.68933  0.72837  1.0000
  H   H4727     1.0  0.80002  0.74113  0.70527  1.0000
  H   H4728     1.0  0.80449  0.75501  0.72936  1.0000
  C   C3947     1.0  0.85216  0.64684  0.79229  1.0000
  C   C3948     1.0  0.84731  0.65865  0.77638  1.0000
  C   C3949     1.0  0.84439  0.65144  0.76246  1.0000
  C   C3950     1.0  0.84604  0.63245  0.76453  1.0000
  C   C3951     1.0  0.85057  0.62067  0.78059  1.0000
  C   C3952     1.0  0.85369  0.62786  0.79442  1.0000
  H   H4729     1.0  0.84597  0.67332  0.77471  1.0000
  H   H4730     1.0  0.84085  0.66062  0.75008  1.0000
  H   H4731     1.0  0.85173  0.60603  0.78236  1.0000
  H   H4732     1.0  0.85740  0.61868  0.80676  1.0000
  C   C3953     1.0  0.94281  0.52382  0.78401  1.0000
  C   C3954     1.0  0.92344  0.52768  0.78763  1.0000
  C   C3955     1.0  0.91389  0.53628  0.77327  1.0000
  C   C3956     1.0  0.92373  0.54072  0.75527  1.0000
  C   C3957     1.0  0.94305  0.53639  0.75164  1.0000
  C   C3958     1.0  0.95257  0.52808  0.76599  1.0000
  H   H4733     1.0  0.91587  0.52461  0.80162  1.0000
  H   H4734     1.0  0.89898  0.53983  0.77614  1.0000
  H   H4735     1.0  0.95069  0.53979  0.73772  1.0000
  H   H4736     1.0  0.96750  0.52499  0.76308  1.0000
  C   C3959     1.0  0.83332  0.51617  0.68492  1.0000
  C   C3960     1.0  0.83129  0.51727  0.70333  1.0000
  C   C3961     1.0  0.83401  0.53298  0.70777  1.0000
  C   C3962     1.0  0.83865  0.54770  0.69377  1.0000
  C   C3963     1.0  0.84109  0.54644  0.67534  1.0000
  C   C3964     1.0  0.83856  0.53065  0.67091  1.0000
  H   H4737     1.0  0.82732  0.50607  0.71421  1.0000
  H   H4738     1.0  0.83207  0.53387  0.72201  1.0000
  H   H4739     1.0  0.84503  0.55767  0.66447  1.0000
  H   H4740     1.0  0.84081  0.52957  0.65670  1.0000
  H   H4741     1.0  0.86580  0.77769  0.66331  1.0000
  C   C3965     1.0  0.78629  0.62360  0.64830  1.0000
  H   H4742     1.0  0.96767  0.96390  0.93339  1.0000
  H   H4743     1.0  0.94053  0.85028  0.82376  1.0000
  H   H4744     1.0  0.77613  0.67095  0.84251  1.0000
  H   H4745     1.0  0.76089  0.96074  0.65409  1.0000
  Fe  Fe534     1.0  0.92996  0.94764  0.65101  1.0000
  Fe  Fe535     1.0  0.74175  0.66711  0.91102  1.0000
  H   H4746     1.0  0.98406  0.90862  0.76104  1.0000
  H   H4747     1.0  0.83645  0.73341  0.68120  1.0000
  C   C3966     1.0  0.96214  0.78625  0.94492  1.0000
  H   H4748     1.0  0.85853  0.97023  0.69607  1.0000
  C   C3967     1.0  0.89015  0.91579  0.63912  1.0000
  C   C3968     1.0  0.96904  0.94875  0.70867  1.0000
  C   C3969     1.0  0.80371  0.72009  0.94819  1.0000
  H   H4749     1.0  0.78520  0.66776  0.95295  1.0000
  H   H4750     1.0  0.96694  0.78482  0.95744  1.0000
  H   H4751     1.0  0.77062  0.75968  0.93069  1.0000
  H   H4752     1.0  0.95848  0.95497  0.70066  1.0000
  Fe  Fe536     1.0  0.81302  0.75140  0.63830  1.0000
  H   H4753     1.0  0.85613  0.78072  0.69376  1.0000
  H   H4754     1.0  0.76569  0.64964  0.81968  1.0000
  H   H4755     1.0  0.78291  0.57198  0.68119  1.0000
  C   C3970     1.0  0.90767  0.75434  0.83836  1.0000
  C   C3971     1.0  0.89220  0.74613  0.84262  1.0000
  C   C3972     1.0  0.88830  0.73830  0.82961  1.0000
  C   C3973     1.0  0.89998  0.73855  0.81230  1.0000
  C   C3974     1.0  0.91530  0.74694  0.80800  1.0000
  C   C3975     1.0  0.91912  0.75483  0.82096  1.0000
  H   H4756     1.0  0.88350  0.74548  0.85615  1.0000
  H   H4757     1.0  0.87657  0.73167  0.83306  1.0000
  H   H4758     1.0  0.92432  0.74724  0.79461  1.0000
  H   H4759     1.0  0.93084  0.76141  0.81739  1.0000
  Fe  Fe537     1.0  0.97134  0.79128  0.83471  1.0000
  S   S1077     1.0  0.79816  0.49421  0.64873  1.0000
  H   H4760     1.0  0.82259  0.56732  0.64120  1.0000
  C   C3976     1.0  0.87583  0.50384  0.77913  1.0000
  S   S1078     1.0  0.81124  0.72541  0.84933  1.0000
  H   H4761     1.0  0.77188  0.68439  0.91665  1.0000
  H   H4762     1.0  0.95361  0.87750  0.75722  1.0000
  H   H4763     1.0  0.93762  0.83404  0.80100  1.0000
  H   H4764     1.0  0.90417  0.75764  0.93966  1.0000
  H   H4765     1.0  0.96800  0.83097  0.84667  1.0000
  C   C3977     1.0  0.96544  0.77656  0.91618  1.0000
  C   C3978     1.0  0.97136  0.77460  0.93257  1.0000
  C   C3979     1.0  0.94089  0.80174  0.92458  1.0000
  C   C3980     1.0  0.94991  0.78986  0.91240  1.0000
  H   H4766     1.0  0.96667  0.92047  0.78722  1.0000
  H   H4767     1.0  0.92917  0.81236  0.92141  1.0000
  H   H4768     1.0  0.94513  0.79130  0.89990  1.0000
  C   C3981     1.0  0.79683  0.67671  0.75841  1.0000
  Fe  Fe538     1.0  0.82599  0.49663  0.65137  1.0000
  C   C3982     1.0  0.77961  0.67592  0.82735  1.0000
  C   C3983     1.0  0.94716  0.80011  0.94072  1.0000
  C   C3984     1.0  0.78276  0.75931  0.91969  1.0000
  C   C3985     1.0  0.79407  0.66544  0.93943  1.0000
  N   N262      1.0  0.95971  0.89918  0.77781  1.0000
  H   H4769     1.0  0.82802  0.65135  0.71276  1.0000
  H   H4770     1.0  0.77561  0.64231  0.83993  1.0000
  C   C3986     1.0  0.78967  0.68520  0.78815  1.0000
  C   C3987     1.0  0.82111  0.71248  0.95227  1.0000
  H   H4771     1.0  0.84510  0.73219  0.88792  1.0000
  C   C3988     1.0  0.80525  0.69035  0.85746  1.0000
  C   C3989     1.0  0.95071  0.87213  0.77186  1.0000
  H   H4772     1.0  0.81640  0.66485  0.81772  1.0000
  H   H4773     1.0  0.96575  0.71173  0.84707  1.0000
  H   H4774     1.0  0.90436  0.48047  0.80837  1.0000
  C   C3990     1.0  0.95298  0.88169  0.78454  1.0000
  C   C3991     1.0  0.94886  0.87346  0.80352  1.0000
  C   C3992     1.0  0.81021  0.56211  0.64125  1.0000
  H   H4775     1.0  0.78672  0.63261  0.82041  1.0000
  C   C3993     1.0  0.79197  0.69017  0.76899  1.0000
  C   C3994     1.0  0.97470  0.49741  0.72812  1.0000
  H   H4776     1.0  0.83344  0.78332  0.67852  1.0000
  C   C3995     1.0  0.77734  0.56452  0.65122  1.0000
  C   C3996     1.0  0.95536  0.73511  0.95322  1.0000
  C   C3997     1.0  0.94139  0.84743  0.79644  1.0000
  H   H4777     1.0  0.95055  0.49913  0.71779  1.0000
  H   H4778     1.0  0.98327  0.76420  0.93565  1.0000
  C   C3998     1.0  0.85821  0.76667  0.70127  1.0000
  C   C3999     1.0  0.97454  0.67389  0.84619  1.0000
  C   C4000     1.0  0.77724  0.68112  0.87673  1.0000
  H   H4779     1.0  0.79044  0.70457  0.76229  1.0000
  C   C4001     1.0  0.79202  0.66643  0.79731  1.0000
  C   C4002     1.0  0.86313  0.76331  0.71837  1.0000
  H   H4780     1.0  0.91380  0.77770  0.93718  1.0000
  H   H4781     1.0  0.80208  0.67171  0.90234  1.0000
  H   H4782     1.0  0.83921  0.60439  0.64487  1.0000
  C   C4003     1.0  0.80803  0.65392  0.82244  1.0000
  C   C4004     1.0  0.77036  0.69906  0.87963  1.0000
  N   N263      1.0  0.79631  0.68316  0.92665  1.0000
  C   C4005     1.0  0.74104  0.70950  0.74242  1.0000
  H   H4783     1.0  0.77051  0.70755  0.73695  1.0000
  Fe  Fe539     1.0  0.98154  0.74945  0.83999  1.0000
  H   H4784     1.0  0.79954  0.74469  0.87954  1.0000
  H   H4785     1.0  0.88021  0.51966  0.80341  1.0000
  H   H4786     1.0  0.97370  0.68016  0.85758  1.0000
  S   S1079     1.0  0.90376  0.93754  0.65394  1.0000
  C   C4006     1.0  0.84746  0.73980  0.67101  1.0000
  Fe  Fe540     1.0  0.79582  0.72006  0.63657  1.0000
  H   H4787     1.0  0.97191  0.89801  0.80075  1.0000
  C   C4007     1.0  0.94305  0.85663  0.80927  1.0000
  N   N264      1.0  0.87965  0.49370  0.79745  1.0000
  C   C4008     1.0  0.77783  0.69277  0.92277  1.0000
  H   H4788     1.0  0.95520  0.96288  0.73085  1.0000
  C   C4009     1.0  0.79557  0.71094  0.93966  1.0000
  H   H4789     1.0  0.94594  0.90885  0.75465  1.0000
  C   C4010     1.0  0.85885  0.73420  0.70506  1.0000
  H   H4790     1.0  0.83676  0.76758  0.84582  1.0000
  C   C4011     1.0  0.74702  0.73514  0.95953  1.0000
  N   N265      1.0  0.95294  0.70123  0.83088  1.0000
  H   H4791     1.0  0.97464  0.71412  0.81270  1.0000
  H   H4792     1.0  0.90834  0.64376  0.77572  1.0000
  S   S1080     1.0  0.82105  0.72075  0.64603  1.0000
  C   C4012     1.0  0.86955  0.47844  0.80573  1.0000
  H   H4793     1.0  0.82061  0.51259  0.82648  1.0000
  N   N266      1.0  0.78961  0.66072  0.81758  1.0000
  H   H4794     1.0  0.94827  0.91048  0.80235  1.0000
  H   H4795     1.0  0.92398  0.71303  0.83224  1.0000
  H   H4796     1.0  0.85907  0.51158  0.81320  1.0000
  H   H4797     1.0  0.93257  0.91516  0.77583  1.0000
  H   H4798     1.0  0.96703  0.48372  0.69267  1.0000
  H   H4799     1.0  0.93670  0.75273  0.93723  1.0000
  H   H4800     1.0  0.80135  0.63861  0.79176  1.0000
  H   H4801     1.0  0.80580  0.79311  0.63879  1.0000
  C   C4013     1.0  0.94674  0.91297  0.76728  1.0000
  H   H4802     1.0  0.82144  0.76465  0.68822  1.0000
  H   H4803     1.0  0.94631  0.70122  0.86000  1.0000
  N   N267      1.0  0.83073  0.75841  0.87540  1.0000
  S   S1081     1.0  0.97831  0.76284  0.90033  1.0000
  C   C4014     1.0  0.96506  0.68279  0.83158  1.0000
  C   C4015     1.0  0.80999  0.49427  0.81646  1.0000
  H   H4804     1.0  0.79821  0.55110  0.67675  1.0000
  C   C4016     1.0  0.79554  0.56632  0.67181  1.0000
  C   C4017     1.0  0.79781  0.65311  0.78602  1.0000
  H   H4805     1.0  0.81600  0.75923  0.85429  1.0000
  H   H4806     1.0  0.74310  0.74437  0.64100  1.0000
  N   N268      1.0  0.79337  0.57158  0.65232  1.0000
  H   H4807     1.0  0.76631  0.68268  0.82292  1.0000
  H   H4808     1.0  0.95208  0.72828  0.81349  1.0000
  C   C4018     1.0  0.86402  0.73100  0.72203  1.0000
  C   C4019     1.0  0.75791  0.71308  0.73169  1.0000
  C   C4020     1.0  0.84013  0.73908  0.87495  1.0000
  H   H4809     1.0  0.77232  0.74573  0.90433  1.0000
  H   H4810     1.0  0.83085  0.73083  0.87318  1.0000
  C   C4021     1.0  0.79481  0.67675  0.86591  1.0000
  H   H4811     1.0  0.75014  0.47931  0.87073  1.0000
  C   C4022     1.0  0.86429  0.76426  0.66147  1.0000
  C   C4023     1.0  0.83231  0.76975  0.67673  1.0000
  C   C4024     1.0  0.89984  0.48644  0.79506  1.0000
  C   C4025     1.0  0.79984  0.65822  0.76690  1.0000
  S   S1082     1.0  0.74576  0.76972  0.66234  1.0000
  H   H4812     1.0  0.88371  0.51512  0.77318  1.0000
  C   C4026     1.0  0.78377  0.75146  0.90486  1.0000
  H   H4813     1.0  0.81047  0.69243  0.89904  1.0000
  C   C4027     1.0  0.81447  0.75877  0.89079  1.0000
  H   H4814     1.0  0.85216  0.73815  0.86325  1.0000
  S   S1083     1.0  0.77752  0.72014  0.66448  1.0000
  N   N269      1.0  0.85005  0.75628  0.67620  1.0000
  H   H4815     1.0  0.77844  0.70611  0.91293  1.0000
  H   H4816     1.0  0.95862  0.71010  0.80119  1.0000
  H   H4817     1.0  0.78641  0.69632  0.79545  1.0000
  C   C4028     1.0  0.98088  0.94535  0.73627  1.0000
  C   C4029     1.0  0.96167  0.90730  0.79274  1.0000
  H   H4818     1.0  0.79626  0.73298  0.95215  1.0000
  H   H4819     1.0  0.82028  0.66361  0.66598  1.0000
  C   C4030     1.0  0.82479  0.76701  0.85763  1.0000
  H   H4820     1.0  0.98108  0.47510  0.81549  1.0000
  C   C4031     1.0  0.79940  0.75105  0.89068  1.0000
  H   H4821     1.0  0.95109  0.92652  0.76260  1.0000
  C   C4032     1.0  0.74321  0.71822  0.95914  1.0000
  C   C4033     1.0  0.90350  0.76944  0.94595  1.0000
  C   C4034     1.0  0.93389  0.69988  0.83087  1.0000
  C   C4035     1.0  0.97511  0.48541  0.70162  1.0000
  C   C4036     1.0  0.82262  0.68646  0.93907  1.0000
  H   H4822     1.0  0.96054  0.67894  0.80593  1.0000
  C   C4037     1.0  0.98384  0.83524  0.81905  1.0000
  C   C4038     1.0  0.86595  0.74552  0.72876  1.0000
  H   H4823     1.0  0.86449  0.77458  0.72378  1.0000
  C   C4039     1.0  0.96727  0.95330  0.72574  1.0000
  H   H4824     1.0  0.92889  0.68914  0.84253  1.0000
  C   C4040     1.0  0.87435  0.50707  0.80981  1.0000
  H   H4825     1.0  0.93271  0.69660  0.81792  1.0000
  N   N270      1.0  0.83329  0.63388  0.69304  1.0000
  C   C4041     1.0  0.85310  0.62811  0.69407  1.0000
  C   C4042     1.0  0.82294  0.62062  0.70670  1.0000
  C   C4043     1.0  0.83125  0.63402  0.67429  1.0000
  C   C4044     1.0  0.82451  0.65031  0.66219  1.0000
  C   C4045     1.0  0.83648  0.61747  0.66748  1.0000
  C   C4046     1.0  0.83060  0.69573  0.94764  1.0000
  H   H4826     1.0  0.85341  0.48261  0.78439  1.0000
  H   H4827     1.0  0.86078  0.76685  0.64765  1.0000
  H   H4828     1.0  0.86142  0.63748  0.68371  1.0000
  H   H4829     1.0  0.85534  0.62811  0.70788  1.0000
  H   H4830     1.0  0.85899  0.61395  0.69158  1.0000
  H   H4831     1.0  0.82890  0.60615  0.70528  1.0000
  H   H4832     1.0  0.80826  0.62361  0.70537  1.0000
  H   H4833     1.0  0.84318  0.74330  0.65749  1.0000
  H   H4834     1.0  0.84193  0.60457  0.67580  1.0000
  H   H4835     1.0  0.96440  0.82365  0.90243  1.0000
  H   H4836     1.0  0.88447  0.63817  0.76250  1.0000
  H   H4837     1.0  0.94277  0.72355  0.84568  1.0000
  N   N271      1.0  0.94483  0.58503  0.77165  1.0000
  C   C4047     1.0  0.93910  0.56911  0.78553  1.0000
  C   C4048     1.0  0.95351  0.57913  0.75389  1.0000
  C   C4049     1.0  0.95923  0.59057  0.77786  1.0000
  C   C4050     1.0  0.92837  0.59977  0.76933  1.0000
  C   C4051     1.0  0.92590  0.61708  0.77419  1.0000
  C   C4052     1.0  0.91396  0.59689  0.76233  1.0000
  C   C4053     1.0  0.91016  0.63069  0.77176  1.0000
  C   C4054     1.0  0.89838  0.61065  0.75983  1.0000
  C   C4055     1.0  0.89656  0.62754  0.76442  1.0000
  H   H4838     1.0  0.95107  0.55765  0.78784  1.0000
  H   H4839     1.0  0.75669  0.70257  0.88778  1.0000
  H   H4840     1.0  0.92915  0.56343  0.78130  1.0000
  H   H4841     1.0  0.94429  0.57305  0.74901  1.0000
  H   H4842     1.0  0.80751  0.57106  0.67363  1.0000
  H   H4843     1.0  0.95735  0.59092  0.74290  1.0000
  H   H4844     1.0  0.95414  0.59396  0.79178  1.0000
  H   H4845     1.0  0.87970  0.49466  0.76903  1.0000
  C   C4056     1.0  0.82322  0.64988  0.64442  1.0000
  H   H4846     1.0  0.93584  0.62044  0.77999  1.0000
  H   H4847     1.0  0.91454  0.58392  0.75877  1.0000
  C   C4057     1.0  0.78928  0.60471  0.65576  1.0000
  H   H4848     1.0  0.88755  0.60817  0.75443  1.0000
  H   H4849     1.0  0.86044  0.72930  0.66962  1.0000
  C   C4058     1.0  0.96539  0.49434  0.71606  1.0000
  H   H4850     1.0  0.83037  0.67334  0.93610  1.0000
  S   S1084     1.0  0.95970  0.93460  0.64227  1.0000
  H   H4851     1.0  0.82395  0.77229  0.90790  1.0000
  H   H4852     1.0  0.79657  0.77248  0.93228  1.0000
  C   C4059     1.0  0.75862  0.72389  0.71410  1.0000
  H   H4853     1.0  0.80453  0.64776  0.75858  1.0000
  C   C4060     1.0  0.74249  0.73117  0.70715  1.0000
  H   H4854     1.0  0.78186  0.71746  0.93737  1.0000
  H   H4855     1.0  0.80706  0.64922  0.83753  1.0000
  H   H4856     1.0  0.79885  0.68058  0.74355  1.0000
  Fe  Fe541     1.0  0.77300  0.75085  0.65521  1.0000
  H   H4857     1.0  0.88972  0.77859  0.94533  1.0000
  C   C4061     1.0  0.95986  0.71390  0.81383  1.0000
  H   H4858     1.0  0.85627  0.76844  0.86471  1.0000
  H   H4859     1.0  0.78804  0.68651  0.82525  1.0000
  H   H4860     1.0  0.78745  0.65719  0.93387  1.0000
  C   C4062     1.0  0.85570  0.75224  0.69416  1.0000
  S   S1085     1.0  0.76415  0.66390  0.88587  1.0000
  H   H4861     1.0  0.81612  0.64217  0.81591  1.0000
  S   S1086     1.0  0.74974  0.65148  0.93754  1.0000
  C   C4063     1.0  0.79833  0.70832  0.86018  1.0000
  H   H4862     1.0  0.77557  0.72658  0.87353  1.0000
  H   H4863     1.0  0.82205  0.67088  0.91066  1.0000
  N   N272      1.0  0.90651  0.76311  0.96514  1.0000
  H   H4864     1.0  0.86926  0.74300  0.74225  1.0000
  C   C4064     1.0  0.84456  0.76839  0.87681  1.0000
  H   H4865     1.0  0.82312  0.62100  0.72106  1.0000
  H   H4866     1.0  0.85083  0.76188  0.88911  1.0000
  H   H4867     1.0  0.81679  0.78126  0.85775  1.0000
  H   H4868     1.0  0.80744  0.65667  0.94214  1.0000
  H   H4869     1.0  0.80031  0.66280  0.86398  1.0000
  H   H4870     1.0  0.97265  0.85964  0.85315  1.0000
  C   C4065     1.0  0.79054  0.59166  0.64495  1.0000
  C   C4066     1.0  0.79745  0.76660  0.92050  1.0000
  C   C4067     1.0  0.78102  0.71263  0.87153  1.0000
  C   C4068     1.0  0.94510  0.85521  0.77777  1.0000
  H   H4871     1.0  0.81872  0.68690  0.84890  1.0000
  H   H4872     1.0  0.96596  0.73287  0.94113  1.0000
  H   H4873     1.0  0.96621  0.56836  0.75495  1.0000
  Fe  Fe542     1.0  0.96508  0.94587  0.66440  1.0000
  H   H4874     1.0  0.81151  0.65722  0.69825  1.0000
  Fe  Fe543     1.0  0.96992  0.76772  0.87304  1.0000
  H   H4875     1.0  0.82538  0.47765  0.74186  1.0000
  S   S1087     1.0  0.97008  0.97278  0.64614  1.0000
  H   H4876     1.0  0.94394  0.84790  0.76784  1.0000
  C   C4069     1.0  0.86755  0.97115  0.68218  1.0000
  C   C4070     1.0  0.97995  0.97007  0.93143  1.0000
  H   H4877     1.0  0.90415  0.47556  0.78671  1.0000
  H   H4878     1.0  0.78541  0.63336  0.65671  1.0000
  H   H4879     1.0  0.77178  0.72667  0.70579  1.0000
  H   H4880     1.0  0.84406  0.68973  0.95105  1.0000
  H   H4881     1.0  0.82708  0.71947  0.95932  1.0000
  H   H4882     1.0  0.96851  0.83558  0.87896  1.0000
  H   H4883     1.0  0.91796  0.78613  0.96463  1.0000
  H   H4884     1.0  0.97755  0.89209  0.75267  1.0000
  H   H4885     1.0  0.79057  0.60071  0.66999  1.0000
  H   H4886     1.0  0.97243  0.81100  0.88434  1.0000
  C   C4071     1.0  0.93832  0.74658  0.95117  1.0000
  C   C4072     1.0  0.90572  0.92216  0.63959  1.0000
  H   H4887     1.0  0.85986  0.96870  0.67274  1.0000
  C   C4073     1.0  0.97869  0.65556  0.81775  1.0000
  H   H4888     1.0  0.80614  0.48606  0.82996  1.0000
  H   H4889     1.0  0.74056  0.70114  0.75616  1.0000
  C   C4074     1.0  0.97614  0.83979  0.83629  1.0000
  H   H4890     1.0  0.87960  0.95946  0.68321  1.0000
  C   C4075     1.0  0.92431  0.75023  0.96673  1.0000
  C   C4076     1.0  0.97382  0.82323  0.88880  1.0000
  H   H4891     1.0  0.76426  0.57149  0.65903  1.0000
  C   C4077     1.0  0.96746  0.67306  0.81738  1.0000
  H   H4892     1.0  0.81286  0.54704  0.64675  1.0000
  C   C4078     1.0  0.97808  0.89601  0.76550  1.0000
  S   S1088     1.0  0.97771  0.95099  0.75787  1.0000
  Fe  Fe544     1.0  0.98428  0.51832  0.79433  1.0000
  H   H4893     1.0  0.74381  0.73963  0.69347  1.0000
  C   C4079     1.0  0.85679  0.47450  0.79725  1.0000
  H   H4894     1.0  0.96356  0.47542  0.84715  1.0000
  H   H4895     1.0  0.98402  0.83750  0.91202  1.0000
  C   C4080     1.0  0.98431  0.93597  0.70218  1.0000
  H   H4896     1.0  0.77560  0.56660  0.63683  1.0000
