data_image0
_chemical_formula_structural       FeSCFeSHFeSFeS2HFeS2FeSHFeSFeS3FeS2FeSFe2S3C3H4C6H5CH2C8H4C6H4C3H2NCHNH2CHC2H3C2H6CH3C2HC2HCHC2H2CH4C5H4C2HCSCHC2HSCNC9H14NSH2CH2C2NC2HCHCHCH4CH5CHSHCSC3SFeS2FeS2FeSFeS3FeS2FeS2FeCFeS3CHC6HNH2C8H2C6H4C6H4C6H4C3H4C2HNC2HCHCH3C3H3SH2CHC2HCHCHCH2C3HCH4CHC2NHCHC8H3CHCH6NH2C3HNH3NCHCH5CH3CH2SH2C2HCH7CH2C2H8CH4SH2FeS2CFeSCHFeS2FeHSFeSC2S2FeS2FeS2FeSFeS3C2HC6H4C6H4C2H2CH2CH3CH2C4H3NHCHC3HNCHCHSHC2H3CHC2H3NC3H2C2H2C2FeNHCHCHFeHFeHCH2C3H3CNHC2H2C2SH2C3H4CH4CNC9H10CHC2HCHCH2C2H4CH2CH3CH3CH3CHCHSH5C2HCH3SC2HCS2FeSCFeSFeHSHFeS2FeSHFeSFeS3FeS2FeSFe2S3C3H4C6H5CHNSHC6H4C6H3CHCSH5CH3SCHC3HCHNH3C8HCH5CH4NC8H13CHNCHC3HC2HCHC2H2C3NCHC3H2CH2SH8CHCH2SC2H3C2HCHCH2CH3CHCFeCH3CH2SH2C2HFeSCFeS2FeSFeS3FeS2FeS2FeHFeS3CHC6H4C6H4C6H4C6H4C7H3C2HC2HCH2CSCHCH4NHCHC2H5C2H2CH4CH4CH2C2SCHC2HCHC3H3NC9H14NC4NHSHCH4SH3C2HCHC2H2NFeSC2FeSCHFeS2FeS2FeSFeHS2FeSCFeS2FeSFeS3C2HC6H3C7H4C2FeC2H5CHCH2CH2CHCSHSC3H2NC9H16C3HC2H2C3HCHS2HNCHCH6CH6C2HCHSH3CHCNH2CHCHC2FeCHC4HCH2CH2CH3CHSH2CH3CSC2HCH4CHCH3FeS2FeSFeSCFeS2FeS2FeSFeCS2FeS2FeS2FeHFeS4H2FeHC6H4C6H3C2H3CH2CH2C2HC2HC2HC2H5C2H2C2NC2H2CH2C3H2C3H3NCHCH3C2HCHSNC6HSH7CH6C2HCHCHNCH2SHCH2C2H2SHNHCNHC2HC2H2CNHCH3C2HCH2CH3CHC3HSHCHCH2CH3C2H2C6H2C2HNHFeS2FeS2FeSFeS5FeS2FeSHFeCFeS3NCH3C6H4C6H2CHC3H2C6H4C6H3C8H2CH3CHCNC4HCHCH6CH4CHC2NH4CH2C2H2C2H2CH3CH2CH2C2H2NCHC2HCSHC2HCH16C2H2CH3CH3CHSC3H3C4H2SCH3C2HCHC2H4CH2SHCNH2FeS2CFeSHSFeS2FeS2FeHFeS3FeS2FeS2FeSFeS3HC3HCHC6H4C6H4CHCH4C6H4SH2C2H5C2H2SCH2CFeHCNHCHCHCHCHCHNC9H19NC7H10C3HC2H2CHNH5C2H3C4HCH2C2HC2H3NH3C3FeH3CHFeSFeS2FeSFeS2FeS2FeS2FeCFeHS2FeS2FeS2FeSFeS3H5C6H4C6H3C3H3NCH2CHC4HCHC2H2CH2CH3CHCH3CSCHC2H6NCSHNC6HC2H2CHCH2C2HCH3SHCH2CH2C2H5CH2CHNH2C3H4CHCH6C3HNH3C4H5CHCH4C3H4FeS2FeS2FeSFeS5FeS2CSHFeCFeS3H5C6H4C6H4C3HC7H4C6H4C7H2CNC9H14NCHC2FeHNHCH2CH2CH3CH4NC6H2CH4CH7CSH4C2HCHCH5CH2NH4SHC3H2SH3C2FeS2HFeSHSFeS2FeS2FeCFeS3FeS2FeS2FeSFeS3HC3H2C7H4C6SH4C2HC2HC6H6C2NC6H7CHCH3CH3CHC4H3CH2CH2CH2NC2SH4CFeH6CHC2H2C2NC6HCH11CHNC9H12CHCHCHCHCHN2H2CH2CH2CHCFeH2CH4
_chemical_formula_sum              "Fe128 S256 C960 H1152 N64"
_cell_length_a       37.988
_cell_length_b       39.7259
_cell_length_c       68.8657
_cell_angle_alpha    89.7929
_cell_angle_beta     90.0034
_cell_angle_gamma    89.4477

_space_group_name_H-M_alt    "P 1"
_space_group_IT_number       1

loop_
  _space_group_symop_operation_xyz
  'x, y, z'

loop_
  _atom_site_type_symbol
  _atom_site_label
  _atom_site_symmetry_multiplicity
  _atom_site_fract_x
  _atom_site_fract_y
  _atom_site_fract_z
  _atom_site_occupancy
  Fe  Fe1       1.0  0.35819  0.49175  0.07267  1.0000
  S   S1        1.0  0.40224  0.45614  0.08093  1.0000
  C   C1        1.0  0.37669  0.02289  0.19255  1.0000
  Fe  Fe2       1.0  0.33504  0.44802  0.03805  1.0000
  S   S2        1.0  0.37824  0.41009  0.04336  1.0000
  H   H1        1.0  0.15358  0.45864  0.29102  1.0000
  Fe  Fe3       1.0  0.36342  0.41466  0.07504  1.0000
  S   S3        1.0  0.34935  0.36647  0.09150  1.0000
  Fe  Fe4       1.0  0.41333  0.45478  0.04870  1.0000
  S   S4        1.0  0.46989  0.45844  0.03770  1.0000
  S   S5        1.0  0.31827  0.45072  0.06925  1.0000
  H   H2        1.0  0.14733  0.06677  0.33701  1.0000
  Fe  Fe5       1.0  0.41140  0.24751  0.17936  1.0000
  S   S6        1.0  0.36781  0.21253  0.17156  1.0000
  S   S7        1.0  0.42478  0.29657  0.16410  1.0000
  Fe  Fe6       1.0  0.43896  0.20052  0.21234  1.0000
  S   S8        1.0  0.39606  0.16294  0.20719  1.0000
  H   H3        1.0  0.13225  0.41516  0.26904  1.0000
  Fe  Fe7       1.0  0.40748  0.17046  0.17528  1.0000
  S   S9        1.0  0.42754  0.12911  0.15500  1.0000
  Fe  Fe8       1.0  0.36013  0.20869  0.20414  1.0000
  S   S10       1.0  0.30346  0.21430  0.21483  1.0000
  S   S11       1.0  0.45184  0.20626  0.18078  1.0000
  S   S12       1.0  0.40233  0.24556  0.21161  1.0000
  Fe  Fe9       1.0  0.18826  0.30788  0.29602  1.0000
  S   S13       1.0  0.14733  0.27032  0.28784  1.0000
  S   S14       1.0  0.24471  0.30567  0.28442  1.0000
  Fe  Fe10      1.0  0.13660  0.34838  0.32154  1.0000
  S   S15       1.0  0.09259  0.31262  0.31495  1.0000
  Fe  Fe11      1.0  0.13233  0.27106  0.31951  1.0000
  Fe  Fe12      1.0  0.11089  0.31506  0.28415  1.0000
  S   S16       1.0  0.07435  0.31748  0.25787  1.0000
  S   S17       1.0  0.17543  0.30642  0.32828  1.0000
  S   S18       1.0  0.15293  0.35283  0.29014  1.0000
  C   C2        1.0  0.03178  0.37238  0.26752  1.0000
  C   C3        1.0  0.04179  0.34899  0.25337  1.0000
  C   C4        1.0  0.47475  0.10773  0.28976  1.0000
  H   H4        1.0  0.04426  0.37171  0.28163  1.0000
  H   H5        1.0  0.16625  0.16630  0.31607  1.0000
  H   H6        1.0  0.24202  0.41148  0.04668  1.0000
  H   H7        1.0  0.38868  0.06594  0.17475  1.0000
  C   C5        1.0  0.28795  0.23945  0.23450  1.0000
  C   C6        1.0  0.25168  0.24012  0.23869  1.0000
  C   C7        1.0  0.23807  0.25994  0.25399  1.0000
  C   C8        1.0  0.26061  0.27946  0.26530  1.0000
  C   C9        1.0  0.29687  0.27897  0.26101  1.0000
  C   C10       1.0  0.31049  0.25914  0.24571  1.0000
  H   H8        1.0  0.23396  0.22508  0.23011  1.0000
  H   H9        1.0  0.21014  0.26013  0.25700  1.0000
  H   H10       1.0  0.31456  0.29409  0.26958  1.0000
  H   H11       1.0  0.33843  0.25902  0.24271  1.0000
  H   H12       1.0  0.19179  0.32105  0.02890  1.0000
  C   C11       1.0  0.02467  0.26093  0.29625  1.0000
  H   H13       1.0  0.43975  0.19677  0.13753  1.0000
  H   H14       1.0  0.49685  0.14511  0.17572  1.0000
  C   C12       1.0  0.48064  0.01407  0.32048  1.0000
  C   C13       1.0  0.40776  0.23947  0.09740  1.0000
  C   C14       1.0  0.40232  0.31640  0.14453  1.0000
  C   C15       1.0  0.41586  0.34639  0.13678  1.0000
  C   C16       1.0  0.39955  0.36251  0.12084  1.0000
  C   C17       1.0  0.36949  0.34867  0.11245  1.0000
  C   C18       1.0  0.35563  0.31889  0.12039  1.0000
  C   C19       1.0  0.37190  0.30283  0.13638  1.0000
  H   H15       1.0  0.43933  0.35715  0.14304  1.0000
  H   H16       1.0  0.41049  0.38538  0.11488  1.0000
  H   H17       1.0  0.33248  0.30795  0.11391  1.0000
  H   H18       1.0  0.36110  0.27989  0.14225  1.0000
  C   C20       1.0  0.37666  0.06791  0.10585  1.0000
  C   C21       1.0  0.35656  0.09200  0.11604  1.0000
  C   C22       1.0  0.37144  0.11072  0.13130  1.0000
  C   C23       1.0  0.40685  0.10594  0.13627  1.0000
  C   C24       1.0  0.42699  0.08207  0.12597  1.0000
  C   C25       1.0  0.41200  0.06306  0.11090  1.0000
  H   H19       1.0  0.32912  0.09576  0.11232  1.0000
  H   H20       1.0  0.35538  0.12849  0.13931  1.0000
  H   H21       1.0  0.45438  0.07809  0.12972  1.0000
  H   H22       1.0  0.42780  0.04466  0.10318  1.0000
  C   C26       1.0  0.43667  0.21867  0.12751  1.0000
  C   C27       1.0  0.09972  0.37138  0.01028  1.0000
  C   C28       1.0  0.42707  0.18132  0.10081  1.0000
  H   H23       1.0  0.47738  0.12501  0.23002  1.0000
  H   H24       1.0  0.35961  0.19142  0.10878  1.0000
  N   N1        1.0  0.09693  0.46127  0.29346  1.0000
  C   C29       1.0  0.18958  0.41778  0.03529  1.0000
  H   H25       1.0  0.43208  0.15980  0.11093  1.0000
  N   N2        1.0  0.41251  0.21105  0.11117  1.0000
  H   H26       1.0  0.47749  0.16093  0.29494  1.0000
  H   H27       1.0  0.13451  0.30408  0.03420  1.0000
  C   C30       1.0  0.06731  0.22644  0.27938  1.0000
  H   H28       1.0  0.46428  0.02349  0.02662  1.0000
  C   C31       1.0  0.21894  0.39895  0.04098  1.0000
  C   C32       1.0  0.07235  0.43347  0.23441  1.0000
  H   H29       1.0  0.02495  0.15250  0.33313  1.0000
  H   H30       1.0  0.13743  0.45758  0.31556  1.0000
  H   H31       1.0  0.04231  0.48384  0.27021  1.0000
  C   C33       1.0  0.37862  0.26325  0.06850  1.0000
  C   C34       1.0  0.06018  0.46655  0.26310  1.0000
  H   H32       1.0  0.37078  0.21325  0.07861  1.0000
  H   H33       1.0  0.36027  0.26066  0.05655  1.0000
  H   H34       1.0  0.07005  0.41784  0.30448  1.0000
  H   H35       1.0  0.47817  0.05462  0.28691  1.0000
  H   H36       1.0  0.02411  0.26417  0.25785  1.0000
  H   H37       1.0  0.42651  0.24000  0.13644  1.0000
  C   C35       1.0  0.48428  0.07552  0.29627  1.0000
  H   H38       1.0  0.09150  0.31075  0.02445  1.0000
  H   H39       1.0  0.46117  0.11095  0.27602  1.0000
  H   H40       1.0  0.07210  0.20361  0.27041  1.0000
  C   C36       1.0  0.08970  0.45242  0.27296  1.0000
  C   C37       1.0  0.10994  0.42801  0.26267  1.0000
  H   H41       1.0  0.13853  0.41813  0.02312  1.0000
  C   C38       1.0  0.00553  0.39675  0.26336  1.0000
  C   C39       1.0  0.28830  0.38005  0.00646  1.0000
  H   H42       1.0  0.04269  0.45463  0.30203  1.0000
  C   C40       1.0  0.42499  0.27088  0.09963  1.0000
  H   H43       1.0  0.02876  0.46792  0.23699  1.0000
  C   C41       1.0  0.39555  0.29380  0.07126  1.0000
  C   C42       1.0  0.01437  0.20123  0.29218  1.0000
  H   H44       1.0  0.07402  0.45148  0.32156  1.0000
  H   H45       1.0  0.38508  0.03479  0.20590  1.0000
  C   C43       1.0  0.06965  0.44580  0.30591  1.0000
  H   H46       1.0  0.47078  0.00944  0.30556  1.0000
  H   H47       1.0  0.38092  0.18248  0.13123  1.0000
  H   H48       1.0  0.37011  0.03969  0.14461  1.0000
  H   H49       1.0  0.08265  0.22335  0.29305  1.0000
  C   C44       1.0  0.38472  0.23636  0.08127  1.0000
  C   C45       1.0  0.37799  0.20198  0.11968  1.0000
  C   C46       1.0  0.48976  0.02007  0.01987  1.0000
  C   C47       1.0  0.21912  0.36415  0.03871  1.0000
  C   C48       1.0  0.48708  0.49013  0.02216  1.0000
  H   H50       1.0  0.11619  0.39915  0.23641  1.0000
  H   H51       1.0  0.13345  0.42134  0.30112  1.0000
  H   H52       1.0  0.36491  0.22436  0.12629  1.0000
  H   H53       1.0  0.31203  0.37678  0.01498  1.0000
  C   C49       1.0  0.16016  0.40192  0.02735  1.0000
  C   C50       1.0  0.18997  0.34801  0.03074  1.0000
  H   H54       1.0  0.46351  0.22492  0.12226  1.0000
  C   C51       1.0  0.10115  0.41868  0.24372  1.0000
  S   S19       1.0  0.48418  0.19839  0.23426  1.0000
  C   C52       1.0  0.37862  0.04042  0.17505  1.0000
  H   H55       1.0  0.45870  0.02535  0.32908  1.0000
  C   C53       1.0  0.49876  0.13012  0.23991  1.0000
  C   C54       1.0  0.01242  0.24094  0.26421  1.0000
  H   H56       1.0  0.13572  0.11174  0.31353  1.0000
  S   S20       1.0  0.35617  0.04376  0.08749  1.0000
  C   C55       1.0  0.09583  0.49837  0.29616  1.0000
  N   N3        1.0  0.30937  0.32229  0.19142  1.0000
  C   C56       1.0  0.33990  0.29894  0.19224  1.0000
  C   C57       1.0  0.27735  0.30177  0.18828  1.0000
  C   C58       1.0  0.31338  0.34482  0.17429  1.0000
  C   C59       1.0  0.30826  0.34218  0.20957  1.0000
  C   C60       1.0  0.28183  0.33788  0.22399  1.0000
  C   C61       1.0  0.33521  0.36565  0.21369  1.0000
  C   C62       1.0  0.28216  0.35652  0.24118  1.0000
  C   C63       1.0  0.33528  0.38413  0.23095  1.0000
  C   C64       1.0  0.30879  0.37955  0.24466  1.0000
  H   H57       1.0  0.33759  0.28160  0.20491  1.0000
  H   H58       1.0  0.34192  0.28333  0.17891  1.0000
  H   H59       1.0  0.36534  0.31241  0.19364  1.0000
  H   H60       1.0  0.27451  0.28195  0.19969  1.0000
  H   H61       1.0  0.27844  0.28791  0.17427  1.0000
  H   H62       1.0  0.25314  0.31777  0.18811  1.0000
  H   H63       1.0  0.33956  0.35709  0.17377  1.0000
  H   H64       1.0  0.31137  0.33083  0.16035  1.0000
  H   H65       1.0  0.29283  0.36500  0.17422  1.0000
  H   H66       1.0  0.26100  0.31972  0.22265  1.0000
  H   H67       1.0  0.35687  0.36944  0.20376  1.0000
  H   H68       1.0  0.26208  0.35241  0.25214  1.0000
  H   H69       1.0  0.35624  0.40177  0.23381  1.0000
  H   H70       1.0  0.30912  0.39347  0.25817  1.0000
  N   N4        1.0  0.12916  0.34862  0.01619  1.0000
  S   S21       1.0  0.29359  0.44844  0.01401  1.0000
  H   H71       1.0  0.03977  0.25777  0.30999  1.0000
  H   H72       1.0  0.07904  0.24820  0.27154  1.0000
  C   C65       1.0  0.15952  0.36638  0.02481  1.0000
  H   H73       1.0  0.01630  0.22083  0.25319  1.0000
  H   H74       1.0  0.19004  0.44495  0.03677  1.0000
  C   C66       1.0  0.02748  0.18963  0.31033  1.0000
  C   C67       1.0  0.17239  0.14605  0.32617  1.0000
  N   N5        1.0  0.02919  0.23179  0.28303  1.0000
  C   C68       1.0  0.36779  0.02522  0.15782  1.0000
  C   C69       1.0  0.02512  0.35013  0.23513  1.0000
  H   H75       1.0  0.38999  0.31504  0.06175  1.0000
  C   C70       1.0  0.05204  0.45751  0.24404  1.0000
  H   H76       1.0  0.44244  0.27612  0.11161  1.0000
  C   C71       1.0  0.13193  0.44926  0.30042  1.0000
  H   H77       1.0  0.24245  0.34976  0.04272  1.0000
  C   C72       1.0  0.15512  0.11538  0.32485  1.0000
  H   H78       1.0  0.03417  0.28470  0.28946  1.0000
  H   H79       1.0  0.06500  0.42548  0.21994  1.0000
  H   H80       1.0  0.03261  0.33212  0.22409  1.0000
  H   H81       1.0  0.10690  0.33669  0.04406  1.0000
  C   C73       1.0  0.48399  0.13598  0.30042  1.0000
  H   H82       1.0  0.04819  0.20282  0.31779  1.0000
  H   H83       1.0  0.04707  0.21713  0.00553  1.0000
  H   H84       1.0  0.43151  0.32154  0.08889  1.0000
  H   H85       1.0  0.45238  0.18746  0.09353  1.0000
  H   H86       1.0  0.40884  0.17173  0.08952  1.0000
  C   C74       1.0  0.41900  0.29742  0.08662  1.0000
  H   H87       1.0  0.08865  0.38529  0.02291  1.0000
  S   S22       1.0  0.37143  0.49221  0.04082  1.0000
  H   H88       1.0  0.32561  0.02325  0.12557  1.0000
  C   C75       1.0  0.01430  0.16073  0.31926  1.0000
  S   S23       1.0  0.11319  0.22220  0.33344  1.0000
  C   C76       1.0  0.11496  0.32401  0.03035  1.0000
  C   C77       1.0  0.16214  0.08973  0.33832  1.0000
  C   C78       1.0  0.44076  0.23024  0.64845  1.0000
  S   S24       1.0  0.18280  0.49581  0.39813  1.0000
  Fe  Fe13      1.0  0.42594  0.20213  0.53850  1.0000
  S   S25       1.0  0.38178  0.23716  0.54664  1.0000
  S   S26       1.0  0.45229  0.21030  0.50907  1.0000
  Fe  Fe14      1.0  0.41178  0.15659  0.57425  1.0000
  S   S27       1.0  0.36626  0.18862  0.58449  1.0000
  S   S28       1.0  0.43548  0.11080  0.58978  1.0000
  Fe  Fe15      1.0  0.35089  0.19006  0.55268  1.0000
  S   S29       1.0  0.29550  0.18871  0.53999  1.0000
  Fe  Fe16      1.0  0.40114  0.23268  0.57743  1.0000
  S   S30       1.0  0.41839  0.27782  0.59556  1.0000
  S   S31       1.0  0.39401  0.15518  0.54298  1.0000
  S   S32       1.0  0.44770  0.20046  0.56874  1.0000
  Fe  Fe17      1.0  0.11070  0.06432  0.45662  1.0000
  S   S33       1.0  0.15420  0.02697  0.46218  1.0000
  S   S34       1.0  0.05722  0.06243  0.47182  1.0000
  Fe  Fe18      1.0  0.15630  0.10698  0.42917  1.0000
  S   S35       1.0  0.20271  0.07226  0.43353  1.0000
  S   S36       1.0  0.17165  0.15320  0.41128  1.0000
  Fe  Fe19      1.0  0.16419  0.03025  0.42998  1.0000
  C   C79       1.0  0.49046  0.23481  0.50465  1.0000
  Fe  Fe20      1.0  0.18903  0.07228  0.46516  1.0000
  S   S37       1.0  0.23121  0.07053  0.48880  1.0000
  S   S38       1.0  0.11801  0.06480  0.42394  1.0000
  S   S39       1.0  0.14505  0.10978  0.46136  1.0000
  C   C80       1.0  0.46443  0.33131  0.52854  1.0000
  H   H89       1.0  0.22180  0.03617  0.34807  1.0000
  C   C81       1.0  0.15395  0.17226  0.38992  1.0000
  C   C82       1.0  0.12531  0.15889  0.37986  1.0000
  C   C83       1.0  0.11303  0.17460  0.36269  1.0000
  C   C84       1.0  0.12897  0.20398  0.35547  1.0000
  C   C85       1.0  0.15735  0.21750  0.36564  1.0000
  C   C86       1.0  0.16981  0.20163  0.38270  1.0000
  H   H90       1.0  0.11258  0.13654  0.38529  1.0000
  N   N6        1.0  0.14306  0.04634  0.52468  1.0000
  H   H91       1.0  0.42399  0.23811  0.66089  1.0000
  H   H92       1.0  0.19194  0.21223  0.39035  1.0000
  C   C87       1.0  0.16349  0.46897  0.38064  1.0000
  C   C88       1.0  0.12753  0.47022  0.37634  1.0000
  C   C89       1.0  0.11297  0.44675  0.36339  1.0000
  C   C90       1.0  0.13421  0.42210  0.35443  1.0000
  C   C91       1.0  0.17035  0.42156  0.35820  1.0000
  C   C92       1.0  0.18486  0.44483  0.37131  1.0000
  C   C93       1.0  0.39119  0.20402  0.63295  1.0000
  C   C94       1.0  0.00236  0.47185  0.51052  1.0000
  H   H93       1.0  0.18704  0.40289  0.35131  1.0000
  H   H94       1.0  0.21276  0.44382  0.37445  1.0000
  C   C95       1.0  0.27936  0.15615  0.52488  1.0000
  C   C96       1.0  0.25019  0.16267  0.51279  1.0000
  C   C97       1.0  0.23559  0.13701  0.50128  1.0000
  C   C98       1.0  0.24971  0.10437  0.50201  1.0000
  C   C99       1.0  0.27900  0.09794  0.51400  1.0000
  C   C100      1.0  0.29391  0.12369  0.52528  1.0000
  H   H95       1.0  0.23868  0.18768  0.51239  1.0000
  H   H96       1.0  0.21314  0.14239  0.49207  1.0000
  H   H97       1.0  0.29001  0.07274  0.51473  1.0000
  H   H98       1.0  0.31609  0.11817  0.53466  1.0000
  C   C101      1.0  0.39802  0.30140  0.61443  1.0000
  C   C102      1.0  0.41683  0.32794  0.62289  1.0000
  C   C103      1.0  0.40214  0.34725  0.63807  1.0000
  C   C104      1.0  0.36845  0.34008  0.64504  1.0000
  C   C105      1.0  0.34969  0.31341  0.63663  1.0000
  C   C106      1.0  0.36429  0.29423  0.62136  1.0000
  H   H99       1.0  0.44296  0.33369  0.61769  1.0000
  H   H100      1.0  0.41688  0.36764  0.64440  1.0000
  H   H101      1.0  0.32354  0.30776  0.64184  1.0000
  H   H102      1.0  0.34931  0.27417  0.61487  1.0000
  C   C107      1.0  0.39745  0.05691  0.64523  1.0000
  C   C108      1.0  0.42812  0.04632  0.63571  1.0000
  C   C109      1.0  0.43910  0.06283  0.61861  1.0000
  C   C110      1.0  0.41965  0.09008  0.61088  1.0000
  C   C111      1.0  0.38887  0.10049  0.62032  1.0000
  C   C112      1.0  0.37795  0.08406  0.63743  1.0000
  H   H103      1.0  0.47812  0.18991  0.62496  1.0000
  H   H104      1.0  0.46314  0.05482  0.61149  1.0000
  H   H105      1.0  0.37353  0.12121  0.61446  1.0000
  H   H106      1.0  0.35433  0.09259  0.64477  1.0000
  C   C113      1.0  0.04179  0.03083  0.48801  1.0000
  C   C114      1.0  0.37110  0.14990  0.49063  1.0000
  C   C115      1.0  0.03837  0.46909  0.50583  1.0000
  H   H107      1.0  0.46818  0.22706  0.65391  1.0000
  H   H108      1.0  0.05461  0.45077  0.51340  1.0000
  H   H109      1.0  0.18264  0.02141  0.50746  1.0000
  H   H110      1.0  0.11096  0.48915  0.38303  1.0000
  C   C116      1.0  0.42575  0.33838  0.55658  1.0000
  C   C117      1.0  0.47722  0.30250  0.55861  1.0000
  H   H111      1.0  0.48754  0.22862  0.47359  1.0000
  N   N7        1.0  0.46277  0.33391  0.54998  1.0000
  C   C118      1.0  0.45133  0.11462  0.66346  1.0000
  C   C119      1.0  0.18695  0.09404  0.35352  1.0000
  H   H112      1.0  0.12136  0.09407  0.51508  1.0000
  C   C120      1.0  0.18444  0.09198  0.53674  1.0000
  H   H113      1.0  0.42414  0.29263  0.52619  1.0000
  C   C121      1.0  0.19672  0.15119  0.34095  1.0000
  H   H114      1.0  0.44062  0.17079  0.61329  1.0000
  H   H115      1.0  0.21459  0.03500  0.57956  1.0000
  H   H116      1.0  0.16959  0.38259  0.39365  1.0000
  C   C122      1.0  0.48944  0.34915  0.51717  1.0000
  C   C123      1.0  0.13478  0.40886  0.41324  1.0000
  C   C124      1.0  0.22049  0.08278  0.56530  1.0000
  H   H117      1.0  0.46667  0.09203  0.66053  1.0000
  H   H118      1.0  0.38001  0.18020  0.62724  1.0000
  H   H119      1.0  0.44398  0.02621  0.64184  1.0000
  S   S40       1.0  0.34877  0.36323  0.66431  1.0000
  H   H120      1.0  0.13711  0.05700  0.37133  1.0000
  H   H121      1.0  0.08501  0.44750  0.36046  1.0000
  C   C125      1.0  0.43018  0.17061  0.65328  1.0000
  H   H122      1.0  0.06508  0.34394  0.39739  1.0000
  C   C126      1.0  0.15750  0.01575  0.51514  1.0000
  C   C127      1.0  0.09320  0.47132  0.42463  1.0000
  H   H123      1.0  0.05352  0.41208  0.45224  1.0000
  C   C128      1.0  0.16925  0.05952  0.53859  1.0000
  H   H124      1.0  0.24740  0.07751  0.37339  1.0000
  C   C129      1.0  0.41023  0.17176  0.67072  1.0000
  H   H125      1.0  0.15410  0.08846  0.38740  1.0000
  C   C130      1.0  0.45098  0.14116  0.65007  1.0000
  H   H126      1.0  0.12008  0.47682  0.41917  1.0000
  H   H127      1.0  0.42404  0.34297  0.57252  1.0000
  C   C131      1.0  0.48322  0.36256  0.55780  1.0000
  C   C132      1.0  0.22246  0.07373  0.38153  1.0000
  C   C133      1.0  0.20381  0.12582  0.35457  1.0000
  H   H128      1.0  0.46132  0.28017  0.55460  1.0000
  C   C134      1.0  0.20597  0.05094  0.56763  1.0000
  H   H129      1.0  0.08137  0.48776  0.48829  1.0000
  H   H130      1.0  0.03524  0.43816  0.43287  1.0000
  H   H131      1.0  0.11917  0.41483  0.45900  1.0000
  H   H132      1.0  0.15484  0.42719  0.41644  1.0000
  C   C135      1.0  0.14346  0.38358  0.39998  1.0000
  H   H133      1.0  0.05107  0.45694  0.45447  1.0000
  C   C136      1.0  0.11833  0.36041  0.39422  1.0000
  C   C137      1.0  0.16042  0.06417  0.38009  1.0000
  N   N8        1.0  0.35699  0.17916  0.47948  1.0000
  H   H134      1.0  0.09111  0.16389  0.35493  1.0000
  C   C138      1.0  0.49129  0.34503  0.49703  1.0000
  H   H135      1.0  0.24041  0.09158  0.57530  1.0000
  C   C139      1.0  0.32464  0.17157  0.46833  1.0000
  C   C140      1.0  0.30787  0.19708  0.45704  1.0000
  C   C141      1.0  0.30887  0.13923  0.46825  1.0000
  C   C142      1.0  0.27726  0.19064  0.44641  1.0000
  C   C143      1.0  0.27843  0.13303  0.45743  1.0000
  C   C144      1.0  0.26255  0.15867  0.44662  1.0000
  C   C145      1.0  0.38513  0.19036  0.46605  1.0000
  C   C146      1.0  0.00999  0.03634  0.49803  1.0000
  H   H136      1.0  0.39075  0.17087  0.45486  1.0000
  H   H137      1.0  0.34266  0.23071  0.48639  1.0000
  H   H138      1.0  0.38902  0.22343  0.62130  1.0000
  C   C147      1.0  0.34958  0.20648  0.49357  1.0000
  H   H139      1.0  0.37810  0.12851  0.48094  1.0000
  C   C148      1.0  0.05362  0.48995  0.49152  1.0000
  H   H140      1.0  0.41022  0.19530  0.47394  1.0000
  H   H141      1.0  0.31818  0.22231  0.45645  1.0000
  H   H142      1.0  0.31905  0.11830  0.47666  1.0000
  H   H143      1.0  0.26465  0.21053  0.43802  1.0000
  H   H144      1.0  0.26664  0.10826  0.45776  1.0000
  H   H145      1.0  0.23861  0.15381  0.43851  1.0000
  N   N9        1.0  0.09191  0.43883  0.43520  1.0000
  H   H146      1.0  0.14483  0.44571  0.44631  1.0000
  H   H147      1.0  0.15680  0.07748  0.50020  1.0000
  C   C149      1.0  0.11783  0.43953  0.45134  1.0000
  C   C150      1.0  0.10067  0.41120  0.42159  1.0000
  C   C151      1.0  0.44970  0.19324  0.62147  1.0000
  H   H148      1.0  0.47976  0.36518  0.57380  1.0000
  N   N10       1.0  0.19261  0.06713  0.36816  1.0000
  H   H149      1.0  0.08532  0.49278  0.43409  1.0000
  H   H150      1.0  0.32718  0.19976  0.50321  1.0000
  H   H151      1.0  0.40958  0.31559  0.55421  1.0000
  N   N11       1.0  0.42822  0.19887  0.63922  1.0000
  C   C152      1.0  0.20963  0.10326  0.54996  1.0000
  H   H152      1.0  0.16375  0.04463  0.39156  1.0000
  C   C153      1.0  0.18070  0.03941  0.55452  1.0000
  H   H153      1.0  0.11389  0.06004  0.49885  1.0000
  H   H154      1.0  0.11101  0.45921  0.46222  1.0000
  H   H155      1.0  0.37387  0.21284  0.64492  1.0000
  H   H156      1.0  0.47468  0.38679  0.55103  1.0000
  H   H157      1.0  0.39564  0.15640  0.49864  1.0000
  C   C154      1.0  0.08456  0.36197  0.40205  1.0000
  H   H158      1.0  0.17793  0.10897  0.52498  1.0000
  H   H159      1.0  0.20925  0.17552  0.34225  1.0000
  H   H160      1.0  0.04901  0.38670  0.42094  1.0000
  C   C155      1.0  0.05634  0.43609  0.44403  1.0000
  H   H161      1.0  0.47756  0.30356  0.57476  1.0000
  H   H162      1.0  0.09961  0.05936  0.54332  1.0000
  S   S41       1.0  0.38323  0.03854  0.66739  1.0000
  H   H163      1.0  0.37811  0.21411  0.45836  1.0000
  H   H164      1.0  0.12493  0.34155  0.38342  1.0000
  C   C156      1.0  0.13346  0.07069  0.50910  1.0000
  C   C157      1.0  0.19972  0.03424  0.35861  1.0000
  H   H165      1.0  0.44046  0.25180  0.63801  1.0000
  C   C158      1.0  0.11017  0.03743  0.53507  1.0000
  H   H166      1.0  0.42760  0.28682  0.49112  1.0000
  H   H167      1.0  0.13886  0.00551  0.50422  1.0000
  H   H168      1.0  0.46647  0.13743  0.63708  1.0000
  H   H169      1.0  0.22131  0.12789  0.54806  1.0000
  H   H170      1.0  0.07524  0.47140  0.41187  1.0000
  H   H171      1.0  0.35192  0.14115  0.50174  1.0000
  H   H172      1.0  0.16994  0.24000  0.36027  1.0000
  C   C159      1.0  0.07568  0.38686  0.41560  1.0000
  H   H173      1.0  0.44787  0.21500  0.61128  1.0000
  H   H174      1.0  0.37273  0.21149  0.50304  1.0000
  C   C160      1.0  0.44219  0.30871  0.51850  1.0000
  C   C161      1.0  0.44404  0.30507  0.49835  1.0000
  H   H175      1.0  0.22695  0.05233  0.39182  1.0000
  H   H176      1.0  0.41275  0.35992  0.54897  1.0000
  H   H177      1.0  0.02119  0.01451  0.44643  1.0000
  H   H178      1.0  0.22184  0.13215  0.36607  1.0000
  H   H179      1.0  0.21724  0.09615  0.39084  1.0000
  H   H180      1.0  0.47095  0.31930  0.47212  1.0000
  H   H181      1.0  0.20676  0.01422  0.36938  1.0000
  H   H182      1.0  0.17642  0.02429  0.35082  1.0000
  C   C162      1.0  0.46854  0.32319  0.48763  1.0000
  H   H183      1.0  0.11399  0.01621  0.54543  1.0000
  H   H184      1.0  0.08914  0.02937  0.52485  1.0000
  H   H185      1.0  0.17047  0.01442  0.55679  1.0000
  H   H186      1.0  0.31284  0.50321  0.62124  1.0000
  S   S42       1.0  0.11405  0.39279  0.33870  1.0000
  H   H187      1.0  0.00326  0.17583  0.77060  1.0000
  H   H188      1.0  0.22910  0.12240  0.79913  1.0000
  Fe  Fe21      1.0  0.42429  0.44327  0.70582  1.0000
  S   S43       1.0  0.38146  0.40609  0.71195  1.0000
  S   S44       1.0  0.48060  0.43961  0.71789  1.0000
  C   C163      1.0  0.42726  0.48554  0.97673  1.0000
  Fe  Fe22      1.0  0.34575  0.45145  0.71551  1.0000
  S   S45       1.0  0.29996  0.44987  0.73708  1.0000
  C   C164      1.0  0.25440  0.01684  0.76928  1.0000
  H   H189      1.0  0.16173  0.46587  0.84539  1.0000
  Fe  Fe23      1.0  0.13550  0.09859  0.82272  1.0000
  S   S46       1.0  0.08565  0.06879  0.81963  1.0000
  S   S47       1.0  0.13961  0.15250  0.83353  1.0000
  Fe  Fe24      1.0  0.17892  0.04910  0.79777  1.0000
  H   H190      1.0  0.07307  0.45231  0.82036  1.0000
  S   S48       1.0  0.23417  0.04778  0.78444  1.0000
  Fe  Fe25      1.0  0.10041  0.06355  0.78815  1.0000
  S   S49       1.0  0.06512  0.06674  0.76120  1.0000
  C   C165      1.0  0.12551  0.04038  0.71604  1.0000
  C   C166      1.0  0.03208  0.23903  0.00090  1.0000
  S   S50       1.0  0.14791  0.09601  0.79081  1.0000
  S   S51       1.0  0.17005  0.05384  0.83013  1.0000
  Fe  Fe26      1.0  0.17787  0.31587  0.95393  1.0000
  S   S52       1.0  0.13792  0.35598  0.94659  1.0000
  S   S53       1.0  0.22435  0.32000  0.97461  1.0000
  Fe  Fe27      1.0  0.14247  0.26339  0.92731  1.0000
  S   S54       1.0  0.10012  0.30002  0.91818  1.0000
  S   S55       1.0  0.14323  0.20756  0.92011  1.0000
  Fe  Fe28      1.0  0.14385  0.33789  0.91573  1.0000
  S   S56       1.0  0.15777  0.36693  0.88820  1.0000
  Fe  Fe29      1.0  0.09824  0.31424  0.94990  1.0000
  S   S57       1.0  0.04759  0.32222  0.96704  1.0000
  S   S58       1.0  0.18639  0.29993  0.92303  1.0000
  S   S59       1.0  0.13787  0.27542  0.95907  1.0000
  C   C167      1.0  0.02880  0.29154  0.98267  1.0000
  C   C168      1.0  0.04800  0.26331  0.98890  1.0000
  H   H191      1.0  0.48386  0.39885  0.80572  1.0000
  C   C169      1.0  0.13253  0.47672  0.87143  1.0000
  C   C170      1.0  0.12049  0.46357  0.88919  1.0000
  C   C171      1.0  0.12803  0.43004  0.89461  1.0000
  C   C172      1.0  0.14757  0.40930  0.88221  1.0000
  C   C173      1.0  0.15974  0.42248  0.86448  1.0000
  C   C174      1.0  0.15228  0.45605  0.85908  1.0000
  H   H192      1.0  0.10510  0.47940  0.89880  1.0000
  H   H193      1.0  0.11846  0.42020  0.90827  1.0000
  H   H194      1.0  0.17495  0.40659  0.85482  1.0000
  H   H195      1.0  0.47886  0.34290  0.76346  1.0000
  C   C175      1.0  0.13881  0.16687  0.85780  1.0000
  C   C176      1.0  0.13948  0.14476  0.87365  1.0000
  C   C177      1.0  0.14043  0.15758  0.89270  1.0000
  C   C178      1.0  0.14069  0.19249  0.89603  1.0000
  C   C179      1.0  0.13936  0.21455  0.88020  1.0000
  C   C180      1.0  0.13848  0.20175  0.86118  1.0000
  H   H196      1.0  0.13970  0.11787  0.87122  1.0000
  H   H197      1.0  0.14123  0.14037  0.90490  1.0000
  H   H198      1.0  0.13945  0.24146  0.88257  1.0000
  H   H199      1.0  0.13787  0.21900  0.84898  1.0000
  C   C181      1.0  0.49886  0.41062  0.73505  1.0000
  C   C182      1.0  0.25048  0.47862  0.76133  1.0000
  H   H200      1.0  0.45937  0.41430  0.99767  1.0000
  H   H201      1.0  0.09201  0.18304  0.94892  1.0000
  C   C183      1.0  0.49040  0.42125  0.79764  1.0000
  H   H202      1.0  0.34018  0.43349  0.97738  1.0000
  H   H203      1.0  0.23751  0.45458  0.76048  1.0000
  C   C184      1.0  0.20490  0.37636  0.74790  1.0000
  H   H204      1.0  0.30081  0.04674  0.76482  1.0000
  H   H205      1.0  0.28159  0.39443  0.68277  1.0000
  H   H206      1.0  0.21760  0.21140  0.87081  1.0000
  C   C185      1.0  0.32113  0.39413  0.95887  1.0000
  H   H207      1.0  0.23525  0.45057  0.91031  1.0000
  H   H208      1.0  0.21408  0.15855  0.81250  1.0000
  C   C186      1.0  0.02604  0.14097  0.92679  1.0000
  C   C187      1.0  0.24208  0.35599  0.98611  1.0000
  C   C188      1.0  0.22673  0.38800  0.98425  1.0000
  C   C189      1.0  0.27487  0.44267  0.94394  1.0000
  H   H209      1.0  0.20259  0.39128  0.97618  1.0000
  H   H210      1.0  0.01690  0.09304  0.91309  1.0000
  H   H211      1.0  0.45159  0.38227  0.73951  1.0000
  N   N12       1.0  0.15200  0.02775  0.73018  1.0000
  H   H212      1.0  0.04683  0.24968  0.94913  1.0000
  C   C190      1.0  0.16078  0.05600  0.74334  1.0000
  H   H213      1.0  0.25008  0.39932  0.73573  1.0000
  C   C191      1.0  0.03058  0.12835  0.76683  1.0000
  C   C192      1.0  0.03532  0.10006  0.75501  1.0000
  C   C193      1.0  0.24595  0.01340  0.71154  1.0000
  H   H214      1.0  0.04527  0.13034  0.78023  1.0000
  N   N13       1.0  0.26401  0.35886  0.70437  1.0000
  C   C194      1.0  0.20952  0.32964  0.71775  1.0000
  H   H215      1.0  0.23573  0.11257  0.89375  1.0000
  C   C195      1.0  0.23176  0.37890  0.73413  1.0000
  H   H216      1.0  0.03941  0.11117  0.88103  1.0000
  S   S60       1.0  0.33119  0.45213  0.68401  1.0000
  H   H217      1.0  0.32086  0.35765  0.70409  1.0000
  C   C196      1.0  0.27358  0.41219  0.00411  1.0000
  C   C197      1.0  0.43071  0.11619  0.68014  1.0000
  H   H218      1.0  0.29918  0.47637  0.96440  1.0000
  H   H219      1.0  0.20964  0.31077  0.70652  1.0000
  H   H220      1.0  0.48051  0.50231  0.92556  1.0000
  C   C198      1.0  0.41035  0.14478  0.68383  1.0000
  H   H221      1.0  0.11519  0.02004  0.70666  1.0000
  C   C199      1.0  0.00388  0.19862  0.95130  1.0000
  C   C200      1.0  0.25154  0.36675  0.91320  1.0000
  H   H222      1.0  0.06190  0.16880  0.87658  1.0000
  H   H223      1.0  0.45478  0.46633  0.76021  1.0000
  H   H224      1.0  0.22661  0.41754  0.89396  1.0000
  N   N14       1.0  0.03538  0.48920  0.83064  1.0000
  C   C201      1.0  0.05124  0.18387  0.90608  1.0000
  C   C202      1.0  0.45738  0.43522  0.98753  1.0000
  C   C203      1.0  0.18294  0.01389  0.71969  1.0000
  H   H225      1.0  0.20320  0.39450  0.75962  1.0000
  H   H226      1.0  0.00293  0.21769  0.96314  1.0000
  C   C204      1.0  0.26123  0.39190  0.69434  1.0000
  C   C205      1.0  0.42909  0.45760  0.98897  1.0000
  H   H227      1.0  0.39383  0.19329  0.67414  1.0000
  H   H228      1.0  0.11817  0.31857  0.99095  1.0000
  C   C206      1.0  0.32237  0.42704  0.96568  1.0000
  C   C207      1.0  0.21727  0.02763  0.72138  1.0000
  Fe  Fe30      1.0  0.12107  0.02345  0.82490  1.0000
  N   N15       1.0  0.03888  0.19738  0.94165  1.0000
  H   H229      1.0  0.48689  0.43891  0.92648  1.0000
  C   C208      1.0  0.06542  0.18478  0.95575  1.0000
  H   H230      1.0  0.07508  0.26005  0.98444  1.0000
  C   C209      1.0  0.48282  0.46871  0.96100  1.0000
  H   H231      1.0  0.39415  0.14571  0.69678  1.0000
  Fe  Fe31      1.0  0.37652  0.48728  0.67967  1.0000
  H   H232      1.0  0.26526  0.41340  0.70440  1.0000
  Fe  Fe32      1.0  0.36995  0.40966  0.67990  1.0000
  H   H233      1.0  0.10220  0.05178  0.72353  1.0000
  C   C210      1.0  0.47897  0.38493  0.74346  1.0000
  H   H234      1.0  0.15962  0.34867  0.75739  1.0000
  H   H235      1.0  0.06756  0.20165  0.96854  1.0000
  C   C211      1.0  0.06976  0.47119  0.83212  1.0000
  C   C212      1.0  0.01592  0.09803  0.73764  1.0000
  C   C213      1.0  0.00781  0.43149  0.83548  1.0000
  H   H236      1.0  0.25655  0.46205  0.93931  1.0000
  H   H237      1.0  0.21052  0.38107  0.94319  1.0000
  H   H238      1.0  0.03283  0.41938  0.83846  1.0000
  C   C214      1.0  0.18040  0.35061  0.74666  1.0000
  N   N16       1.0  0.24600  0.40058  0.92193  1.0000
  H   H239      1.0  0.13689  0.06004  0.70641  1.0000
  C   C215      1.0  0.21129  0.40070  0.93164  1.0000
  C   C216      1.0  0.24502  0.42539  0.90571  1.0000
  H   H240      1.0  0.27795  0.36456  0.90633  1.0000
  H   H241      1.0  0.24862  0.34625  0.92415  1.0000
  C   C217      1.0  0.29687  0.38524  0.94453  1.0000
  C   C218      1.0  0.05127  0.16125  0.89056  1.0000
  S   S61       1.0  0.38936  0.48867  0.71172  1.0000
  H   H242      1.0  0.26733  0.30677  0.69567  1.0000
  H   H243      1.0  0.48746  0.06740  0.00444  1.0000
  C   C219      1.0  0.28210  0.48357  0.75107  1.0000
  C   C220      1.0  0.26397  0.33231  0.68921  1.0000
  C   C221      1.0  0.47304  0.45928  0.77169  1.0000
  H   H244      1.0  0.18966  0.39547  0.92123  1.0000
  H   H245      1.0  0.20511  0.42531  0.93855  1.0000
  H   H246      1.0  0.42997  0.09482  0.69000  1.0000
  H   H247      1.0  0.27156  0.42843  0.89914  1.0000
  C   C222      1.0  0.03881  0.12869  0.89308  1.0000
  H   H248      1.0  0.23943  0.33327  0.68039  1.0000
  H   H249      1.0  0.29651  0.35901  0.94054  1.0000
  H   H250      1.0  0.27210  0.02361  0.71343  1.0000
  H   H251      1.0  0.21921  0.17227  0.89865  1.0000
  C   C223      1.0  0.23506  0.35560  0.71865  1.0000
  N   N17       1.0  0.25488  0.12907  0.82685  1.0000
  C   C224      1.0  0.28336  0.15048  0.81895  1.0000
  C   C225      1.0  0.26751  0.09356  0.82600  1.0000
  C   C226      1.0  0.22373  0.13216  0.81400  1.0000
  C   C227      1.0  0.24526  0.14028  0.84667  1.0000
  C   C228      1.0  0.24520  0.11820  0.86300  1.0000
  C   C229      1.0  0.23486  0.17420  0.85004  1.0000
  C   C230      1.0  0.23620  0.12984  0.88153  1.0000
  C   C231      1.0  0.22620  0.18557  0.86864  1.0000
  C   C232      1.0  0.22696  0.16347  0.88436  1.0000
  H   H252      1.0  0.30662  0.15025  0.82880  1.0000
  H   H253      1.0  0.29224  0.14164  0.80439  1.0000
  H   H254      1.0  0.27481  0.17708  0.81696  1.0000
  H   H255      1.0  0.29077  0.08926  0.83553  1.0000
  H   H256      1.0  0.27561  0.08625  0.81103  1.0000
  H   H257      1.0  0.24640  0.07561  0.83009  1.0000
  H   H258      1.0  0.20139  0.11762  0.82000  1.0000
  H   H259      1.0  0.25144  0.09174  0.86181  1.0000
  H   H260      1.0  0.23242  0.19203  0.83823  1.0000
  H   H261      1.0  0.07311  0.45855  0.84648  1.0000
  C   C233      1.0  0.29918  0.45122  0.95831  1.0000
  H   H262      1.0  0.03488  0.49172  0.79934  1.0000
  C   C234      1.0  0.27323  0.40947  0.93640  1.0000
  C   C235      1.0  0.29845  0.35691  0.71452  1.0000
  H   H263      1.0  0.02997  0.24309  0.92526  1.0000
  C   C236      1.0  0.48380  0.44050  0.97374  1.0000
  H   H264      1.0  0.10825  0.38970  0.99898  1.0000
  C   C237      1.0  0.46616  0.43154  0.78346  1.0000
  H   H265      1.0  0.16348  0.30735  0.73070  1.0000
  H   H266      1.0  0.30096  0.33330  0.72316  1.0000
  C   C238      1.0  0.14079  0.33023  0.99861  1.0000
  C   C239      1.0  0.27273  0.35216  0.99739  1.0000
  H   H267      1.0  0.23106  0.44076  0.99122  1.0000
  H   H268      1.0  0.40926  0.45391  0.00010  1.0000
  H   H269      1.0  0.44239  0.41722  0.78108  1.0000
  H   H270      1.0  0.23156  0.36133  0.90178  1.0000
  C   C240      1.0  0.18268  0.32734  0.73161  1.0000
  H   H271      1.0  0.13708  0.06567  0.75110  1.0000
  H   H272      1.0  0.11310  0.01099  0.75086  1.0000
  C   C241      1.0  0.28792  0.02332  0.76147  1.0000
  H   H273      1.0  0.05891  0.15933  0.96138  1.0000
  H   H274      1.0  0.07745  0.35715  0.00375  1.0000
  H   H275      1.0  0.06239  0.20828  0.90318  1.0000
  C   C242      1.0  0.03825  0.17448  0.92471  1.0000
  H   H276      1.0  0.09229  0.48878  0.83091  1.0000
  H   H277      1.0  0.33815  0.37508  0.96532  1.0000
  H   H278      1.0  0.30247  0.37839  0.72459  1.0000
  C   C243      1.0  0.24271  0.41599  0.99299  1.0000
  H   H279      1.0  0.28464  0.32747  0.99905  1.0000
  H   H280      1.0  0.17991  0.04793  0.75473  1.0000
  H   H281      1.0  0.23498  0.39533  0.68742  1.0000
  C   C244      1.0  0.00668  0.15413  0.76133  1.0000
  H   H282      1.0  0.15416  0.34746  0.98827  1.0000
  C   C245      1.0  0.02620  0.11856  0.91115  1.0000
  H   H283      1.0  0.17165  0.07783  0.73525  1.0000
  S   S62       1.0  0.13230  0.01590  0.79299  1.0000
  H   H284      1.0  0.20852  0.01503  0.96645  1.0000
  H   H285      1.0  0.21120  0.50032  0.78052  1.0000
  H   H286      1.0  0.03363  0.49960  0.86129  1.0000
  H   H287      1.0  0.22303  0.04875  0.73064  1.0000
  H   H288      1.0  0.28608  0.33547  0.67875  1.0000
  C   C246      1.0  0.00472  0.46648  0.83121  1.0000
  C   C247      1.0  0.45375  0.49132  0.96302  1.0000
  H   H289      1.0  0.15982  0.30953  0.00190  1.0000
  C   C248      1.0  0.04817  0.23251  0.93643  1.0000
  H   H290      1.0  0.07565  0.23404  0.93100  1.0000
  H   H291      1.0  0.01685  0.13164  0.94062  1.0000
  H   H292      1.0  0.01922  0.07627  0.72840  1.0000
  S   S63       1.0  0.41476  0.44471  0.67323  1.0000
  C   C249      1.0  0.49454  0.36267  0.75708  1.0000
  C   C250      1.0  0.23551  0.50452  0.77274  1.0000
  H   H293      1.0  0.40575  0.50345  0.97836  1.0000
  C   C251      1.0  0.35451  0.99194  0.15755  1.0000
  S   S64       1.0  0.42515  0.96672  0.08405  1.0000
  S   S65       1.0  0.34775  0.54454  0.08422  1.0000
  Fe  Fe33      1.0  0.36262  0.94427  0.04085  1.0000
  S   S66       1.0  0.40709  0.91035  0.05051  1.0000
  C   C252      1.0  0.44943  0.58736  0.11099  1.0000
  Fe  Fe34      1.0  0.38963  0.92179  0.08116  1.0000
  S   S67       1.0  0.37335  0.89038  0.10753  1.0000
  Fe  Fe35      1.0  0.43852  0.95841  0.05240  1.0000
  H   H294      1.0  0.30829  0.82281  0.05100  1.0000
  S   S68       1.0  0.34292  0.95267  0.07112  1.0000
  H   H295      1.0  0.05967  0.92844  0.20356  1.0000
  Fe  Fe36      1.0  0.40369  0.72140  0.16909  1.0000
  S   S69       1.0  0.35294  0.69271  0.16998  1.0000
  S   S70       1.0  0.42202  0.74783  0.14138  1.0000
  Fe  Fe37      1.0  0.42894  0.69129  0.20813  1.0000
  S   S71       1.0  0.37959  0.66113  0.21175  1.0000
  H   H296      1.0  0.43641  0.59807  0.05238  1.0000
  Fe  Fe38      1.0  0.38576  0.64879  0.17995  1.0000
  S   S72       1.0  0.38249  0.59449  0.16977  1.0000
  Fe  Fe39      1.0  0.35045  0.70783  0.20160  1.0000
  S   S73       1.0  0.29542  0.71956  0.21381  1.0000
  S   S74       1.0  0.43682  0.67608  0.17706  1.0000
  S   S75       1.0  0.39951  0.73943  0.20007  1.0000
  Fe  Fe40      1.0  0.18398  0.82983  0.28915  1.0000
  S   S76       1.0  0.14682  0.78665  0.28793  1.0000
  S   S77       1.0  0.23239  0.83384  0.26952  1.0000
  Fe  Fe41      1.0  0.14073  0.86475  0.32165  1.0000
  S   S78       1.0  0.10129  0.82246  0.32252  1.0000
  Fe  Fe42      1.0  0.14858  0.78763  0.32068  1.0000
  Fe  Fe43      1.0  0.10338  0.82568  0.28985  1.0000
  S   S79       1.0  0.05521  0.82258  0.26997  1.0000
  S   S80       1.0  0.18804  0.82981  0.32185  1.0000
  S   S81       1.0  0.14067  0.86895  0.28898  1.0000
  C   C253      1.0  0.04828  0.89010  0.25928  1.0000
  C   C254      1.0  0.03565  0.85727  0.25743  1.0000
  C   C255      1.0  0.45645  0.59407  0.09105  1.0000
  H   H297      1.0  0.07037  0.89492  0.26873  1.0000
  H   H298      1.0  0.21817  0.93586  0.04159  1.0000
  H   H299      1.0  0.42725  0.55426  0.05041  1.0000
  H   H300      1.0  0.24715  0.77237  0.29047  1.0000
  C   C256      1.0  0.27906  0.75149  0.22958  1.0000
  C   C257      1.0  0.29944  0.77876  0.23549  1.0000
  C   C258      1.0  0.28477  0.80378  0.24766  1.0000
  C   C259      1.0  0.24985  0.80155  0.25433  1.0000
  C   C260      1.0  0.22961  0.77409  0.24860  1.0000
  C   C261      1.0  0.24408  0.74938  0.23621  1.0000
  H   H301      1.0  0.32636  0.78074  0.23052  1.0000
  H   H302      1.0  0.30069  0.82490  0.25200  1.0000
  H   H303      1.0  0.20272  0.77198  0.25355  1.0000
  H   H304      1.0  0.22810  0.72840  0.23172  1.0000
  H   H305      1.0  0.43966  0.52000  0.02059  1.0000
  C   C262      1.0  0.03219  0.91683  0.24891  1.0000
  H   H306      1.0  0.23246  0.70513  0.32758  1.0000
  N   N18       1.0  0.45703  0.56747  0.07599  1.0000
  S   S82       1.0  0.49454  0.95966  0.04023  1.0000
  H   H307      1.0  0.28754  0.69351  0.09788  1.0000
  C   C263      1.0  0.41029  0.78879  0.13316  1.0000
  C   C264      1.0  0.42642  0.80160  0.11631  1.0000
  C   C265      1.0  0.41596  0.83293  0.10839  1.0000
  C   C266      1.0  0.38910  0.85167  0.11724  1.0000
  C   C267      1.0  0.37320  0.83897  0.13417  1.0000
  C   C268      1.0  0.38378  0.80776  0.14214  1.0000
  H   H308      1.0  0.44694  0.78708  0.10925  1.0000
  H   H309      1.0  0.42841  0.84238  0.09536  1.0000
  H   H310      1.0  0.35234  0.85321  0.14110  1.0000
  H   H311      1.0  0.37108  0.79814  0.15506  1.0000
  C   C269      1.0  0.35777  0.55800  0.10804  1.0000
  C   C270      1.0  0.35461  0.59239  0.11256  1.0000
  C   C271      1.0  0.36216  0.60407  0.13140  1.0000
  C   C272      1.0  0.37280  0.58132  0.14586  1.0000
  C   C273      1.0  0.37621  0.54700  0.14125  1.0000
  C   C274      1.0  0.36886  0.53536  0.12241  1.0000
  H   H312      1.0  0.34622  0.60998  0.10146  1.0000
  H   H313      1.0  0.35966  0.63053  0.13480  1.0000
  H   H314      1.0  0.38445  0.52930  0.15237  1.0000
  C   C275      1.0  0.25707  0.70297  0.31881  1.0000
  H   H315      1.0  0.27864  0.71304  0.32793  1.0000
  C   C276      1.0  0.44969  0.53328  0.08372  1.0000
  S   S83       1.0  0.47562  0.69252  0.22925  1.0000
  H   H316      1.0  0.45712  0.62189  0.23678  1.0000
  H   H317      1.0  0.04231  0.94205  0.25039  1.0000
  H   H318      1.0  0.34325  0.75223  0.12715  1.0000
  H   H319      1.0  0.35771  0.78680  0.10275  1.0000
  H   H320      1.0  0.26707  0.76847  0.31392  1.0000
  C   C277      1.0  0.48368  0.62594  0.24186  1.0000
  H   H321      1.0  0.19759  0.71270  0.29855  1.0000
  H   H322      1.0  0.45065  0.51386  0.07206  1.0000
  H   H323      1.0  0.46428  0.92454  0.00727  1.0000
  S   S84       1.0  0.39488  0.99175  0.04130  1.0000
  C   C278      1.0  0.31658  0.68952  0.09761  1.0000
  H   H324      1.0  0.46817  0.63519  0.07102  1.0000
  C   C279      1.0  0.04756  0.87726  0.19675  1.0000
  C   C280      1.0  0.47464  0.70752  0.28416  1.0000
  C   C281      1.0  0.43009  0.57523  0.06098  1.0000
  H   H325      1.0  0.38130  0.69417  0.11216  1.0000
  C   C282      1.0  0.22207  0.70819  0.28997  1.0000
  H   H326      1.0  0.44363  0.56246  0.11639  1.0000
  N   N19       1.0  0.25372  0.72119  0.30006  1.0000
  H   H327      1.0  0.45796  0.62391  0.28567  1.0000
  H   H328      1.0  0.29822  0.74170  0.12210  1.0000
  H   H329      1.0  0.29255  0.89046  0.04029  1.0000
  C   C283      1.0  0.28667  0.71693  0.28876  1.0000
  C   C284      1.0  0.28829  0.69884  0.27098  1.0000
  C   C285      1.0  0.31875  0.73054  0.29569  1.0000
  C   C286      1.0  0.31994  0.69518  0.26079  1.0000
  C   C287      1.0  0.35016  0.72709  0.28522  1.0000
  C   C288      1.0  0.35068  0.70958  0.26774  1.0000
  C   C289      1.0  0.29960  0.77054  0.05774  1.0000
  C   C290      1.0  0.04702  0.80813  0.04230  1.0000
  H   H330      1.0  0.02247  0.88377  0.19011  1.0000
  C   C291      1.0  0.04471  0.82768  0.02553  1.0000
  H   H331      1.0  0.38219  0.70444  0.08659  1.0000
  H   H332      1.0  0.44339  0.60754  0.13990  1.0000
  H   H333      1.0  0.22130  0.76169  0.31129  1.0000
  H   H334      1.0  0.32832  0.71116  0.13217  1.0000
  H   H335      1.0  0.32269  0.66982  0.10873  1.0000
  C   C292      1.0  0.24719  0.75740  0.30410  1.0000
  H   H336      1.0  0.04304  0.71286  0.01680  1.0000
  H   H337      1.0  0.32043  0.68178  0.24707  1.0000
  H   H338      1.0  0.37417  0.73826  0.29059  1.0000
  H   H339      1.0  0.37483  0.70733  0.25940  1.0000
  N   N20       1.0  0.14499  0.85042  0.22562  1.0000
  C   C293      1.0  0.16497  0.87947  0.23332  1.0000
  C   C294      1.0  0.13659  0.82832  0.24231  1.0000
  C   C295      1.0  0.16858  0.83171  0.21221  1.0000
  C   C296      1.0  0.11198  0.86023  0.21550  1.0000
  C   C297      1.0  0.08983  0.83522  0.20751  1.0000
  C   C298      1.0  0.10042  0.89428  0.21362  1.0000
  C   C299      1.0  0.05809  0.84371  0.19834  1.0000
  C   C300      1.0  0.06871  0.90246  0.20431  1.0000
  H   H340      1.0  0.30645  0.98671  0.11575  1.0000
  H   H341      1.0  0.14933  0.89366  0.24433  1.0000
  H   H342      1.0  0.18959  0.87118  0.24086  1.0000
  H   H343      1.0  0.17305  0.89692  0.22151  1.0000
  H   H344      1.0  0.11772  0.84108  0.25224  1.0000
  H   H345      1.0  0.16057  0.82164  0.25083  1.0000
  H   H346      1.0  0.12428  0.80427  0.23793  1.0000
  H   H347      1.0  0.17450  0.84698  0.19905  1.0000
  H   H348      1.0  0.19412  0.82491  0.21931  1.0000
  H   H349      1.0  0.15696  0.80761  0.20731  1.0000
  H   H350      1.0  0.09650  0.80879  0.20870  1.0000
  H   H351      1.0  0.11485  0.91506  0.21960  1.0000
  H   H352      1.0  0.34888  0.92407  0.14678  1.0000
  C   C301      1.0  0.31581  0.99793  0.12962  1.0000
  H   H353      1.0  0.45441  0.66628  0.12995  1.0000
  N   N21       1.0  0.33556  0.72132  0.10159  1.0000
  C   C302      1.0  0.32584  0.73216  0.12152  1.0000
  H   H354      1.0  0.28338  0.76656  0.04499  1.0000
  C   C303      1.0  0.32749  0.74869  0.08753  1.0000
  C   C304      1.0  0.30642  0.74395  0.07069  1.0000
  C   C305      1.0  0.34131  0.78137  0.09039  1.0000
  H   H355      1.0  0.25515  0.97852  0.02556  1.0000
  C   C306      1.0  0.33440  0.80771  0.07739  1.0000
  C   C307      1.0  0.31356  0.80232  0.06109  1.0000
  H   H356      1.0  0.26544  0.68775  0.26435  1.0000
  C   C308      1.0  0.28271  0.88629  0.02577  1.0000
  H   H357      1.0  0.22380  0.68052  0.28768  1.0000
  C   C309      1.0  0.32869  0.94224  0.14122  1.0000
  C   C310      1.0  0.18937  0.92416  0.01565  1.0000
  H   H358      1.0  0.36644  0.96265  0.11170  1.0000
  H   H359      1.0  0.21806  0.72092  0.27572  1.0000
  C   C311      1.0  0.29751  0.90369  0.01010  1.0000
  C   C312      1.0  0.00667  0.85164  0.24518  1.0000
  C   C313      1.0  0.44901  0.61321  0.12476  1.0000
  N   N22       1.0  0.34332  0.97661  0.13901  1.0000
  C   C314      1.0  0.45712  0.67738  0.28115  1.0000
  H   H360      1.0  0.34535  0.83247  0.08002  1.0000
  C   C315      1.0  0.37383  0.71361  0.10113  1.0000
  C   C316      1.0  0.21402  0.94188  0.02640  1.0000
  C   C317      1.0  0.46197  0.65383  0.09977  1.0000
  H   H361      1.0  0.01099  0.85705  0.00698  1.0000
  H   H362      1.0  0.43401  0.67682  0.27193  1.0000
  C   C318      1.0  0.23473  0.96602  0.01734  1.0000
  H   H363      1.0  0.46937  0.52536  0.09483  1.0000
  H   H364      1.0  0.48664  0.98872  0.32671  1.0000
  S   S85       1.0  0.16369  0.73617  0.33359  1.0000
  H   H365      1.0  0.31971  0.74418  0.30922  1.0000
  H   H366      1.0  0.07183  0.79611  0.04609  1.0000
  H   H367      1.0  0.32435  0.67848  0.08339  1.0000
  H   H368      1.0  0.06748  0.83057  0.01619  1.0000
  H   H369      1.0  0.11367  0.51112  0.28568  1.0000
  H   H370      1.0  0.38995  0.73609  0.10444  1.0000
  H   H371      1.0  0.24252  0.85148  0.03491  1.0000
  H   H372      1.0  0.29485  0.72003  0.06717  1.0000
  C   C319      1.0  0.25435  0.86422  0.02267  1.0000
  H   H373      1.0  0.32003  0.93182  0.12699  1.0000
  C   C320      1.0  0.49215  0.56603  0.06656  1.0000
  H   H374      1.0  0.40380  0.57944  0.06774  1.0000
  H   H375      1.0  0.04112  0.82416  0.19280  1.0000
  S   S86       1.0  0.33118  0.93399  0.01320  1.0000
  C   C321      1.0  0.46672  0.51763  0.01592  1.0000
  C   C322      1.0  0.37395  0.97413  0.12577  1.0000
  H   H376      1.0  0.42291  0.53199  0.09023  1.0000
  H   H377      1.0  0.29272  0.00152  0.13935  1.0000
  H   H378      1.0  0.30533  0.94210  0.15095  1.0000
  C   C323      1.0  0.02616  0.73168  0.01012  1.0000
  C   C324      1.0  0.47069  0.64757  0.28889  1.0000
  H   H379      1.0  0.39532  0.95815  0.13211  1.0000
  C   C325      1.0  0.01735  0.80348  0.05399  1.0000
  H   H380      1.0  0.37130  0.50883  0.11911  1.0000
  C   C326      1.0  0.01276  0.84267  0.02038  1.0000
  H   H381      1.0  0.02042  0.78800  0.06683  1.0000
  H   H382      1.0  0.17464  0.90406  0.02248  1.0000
  C   C327      1.0  0.45508  0.64636  0.11917  1.0000
  H   H383      1.0  0.46483  0.73033  0.27726  1.0000
  H   H384      1.0  0.38521  0.99905  0.12218  1.0000
  H   H385      1.0  0.26250  0.67570  0.31644  1.0000
  C   C328      1.0  0.46272  0.62816  0.08588  1.0000
  H   H386      1.0  0.36294  0.97637  0.20649  1.0000
  C   C329      1.0  0.00341  0.91112  0.23652  1.0000
  Fe  Fe44      1.0  0.37927  0.99695  0.07278  1.0000
  C   C330      1.0  0.35326  0.97458  0.17564  1.0000
  H   H387      1.0  0.34417  0.94899  0.17689  1.0000
  H   H388      1.0  0.48903  0.57634  0.25462  1.0000
  H   H389      1.0  0.46688  0.67970  0.09556  1.0000
  C   C331      1.0  0.36413  0.99003  0.19285  1.0000
  H   H390      1.0  0.10411  0.50567  0.31109  1.0000
  H   H391      1.0  0.06899  0.50921  0.29431  1.0000
  S   S87       1.0  0.12640  0.91409  0.33692  1.0000
  H   H392      1.0  0.49371  0.54552  0.05553  1.0000
  H   H393      1.0  0.49860  0.58970  0.05876  1.0000
  C   C332      1.0  0.49928  0.65740  0.23914  1.0000
  C   C333      1.0  0.01479  0.98159  0.51392  1.0000
  H   H394      1.0  0.39989  0.67422  0.61421  1.0000
  Fe  Fe45      1.0  0.42828  0.71502  0.54512  1.0000
  S   S88       1.0  0.37773  0.74537  0.54473  1.0000
  C   C334      1.0  0.49832  0.75145  0.51256  1.0000
  Fe  Fe46      1.0  0.39877  0.66317  0.57404  1.0000
  S   S89       1.0  0.34662  0.68967  0.57571  1.0000
  S   S90       1.0  0.41487  0.61382  0.58892  1.0000
  Fe  Fe47      1.0  0.35022  0.69522  0.54325  1.0000
  S   S91       1.0  0.29831  0.69035  0.52670  1.0000
  Fe  Fe48      1.0  0.37739  0.73779  0.57721  1.0000
  S   S92       1.0  0.35380  0.77584  0.59846  1.0000
  S   S93       1.0  0.40063  0.66532  0.54131  1.0000
  S   S94       1.0  0.42971  0.71075  0.57789  1.0000
  Fe  Fe49      1.0  0.10333  0.55225  0.44939  1.0000
  S   S95       1.0  0.15508  0.52411  0.44998  1.0000
  S   S96       1.0  0.04916  0.53726  0.46142  1.0000
  Fe  Fe50      1.0  0.13348  0.60863  0.42354  1.0000
  S   S97       1.0  0.18698  0.58425  0.42222  1.0000
  S   S98       1.0  0.11872  0.66088  0.41185  1.0000
  Fe  Fe51      1.0  0.15806  0.53551  0.41795  1.0000
  H   H395      1.0  0.24647  0.56971  0.58845  1.0000
  Fe  Fe52      1.0  0.18069  0.57468  0.45425  1.0000
  S   S99       1.0  0.23089  0.57755  0.47263  1.0000
  S   S100      1.0  0.10478  0.56067  0.41686  1.0000
  S   S101      1.0  0.12861  0.60208  0.45609  1.0000
  C   C335      1.0  0.02440  0.96161  0.44037  1.0000
  H   H396      1.0  0.37156  0.91604  0.63477  1.0000
  C   C336      1.0  0.13103  0.68101  0.38980  1.0000
  C   C337      1.0  0.11857  0.71387  0.38603  1.0000
  C   C338      1.0  0.12812  0.73114  0.36890  1.0000
  C   C339      1.0  0.15040  0.71572  0.35537  1.0000
  C   C340      1.0  0.16307  0.68293  0.35921  1.0000
  C   C341      1.0  0.15343  0.66561  0.37630  1.0000
  H   H397      1.0  0.10123  0.72603  0.39637  1.0000
  H   H398      1.0  0.11817  0.75633  0.36616  1.0000
  H   H399      1.0  0.45572  0.69883  0.62377  1.0000
  H   H400      1.0  0.16317  0.64034  0.37896  1.0000
  C   C342      1.0  0.16756  0.96497  0.39236  1.0000
  C   C343      1.0  0.18580  0.93727  0.38443  1.0000
  C   C344      1.0  0.17330  0.92092  0.36768  1.0000
  C   C345      1.0  0.14257  0.93244  0.35856  1.0000
  C   C346      1.0  0.12438  0.96023  0.36646  1.0000
  C   C347      1.0  0.13657  0.97624  0.38338  1.0000
  H   H401      1.0  0.20980  0.92838  0.39127  1.0000
  H   H402      1.0  0.29530  0.63479  0.58482  1.0000
  H   H403      1.0  0.34249  0.93575  0.61707  1.0000
  H   H404      1.0  0.43521  0.85845  0.55980  1.0000
  C   C348      1.0  0.28041  0.65873  0.51153  1.0000
  C   C349      1.0  0.24477  0.66129  0.50609  1.0000
  C   C350      1.0  0.22912  0.63673  0.49424  1.0000
  C   C351      1.0  0.24906  0.60938  0.48755  1.0000
  C   C352      1.0  0.28467  0.60671  0.49308  1.0000
  C   C353      1.0  0.30037  0.63131  0.50489  1.0000
  H   H405      1.0  0.22909  0.68238  0.51115  1.0000
  H   H406      1.0  0.20152  0.63868  0.49054  1.0000
  H   H407      1.0  0.30032  0.58563  0.48796  1.0000
  H   H408      1.0  0.32796  0.62925  0.50862  1.0000
  C   C354      1.0  0.37496  0.80281  0.61511  1.0000
  C   C355      1.0  0.35422  0.82178  0.62807  1.0000
  C   C356      1.0  0.36987  0.84335  0.64172  1.0000
  C   C357      1.0  0.40650  0.84614  0.64248  1.0000
  C   C358      1.0  0.42722  0.82711  0.62953  1.0000
  C   C359      1.0  0.41157  0.80560  0.61586  1.0000
  H   H409      1.0  0.32585  0.81969  0.62760  1.0000
  H   H410      1.0  0.35364  0.85760  0.65171  1.0000
  H   H411      1.0  0.45558  0.82927  0.62994  1.0000
  H   H412      1.0  0.42779  0.79155  0.60577  1.0000
  C   C360      1.0  0.37491  0.55659  0.64289  1.0000
  C   C361      1.0  0.40459  0.54536  0.63271  1.0000
  C   C362      1.0  0.41634  0.56322  0.61623  1.0000
  C   C363      1.0  0.39851  0.59235  0.60967  1.0000
  C   C364      1.0  0.36845  0.60324  0.61964  1.0000
  C   C365      1.0  0.35689  0.58556  0.63623  1.0000
  C   C366      1.0  0.00864  0.93038  0.44281  1.0000
  H   H413      1.0  0.43953  0.55449  0.60855  1.0000
  H   H414      1.0  0.35401  0.62509  0.61455  1.0000
  H   H415      1.0  0.33383  0.59436  0.64397  1.0000
  C   C367      1.0  0.42737  0.87667  0.57072  1.0000
  C   C368      1.0  0.44598  0.90647  0.57284  1.0000
  H   H416      1.0  0.35908  0.95927  0.63706  1.0000
  C   C369      1.0  0.39545  0.66453  0.67039  1.0000
  C   C370      1.0  0.00862  0.99027  0.44820  1.0000
  H   H417      1.0  0.34253  0.58428  0.54615  1.0000
  C   C371      1.0  0.33423  0.55281  0.58270  1.0000
  H   H418      1.0  0.38178  0.71599  0.61433  1.0000
  H   H419      1.0  0.45030  0.96537  0.62089  1.0000
  C   C372      1.0  0.43471  0.64389  0.64530  1.0000
  S   S102      1.0  0.48134  0.72238  0.52991  1.0000
  C   C373      1.0  0.44208  0.71530  0.63445  1.0000
  H   H420      1.0  0.41873  0.52317  0.63767  1.0000
  C   C374      1.0  0.49188  0.79712  0.48899  1.0000
  H   H421      1.0  0.36667  0.88617  0.60601  1.0000
  H   H422      1.0  0.45523  0.59366  0.64965  1.0000
  H   H423      1.0  0.43595  0.92926  0.63430  1.0000
  H   H424      1.0  0.35783  0.55850  0.57462  1.0000
  N   N23       1.0  0.40773  0.70154  0.64089  1.0000
  H   H425      1.0  0.25250  0.62190  0.57672  1.0000
  C   C375      1.0  0.27660  0.53563  0.60577  1.0000
  H   H426      1.0  0.38685  0.75228  0.64283  1.0000
  C   C376      1.0  0.36618  0.93947  0.62628  1.0000
  C   C377      1.0  0.27246  0.55916  0.59075  1.0000
  H   H427      1.0  0.41980  0.97050  0.64038  1.0000
  H   H428      1.0  0.36770  0.97923  0.59401  1.0000
  H   H429      1.0  0.16302  0.99505  0.52560  1.0000
  H   H430      1.0  0.48940  0.63784  0.49206  1.0000
  H   H431      1.0  0.10051  0.96919  0.35952  1.0000
  C   C378      1.0  0.38868  0.89329  0.59703  1.0000
  C   C379      1.0  0.46515  0.68446  0.48337  1.0000
  H   H432      1.0  0.43882  0.74000  0.62692  1.0000
  H   H433      1.0  0.38445  0.84677  0.58113  1.0000
  C   C380      1.0  0.30136  0.56909  0.57903  1.0000
  H   H434      1.0  0.27892  0.64688  0.56125  1.0000
  H   H435      1.0  0.04903  0.96363  0.43249  1.0000
  H   H436      1.0  0.44789  0.73274  0.47283  1.0000
  H   H437      1.0  0.45139  0.95254  0.58815  1.0000
  C   C381      1.0  0.33792  0.52901  0.59760  1.0000
  H   H438      1.0  0.34928  0.61444  0.56537  1.0000
  H   H439      1.0  0.47531  0.81564  0.48182  1.0000
  H   H440      1.0  0.44982  0.77836  0.50728  1.0000
  H   H441      1.0  0.18022  0.67069  0.34882  1.0000
  C   C382      1.0  0.41308  0.67042  0.65247  1.0000
  H   H442      1.0  0.06087  0.95262  0.50605  1.0000
  H   H443      1.0  0.18760  0.89967  0.36172  1.0000
  C   C383      1.0  0.47734  0.77602  0.50345  1.0000
  C   C384      1.0  0.40703  0.92404  0.59955  1.0000
  S   S103      1.0  0.18546  0.98540  0.41294  1.0000
  C   C385      1.0  0.04664  0.97607  0.50391  1.0000
  H   H444      1.0  0.44736  0.64556  0.63126  1.0000
  C   C386      1.0  0.38659  0.69335  0.62352  1.0000
  C   C387      1.0  0.28011  0.62584  0.57204  1.0000
  H   H445      1.0  0.41200  0.99320  0.59769  1.0000
  C   C388      1.0  0.33011  0.60527  0.55441  1.0000
  H   H446      1.0  0.32605  0.62620  0.54385  1.0000
  C   C389      1.0  0.43604  0.92987  0.58701  1.0000
  C   C390      1.0  0.03274  0.51316  0.48127  1.0000
  C   C391      1.0  0.27315  0.58185  0.54832  1.0000
  H   H447      1.0  0.24688  0.57474  0.55402  1.0000
  H   H448      1.0  0.26829  0.60094  0.53672  1.0000
  H   H449      1.0  0.28486  0.55915  0.54129  1.0000
  N   N24       1.0  0.21292  0.69062  0.43796  1.0000
  C   C392      1.0  0.22183  0.67334  0.41949  1.0000
  C   C393      1.0  0.19128  0.66785  0.45002  1.0000
  C   C394      1.0  0.19088  0.72055  0.43294  1.0000
  C   C395      1.0  0.24537  0.69886  0.44880  1.0000
  C   C396      1.0  0.25206  0.73156  0.45623  1.0000
  C   C397      1.0  0.27047  0.67324  0.45324  1.0000
  C   C398      1.0  0.28195  0.73788  0.46748  1.0000
  C   C399      1.0  0.30053  0.68002  0.46419  1.0000
  C   C400      1.0  0.30605  0.71215  0.47151  1.0000
  H   H450      1.0  0.19780  0.66796  0.41079  1.0000
  H   H451      1.0  0.23948  0.68901  0.41036  1.0000
  H   H452      1.0  0.23482  0.64849  0.42182  1.0000
  H   H453      1.0  0.20469  0.64327  0.45280  1.0000
  H   H454      1.0  0.16580  0.66218  0.44290  1.0000
  H   H455      1.0  0.18517  0.67934  0.46436  1.0000
  H   H456      1.0  0.20581  0.73902  0.42406  1.0000
  H   H457      1.0  0.16734  0.71350  0.42421  1.0000
  H   H458      1.0  0.18030  0.73319  0.44613  1.0000
  H   H459      1.0  0.23432  0.75256  0.45389  1.0000
  H   H460      1.0  0.26646  0.64742  0.44888  1.0000
  H   H461      1.0  0.28621  0.76275  0.47343  1.0000
  H   H462      1.0  0.31899  0.65990  0.46764  1.0000
  H   H463      1.0  0.32864  0.71693  0.48070  1.0000
  N   N25       1.0  0.39723  0.94921  0.61448  1.0000
  C   C401      1.0  0.42713  0.95383  0.62803  1.0000
  C   C402      1.0  0.38884  0.98200  0.60507  1.0000
  C   C403      1.0  0.38896  0.72874  0.65161  1.0000
  C   C404      1.0  0.39874  0.87016  0.58274  1.0000
  N   N26       1.0  0.29655  0.59502  0.56371  1.0000
  H   H464      1.0  0.46834  0.91136  0.56348  1.0000
  S   S104      1.0  0.42784  0.87269  0.65931  1.0000
  H   H465      1.0  0.36047  0.68310  0.62765  1.0000
  C   C405      1.0  0.46832  0.71353  0.47219  1.0000
  H   H466      1.0  0.02111  0.90810  0.43675  1.0000
  H   H467      1.0  0.36341  0.51751  0.60045  1.0000
  H   H468      1.0  0.44244  0.68122  0.49270  1.0000
  H   H469      1.0  0.40299  0.73530  0.66526  1.0000
  S   S105      1.0  0.35961  0.53607  0.66421  1.0000
  H   H470      1.0  0.36133  0.72186  0.65504  1.0000
  H   H471      1.0  0.25437  0.52897  0.61482  1.0000
  H   H472      1.0  0.46002  0.71908  0.64702  1.0000
  C   C406      1.0  0.43912  0.61379  0.65562  1.0000
  C   C407      1.0  0.49180  0.66018  0.48309  1.0000
  H   H473      1.0  0.08413  0.99553  0.48308  1.0000
  C   C408      1.0  0.30937  0.52085  0.60931  1.0000
  H   H474      1.0  0.12194  0.99715  0.38945  1.0000
  C   C409      1.0  0.06000  0.00044  0.49095  1.0000
  C   C410      1.0  0.49859  0.71900  0.46111  1.0000
  H   H475      1.0  0.37975  0.00112  0.61583  1.0000
  H   H476      1.0  0.09560  0.73940  0.93116  1.0000
  N   N27       1.0  0.15538  0.58318  0.73749  1.0000
  Fe  Fe53      1.0  0.44120  0.94962  0.71398  1.0000
  S   S106      1.0  0.40497  0.90543  0.71270  1.0000
  C   C411      1.0  0.48889  0.94303  0.79030  1.0000
  C   C412      1.0  0.19581  0.55009  0.69019  1.0000
  Fe  Fe54      1.0  0.36091  0.94446  0.71252  1.0000
  S   S107      1.0  0.30898  0.93897  0.72916  1.0000
  C   C413      1.0  0.18521  0.93061  0.99581  1.0000
  H   H477      1.0  0.49144  0.96012  0.92461  1.0000
  Fe  Fe55      1.0  0.13905  0.62427  0.82910  1.0000
  S   S108      1.0  0.09365  0.58875  0.83117  1.0000
  S   S109      1.0  0.13030  0.67786  0.83999  1.0000
  Fe  Fe56      1.0  0.18302  0.57293  0.80537  1.0000
  S   S110      1.0  0.14049  0.53391  0.80656  1.0000
  S   S111      1.0  0.23400  0.56978  0.78769  1.0000
  Fe  Fe57      1.0  0.10341  0.57725  0.79979  1.0000
  S   S112      1.0  0.06098  0.56933  0.77680  1.0000
  Fe  Fe58      1.0  0.13472  0.54908  0.83799  1.0000
  H   H478      1.0  0.06876  0.75533  0.99444  1.0000
  S   S113      1.0  0.14610  0.61533  0.79703  1.0000
  S   S114      1.0  0.17993  0.58550  0.83742  1.0000
  Fe  Fe59      1.0  0.17012  0.82754  0.97334  1.0000
  S   S115      1.0  0.12491  0.86294  0.96716  1.0000
  C   C414      1.0  0.24159  0.98496  0.70008  1.0000
  Fe  Fe60      1.0  0.15184  0.78350  0.93795  1.0000
  S   S116      1.0  0.10601  0.81638  0.92921  1.0000
  S   S117      1.0  0.16957  0.73478  0.92347  1.0000
  Fe  Fe61      1.0  0.14196  0.85980  0.93584  1.0000
  S   S118      1.0  0.15828  0.90684  0.91902  1.0000
  Fe  Fe62      1.0  0.09306  0.81633  0.96133  1.0000
  S   S119      1.0  0.03613  0.80978  0.97149  1.0000
  S   S120      1.0  0.18894  0.82657  0.94248  1.0000
  S   S121      1.0  0.13697  0.78117  0.96959  1.0000
  C   C415      1.0  0.01922  0.77964  0.98824  1.0000
  C   C416      1.0  0.45744  0.97499  0.95913  1.0000
  H   H479      1.0  0.15394  0.97401  0.70515  1.0000
  C   C417      1.0  0.11663  0.95937  0.86369  1.0000
  C   C418      1.0  0.09746  0.93303  0.87224  1.0000
  C   C419      1.0  0.10948  0.91686  0.88930  1.0000
  C   C420      1.0  0.14108  0.92673  0.89788  1.0000
  C   C421      1.0  0.16027  0.95305  0.88935  1.0000
  C   C422      1.0  0.14814  0.96932  0.87235  1.0000
  H   H480      1.0  0.07295  0.92529  0.86569  1.0000
  H   H481      1.0  0.09416  0.89698  0.89580  1.0000
  H   H482      1.0  0.18474  0.96090  0.89587  1.0000
  C   C423      1.0  0.10281  0.69777  0.96095  1.0000
  C   C424      1.0  0.13850  0.69157  0.86404  1.0000
  C   C425      1.0  0.16069  0.67353  0.87659  1.0000
  C   C426      1.0  0.16944  0.68691  0.89486  1.0000
  C   C427      1.0  0.15579  0.71820  0.90088  1.0000
  C   C428      1.0  0.13233  0.73554  0.88872  1.0000
  C   C429      1.0  0.12411  0.72248  0.87027  1.0000
  H   H483      1.0  0.17202  0.64979  0.87195  1.0000
  H   H484      1.0  0.18745  0.67320  0.90423  1.0000
  H   H485      1.0  0.12110  0.75926  0.89332  1.0000
  H   H486      1.0  0.10695  0.73659  0.86063  1.0000
  C   C430      1.0  0.28884  0.96925  0.74480  1.0000
  C   C431      1.0  0.25532  0.96275  0.75265  1.0000
  Fe  Fe63      1.0  0.40701  0.91264  0.68023  1.0000
  C   C432      1.0  0.25222  0.53566  0.77417  1.0000
  C   C433      1.0  0.28385  0.54056  0.76393  1.0000
  H   H487      1.0  0.46172  0.88726  0.74510  1.0000
  H   H488      1.0  0.24250  0.93930  0.74925  1.0000
  H   H489      1.0  0.13288  0.56618  0.76447  1.0000
  H   H490      1.0  0.29696  0.56456  0.76487  1.0000
  H   H491      1.0  0.29613  0.91080  0.97912  1.0000
  C   C434      1.0  0.16315  0.96381  0.95962  1.0000
  H   H492      1.0  0.11970  0.60858  0.71775  1.0000
  C   C435      1.0  0.11944  0.58952  0.72964  1.0000
  H   H493      1.0  0.14795  0.62749  0.75525  1.0000
  H   H494      1.0  0.14929  0.93944  0.96119  1.0000
  C   C436      1.0  0.01358  0.59597  0.75043  1.0000
  H   H495      1.0  0.42355  0.58470  0.68052  1.0000
  H   H496      1.0  0.16725  0.91473  0.98800  1.0000
  C   C437      1.0  0.07946  0.67438  0.93140  1.0000
  H   H497      1.0  0.06608  0.75233  0.94998  1.0000
  C   C438      1.0  0.49216  0.94201  0.98189  1.0000
  S   S122      1.0  0.35965  0.94716  0.67975  1.0000
  H   H498      1.0  0.16315  0.98950  0.86591  1.0000
  S   S123      1.0  0.44527  0.95557  0.68152  1.0000
  C   C439      1.0  0.15229  0.55802  0.75333  1.0000
  C   C440      1.0  0.04237  0.63650  0.77096  1.0000
  C   C441      1.0  0.03754  0.60302  0.76544  1.0000
  H   H499      1.0  0.10714  0.56598  0.72432  1.0000
  H   H500      1.0  0.06070  0.64238  0.78246  1.0000
  N   N28       1.0  0.17744  0.83448  0.87052  1.0000
  C   C442      1.0  0.15036  0.82824  0.88551  1.0000
  C   C443      1.0  0.20823  0.85056  0.87988  1.0000
  C   C444      1.0  0.16265  0.85908  0.85629  1.0000
  C   C445      1.0  0.18774  0.80184  0.86173  1.0000
  C   C446      1.0  0.17766  0.79251  0.84260  1.0000
  C   C447      1.0  0.20622  0.77723  0.87288  1.0000
  C   C448      1.0  0.18594  0.76064  0.83520  1.0000
  C   C449      1.0  0.21471  0.74563  0.86523  1.0000
  C   C450      1.0  0.20449  0.73732  0.84646  1.0000
  H   H501      1.0  0.16026  0.81109  0.89715  1.0000
  H   H502      1.0  0.14182  0.85195  0.89269  1.0000
  H   H503      1.0  0.12659  0.81645  0.87909  1.0000
  H   H504      1.0  0.21792  0.83630  0.89275  1.0000
  H   H505      1.0  0.20152  0.87615  0.88548  1.0000
  H   H506      1.0  0.23041  0.85314  0.86944  1.0000
  H   H507      1.0  0.15710  0.88401  0.86306  1.0000
  H   H508      1.0  0.18128  0.86366  0.84411  1.0000
  H   H509      1.0  0.13699  0.85070  0.85028  1.0000
  H   H510      1.0  0.16264  0.80901  0.83320  1.0000
  H   H511      1.0  0.21298  0.78154  0.88791  1.0000
  H   H512      1.0  0.17702  0.75346  0.82085  1.0000
  H   H513      1.0  0.22782  0.72689  0.87424  1.0000
  H   H514      1.0  0.20965  0.71224  0.84089  1.0000
  H   H515      1.0  0.10123  0.59943  0.74104  1.0000
  H   H516      1.0  0.26829  0.54863  0.71899  1.0000
  C   C451      1.0  0.04081  0.75554  0.99728  1.0000
  C   C452      1.0  0.16810  0.61533  0.74579  1.0000
  C   C453      1.0  0.18079  0.57055  0.72285  1.0000
  H   H517      1.0  0.19186  0.61176  0.75508  1.0000
  C   C454      1.0  0.17100  0.56252  0.70347  1.0000
  C   C455      1.0  0.49058  0.96057  0.96419  1.0000
  H   H518      1.0  0.26432  0.97322  0.69326  1.0000
  H   H519      1.0  0.40758  0.95044  0.99772  1.0000
  C   C456      1.0  0.17924  0.98558  0.70733  1.0000
  C   C457      1.0  0.25618  0.87575  0.98822  1.0000
  C   C458      1.0  0.00932  0.70988  0.95833  1.0000
  H   H520      1.0  0.08368  0.64828  0.93682  1.0000
  C   C459      1.0  0.46239  0.93833  0.99365  1.0000
  H   H521      1.0  0.17762  0.55380  0.76108  1.0000
  S   S124      1.0  0.20299  0.83339  0.00091  1.0000
  S   S125      1.0  0.39718  0.98828  0.71595  1.0000
  H   H522      1.0  0.00835  0.62571  0.98700  1.0000
  N   N29       1.0  0.20101  0.96141  0.96503  1.0000
  C   C460      1.0  0.43042  0.95306  0.98835  1.0000
  H   H523      1.0  0.00800  0.73424  0.95133  1.0000
  C   C461      1.0  0.21718  0.93271  0.95455  1.0000
  H   H524      1.0  0.14439  0.56560  0.69822  1.0000
  H   H525      1.0  0.24729  0.99112  0.95930  1.0000
  H   H526      1.0  0.24654  0.87126  0.97372  1.0000
  H   H527      1.0  0.06039  0.64052  0.96806  1.0000
  H   H528      1.0  0.17476  0.63365  0.73412  1.0000
  H   H529      1.0  0.09757  0.71393  0.97382  1.0000
  C   C462      1.0  0.28439  0.89792  0.99132  1.0000
  H   H530      1.0  0.21589  0.93629  0.93853  1.0000
  H   H531      1.0  0.14908  0.98289  0.96860  1.0000
  H   H532      1.0  0.38523  0.62957  0.69377  1.0000
  H   H533      1.0  0.37781  0.68279  0.67680  1.0000
  H   H534      1.0  0.24535  0.92939  0.95858  1.0000
  H   H535      1.0  0.45118  0.51405  0.95449  1.0000
  C   C463      1.0  0.20512  0.95571  0.98619  1.0000
  C   C464      1.0  0.48740  0.97427  0.78111  1.0000
  H   H536      1.0  0.10363  0.68115  0.92310  1.0000
  C   C465      1.0  0.21661  0.56527  0.72797  1.0000
  H   H537      1.0  0.14365  0.53324  0.74767  1.0000
  S   S126      1.0  0.10034  0.97841  0.84208  1.0000
  H   H538      1.0  0.21255  0.98084  0.77079  1.0000
  H   H539      1.0  0.22591  0.57070  0.74244  1.0000
  H   H540      1.0  0.12736  0.70696  0.95394  1.0000
  C   C466      1.0  0.00856  0.64896  0.97871  1.0000
  H   H541      1.0  0.18790  0.54416  0.67548  1.0000
  C   C467      1.0  0.42793  0.97135  0.97111  1.0000
  N   N30       1.0  0.07247  0.69853  0.94735  1.0000
  H   H542      1.0  0.45414  0.98939  0.94592  1.0000
  H   H543      1.0  0.04956  0.73492  0.92752  1.0000
  C   C468      1.0  0.07066  0.73280  0.93866  1.0000
  H   H544      1.0  0.20509  0.94895  0.68900  1.0000
  C   C469      1.0  0.23054  0.97292  0.99754  1.0000
  H   H545      1.0  0.02696  0.68833  0.76621  1.0000
  C   C470      1.0  0.29868  0.51475  0.75241  1.0000
  C   C471      1.0  0.20827  0.97121  0.69786  1.0000
  Fe  Fe64      1.0  0.39790  0.98960  0.68315  1.0000
  C   C472      1.0  0.21810  0.99277  0.95812  1.0000
  H   H546      1.0  0.48900  0.71069  0.82357  1.0000
  C   C473      1.0  0.23816  0.98637  0.76480  1.0000
  C   C474      1.0  0.02314  0.66255  0.76172  1.0000
  C   C475      1.0  0.03993  0.68896  0.95777  1.0000
  C   C476      1.0  0.39956  0.63402  0.68040  1.0000
  H   H547      1.0  0.10911  0.67205  0.96633  1.0000
  C   C477      1.0  0.30505  0.99974  0.74932  1.0000
  H   H548      1.0  0.20359  0.90864  0.95787  1.0000
  H   H549      1.0  0.32306  0.51893  0.74469  1.0000
  C   C478      1.0  0.24111  0.55270  0.71463  1.0000
  H   H550      1.0  0.05713  0.67393  0.92093  1.0000
  H   H551      1.0  0.40297  0.98291  0.96715  1.0000
  C   C479      1.0  0.03293  0.51310  0.84708  1.0000
  H   H552      1.0  0.46770  0.92532  0.78810  1.0000
  H   H553      1.0  0.00966  0.57018  0.74601  1.0000
  H   H554      1.0  0.15949  0.97066  0.94402  1.0000
  C   C480      1.0  0.03833  0.65788  0.96798  1.0000
  H   H555      1.0  0.15520  0.98991  0.75254  1.0000
  S   S127      1.0  0.49248  0.95043  0.73143  1.0000
  H   H556      1.0  0.01338  0.52683  0.81091  1.0000
  H   H557      1.0  0.46492  0.56253  0.99816  1.0000
  C   C481      1.0  0.23077  0.54515  0.69577  1.0000
  H   H558      1.0  0.12490  0.98019  0.73340  1.0000
  H   H559      1.0  0.00852  0.52869  0.84659  1.0000
  H   H560      1.0  0.48575  0.84156  0.76612  1.0000
  C   C482      1.0  0.24049  0.85933  0.00393  1.0000
  S   S128      1.0  0.12098  0.51864  0.86510  1.0000
  C   C483      1.0  0.48847  0.88858  0.75041  1.0000
  C   C484      1.0  0.13571  0.00101  0.74221  1.0000
  H   H561      1.0  0.24830  0.99112  0.99143  1.0000
  C   C485      1.0  0.42133  0.60872  0.67304  1.0000
  H   H562      1.0  0.05531  0.53094  0.84710  1.0000
  H   H563      1.0  0.24998  0.53543  0.68550  1.0000
  H   H564      1.0  0.46526  0.98063  0.77178  1.0000
  H   H565      1.0  0.21250  0.99773  0.94248  1.0000
  C   C486      1.0  0.48110  0.54166  0.00312  1.0000
  H   H566      1.0  0.05973  0.52425  0.81079  1.0000
  C   C487      1.0  0.03567  0.50865  0.81217  1.0000
  H   H567      1.0  0.33076  0.00517  0.74342  1.0000
  H   H568      1.0  0.65887  0.12029  0.03699  1.0000
  H   H569      1.0  0.93163  0.47492  0.13680  1.0000
  Fe  Fe65      1.0  0.61688  0.07597  0.29149  1.0000
  S   S129      1.0  0.66900  0.10220  0.28916  1.0000
  S   S130      1.0  0.57144  0.07469  0.26983  1.0000
  Fe  Fe66      1.0  0.69350  0.05189  0.29673  1.0000
  S   S131      1.0  0.74701  0.04013  0.28287  1.0000
  Fe  Fe67      1.0  0.66433  0.11013  0.32153  1.0000
  S   S132      1.0  0.64161  0.02482  0.29685  1.0000
  C   C488      1.0  0.54502  0.19106  0.18539  1.0000
  Fe  Fe68      1.0  0.85161  0.44867  0.19785  1.0000
  S   S133      1.0  0.89318  0.48392  0.20805  1.0000
  S   S134      1.0  0.79441  0.45636  0.20694  1.0000
  Fe  Fe69      1.0  0.90374  0.40816  0.17258  1.0000
  S   S135      1.0  0.94855  0.44162  0.18160  1.0000
  S   S136      1.0  0.92477  0.36791  0.15171  1.0000
  Fe  Fe70      1.0  0.92695  0.43718  0.21181  1.0000
  S   S137      1.0  0.95799  0.43081  0.24009  1.0000
  Fe  Fe71      1.0  0.91051  0.48460  0.17681  1.0000
  C   C489      1.0  0.60052  0.41007  0.32289  1.0000
  S   S138      1.0  0.88404  0.40151  0.20332  1.0000
  S   S139      1.0  0.86703  0.45182  0.16614  1.0000
  Fe  Fe72      1.0  0.84755  0.18467  0.03707  1.0000
  S   S140      1.0  0.89806  0.15491  0.03450  1.0000
  S   S141      1.0  0.79587  0.18227  0.01989  1.0000
  Fe  Fe73      1.0  0.87620  0.22767  0.07046  1.0000
  S   S142      1.0  0.92867  0.20111  0.07032  1.0000
  S   S143      1.0  0.85436  0.26638  0.09195  1.0000
  Fe  Fe74      1.0  0.92590  0.20461  0.03764  1.0000
  H   H570      1.0  0.88544  0.25674  0.19438  1.0000
  Fe  Fe75      1.0  0.89799  0.15321  0.06726  1.0000
  S   S144      1.0  0.91933  0.10646  0.08297  1.0000
  S   S145      1.0  0.87527  0.23482  0.03793  1.0000
  S   S146      1.0  0.84551  0.17932  0.06966  1.0000
  S   S147      1.0  0.69195  0.06152  0.32901  1.0000
  H   H571      1.0  0.56820  0.08897  0.19655  1.0000
  H   H572      1.0  0.88912  0.49459  0.05198  1.0000
  Fe  Fe76      1.0  0.63825  0.03846  0.32849  1.0000
  H   H573      1.0  0.97114  0.20276  0.13120  1.0000
  C   C490      1.0  0.90445  0.34123  0.13450  1.0000
  C   C491      1.0  0.86791  0.33870  0.13292  1.0000
  C   C492      1.0  0.85312  0.31614  0.11950  1.0000
  C   C493      1.0  0.87459  0.29620  0.10738  1.0000
  C   C494      1.0  0.91115  0.29940  0.10861  1.0000
  C   C495      1.0  0.92595  0.32162  0.12222  1.0000
  H   H574      1.0  0.85104  0.35354  0.14230  1.0000
  H   H575      1.0  0.82480  0.31377  0.11868  1.0000
  H   H576      1.0  0.92798  0.28430  0.09936  1.0000
  H   H577      1.0  0.95428  0.32339  0.12336  1.0000
  C   C496      1.0  0.88279  0.04653  0.13665  1.0000
  C   C497      1.0  0.86201  0.07334  0.12943  1.0000
  C   C498      1.0  0.87209  0.09128  0.11264  1.0000
  C   C499      1.0  0.90345  0.08293  0.10308  1.0000
  C   C500      1.0  0.92409  0.05603  0.11025  1.0000
  C   C501      1.0  0.91378  0.03780  0.12688  1.0000
  H   H578      1.0  0.83791  0.08021  0.13684  1.0000
  H   H579      1.0  0.85568  0.11155  0.10714  1.0000
  H   H580      1.0  0.94840  0.04938  0.10296  1.0000
  C   C502      1.0  0.57196  0.14265  0.20301  1.0000
  C   C503      1.0  0.74647  0.11536  0.04519  1.0000
  H   H581      1.0  0.57077  0.20381  0.18354  1.0000
  H   H582      1.0  0.87987  0.20418  0.11300  1.0000
  H   H583      1.0  0.78030  0.05878  0.17069  1.0000
  C   C504      1.0  0.50238  0.07057  0.31411  1.0000
  H   H584      1.0  0.62304  0.07378  0.03968  1.0000
  H   H585      1.0  0.87435  0.42569  0.10355  1.0000
  C   C505      1.0  0.51892  0.10332  0.24770  1.0000
  H   H586      1.0  0.76013  0.11078  0.22870  1.0000
  H   H587      1.0  0.53962  0.19490  0.26238  1.0000
  C   C506      1.0  0.60182  0.09671  0.22072  1.0000
  C   C507      1.0  0.54632  0.10934  0.26095  1.0000
  H   H588      1.0  0.62908  0.37786  0.30341  1.0000
  C   C508      1.0  0.55322  0.14245  0.26647  1.0000
  C   C509      1.0  0.67402  0.02692  0.00944  1.0000
  H   H589      1.0  0.57410  0.14743  0.27671  1.0000
  C   C510      1.0  0.74979  0.08633  0.22492  1.0000
  C   C511      1.0  0.61652  0.37983  0.31750  1.0000
  H   H590      1.0  0.92907  0.40654  0.08893  1.0000
  C   C512      1.0  0.78014  0.48481  0.22525  1.0000
  C   C513      1.0  0.50650  0.16336  0.24487  1.0000
  H   H591      1.0  0.52941  0.02005  0.29226  1.0000
  H   H592      1.0  0.52603  0.09900  0.33809  1.0000
  H   H593      1.0  0.72517  0.47517  0.22013  1.0000
  H   H594      1.0  0.63337  0.11085  0.24523  1.0000
  H   H595      1.0  0.87738  0.43554  0.28762  1.0000
  C   C514      1.0  0.53358  0.16931  0.25834  1.0000
  C   C515      1.0  0.72682  0.47286  0.29429  1.0000
  H   H596      1.0  0.73507  0.04247  0.02122  1.0000
  H   H597      1.0  0.97258  0.46080  0.12594  1.0000
  C   C516      1.0  0.72426  0.02245  0.21614  1.0000
  C   C517      1.0  0.80769  0.01147  0.19371  1.0000
  N   N31       1.0  0.54934  0.15388  0.18663  1.0000
  C   C518      1.0  0.77992  0.44142  0.27104  1.0000
  C   C519      1.0  0.75881  0.44821  0.32077  1.0000
  H   H598      1.0  0.71512  0.44810  0.29070  1.0000
  H   H599      1.0  0.89400  0.44737  0.07473  1.0000
  C   C520      1.0  0.61677  0.35235  0.33027  1.0000
  H   H600      1.0  0.49988  0.14970  0.20149  1.0000
  H   H601      1.0  0.88921  0.41622  0.12738  1.0000
  C   C521      1.0  0.84065  0.42570  0.26475  1.0000
  C   C522      1.0  0.98932  0.39829  0.24498  1.0000
  C   C523      1.0  0.94471  0.45399  0.12878  1.0000
  H   H602      1.0  0.79852  0.41899  0.24441  1.0000
  H   H603      1.0  0.90281  0.19695  0.19894  1.0000
  C   C524      1.0  0.74388  0.48928  0.22863  1.0000
  C   C525      1.0  0.69167  0.07779  0.02777  1.0000
  C   C526      1.0  0.61001  0.15397  0.23108  1.0000
  H   H604      1.0  0.53174  0.20135  0.19860  1.0000
  H   H605      1.0  0.94563  0.43212  0.13890  1.0000
  H   H606      1.0  0.93005  0.01731  0.13227  1.0000
  N   N32       1.0  0.92562  0.44592  0.11057  1.0000
  C   C527      1.0  0.88929  0.43616  0.11597  1.0000
  H   H607      1.0  0.78379  0.44627  0.32909  1.0000
  C   C528      1.0  0.72250  0.07280  0.23586  1.0000
  H   H608      1.0  0.68897  0.03039  0.24030  1.0000
  H   H609      1.0  0.51413  0.11149  0.19012  1.0000
  H   H610      1.0  0.76765  0.13025  0.05119  1.0000
  C   C529      1.0  0.85004  0.43700  0.28313  1.0000
  C   C530      1.0  0.90632  0.47082  0.07861  1.0000
  H   H611      1.0  0.88250  0.28117  0.16131  1.0000
  C   C531      1.0  0.82448  0.45052  0.29558  1.0000
  H   H612      1.0  0.86061  0.41577  0.25498  1.0000
  S   S148      1.0  0.97819  0.21024  0.02131  1.0000
  N   N33       1.0  0.91931  0.18134  0.13181  1.0000
  C   C532      1.0  0.94844  0.19825  0.12136  1.0000
  C   C533      1.0  0.93127  0.14643  0.13632  1.0000
  C   C534      1.0  0.88857  0.17914  0.11861  1.0000
  C   C535      1.0  0.90949  0.20113  0.14920  1.0000
  C   C536      1.0  0.89862  0.23522  0.14721  1.0000
  C   C537      1.0  0.91048  0.18767  0.16837  1.0000
  H   H613      1.0  0.75049  0.42223  0.31705  1.0000
  S   S149      1.0  0.61036  0.08800  0.32318  1.0000
  H   H614      1.0  0.53826  0.46641  0.02067  1.0000
  H   H615      1.0  0.71205  0.08643  0.24824  1.0000
  H   H616      1.0  0.95820  0.18283  0.10893  1.0000
  H   H617      1.0  0.94021  0.22293  0.11507  1.0000
  H   H618      1.0  0.72735  0.48881  0.28103  1.0000
  H   H619      1.0  0.95472  0.14614  0.14598  1.0000
  H   H620      1.0  0.93923  0.13262  0.12292  1.0000
  C   C538      1.0  0.63553  0.05084  0.03343  1.0000
  H   H621      1.0  0.89470  0.16357  0.10562  1.0000
  H   H622      1.0  0.86566  0.16760  0.12607  1.0000
  H   H623      1.0  0.68575  0.00922  0.02026  1.0000
  H   H624      1.0  0.91785  0.16184  0.17134  1.0000
  H   H625      1.0  0.60636  0.07000  0.22304  1.0000
  H   H626      1.0  0.56530  0.11440  0.16681  1.0000
  C   C539      1.0  0.75387  0.08429  0.03677  1.0000
  C   C540      1.0  0.78868  0.45368  0.28981  1.0000
  H   H627      1.0  0.62093  0.17164  0.24137  1.0000
  C   C541      1.0  0.56495  0.14229  0.16803  1.0000
  H   H628      1.0  0.81321  0.03311  0.26365  1.0000
  C   C542      1.0  0.89024  0.25499  0.16332  1.0000
  H   H629      1.0  0.87417  0.45813  0.12167  1.0000
  N   N34       1.0  0.76982  0.01582  0.18916  1.0000
  C   C543      1.0  0.76451  0.06803  0.20957  1.0000
  H   H630      1.0  0.61363  0.03586  0.02717  1.0000
  H   H631      1.0  0.73858  0.45889  0.33085  1.0000
  S   S150      1.0  0.66281  0.48022  0.33631  1.0000
  H   H632      1.0  0.56271  0.03795  0.30705  1.0000
  C   C544      1.0  0.72708  0.06574  0.02804  1.0000
  H   H633      1.0  0.54969  0.15178  0.15528  1.0000
  H   H634      1.0  0.70805  0.48547  0.30436  1.0000
  C   C545      1.0  0.92426  0.47431  0.09658  1.0000
  C   C546      1.0  0.52217  0.48739  0.01577  1.0000
  H   H635      1.0  0.90994  0.13131  0.14307  1.0000
  H   H636      1.0  0.52831  0.19877  0.17284  1.0000
  S   S151      1.0  0.86948  0.02592  0.15833  1.0000
  H   H637      1.0  0.64722  0.03604  0.04563  1.0000
  N   N35       1.0  0.51200  0.03612  0.32073  1.0000
  H   H638      1.0  0.78086  0.07513  0.03639  1.0000
  C   C547      1.0  0.75251  0.03531  0.20485  1.0000
  N   N36       1.0  0.66254  0.05900  0.01862  1.0000
  H   H639      1.0  0.94608  0.39510  0.11212  1.0000
  C   C548      1.0  0.94361  0.41650  0.10164  1.0000
  C   C549      1.0  0.89191  0.24124  0.18192  1.0000
  H   H640      1.0  0.58221  0.19217  0.21599  1.0000
  C   C550      1.0  0.80564  0.42752  0.25884  1.0000
  C   C551      1.0  0.71214  0.12791  0.04515  1.0000
  H   H641      1.0  0.59254  0.15117  0.16649  1.0000
  H   H642      1.0  0.97752  0.12007  0.31736  1.0000
  C   C552      1.0  0.90180  0.20761  0.18444  1.0000
  N   N37       1.0  0.76241  0.46918  0.30303  1.0000
  H   H643      1.0  0.63368  0.10342  0.00893  1.0000
  C   C553      1.0  0.70952  0.04114  0.23135  1.0000
  H   H644      1.0  0.83304  0.45891  0.30970  1.0000
  H   H645      1.0  0.89652  0.24684  0.13308  1.0000
  H   H646      1.0  0.60107  0.43167  0.31321  1.0000
  C   C554      1.0  0.57967  0.10788  0.20577  1.0000
  C   C555      1.0  0.61714  0.11973  0.23327  1.0000
  H   H647      1.0  0.70679  0.15249  0.05134  1.0000
  C   C556      1.0  0.58753  0.16543  0.21633  1.0000
  H   H648      1.0  0.62977  0.32952  0.32551  1.0000
  H   H649      1.0  0.82228  0.03556  0.19376  1.0000
  C   C557      1.0  0.68502  0.10939  0.03672  1.0000
  H   H650      1.0  0.79813  0.50276  0.31792  1.0000
  H   H651      1.0  0.98696  0.37558  0.21671  1.0000
  H   H652      1.0  0.75358  0.44297  0.26520  1.0000
  C   C558      1.0  0.76286  0.00906  0.26643  1.0000
  H   H653      1.0  0.78602  0.07933  0.20171  1.0000
  C   C559      1.0  0.51369  0.13931  0.18857  1.0000
  C   C560      1.0  0.80400  0.50311  0.23642  1.0000
  C   C561      1.0  0.50301  0.04496  0.00729  1.0000
  H   H654      1.0  0.98382  0.24639  0.26597  1.0000
  S   S152      1.0  0.68514  0.15681  0.33672  1.0000
  H   H655      1.0  0.77915  0.01975  0.15833  1.0000
  C   C562      1.0  0.53897  0.02184  0.30749  1.0000
  H   H656      1.0  0.51319  0.07775  0.24348  1.0000
  C   C563      1.0  0.79730  0.01207  0.25917  1.0000
  H   H657      1.0  0.97062  0.42310  0.09676  1.0000
  H   H658      1.0  0.82205  0.11691  0.00561  1.0000
  C   C564      1.0  0.51146  0.10001  0.32465  1.0000
  H   H659      1.0  0.83196  0.49945  0.23433  1.0000
  H   H660      1.0  0.51005  0.15429  0.32586  1.0000
  H   H661      1.0  0.73856  0.03890  0.16662  1.0000
  C   C565      1.0  0.76664  0.03417  0.17043  1.0000
  C   C566      1.0  0.90341  0.49765  0.06547  1.0000
  H   H662      1.0  0.95338  0.13881  0.28572  1.0000
  H   H663      1.0  0.97553  0.18877  0.26970  1.0000
  C   C567      1.0  0.50240  0.13215  0.31778  1.0000
  C   C568      1.0  0.97411  0.15313  0.29257  1.0000
  C   C569      1.0  0.99690  0.24272  0.00698  1.0000
  C   C570      1.0  0.98716  0.18205  0.28350  1.0000
  C   C571      1.0  0.98765  0.14250  0.31040  1.0000
  C   C572      1.0  0.99915  0.37471  0.23091  1.0000
  H   H664      1.0  0.99814  0.41488  0.27434  1.0000
  H   H665      1.0  0.99651  0.26481  0.30017  1.0000
  C   C573      1.0  0.77411  0.50329  0.30877  1.0000
  C   C574      1.0  0.77727  0.15045  0.00508  1.0000
  H   H666      1.0  0.95077  0.27446  0.00563  1.0000
  N   N38       1.0  0.60287  0.32537  0.36245  1.0000
  H   H667      1.0  0.93058  0.44077  0.45412  1.0000
  Fe  Fe77      1.0  0.61124  0.31454  0.46300  1.0000
  S   S153      1.0  0.65405  0.27888  0.45343  1.0000
  S   S154      1.0  0.58289  0.30625  0.49199  1.0000
  Fe  Fe78      1.0  0.62535  0.36248  0.42810  1.0000
  S   S155      1.0  0.66875  0.32962  0.41632  1.0000
  S   S156      1.0  0.60495  0.41076  0.41368  1.0000
  Fe  Fe79      1.0  0.63279  0.28626  0.42312  1.0000
  S   S157      1.0  0.61265  0.24464  0.40320  1.0000
  Fe  Fe80      1.0  0.68605  0.32557  0.44774  1.0000
  S   S158      1.0  0.74347  0.32777  0.45755  1.0000
  S   S159      1.0  0.58801  0.31962  0.43320  1.0000
  S   S160      1.0  0.64461  0.36087  0.45909  1.0000
  S   S161      1.0  0.90616  0.10429  0.65886  1.0000
  S   S162      1.0  0.92507  0.27375  0.65594  1.0000
  Fe  Fe81      1.0  0.85049  0.44162  0.53338  1.0000
  S   S163      1.0  0.89189  0.40162  0.53720  1.0000
  S   S164      1.0  0.80486  0.44305  0.51190  1.0000
  Fe  Fe82      1.0  0.87837  0.48335  0.56792  1.0000
  S   S165      1.0  0.92147  0.44549  0.57453  1.0000
  H   H668      1.0  0.90578  0.16790  0.63689  1.0000
  Fe  Fe83      1.0  0.92931  0.44484  0.54180  1.0000
  C   C575      1.0  0.96657  0.19340  0.62727  1.0000
  Fe  Fe84      1.0  0.88059  0.40544  0.56926  1.0000
  S   S166      1.0  0.86130  0.35802  0.58478  1.0000
  S   S167      1.0  0.88847  0.48464  0.53564  1.0000
  S   S168      1.0  0.83711  0.44353  0.56500  1.0000
  N   N39       1.0  0.75965  0.34948  0.55081  1.0000
  C   C576      1.0  0.84115  0.39066  0.44188  1.0000
  H   H669      1.0  0.84696  0.36611  0.43577  1.0000
  H   H670      1.0  0.57269  0.39013  0.36791  1.0000
  H   H671      1.0  0.91873  0.44785  0.49798  1.0000
  C   C577      1.0  0.90588  0.29771  0.63676  1.0000
  C   C578      1.0  0.87422  0.28860  0.62795  1.0000
  C   C579      1.0  0.86092  0.30753  0.61216  1.0000
  C   C580      1.0  0.87892  0.33585  0.60508  1.0000
  C   C581      1.0  0.91033  0.34525  0.61405  1.0000
  C   C582      1.0  0.92376  0.32618  0.62976  1.0000
  H   H672      1.0  0.86015  0.26683  0.63316  1.0000
  H   H673      1.0  0.83664  0.30001  0.60531  1.0000
  H   H674      1.0  0.92455  0.36686  0.60873  1.0000
  H   H675      1.0  0.94834  0.33334  0.63644  1.0000
  C   C583      1.0  0.89630  0.08748  0.63569  1.0000
  C   C584      1.0  0.87148  0.10230  0.62324  1.0000
  C   C585      1.0  0.86341  0.08687  0.60539  1.0000
  C   C586      1.0  0.88004  0.05659  0.59981  1.0000
  C   C587      1.0  0.90558  0.04237  0.61201  1.0000
  C   C588      1.0  0.91343  0.05762  0.62991  1.0000
  H   H676      1.0  0.85761  0.12489  0.62765  1.0000
  H   H677      1.0  0.84353  0.09798  0.59604  1.0000
  C   C589      1.0  0.66830  0.06244  0.42377  1.0000
  H   H678      1.0  0.93273  0.04603  0.63944  1.0000
  C   C590      1.0  0.54837  0.27722  0.49638  1.0000
  C   C591      1.0  0.53045  0.26128  0.48128  1.0000
  C   C592      1.0  0.69743  0.32272  0.51048  1.0000
  H   H679      1.0  0.80923  0.06111  0.63298  1.0000
  H   H680      1.0  0.72986  0.39547  0.55430  1.0000
  C   C593      1.0  0.76016  0.35988  0.47274  1.0000
  C   C594      1.0  0.74070  0.38911  0.47673  1.0000
  C   C595      1.0  0.75488  0.41423  0.48873  1.0000
  C   C596      1.0  0.78852  0.41038  0.49700  1.0000
  C   C597      1.0  0.80804  0.38115  0.49306  1.0000
  C   C598      1.0  0.79393  0.35608  0.48094  1.0000
  H   H681      1.0  0.71483  0.39253  0.47043  1.0000
  H   H682      1.0  0.73963  0.43682  0.49159  1.0000
  H   H683      1.0  0.83404  0.37791  0.49921  1.0000
  H   H684      1.0  0.80923  0.33362  0.47786  1.0000
  C   C599      1.0  0.66428  0.18149  0.35484  1.0000
  C   C600      1.0  0.62872  0.17766  0.35953  1.0000
  C   C601      1.0  0.61350  0.19720  0.37442  1.0000
  C   C602      1.0  0.63353  0.22078  0.38473  1.0000
  C   C603      1.0  0.66900  0.22481  0.37995  1.0000
  C   C604      1.0  0.68424  0.20528  0.36504  1.0000
  H   H685      1.0  0.61293  0.15978  0.35165  1.0000
  H   H686      1.0  0.58597  0.19405  0.37797  1.0000
  H   H687      1.0  0.68475  0.24281  0.38779  1.0000
  C   C605      1.0  0.85956  0.43960  0.46102  1.0000
  C   C606      1.0  0.64760  0.46274  0.35856  1.0000
  C   C607      1.0  0.66309  0.43257  0.36534  1.0000
  C   C608      1.0  0.65099  0.41684  0.38244  1.0000
  C   C609      1.0  0.62281  0.43084  0.39281  1.0000
  C   C610      1.0  0.60746  0.46110  0.38610  1.0000
  C   C611      1.0  0.61992  0.47714  0.36914  1.0000
  C   C612      1.0  0.83044  0.04157  0.65966  1.0000
  H   H688      1.0  0.66327  0.39383  0.38754  1.0000
  H   H689      1.0  0.58565  0.47214  0.39402  1.0000
  C   C613      1.0  0.94552  0.27654  0.58969  1.0000
  H   H690      1.0  0.96960  0.17085  0.63685  1.0000
  H   H691      1.0  0.55167  0.28301  0.52740  1.0000
  H   H692      1.0  0.71177  0.20843  0.36149  1.0000
  C   C614      1.0  0.53773  0.27110  0.51564  1.0000
  H   H693      1.0  0.77678  0.40018  0.55655  1.0000
  C   C615      1.0  0.70590  0.31128  0.55030  1.0000
  N   N40       1.0  0.67403  0.09026  0.39045  1.0000
  C   C616      1.0  0.70858  0.09278  0.38052  1.0000
  C   C617      1.0  0.64612  0.08689  0.37555  1.0000
  C   C618      1.0  0.66767  0.12255  0.40078  1.0000
  C   C619      1.0  0.67396  0.06032  0.40337  1.0000
  H   H694      1.0  0.77280  0.44535  0.44698  1.0000
  C   C620      1.0  0.85202  0.46521  0.62061  1.0000
  H   H695      1.0  0.99569  0.05974  0.49587  1.0000
  C   C621      1.0  0.87513  0.48957  0.48071  1.0000
  H   H696      1.0  0.57246  0.43661  0.34521  1.0000
  H   H697      1.0  0.71422  0.07073  0.37110  1.0000
  H   H698      1.0  0.70974  0.11535  0.37084  1.0000
  H   H699      1.0  0.73043  0.09459  0.39122  1.0000
  H   H700      1.0  0.96989  0.25318  0.61383  1.0000
  H   H701      1.0  0.99162  0.19633  0.61910  1.0000
  C   C622      1.0  0.66821  0.03351  0.43545  1.0000
  H   H702      1.0  0.55782  0.30164  0.34973  1.0000
  H   H703      1.0  0.64133  0.12318  0.40787  1.0000
  H   H704      1.0  0.68833  0.12733  0.41187  1.0000
  H   H705      1.0  0.66372  0.08607  0.43107  1.0000
  C   C623      1.0  0.67952  0.02763  0.39557  1.0000
  H   H706      1.0  0.58565  0.27378  0.36375  1.0000
  C   C624      1.0  0.91776  0.46413  0.45958  1.0000
  C   C625      1.0  0.79941  0.43536  0.44812  1.0000
  N   N41       1.0  0.88716  0.45703  0.47229  1.0000
  H   H707      1.0  0.91649  0.15060  0.59514  1.0000
  H   H708      1.0  0.66370  0.03557  0.45096  1.0000
  H   H709      1.0  0.53839  0.26565  0.46640  1.0000
  H   H710      1.0  0.78715  0.39025  0.43243  1.0000
  C   C626      1.0  0.86694  0.40803  0.45221  1.0000
  H   H711      1.0  0.65046  0.06470  0.36611  1.0000
  H   H712      1.0  0.60767  0.50025  0.36409  1.0000
  C   C627      1.0  0.98182  0.49597  0.50079  1.0000
  C   C628      1.0  0.86801  0.43398  0.62376  1.0000
  H   H713      1.0  0.88143  0.24405  0.56133  1.0000
  H   H714      1.0  0.53294  0.00881  0.34553  1.0000
  C   C629      1.0  0.67384  0.30220  0.52031  1.0000
  C   C630      1.0  0.90125  0.24526  0.57262  1.0000
  H   H715      1.0  0.50149  0.24494  0.53460  1.0000
  H   H716      1.0  0.91163  0.41145  0.48363  1.0000
  C   C631      1.0  0.60109  0.35447  0.34895  1.0000
  H   H717      1.0  0.64266  0.29633  0.37758  1.0000
  H   H718      1.0  0.51201  0.35902  0.55545  1.0000
  H   H719      1.0  0.87626  0.42823  0.49792  1.0000
  C   C632      1.0  0.92046  0.27464  0.57500  1.0000
  H   H720      1.0  0.74253  0.35356  0.51224  1.0000
  H   H721      1.0  0.97230  0.01677  0.51866  1.0000
  C   C633      1.0  0.94046  0.15787  0.60330  1.0000
  H   H722      1.0  0.76587  0.31444  0.57462  1.0000
  H   H723      1.0  0.65461  0.33895  0.37210  1.0000
  C   C634      1.0  0.76152  0.34181  0.57193  1.0000
  C   C635      1.0  0.75575  0.38652  0.54867  1.0000
  H   H724      1.0  0.96322  0.21513  0.63734  1.0000
  H   H725      1.0  0.95974  0.29978  0.59180  1.0000
  N   N42       1.0  0.93607  0.19020  0.61389  1.0000
  C   C636      1.0  0.90388  0.18846  0.62589  1.0000
  H   H726      1.0  0.55177  0.04880  0.34181  1.0000
  C   C637      1.0  0.81995  0.03915  0.64036  1.0000
  C   C638      1.0  0.93226  0.21880  0.60015  1.0000
  H   H727      1.0  0.51147  0.35784  0.48872  1.0000
  C   C639      1.0  0.90690  0.21774  0.58501  1.0000
  S   S169      1.0  0.86694  0.03693  0.57792  1.0000
  H   H728      1.0  0.94557  0.13639  0.61344  1.0000
  C   C640      1.0  0.58535  0.33180  0.38137  1.0000
  C   C641      1.0  0.95126  0.24927  0.60224  1.0000
  H   H729      1.0  0.81626  0.47608  0.46526  1.0000
  C   C642      1.0  0.89898  0.43520  0.48860  1.0000
  H   H730      1.0  0.55695  0.33812  0.37954  1.0000
  H   H731      1.0  0.89051  0.19597  0.58296  1.0000
  H   H732      1.0  0.91539  0.29632  0.56575  1.0000
  H   H733      1.0  0.96279  0.15910  0.59288  1.0000
  H   H734      1.0  0.82798  0.06538  0.66724  1.0000
  H   H735      1.0  0.65968  0.28026  0.54765  1.0000
  H   H736      1.0  0.64511  0.10907  0.36566  1.0000
  H   H737      1.0  0.73729  0.35031  0.57962  1.0000
  H   H738      1.0  0.66820  0.14447  0.39065  1.0000
  H   H739      1.0  0.69424  0.32704  0.49498  1.0000
  H   H740      1.0  0.89253  0.39619  0.45355  1.0000
  H   H741      1.0  0.65219  0.29083  0.51247  1.0000
  H   H742      1.0  0.79730  0.31106  0.54295  1.0000
  H   H743      1.0  0.59828  0.35257  0.38941  1.0000
  H   H744      1.0  0.59930  0.28703  0.34024  1.0000
  H   H745      1.0  0.87997  0.18368  0.61706  1.0000
  C   C643      1.0  0.73026  0.33264  0.54068  1.0000
  C   C644      1.0  0.79371  0.33886  0.54211  1.0000
  H   H746      1.0  0.78401  0.35489  0.57899  1.0000
  H   H747      1.0  0.70766  0.30569  0.56561  1.0000
  C   C645      1.0  0.80745  0.40429  0.43987  1.0000
  H   H748      1.0  0.87102  0.41638  0.61186  1.0000
  H   H749      1.0  0.75760  0.39493  0.53330  1.0000
  H   H750      1.0  0.68445  0.42118  0.35725  1.0000
  C   C646      1.0  0.87675  0.44831  0.65755  1.0000
  H   H751      1.0  0.79583  0.34616  0.52660  1.0000
  H   H752      1.0  0.89947  0.21262  0.63373  1.0000
  H   H753      1.0  0.91910  0.01951  0.60774  1.0000
  C   C647      1.0  0.64024  0.31671  0.36650  1.0000
  H   H754      1.0  0.81650  0.35065  0.54960  1.0000
  S   S170      1.0  0.98401  0.44365  0.52788  1.0000
  C   C648      1.0  0.72513  0.33774  0.52048  1.0000
  C   C649      1.0  0.67812  0.29641  0.54015  1.0000
  C   C650      1.0  0.50915  0.24979  0.51977  1.0000
  H   H755      1.0  0.58655  0.30930  0.39102  1.0000
  H   H756      1.0  0.61975  0.08396  0.38237  1.0000
  H   H757      1.0  0.85297  0.48591  0.49109  1.0000
  C   C651      1.0  0.88039  0.42554  0.64219  1.0000
  C   C652      1.0  0.82486  0.45283  0.45864  1.0000
  C   C653      1.0  0.58467  0.38563  0.35391  1.0000
  C   C654      1.0  0.52650  0.03503  0.34077  1.0000
  H   H758      1.0  0.84297  0.47202  0.60616  1.0000
  H   H759      1.0  0.90966  0.47951  0.44675  1.0000
  S   S171      1.0  0.85613  0.19703  0.66710  1.0000
  C   C655      1.0  0.58567  0.29576  0.35360  1.0000
  H   H760      1.0  0.65441  0.30750  0.35343  1.0000
  H   H761      1.0  0.93857  0.47823  0.46743  1.0000
  H   H762      1.0  0.95440  0.49902  0.50455  1.0000
  C   C656      1.0  0.50158  0.24029  0.48541  1.0000
  C   C657      1.0  0.99655  0.01191  0.51089  1.0000
  H   H763      1.0  0.89300  0.40120  0.64452  1.0000
  C   C658      1.0  0.86013  0.48022  0.65490  1.0000
  H   H764      1.0  0.68355  0.02382  0.38018  1.0000
  C   C659      1.0  0.84801  0.48808  0.63585  1.0000
  C   C660      1.0  0.84542  0.01377  0.66897  1.0000
  H   H765      1.0  0.50861  0.36575  0.52344  1.0000
  H   H766      1.0  0.50761  0.04575  0.35149  1.0000
  H   H767      1.0  0.81874  0.00947  0.61484  1.0000
  H   H768      1.0  0.50466  0.29768  0.55361  1.0000
  C   C661      1.0  0.82504  0.00915  0.63015  1.0000
  H   H769      1.0  0.89638  0.50205  0.48908  1.0000
  H   H770      1.0  0.88723  0.44074  0.67149  1.0000
  S   S172      1.0  0.61129  0.00885  0.35250  1.0000
  H   H771      1.0  0.96699  0.01109  0.46465  1.0000
  C   C662      1.0  0.58435  0.41281  0.34095  1.0000
  N   N43       1.0  0.85636  0.50376  0.67145  1.0000
  H   H772      1.0  0.85430  0.01611  0.68387  1.0000
  H   H773      1.0  0.66576  0.08725  0.99215  1.0000
  Fe  Fe85      1.0  0.84614  0.19947  0.69950  1.0000
  S   S173      1.0  0.89034  0.23502  0.70547  1.0000
  S   S174      1.0  0.79246  0.20141  0.71447  1.0000
  C   C663      1.0  0.97019  0.47946  0.82812  1.0000
  Fe  Fe86      1.0  0.92373  0.18833  0.71020  1.0000
  S   S175      1.0  0.95725  0.18525  0.73779  1.0000
  H   H774      1.0  0.78764  0.24802  0.97199  1.0000
  S   S176      1.0  0.87888  0.15309  0.70577  1.0000
  Fe  Fe87      1.0  0.59424  0.07038  0.95970  1.0000
  S   S177      1.0  0.63485  0.02958  0.95667  1.0000
  S   S178      1.0  0.55164  0.07354  0.98292  1.0000
  Fe  Fe88      1.0  0.62229  0.10936  0.92393  1.0000
  S   S179      1.0  0.66489  0.07054  0.91826  1.0000
  S   S180      1.0  0.61042  0.16059  0.91007  1.0000
  Fe  Fe89      1.0  0.62303  0.03178  0.92457  1.0000
  H   H775      1.0  0.59436  0.44392  0.79848  1.0000
  Fe  Fe90      1.0  0.67294  0.07169  0.95085  1.0000
  S   S181      1.0  0.72705  0.07090  0.96525  1.0000
  S   S182      1.0  0.57995  0.07077  0.92808  1.0000
  S   S183      1.0  0.63301  0.11239  0.95605  1.0000
  Fe  Fe91      1.0  0.68278  0.32229  0.78514  1.0000
  S   S184      1.0  0.63835  0.28564  0.78683  1.0000
  S   S185      1.0  0.72571  0.32421  0.76195  1.0000
  Fe  Fe92      1.0  0.65567  0.36165  0.82097  1.0000
  S   S186      1.0  0.60994  0.32670  0.82541  1.0000
  S   S187      1.0  0.66871  0.41081  0.83635  1.0000
  Fe  Fe93      1.0  0.64909  0.28472  0.81911  1.0000
  S   S188      1.0  0.66060  0.23238  0.83172  1.0000
  Fe  Fe94      1.0  0.60335  0.33068  0.79280  1.0000
  S   S189      1.0  0.54822  0.33641  0.77955  1.0000
  S   S190      1.0  0.69537  0.31967  0.81693  1.0000
  S   S191      1.0  0.64708  0.36746  0.78879  1.0000
  H   H776      1.0  0.73606  0.24137  0.95118  1.0000
  C   C664      1.0  0.55000  0.39144  0.75411  1.0000
  C   C665      1.0  0.74551  0.10179  0.98077  1.0000
  C   C666      1.0  0.58282  0.42144  0.80557  1.0000
  H   H777      1.0  0.52102  0.42045  0.94131  1.0000
  C   C667      1.0  0.52826  0.46739  0.78846  1.0000
  H   H778      1.0  0.98110  0.38429  0.83948  1.0000
  C   C668      1.0  0.62502  0.17996  0.88825  1.0000
  C   C669      1.0  0.61354  0.21297  0.88400  1.0000
  C   C670      1.0  0.62431  0.22952  0.86687  1.0000
  C   C671      1.0  0.64675  0.21318  0.85377  1.0000
  C   C672      1.0  0.65859  0.18031  0.85816  1.0000
  C   C673      1.0  0.64786  0.16376  0.87530  1.0000
  H   H779      1.0  0.59594  0.22576  0.89394  1.0000
  H   H780      1.0  0.61503  0.25478  0.86372  1.0000
  H   H781      1.0  0.67595  0.16744  0.84811  1.0000
  H   H782      1.0  0.65690  0.13839  0.87835  1.0000
  C   C674      1.0  0.61677  0.46561  0.88802  1.0000
  C   C675      1.0  0.64534  0.47963  0.87820  1.0000
  C   C676      1.0  0.66092  0.46238  0.86249  1.0000
  C   C677      1.0  0.64836  0.43088  0.85648  1.0000
  C   C678      1.0  0.61991  0.41672  0.86638  1.0000
  C   C679      1.0  0.60408  0.43414  0.88197  1.0000
  H   H783      1.0  0.71560  0.23392  0.91925  1.0000
  H   H784      1.0  0.68298  0.47348  0.85497  1.0000
  H   H785      1.0  0.61031  0.39231  0.86210  1.0000
  H   H786      1.0  0.58213  0.42298  0.88955  1.0000
  C   C680      1.0  0.50554  0.50365  0.93387  1.0000
  H   H787      1.0  0.98274  0.20526  0.94072  1.0000
  C   C681      1.0  0.53010  0.36573  0.76251  1.0000
  H   H788      1.0  0.53261  0.44717  0.92159  1.0000
  H   H789      1.0  0.76854  0.13751  0.94078  1.0000
  H   H790      1.0  0.81121  0.47777  0.68258  1.0000
  H   H791      1.0  0.92180  0.40837  0.83348  1.0000
  C   C682      1.0  0.77454  0.23582  0.72774  1.0000
  C   C683      1.0  0.78980  0.26773  0.72734  1.0000
  C   C684      1.0  0.77468  0.29437  0.73804  1.0000
  C   C685      1.0  0.74439  0.28941  0.74940  1.0000
  C   C686      1.0  0.72906  0.25754  0.74978  1.0000
  C   C687      1.0  0.74398  0.23098  0.73891  1.0000
  H   H792      1.0  0.81305  0.27197  0.71863  1.0000
  H   H793      1.0  0.78655  0.31900  0.73752  1.0000
  H   H794      1.0  0.70579  0.25332  0.75847  1.0000
  H   H795      1.0  0.73198  0.20640  0.73931  1.0000
  S   S192      1.0  0.94040  0.18661  0.67896  1.0000
  H   H796      1.0  0.67022  0.34942  0.71238  1.0000
  H   H797      1.0  0.72855  0.17801  0.00156  1.0000
  C   C688      1.0  0.98727  0.15209  0.74395  1.0000
  C   C689      1.0  0.74292  0.15529  0.99785  1.0000
  H   H798      1.0  0.55177  0.45602  0.96616  1.0000
  H   H799      1.0  0.65537  0.50379  0.88267  1.0000
  H   H800      1.0  0.60304  0.41214  0.81606  1.0000
  H   H801      1.0  0.82935  0.20083  0.97712  1.0000
  H   H802      1.0  0.97730  0.12179  0.71874  1.0000
  C   C690      1.0  0.94471  0.42442  0.83284  1.0000
  C   C691      1.0  0.99205  0.12383  0.73212  1.0000
  H   H803      1.0  0.50852  0.33557  0.71756  1.0000
  H   H804      1.0  0.62445  0.06635  0.99571  1.0000
  S   S193      1.0  0.59541  0.48662  0.90754  1.0000
  C   C692      1.0  0.53459  0.33925  0.71155  1.0000
  H   H805      1.0  0.55007  0.43344  0.73407  1.0000
  H   H806      1.0  0.91461  0.46915  0.82645  1.0000
  C   C693      1.0  0.53605  0.04103  0.99837  1.0000
  Fe  Fe95      1.0  0.90283  0.22994  0.67360  1.0000
  H   H807      1.0  0.54623  0.50076  0.96463  1.0000
  C   C694      1.0  0.54547  0.47712  0.95612  1.0000
  N   N44       1.0  0.54884  0.42879  0.81530  1.0000
  H   H808      1.0  0.79431  0.07423  0.98426  1.0000
  C   C695      1.0  0.97785  0.27129  0.00107  1.0000
  H   H809      1.0  0.56461  0.00664  0.79616  1.0000
  C   C696      1.0  0.64594  0.07997  0.00324  1.0000
  H   H810      1.0  0.51571  0.37052  0.68817  1.0000
  C   C697      1.0  0.77980  0.09683  0.98806  1.0000
  H   H811      1.0  0.53625  0.37595  0.81677  1.0000
  C   C698      1.0  0.97815  0.41091  0.83619  1.0000
  H   H812      1.0  0.58143  0.00863  0.99551  1.0000
  C   C699      1.0  0.57213  0.36442  0.68746  1.0000
  H   H813      1.0  0.55949  0.31239  0.73451  1.0000
  N   N45       1.0  0.85501  0.20051  0.76786  1.0000
  C   C700      1.0  0.85611  0.16823  0.75701  1.0000
  C   C701      1.0  0.86558  0.22740  0.75413  1.0000
  C   C702      1.0  0.88168  0.19817  0.78355  1.0000
  C   C703      1.0  0.82001  0.20857  0.77629  1.0000
  C   C704      1.0  0.79085  0.18645  0.77504  1.0000
  C   C705      1.0  0.81445  0.23921  0.78649  1.0000
  C   C706      1.0  0.75849  0.19452  0.78368  1.0000
  C   C707      1.0  0.78183  0.24722  0.79481  1.0000
  C   C708      1.0  0.75399  0.22481  0.79355  1.0000
  H   H814      1.0  0.83715  0.16856  0.74465  1.0000
  H   H815      1.0  0.88265  0.16329  0.75061  1.0000
  H   H816      1.0  0.85031  0.14638  0.76659  1.0000
  H   H817      1.0  0.84626  0.22980  0.74207  1.0000
  H   H818      1.0  0.89185  0.22196  0.74758  1.0000
  H   H819      1.0  0.86771  0.25242  0.76108  1.0000
  H   H820      1.0  0.87432  0.17876  0.79447  1.0000
  H   H821      1.0  0.90820  0.19120  0.77769  1.0000
  H   H822      1.0  0.88487  0.22243  0.79129  1.0000
  H   H823      1.0  0.79216  0.16295  0.76725  1.0000
  H   H824      1.0  0.83523  0.25734  0.78803  1.0000
  H   H825      1.0  0.73652  0.17745  0.78247  1.0000
  H   H826      1.0  0.77790  0.27108  0.80216  1.0000
  H   H827      1.0  0.72871  0.23112  0.80004  1.0000
  H   H828      1.0  0.64987  0.27181  0.73702  1.0000
  H   H829      1.0  0.68607  0.31169  0.72313  1.0000
  H   H830      1.0  0.65497  0.32967  0.75199  1.0000
  H   H831      1.0  0.57736  0.39420  0.75802  1.0000
  H   H832      1.0  0.52885  0.46345  0.83666  1.0000
  N   N46       1.0  0.71390  0.18439  0.93241  1.0000
  C   C709      1.0  0.70904  0.14944  0.92535  1.0000
  C   C710      1.0  0.68272  0.19322  0.94443  1.0000
  C   C711      1.0  0.71457  0.20690  0.91518  1.0000
  C   C712      1.0  0.74650  0.18873  0.94391  1.0000
  C   C713      1.0  0.75368  0.22007  0.95288  1.0000
  C   C714      1.0  0.77170  0.16241  0.94675  1.0000
  C   C715      1.0  0.78333  0.22432  0.96463  1.0000
  H   H833      1.0  0.51423  0.40204  0.83473  1.0000
  H   H834      1.0  0.57944  0.40181  0.79426  1.0000
  H   H835      1.0  0.68403  0.14686  0.91706  1.0000
  H   H836      1.0  0.73044  0.14159  0.91526  1.0000
  H   H837      1.0  0.70794  0.13116  0.93765  1.0000
  H   H838      1.0  0.65762  0.18829  0.93665  1.0000
  H   H839      1.0  0.68173  0.22026  0.94838  1.0000
  H   H840      1.0  0.68241  0.17829  0.95811  1.0000
  H   H841      1.0  0.73784  0.20137  0.90585  1.0000
  H   H842      1.0  0.69055  0.20390  0.90603  1.0000
  C   C716      1.0  0.63167  0.33758  0.74331  1.0000
  C   C717      1.0  0.53445  0.41367  0.74047  1.0000
  C   C718      1.0  0.53861  0.35892  0.69496  1.0000
  H   H843      1.0  0.60812  0.33380  0.75263  1.0000
  C   C719      1.0  0.72707  0.13110  0.98584  1.0000
  C   C720      1.0  0.62585  0.28213  0.72971  1.0000
  H   H844      1.0  0.63389  0.36510  0.74052  1.0000
  H   H845      1.0  0.97873  0.31744  0.98436  1.0000
  C   C721      1.0  0.66360  0.32245  0.71460  1.0000
  H   H846      1.0  0.70072  0.13526  0.98045  1.0000
  N   N47       1.0  0.62954  0.31845  0.72497  1.0000
  H   H847      1.0  0.62133  0.26708  0.71636  1.0000
  H   H848      1.0  0.60392  0.27721  0.73999  1.0000
  H   H849      1.0  0.66344  0.30932  0.70036  1.0000
  H   H850      1.0  0.50625  0.01370  0.93965  1.0000
  H   H851      1.0  0.99688  0.17444  0.95839  1.0000
  C   C722      1.0  0.60184  0.35063  0.69667  1.0000
  C   C723      1.0  0.80153  0.16716  0.95828  1.0000
  H   H852      1.0  0.57509  0.38008  0.67465  1.0000
  H   H853      1.0  0.55205  0.48191  0.78971  1.0000
  H   H854      1.0  0.55973  0.39115  0.83732  1.0000
  C   C724      1.0  0.55591  0.01191  0.00221  1.0000
  C   C725      1.0  0.53910  0.39818  0.82649  1.0000
  C   C726      1.0  0.51282  0.44366  0.93340  1.0000
  C   C727      1.0  0.80708  0.19785  0.96742  1.0000
  H   H855      1.0  0.62701  0.35639  0.69028  1.0000
  C   C728      1.0  0.56405  0.32574  0.72103  1.0000
  H   H856      1.0  0.81974  0.14641  0.96084  1.0000
  H   H857      1.0  0.57336  0.44937  0.84089  1.0000
  C   C729      1.0  0.59865  0.33092  0.71387  1.0000
  C   C730      1.0  0.55403  0.45650  0.82938  1.0000
  H   H858      1.0  0.83236  0.50477  0.69989  1.0000
  C   C731      1.0  0.52230  0.43901  0.80059  1.0000
  C   C732      1.0  0.94073  0.45865  0.82886  1.0000
  H   H859      1.0  0.56460  0.47954  0.82240  1.0000
  H   H860      1.0  0.51360  0.02104  0.77607  1.0000
  H   H861      1.0  0.56743  0.47836  0.94545  1.0000
  N   N48       1.0  0.51095  0.47343  0.94634  1.0000
  H   H862      1.0  0.53130  0.01455  0.96159  1.0000
  H   H863      1.0  0.90718  0.49180  0.68416  1.0000
  H   H864      1.0  0.85202  0.46538  0.69378  1.0000
  C   C733      1.0  0.99380  0.29559  0.98900  1.0000
  C   C734      1.0  0.79563  0.12099  0.00017  1.0000
  C   C735      1.0  0.83720  0.48716  0.68760  1.0000
  Fe  Fe96      1.0  0.89325  0.15387  0.67404  1.0000
  H   H865      1.0  0.50956  0.49823  0.76464  1.0000
  H   H866      1.0  0.69358  0.03148  0.99764  1.0000
  H   H867      1.0  0.50537  0.42260  0.97340  1.0000
  C   C736      1.0  0.50404  0.47715  0.77417  1.0000
  H   H868      1.0  0.65160  0.01359  0.00257  1.0000
  Fe  Fe97      1.0  0.65054  0.53043  0.32106  1.0000
  S   S194      1.0  0.69547  0.56702  0.32022  1.0000
  Fe  Fe98      1.0  0.60890  0.57169  0.29029  1.0000
  S   S195      1.0  0.65208  0.60951  0.28731  1.0000
  S   S196      1.0  0.55629  0.57306  0.27389  1.0000
  Fe  Fe99      1.0  0.68961  0.56523  0.28770  1.0000
  S   S197      1.0  0.74140  0.56169  0.27074  1.0000
  Fe  Fe100     1.0  0.65412  0.60788  0.32014  1.0000
  S   S198      1.0  0.64640  0.52720  0.28841  1.0000
  S   S199      1.0  0.60909  0.57162  0.32317  1.0000
  Fe  Fe101     1.0  0.85659  0.93423  0.20459  1.0000
  S   S200      1.0  0.89200  0.97883  0.20530  1.0000
  S   S201      1.0  0.80808  0.92963  0.22411  1.0000
  Fe  Fe102     1.0  0.90088  0.90015  0.17212  1.0000
  S   S202      1.0  0.93835  0.94393  0.17070  1.0000
  S   S203      1.0  0.91630  0.85107  0.15708  1.0000
  Fe  Fe103     1.0  0.93676  0.94125  0.20343  1.0000
  C   C737      1.0  0.67721  0.58402  0.01546  1.0000
  Fe  Fe104     1.0  0.88962  0.97698  0.17256  1.0000
  H   H869      1.0  0.96885  0.87337  0.22515  1.0000
  S   S204      1.0  0.90133  0.89666  0.20480  1.0000
  S   S205      1.0  0.85221  0.93305  0.17193  1.0000
  Fe  Fe105     1.0  0.83761  0.68671  0.03513  1.0000
  S   S206      1.0  0.88237  0.64950  0.03797  1.0000
  S   S207      1.0  0.78890  0.68709  0.01547  1.0000
  Fe  Fe106     1.0  0.86506  0.72934  0.06935  1.0000
  S   S208      1.0  0.91101  0.69444  0.07507  1.0000
  S   S209      1.0  0.84947  0.77912  0.08332  1.0000
  Fe  Fe107     1.0  0.91708  0.69496  0.04234  1.0000
  S   S210      1.0  0.97264  0.69991  0.02980  1.0000
  Fe  Fe108     1.0  0.87277  0.65200  0.07036  1.0000
  S   S211      1.0  0.86050  0.60258  0.08629  1.0000
  S   S212      1.0  0.87309  0.73184  0.03700  1.0000
  S   S213      1.0  0.82638  0.68723  0.06711  1.0000
  H   H870      1.0  0.88311  0.94187  0.24265  1.0000
  H   H871      1.0  0.81379  0.52725  0.19040  1.0000
  H   H872      1.0  0.75363  0.51689  0.31735  1.0000
  H   H873      1.0  0.89736  0.82310  0.06378  1.0000
  H   H874      1.0  0.77989  0.51898  0.29575  1.0000
  C   C738      1.0  0.89681  0.83134  0.13673  1.0000
  C   C739      1.0  0.86967  0.84661  0.12608  1.0000
  C   C740      1.0  0.85536  0.83011  0.10984  1.0000
  C   C741      1.0  0.86787  0.79820  0.10416  1.0000
  C   C742      1.0  0.89502  0.78290  0.11480  1.0000
  C   C743      1.0  0.90948  0.79949  0.13096  1.0000
  H   H875      1.0  0.85976  0.87111  0.13033  1.0000
  H   H876      1.0  0.83436  0.84213  0.10168  1.0000
  H   H877      1.0  0.90483  0.75832  0.11063  1.0000
  H   H878      1.0  0.93045  0.78750  0.13915  1.0000
  C   C744      1.0  0.90753  0.55262  0.14115  1.0000
  C   C745      1.0  0.92155  0.58289  0.13403  1.0000
  C   C746      1.0  0.90706  0.59899  0.11753  1.0000
  C   C747      1.0  0.87845  0.58478  0.10789  1.0000
  C   C748      1.0  0.86413  0.55469  0.11517  1.0000
  C   C749      1.0  0.87843  0.53877  0.13176  1.0000
  H   H879      1.0  0.94394  0.59393  0.14125  1.0000
  H   H880      1.0  0.91836  0.62210  0.11212  1.0000
  H   H881      1.0  0.84206  0.54344  0.10779  1.0000
  C   C750      1.0  0.87056  0.95409  0.28949  1.0000
  C   C751      1.0  0.76166  0.62337  0.06855  1.0000
  C   C752      1.0  0.50973  0.99116  0.02396  1.0000
  H   H882      1.0  0.80111  0.63911  0.17427  1.0000
  H   H883      1.0  0.98164  0.81331  0.08886  1.0000
  H   H884      1.0  0.84103  0.60092  0.16059  1.0000
  N   N49       1.0  0.76520  0.59492  0.05470  1.0000
  C   C753      1.0  0.86342  0.92500  0.27827  1.0000
  H   H885      1.0  0.83952  0.55761  0.21759  1.0000
  H   H886      1.0  0.96848  0.76206  0.07108  1.0000
  C   C754      1.0  0.80157  0.93074  0.28836  1.0000
  H   H887      1.0  0.78478  0.62480  0.07849  1.0000
  C   C755      1.0  0.53610  0.60513  0.25926  1.0000
  C   C756      1.0  0.67798  0.61123  0.02815  1.0000
  C   C757      1.0  0.55252  0.63580  0.25537  1.0000
  C   C758      1.0  0.73475  0.59166  0.04140  1.0000
  H   H888      1.0  0.57947  0.63939  0.25979  1.0000
  C   C759      1.0  0.90493  0.93289  0.25218  1.0000
  H   H889      1.0  0.71627  0.97870  0.26624  1.0000
  C   C760      1.0  0.75691  0.95747  0.24771  1.0000
  C   C761      1.0  0.79134  0.96062  0.24041  1.0000
  H   H890      1.0  0.76035  0.64805  0.06081  1.0000
  H   H891      1.0  0.74519  0.55758  0.07440  1.0000
  C   C762      1.0  0.73100  0.62396  0.20299  1.0000
  H   H892      1.0  0.74115  0.93622  0.24339  1.0000
  H   H893      1.0  0.83818  0.99066  0.24109  1.0000
  C   C763      1.0  0.50217  0.64766  0.29938  1.0000
  H   H894      1.0  0.77698  0.54162  0.05730  1.0000
  H   H895      1.0  0.81035  0.54068  0.25871  1.0000
  H   H896      1.0  0.51296  0.62342  0.30355  1.0000
  C   C764      1.0  0.79762  0.60042  0.04321  1.0000
  H   H897      1.0  0.55854  0.96496  0.01819  1.0000
  C   C765      1.0  0.92021  0.82806  0.05405  1.0000
  H   H898      1.0  0.79625  0.62485  0.03539  1.0000
  H   H899      1.0  0.60843  0.66414  0.30503  1.0000
  H   H900      1.0  0.81959  0.89262  0.26942  1.0000
  C   C766      1.0  0.91850  0.52858  0.06975  1.0000
  S   S214      1.0  0.98484  0.94548  0.22322  1.0000
  C   C767      1.0  0.75538  0.53109  0.25356  1.0000
  H   H901      1.0  0.55175  0.62806  0.32663  1.0000
  C   C768      1.0  0.98422  0.81805  0.04907  1.0000
  C   C769      1.0  0.54290  0.98724  0.01507  1.0000
  H   H902      1.0  0.82138  0.60127  0.05257  1.0000
  H   H903      1.0  0.54782  0.99623  0.31215  1.0000
  H   H904      1.0  0.93444  0.92047  0.28658  1.0000
  H   H905      1.0  0.51857  0.73206  0.29621  1.0000
  H   H906      1.0  0.70594  0.63532  0.20695  1.0000
  H   H907      1.0  0.92252  0.77051  0.07202  1.0000
  N   N50       1.0  0.55519  0.67722  0.31285  1.0000
  C   C770      1.0  0.93698  0.53262  0.08702  1.0000
  S   S215      1.0  0.65658  0.66019  0.33401  1.0000
  H   H908      1.0  0.92235  0.85592  0.05305  1.0000
  N   N51       1.0  0.83178  0.57888  0.18887  1.0000
  C   C771      1.0  0.85224  0.57500  0.20713  1.0000
  C   C772      1.0  0.82679  0.54509  0.18023  1.0000
  C   C773      1.0  0.85349  0.59893  0.17519  1.0000
  C   C774      1.0  0.79704  0.59448  0.19314  1.0000
  C   C775      1.0  0.78549  0.62542  0.18468  1.0000
  C   C776      1.0  0.77365  0.57876  0.20634  1.0000
  H   H909      1.0  0.75435  0.54615  0.02712  1.0000
  C   C777      1.0  0.74134  0.59345  0.21131  1.0000
  C   C778      1.0  0.75291  0.63981  0.18962  1.0000
  H   H910      1.0  0.85240  0.53318  0.17616  1.0000
  H   H911      1.0  0.77454  0.92232  0.28753  1.0000
  C   C779      1.0  0.58141  0.66377  0.29898  1.0000
  H   H912      1.0  0.92545  0.92124  0.24280  1.0000
  C   C780      1.0  0.81153  0.98802  0.24632  1.0000
  H   H913      1.0  0.80235  0.58046  0.03225  1.0000
  H   H914      1.0  0.73788  0.62077  0.07784  1.0000
  C   C781      1.0  0.52047  0.67800  0.30305  1.0000
  C   C782      1.0  0.88032  0.87810  0.25629  1.0000
  H   H915      1.0  0.78026  0.55500  0.21304  1.0000
  C   C783      1.0  0.56722  0.71092  0.31927  1.0000
  H   H916      1.0  0.91731  0.95533  0.25879  1.0000
  H   H917      1.0  0.75786  0.96603  0.19979  1.0000
  H   H918      1.0  0.91556  0.54968  0.05982  1.0000
  S   S216      1.0  0.92702  0.53336  0.16191  1.0000
  H   H919      1.0  0.95885  0.84979  0.02676  1.0000
  C   C784      1.0  0.70630  0.61523  0.04091  1.0000
  H   H920      1.0  0.87988  0.58720  0.17290  1.0000
  H   H921      1.0  0.90243  0.86621  0.24806  1.0000
  C   C785      1.0  0.94680  0.77566  0.06350  1.0000
  H   H922      1.0  0.85959  0.88422  0.24532  1.0000
  H   H923      1.0  0.70352  0.51566  0.24499  1.0000
  C   C786      1.0  0.82796  0.91378  0.27800  1.0000
  C   C787      1.0  0.76977  0.56368  0.06637  1.0000
  H   H924      1.0  0.85857  0.62462  0.18088  1.0000
  H   H925      1.0  0.54646  0.68604  0.24358  1.0000
  H   H926      1.0  0.79139  0.56617  0.07724  1.0000
  H   H927      1.0  0.86714  0.51570  0.13717  1.0000
  H   H928      1.0  0.87015  0.85866  0.26645  1.0000
  C   C788      1.0  0.53392  0.66201  0.24583  1.0000
  H   H929      1.0  0.54721  0.72341  0.32867  1.0000
  H   H930      1.0  0.93619  0.82423  0.09076  1.0000
  C   C789      1.0  0.74269  0.98153  0.26066  1.0000
  H   H931      1.0  0.78860  0.97312  0.30643  1.0000
  N   N52       1.0  0.95315  0.81232  0.06161  1.0000
  H   H932      1.0  0.57573  0.63724  0.29497  1.0000
  H   H933      1.0  0.70550  0.63731  0.04999  1.0000
  C   C790      1.0  0.73322  0.56444  0.02810  1.0000
  C   C791      1.0  0.80945  0.95938  0.29904  1.0000
  C   C792      1.0  0.79166  0.52632  0.25035  1.0000
  H   H934      1.0  0.81148  0.99927  0.20803  1.0000
  H   H935      1.0  0.72669  0.98287  0.18224  1.0000
  H   H936      1.0  0.81032  0.54665  0.16688  1.0000
  H   H937      1.0  0.85534  0.59966  0.21455  1.0000
  C   C793      1.0  0.93983  0.50608  0.10034  1.0000
  H   H938      1.0  0.94829  0.55689  0.09039  1.0000
  C   C794      1.0  0.98988  0.73185  0.01434  1.0000
  H   H939      1.0  0.94274  0.88516  0.27152  1.0000
  H   H940      1.0  0.74467  0.66354  0.18315  1.0000
  H   H941      1.0  0.72437  0.58116  0.22182  1.0000
  H   H942      1.0  0.51325  0.56123  0.07747  1.0000
  H   H943      1.0  0.84972  0.99365  0.30771  1.0000
  H   H944      1.0  0.87906  0.56438  0.20437  1.0000
  C   C795      1.0  0.99062  0.87834  0.23479  1.0000
  C   C796      1.0  0.73152  0.51217  0.24275  1.0000
  C   C797      1.0  0.96840  0.75644  0.00564  1.0000
  H   H945      1.0  0.94380  0.76379  0.04897  1.0000
  N   N53       1.0  0.89183  0.90868  0.26683  1.0000
  H   H946      1.0  0.94046  0.75690  0.00865  1.0000
  H   H947      1.0  0.91304  0.81769  0.03959  1.0000
  H   H948      1.0  0.91241  0.88150  0.29150  1.0000
  C   C798      1.0  0.50187  0.60012  0.25202  1.0000
  C   C799      1.0  0.92149  0.89858  0.27971  1.0000
  C   C800      1.0  0.75495  0.98168  0.18640  1.0000
  C   C801      1.0  0.70483  0.56076  0.01539  1.0000
  H   H949      1.0  0.82108  0.99531  0.18283  1.0000
  H   H950      1.0  0.58178  0.67896  0.28537  1.0000
  H   H951      1.0  0.96631  0.85366  0.08030  1.0000
  H   H952      1.0  0.95363  0.51152  0.11367  1.0000
  H   H953      1.0  0.65684  0.62975  0.02777  1.0000
  C   C802      1.0  0.95971  0.82645  0.08119  1.0000
  H   H954      1.0  0.57343  0.72763  0.30676  1.0000
  C   C803      1.0  0.98282  0.83799  0.03187  1.0000
  H   H955      1.0  0.71378  0.99758  0.21400  1.0000
  H   H956      1.0  0.76896  0.96753  0.17472  1.0000
  H   H957      1.0  0.99680  0.82634  0.24356  1.0000
  H   H958      1.0  0.89673  0.96444  0.29010  1.0000
  C   C804      1.0  0.50579  0.70805  0.29501  1.0000
  C   C805      1.0  0.55460  0.65509  0.33032  1.0000
  C   C806      1.0  0.84389  0.97100  0.29964  1.0000
  H   H959      1.0  0.59223  0.70913  0.32775  1.0000
  H   H960      1.0  0.65569  0.58148  0.00523  1.0000
  H   H961      1.0  0.90633  0.91238  0.45491  1.0000
  H   H962      1.0  0.58737  0.67748  0.42560  1.0000
  Fe  Fe109     1.0  0.60021  0.81794  0.45189  1.0000
  S   S217      1.0  0.63967  0.77918  0.46148  1.0000
  S   S218      1.0  0.54441  0.82015  0.46463  1.0000
  Fe  Fe110     1.0  0.65019  0.84639  0.42090  1.0000
  S   S219      1.0  0.69250  0.80856  0.42874  1.0000
  S   S220      1.0  0.67122  0.87846  0.39596  1.0000
  Fe  Fe111     1.0  0.64954  0.77041  0.42967  1.0000
  S   S221      1.0  0.65470  0.71508  0.42102  1.0000
  Fe  Fe112     1.0  0.67966  0.82068  0.45971  1.0000
  S   S222      1.0  0.72161  0.82086  0.48356  1.0000
  S   S223      1.0  0.60771  0.80698  0.41987  1.0000
  S   S224      1.0  0.63953  0.86066  0.45213  1.0000
  S   S225      1.0  0.86172  0.53251  0.58266  1.0000
  S   S226      1.0  0.93703  0.76744  0.65355  1.0000
  Fe  Fe113     1.0  0.86674  0.93912  0.53123  1.0000
  S   S227      1.0  0.90991  0.90258  0.53917  1.0000
  S   S228      1.0  0.83355  0.93502  0.50362  1.0000
  C   C807      1.0  0.67374  0.00187  0.42728  1.0000
  S   S229      1.0  0.93076  0.95350  0.57517  1.0000
  H   H963      1.0  0.94362  0.58327  0.58506  1.0000
  Fe  Fe114     1.0  0.94367  0.94872  0.54315  1.0000
  C   C808      1.0  0.90852  0.61397  0.56807  1.0000
  Fe  Fe115     1.0  0.89304  0.91046  0.57028  1.0000
  S   S230      1.0  0.87221  0.86939  0.59071  1.0000
  S   S231      1.0  0.90150  0.98468  0.53343  1.0000
  S   S232      1.0  0.84782  0.94486  0.56188  1.0000
  H   H964      1.0  0.83570  0.91442  0.65110  1.0000
  H   H965      1.0  0.55962  0.75438  0.45034  1.0000
  H   H966      1.0  0.58591  0.73655  0.43152  1.0000
  H   H967      1.0  0.90040  0.96402  0.62278  1.0000
  H   H968      1.0  0.56512  0.64810  0.44081  1.0000
  C   C809      1.0  0.91825  0.79582  0.63632  1.0000
  C   C810      1.0  0.88220  0.79659  0.63223  1.0000
  C   C811      1.0  0.86875  0.81915  0.61813  1.0000
  C   C812      1.0  0.89108  0.84117  0.60798  1.0000
  C   C813      1.0  0.92712  0.84041  0.61208  1.0000
  C   C814      1.0  0.94058  0.81779  0.62614  1.0000
  H   H969      1.0  0.86465  0.77994  0.63994  1.0000
  H   H970      1.0  0.84081  0.81958  0.61508  1.0000
  H   H971      1.0  0.94462  0.85718  0.60441  1.0000
  H   H972      1.0  0.96853  0.81737  0.62918  1.0000
  C   C815      1.0  0.90261  0.58441  0.63788  1.0000
  C   C816      1.0  0.87389  0.59773  0.62763  1.0000
  C   C817      1.0  0.86191  0.58161  0.61068  1.0000
  C   C818      1.0  0.87846  0.55211  0.60380  1.0000
  C   C819      1.0  0.90754  0.53915  0.61388  1.0000
  C   C820      1.0  0.91958  0.55532  0.63076  1.0000
  H   H973      1.0  0.86026  0.61980  0.63303  1.0000
  H   H974      1.0  0.83949  0.59191  0.60290  1.0000
  H   H975      1.0  0.87022  0.97604  0.60389  1.0000
  H   H976      1.0  0.94196  0.54489  0.63851  1.0000
  C   C821      1.0  0.52759  0.79427  0.48366  1.0000
  C   C822      1.0  0.54871  0.77040  0.49319  1.0000
  C   C823      1.0  0.53410  0.74895  0.50737  1.0000
  H   H977      1.0  0.57637  0.76861  0.48969  1.0000
  C   C824      1.0  0.89958  0.93827  0.45975  1.0000
  C   C825      1.0  0.75186  0.85341  0.48905  1.0000
  C   C826      1.0  0.77298  0.85036  0.50578  1.0000
  C   C827      1.0  0.79779  0.87522  0.51056  1.0000
  C   C828      1.0  0.80204  0.90334  0.49853  1.0000
  C   C829      1.0  0.78120  0.90622  0.48168  1.0000
  C   C830      1.0  0.75615  0.88150  0.47699  1.0000
  H   H978      1.0  0.76992  0.82875  0.51521  1.0000
  H   H979      1.0  0.81363  0.87259  0.52355  1.0000
  H   H980      1.0  0.78422  0.92785  0.47227  1.0000
  H   H981      1.0  0.74017  0.88419  0.46406  1.0000
  C   C831      1.0  0.65485  0.67450  0.35840  1.0000
  C   C832      1.0  0.65451  0.65243  0.37427  1.0000
  C   C833      1.0  0.65404  0.66526  0.39336  1.0000
  C   C834      1.0  0.65359  0.70019  0.39676  1.0000
  C   C835      1.0  0.65335  0.72221  0.38089  1.0000
  C   C836      1.0  0.65414  0.70940  0.36183  1.0000
  H   H982      1.0  0.65516  0.62554  0.37185  1.0000
  H   H983      1.0  0.65441  0.64800  0.40554  1.0000
  H   H984      1.0  0.65326  0.74913  0.38328  1.0000
  H   H985      1.0  0.65457  0.72670  0.34966  1.0000
  C   C837      1.0  0.62817  0.97242  0.36431  1.0000
  C   C838      1.0  0.60895  0.95813  0.37967  1.0000
  C   C839      1.0  0.62152  0.92922  0.38950  1.0000
  C   C840      1.0  0.65347  0.91433  0.38398  1.0000
  C   C841      1.0  0.67269  0.92871  0.36862  1.0000
  C   C842      1.0  0.66017  0.95764  0.35884  1.0000
  C   C843      1.0  0.83666  0.53515  0.66651  1.0000
  H   H986      1.0  0.60659  0.91849  0.40134  1.0000
  H   H987      1.0  0.69746  0.91736  0.36429  1.0000
  C   C844      1.0  0.85632  0.91951  0.64003  1.0000
  N   N54       1.0  0.77413  0.75393  0.44686  1.0000
  C   C845      1.0  0.74393  0.74522  0.45958  1.0000
  C   C846      1.0  0.80424  0.73147  0.45176  1.0000
  C   C847      1.0  0.78452  0.78897  0.45157  1.0000
  C   C848      1.0  0.76447  0.74919  0.42619  1.0000
  C   C849      1.0  0.75196  0.71761  0.41965  1.0000
  C   C850      1.0  0.76736  0.77517  0.41200  1.0000
  C   C851      1.0  0.74207  0.71265  0.40033  1.0000
  C   C852      1.0  0.75698  0.77001  0.39275  1.0000
  C   C853      1.0  0.74423  0.73887  0.38695  1.0000
  H   H988      1.0  0.74946  0.75062  0.47515  1.0000
  H   H989      1.0  0.72012  0.76021  0.45565  1.0000
  H   H990      1.0  0.73665  0.71829  0.45873  1.0000
  H   H991      1.0  0.79758  0.70445  0.45010  1.0000
  H   H992      1.0  0.81287  0.73493  0.46709  1.0000
  H   H993      1.0  0.82718  0.73661  0.44216  1.0000
  H   H994      1.0  0.76286  0.80724  0.44833  1.0000
  H   H995      1.0  0.79036  0.79208  0.46733  1.0000
  H   H996      1.0  0.80853  0.79671  0.44355  1.0000
  H   H997      1.0  0.74894  0.69663  0.42951  1.0000
  H   H998      1.0  0.77638  0.80011  0.41550  1.0000
  H   H999      1.0  0.73154  0.68862  0.39581  1.0000
  H   H1000     1.0  0.75808  0.79054  0.38234  1.0000
  H   H1001     1.0  0.73545  0.73515  0.37213  1.0000
  N   N55       1.0  0.92708  0.95274  0.47246  1.0000
  C   C854      1.0  0.97708  0.92771  0.45316  1.0000
  H   H1002     1.0  0.61524  0.70393  0.45537  1.0000
  C   C855      1.0  0.52656  0.69493  0.46071  1.0000
  C   C856      1.0  0.96036  0.95639  0.46146  1.0000
  Fe  Fe116     1.0  0.88632  0.98712  0.56502  1.0000
  H   H1003     1.0  0.87380  0.93636  0.46744  1.0000
  N   N56       1.0  0.55948  0.70013  0.44961  1.0000
  H   H1004     1.0  0.93972  0.66067  0.63475  1.0000
  C   C857      1.0  0.56094  0.73337  0.43971  1.0000
  H   H1005     1.0  0.54020  0.67434  0.42444  1.0000
  H   H1006     1.0  0.55067  0.73030  0.51443  1.0000
  C   C858      1.0  0.95061  0.68223  0.62633  1.0000
  H   H1007     1.0  0.68359  0.97424  0.40111  1.0000
  H   H1008     1.0  0.67521  0.96834  0.34703  1.0000
  C   C859      1.0  0.89241  0.64543  0.56602  1.0000
  H   H1009     1.0  0.67343  0.97944  0.43633  1.0000
  H   H1010     1.0  0.58721  0.71558  0.47524  1.0000
  H   H1011     1.0  0.87444  0.64993  0.55404  1.0000
  C   C860      1.0  0.81569  0.93997  0.61603  1.0000
  H   H1012     1.0  0.58422  0.96947  0.38407  1.0000
  H   H1013     1.0  0.81974  0.91547  0.60844  1.0000
  H   H1014     1.0  0.96764  0.71568  0.59320  1.0000
  H   H1015     1.0  0.88408  0.93303  0.60627  1.0000
  N   N57       1.0  0.92691  0.69234  0.61012  1.0000
  C   C861      1.0  0.89253  0.70218  0.61872  1.0000
  C   C862      1.0  0.99681  0.51608  0.48607  1.0000
  C   C863      1.0  0.94244  0.72228  0.60057  1.0000
  C   C864      1.0  0.92159  0.66536  0.59565  1.0000
  C   C865      1.0  0.93791  0.63305  0.59717  1.0000
  C   C866      1.0  0.89897  0.67088  0.57950  1.0000
  H   H1016     1.0  0.79176  0.93782  0.62524  1.0000
  H   H1017     1.0  0.57975  0.65627  0.33863  1.0000
  C   C867      1.0  0.93155  0.60798  0.58344  1.0000
  H   H1018     1.0  0.95427  0.70313  0.63686  1.0000
  H   H1019     1.0  0.89574  0.72123  0.63039  1.0000
  H   H1020     1.0  0.87434  0.71381  0.60794  1.0000
  H   H1021     1.0  0.98051  0.53423  0.47840  1.0000
  C   C868      1.0  0.83978  0.98013  0.63924  1.0000
  H   H1022     1.0  0.90276  0.59393  0.55792  1.0000
  H   H1023     1.0  0.92458  0.73379  0.58957  1.0000
  H   H1024     1.0  0.94809  0.74257  0.61127  1.0000
  H   H1025     1.0  0.97739  0.67542  0.62103  1.0000
  H   H1026     1.0  0.81005  0.95832  0.60418  1.0000
  H   H1027     1.0  0.53278  0.66237  0.34026  1.0000
  H   H1028     1.0  0.90741  0.52491  0.66648  1.0000
  C   C869      1.0  0.56313  0.67382  0.43450  1.0000
  S   S233      1.0  0.91578  0.60057  0.66073  1.0000
  H   H1029     1.0  0.54195  0.64559  0.47215  1.0000
  H   H1030     1.0  0.86662  0.50767  0.46923  1.0000
  H   H1031     1.0  0.88220  0.92257  0.64736  1.0000
  H   H1032     1.0  0.95509  0.62611  0.60905  1.0000
  C   C870      1.0  0.52193  0.66507  0.47179  1.0000
  C   C871      1.0  0.91301  0.98504  0.48022  1.0000
  H   H1033     1.0  0.80953  0.52973  0.66137  1.0000
  C   C872      1.0  0.87668  0.95588  0.61462  1.0000
  H   H1034     1.0  0.96600  0.90291  0.45476  1.0000
  C   C873      1.0  0.59018  0.69778  0.46291  1.0000
  H   H1035     1.0  0.88577  0.69483  0.57734  1.0000
  H   H1036     1.0  0.94049  0.90392  0.48477  1.0000
  H   H1037     1.0  0.86248  0.96311  0.66700  1.0000
  H   H1038     1.0  0.85041  0.54985  0.65511  1.0000
  H   H1039     1.0  0.90862  0.92726  0.49816  1.0000
  C   C874      1.0  0.93285  0.92980  0.48921  1.0000
  H   H1040     1.0  0.88794  0.98136  0.48837  1.0000
  H   H1041     1.0  0.85930  0.89624  0.63112  1.0000
  N   N58       1.0  0.84688  0.94925  0.62785  1.0000
  H   H1042     1.0  0.59392  0.67219  0.46912  1.0000
  H   H1043     1.0  0.95403  0.93933  0.49882  1.0000
  H   H1044     1.0  0.89539  0.95414  0.44658  1.0000
  H   H1045     1.0  0.87915  0.67997  0.62515  1.0000
  S   S234      1.0  0.99924  0.95030  0.53030  1.0000
  H   H1046     1.0  0.92061  0.51657  0.60871  1.0000
  C   C875      1.0  0.67948  0.99897  0.40741  1.0000
  C   C876      1.0  0.85003  0.98338  0.65902  1.0000
  C   C877      1.0  0.97718  0.98789  0.45867  1.0000
  H   H1047     1.0  0.53935  0.73667  0.42895  1.0000
  H   H1048     1.0  0.93173  0.99661  0.49062  1.0000
  S   S235      1.0  0.86665  0.69355  0.66849  1.0000
  H   H1049     1.0  0.83581  0.51192  0.63215  1.0000
  H   H1050     1.0  0.49985  0.74286  0.45357  1.0000
  H   H1051     1.0  0.90703  0.00334  0.46838  1.0000
  C   C878      1.0  0.80810  0.77923  0.80275  1.0000
  C   C879      1.0  0.53965  0.74062  0.85727  1.0000
  Fe  Fe117     1.0  0.85846  0.69817  0.70107  1.0000
  S   S236      1.0  0.90287  0.73437  0.70540  1.0000
  S   S237      1.0  0.80646  0.69949  0.71797  1.0000
  H   H1052     1.0  0.89546  0.68416  0.78549  1.0000
  Fe  Fe118     1.0  0.93670  0.68811  0.71045  1.0000
  S   S238      1.0  0.97503  0.68948  0.73602  1.0000
  H   H1053     1.0  0.97605  0.61630  0.72963  1.0000
  S   S239      1.0  0.89191  0.65224  0.70777  1.0000
  Fe  Fe119     1.0  0.58016  0.56937  0.95949  1.0000
  S   S240      1.0  0.62267  0.53024  0.95570  1.0000
  S   S241      1.0  0.53199  0.56892  0.97956  1.0000
  Fe  Fe120     1.0  0.60867  0.61218  0.92517  1.0000
  S   S242      1.0  0.65216  0.57498  0.91858  1.0000
  S   S243      1.0  0.59801  0.66376  0.91143  1.0000
  Fe  Fe121     1.0  0.61166  0.53453  0.92355  1.0000
  C   C880      1.0  0.54711  0.95604  0.80377  1.0000
  Fe  Fe122     1.0  0.65956  0.57398  0.95118  1.0000
  S   S244      1.0  0.71553  0.57485  0.96330  1.0000
  S   S245      1.0  0.56755  0.57212  0.92763  1.0000
  S   S246      1.0  0.61791  0.61280  0.95751  1.0000
  Fe  Fe123     1.0  0.68632  0.81780  0.78664  1.0000
  S   S247      1.0  0.64211  0.78126  0.79038  1.0000
  S   S248      1.0  0.72429  0.81974  0.76080  1.0000
  Fe  Fe124     1.0  0.66331  0.85777  0.82323  1.0000
  S   S249      1.0  0.61802  0.82318  0.82952  1.0000
  S   S250      1.0  0.67787  0.90630  0.83879  1.0000
  Fe  Fe125     1.0  0.65637  0.78127  0.82221  1.0000
  S   S251      1.0  0.66601  0.72947  0.83582  1.0000
  Fe  Fe126     1.0  0.60810  0.82643  0.79722  1.0000
  S   S252      1.0  0.55255  0.83117  0.78492  1.0000
  S   S253      1.0  0.70260  0.81576  0.81802  1.0000
  S   S254      1.0  0.65102  0.86313  0.79135  1.0000
  H   H1054     1.0  0.78721  0.79142  0.81095  1.0000
  C   C881      1.0  0.56968  0.89545  0.69466  1.0000
  C   C882      1.0  0.73521  0.60626  0.97798  1.0000
  C   C883      1.0  0.77049  0.60201  0.98378  1.0000
  H   H1055     1.0  0.54112  0.72532  0.79010  1.0000
  H   H1056     1.0  0.78503  0.57991  0.97915  1.0000
  C   C884      1.0  0.53718  0.88181  0.69945  1.0000
  C   C885      1.0  0.61808  0.68161  0.89063  1.0000
  C   C886      1.0  0.61251  0.71599  0.88663  1.0000
  C   C887      1.0  0.62704  0.73115  0.86996  1.0000
  C   C888      1.0  0.64763  0.71203  0.85721  1.0000
  C   C889      1.0  0.65354  0.67771  0.86133  1.0000
  C   C890      1.0  0.63877  0.66251  0.87792  1.0000
  H   H1057     1.0  0.59688  0.73100  0.89654  1.0000
  H   H1058     1.0  0.62239  0.75760  0.86702  1.0000
  H   H1059     1.0  0.66937  0.66271  0.85149  1.0000
  H   H1060     1.0  0.64310  0.63598  0.88076  1.0000
  C   C891      1.0  0.62703  0.96118  0.89082  1.0000
  C   C892      1.0  0.65582  0.97485  0.88103  1.0000
  C   C893      1.0  0.67131  0.95740  0.86536  1.0000
  C   C894      1.0  0.65837  0.92608  0.85931  1.0000
  C   C895      1.0  0.62962  0.91230  0.86914  1.0000
  C   C896      1.0  0.61398  0.92986  0.88475  1.0000
  S   S255      1.0  0.60606  0.98237  0.91042  1.0000
  H   H1061     1.0  0.69353  0.96831  0.85786  1.0000
  H   H1062     1.0  0.61952  0.88812  0.86478  1.0000
  H   H1063     1.0  0.59183  0.91898  0.89229  1.0000
  H   H1064     1.0  0.55791  0.76366  0.79938  1.0000
  C   C897      1.0  0.97929  0.67030  0.97923  1.0000
  C   C898      1.0  0.53674  0.86415  0.76961  1.0000
  H   H1065     1.0  0.79775  0.80803  0.77694  1.0000
  C   C899      1.0  0.55760  0.89170  0.76467  1.0000
  C   C900      1.0  0.51643  0.70055  0.82309  1.0000
  H   H1066     1.0  0.83426  0.55240  0.67918  1.0000
  C   C901      1.0  0.78495  0.73341  0.73020  1.0000
  C   C902      1.0  0.75891  0.72615  0.74411  1.0000
  C   C903      1.0  0.74048  0.75214  0.75382  1.0000
  C   C904      1.0  0.74744  0.78584  0.74947  1.0000
  C   C905      1.0  0.77350  0.79314  0.73556  1.0000
  C   C906      1.0  0.79239  0.76714  0.72611  1.0000
  H   H1067     1.0  0.75291  0.70017  0.74740  1.0000
  H   H1068     1.0  0.72067  0.74604  0.76452  1.0000
  H   H1069     1.0  0.77919  0.81910  0.73208  1.0000
  H   H1070     1.0  0.81215  0.77318  0.71537  1.0000
  H   H1071     1.0  0.56164  0.96119  0.97314  1.0000
  H   H1072     1.0  0.84323  0.78003  0.75769  1.0000
  C   C907      1.0  0.51591  0.53847  0.99633  1.0000
  C   C908      1.0  0.99447  0.62208  0.74111  1.0000
  N   N59       1.0  0.88975  0.73031  0.76908  1.0000
  C   C909      1.0  0.91396  0.75590  0.76095  1.0000
  C   C910      1.0  0.91154  0.70549  0.78007  1.0000
  C   C911      1.0  0.87290  0.71221  0.75282  1.0000
  C   C912      1.0  0.86217  0.74698  0.78096  1.0000
  C   C913      1.0  0.85552  0.73814  0.80066  1.0000
  C   C914      1.0  0.84039  0.77252  0.77271  1.0000
  H   H1073     1.0  0.81019  0.68927  0.96975  1.0000
  H   H1074     1.0  0.92536  0.71753  0.79245  1.0000
  H   H1075     1.0  0.55225  0.92193  0.96100  1.0000
  H   H1076     1.0  0.95689  0.71723  0.96961  1.0000
  H   H1077     1.0  0.92570  0.77142  0.77266  1.0000
  H   H1078     1.0  0.57716  0.95376  0.94903  1.0000
  H   H1079     1.0  0.52154  0.83549  0.84812  1.0000
  C   C915      1.0  0.53056  0.78710  0.83490  1.0000
  H   H1080     1.0  0.89253  0.69774  0.74411  1.0000
  C   C916      1.0  0.98297  0.77998  0.99256  1.0000
  H   H1081     1.0  0.85927  0.72966  0.74260  1.0000
  H   H1082     1.0  0.87040  0.71884  0.80817  1.0000
  H   H1083     1.0  0.93602  0.74404  0.75268  1.0000
  C   C917      1.0  0.53520  0.76261  0.87290  1.0000
  H   H1084     1.0  0.52057  0.68497  0.83636  1.0000
  H   H1085     1.0  0.50984  0.84575  0.71689  1.0000
  H   H1086     1.0  0.89024  0.53271  0.69018  1.0000
  C   C918      1.0  0.89175  0.51354  0.67842  1.0000
  H   H1087     1.0  0.53720  0.95038  0.92224  1.0000
  C   C919      1.0  0.51822  0.93383  0.80147  1.0000
  C   C920      1.0  0.53658  0.51145  0.00300  1.0000
  C   C921      1.0  0.53779  0.74396  0.80200  1.0000
  C   C922      1.0  0.51420  0.94834  0.93226  1.0000
  H   H1088     1.0  0.59823  0.73402  0.82156  1.0000
  H   H1089     1.0  0.51793  0.90882  0.80764  1.0000
  H   H1090     1.0  0.85276  0.69418  0.75813  1.0000
  C   C923      1.0  0.54414  0.98813  0.79472  1.0000
  H   H1091     1.0  0.50837  0.92114  0.93426  1.0000
  H   H1092     1.0  0.68952  0.63853  0.97992  1.0000
  C   C924      1.0  0.81404  0.78854  0.78354  1.0000
  H   H1093     1.0  0.56368  0.50906  0.99835  1.0000
  H   H1094     1.0  0.62497  0.89484  0.69937  1.0000
  C   C925      1.0  0.52639  0.80890  0.85066  1.0000
  H   H1095     1.0  0.78307  0.74239  0.98069  1.0000
  H   H1096     1.0  0.95671  0.66392  0.98811  1.0000
  N   N60       1.0  0.52135  0.96465  0.95117  1.0000
  C   C926      1.0  0.52870  0.79669  0.86961  1.0000
  C   C927      1.0  0.53732  0.75213  0.83775  1.0000
  S   S256      1.0  0.95114  0.68408  0.67901  1.0000
  H   H1097     1.0  0.58237  0.99598  0.82872  1.0000
  H   H1098     1.0  0.55998  0.93914  0.74924  1.0000
  H   H1099     1.0  0.58408  0.89321  0.77020  1.0000
  H   H1100     1.0  0.60433  0.90499  0.82962  1.0000
  C   C928      1.0  0.57948  0.91141  0.82185  1.0000
  Fe  Fe127     1.0  0.91344  0.72721  0.67343  1.0000
  H   H1101     1.0  0.96604  0.79860  0.98574  1.0000
  H   H1102     1.0  0.63533  0.94343  0.81103  1.0000
  H   H1103     1.0  0.54552  0.71455  0.86065  1.0000
  H   H1104     1.0  0.60452  0.96300  0.84151  1.0000
  H   H1105     1.0  0.57088  0.91569  0.68408  1.0000
  H   H1106     1.0  0.93244  0.69400  0.77076  1.0000
  C   C929      1.0  0.97950  0.70041  0.96884  1.0000
  H   H1107     1.0  0.90067  0.77320  0.75050  1.0000
  C   C930      1.0  0.54386  0.91768  0.75278  1.0000
  C   C931      1.0  0.71677  0.63503  0.98401  1.0000
  H   H1108     1.0  0.82386  0.74687  0.82624  1.0000
  H   H1109     1.0  0.61571  0.97917  0.79987  1.0000
  C   C932      1.0  0.82877  0.75411  0.81129  1.0000
  C   C933      1.0  0.55443  0.94964  0.95902  1.0000
  N   N61       1.0  0.63228  0.84620  0.72764  1.0000
  C   C934      1.0  0.64974  0.87524  0.73699  1.0000
  C   C935      1.0  0.62641  0.82036  0.74292  1.0000
  C   C936      1.0  0.65672  0.83139  0.71313  1.0000
  C   C937      1.0  0.59943  0.85764  0.71792  1.0000
  C   C938      1.0  0.56582  0.84398  0.72230  1.0000
  C   C939      1.0  0.60043  0.88345  0.70361  1.0000
  H   H1110     1.0  0.55783  0.90618  0.83226  1.0000
  C   C940      1.0  0.99907  0.65556  0.74676  1.0000
  H   H1111     1.0  0.66616  0.99889  0.88551  1.0000
  H   H1112     1.0  0.63148  0.88837  0.74712  1.0000
  H   H1113     1.0  0.67342  0.86724  0.74545  1.0000
  H   H1114     1.0  0.65913  0.89409  0.72629  1.0000
  H   H1115     1.0  0.60893  0.83013  0.75464  1.0000
  H   H1116     1.0  0.65155  0.81244  0.74998  1.0000
  H   H1117     1.0  0.61480  0.79707  0.73683  1.0000
  H   H1118     1.0  0.66478  0.84995  0.70190  1.0000
  H   H1119     1.0  0.68150  0.82191  0.72009  1.0000
  H   H1120     1.0  0.64439  0.80984  0.70549  1.0000
  H   H1121     1.0  0.56210  0.82460  0.73311  1.0000
  C   C941      1.0  0.53533  0.85592  0.71307  1.0000
  H   H1122     1.0  0.53722  0.75312  0.88766  1.0000
  N   N62       1.0  0.71965  0.67005  0.92458  1.0000
  C   C942      1.0  0.73812  0.63813  0.91947  1.0000
  C   C943      1.0  0.68399  0.66104  0.93145  1.0000
  C   C944      1.0  0.71623  0.69052  0.90659  1.0000
  C   C945      1.0  0.73784  0.68974  0.93973  1.0000
  C   C946      1.0  0.72331  0.72083  0.94617  1.0000
  C   C947      1.0  0.76997  0.67898  0.94850  1.0000
  C   C948      1.0  0.73960  0.73966  0.96069  1.0000
  C   C949      1.0  0.78626  0.69830  0.96279  1.0000
  C   C950      1.0  0.77094  0.72833  0.96903  1.0000
  H   H1123     1.0  0.74038  0.62098  0.93229  1.0000
  H   H1124     1.0  0.72353  0.62376  0.90822  1.0000
  H   H1125     1.0  0.76487  0.64288  0.91356  1.0000
  H   H1126     1.0  0.68546  0.64578  0.94501  1.0000
  H   H1127     1.0  0.66965  0.64610  0.92044  1.0000
  H   H1128     1.0  0.66700  0.68337  0.93441  1.0000
  H   H1129     1.0  0.74225  0.70016  0.90181  1.0000
  H   H1130     1.0  0.70507  0.67569  0.89441  1.0000
  H   H1131     1.0  0.69821  0.71251  0.90846  1.0000
  H   H1132     1.0  0.69893  0.73056  0.94020  1.0000
  H   H1133     1.0  0.78267  0.65536  0.94498  1.0000
  H   H1134     1.0  0.72765  0.76295  0.96570  1.0000
  C   C951      1.0  0.61111  0.95225  0.80330  1.0000
  H   H1135     1.0  0.58339  0.69939  0.83595  1.0000
  C   C952      1.0  0.58079  0.96884  0.83257  1.0000
  H   H1136     1.0  0.51325  0.89158  0.69278  1.0000
  C   C953      1.0  0.52792  0.00092  0.94768  1.0000
  H   H1137     1.0  0.60959  0.93831  0.78936  1.0000
  C   C954      1.0  0.78722  0.62617  0.99547  1.0000
  H   H1138     1.0  0.57763  0.89370  0.80939  1.0000
  C   C955      1.0  0.73351  0.65920  0.99567  1.0000
  H   H1139     1.0  0.58371  0.69616  0.81011  1.0000
  N   N63       1.0  0.54224  0.72823  0.82148  1.0000
  N   N64       1.0  0.57894  0.94703  0.81517  1.0000
  H   H1140     1.0  0.81455  0.62283  0.99950  1.0000
  H   H1141     1.0  0.52868  0.79838  0.82064  1.0000
  C   C956      1.0  0.57830  0.71373  0.82232  1.0000
  H   H1142     1.0  0.55730  0.96559  0.84203  1.0000
  H   H1143     1.0  0.96568  0.50594  0.82529  1.0000
  C   C957      1.0  0.76873  0.65489  0.00156  1.0000
  H   H1144     1.0  0.51836  0.68290  0.81059  1.0000
  H   H1145     1.0  0.51117  0.75555  0.80023  1.0000
  C   C958      1.0  0.50217  0.86272  0.76239  1.0000
  H   H1146     1.0  0.52564  0.81369  0.88178  1.0000
  C   C959      1.0  0.50920  0.91631  0.74558  1.0000
  Fe  Fe128     1.0  0.90401  0.65081  0.67571  1.0000
  H   H1147     1.0  0.51613  0.93051  0.98726  1.0000
  H   H1148     1.0  0.50559  0.52723  0.94263  1.0000
  C   C960      1.0  0.51486  0.99686  0.78340  1.0000
  H   H1149     1.0  0.71907  0.68147  0.00013  1.0000
  H   H1150     1.0  0.52708  0.50637  0.92301  1.0000
  H   H1151     1.0  0.55214  0.00483  0.93890  1.0000
  H   H1152     1.0  0.70473  0.54039  0.00493  1.0000
