data_image0
_chemical_formula_structural       FeS2FeS2FeSFeS3FeS2FeS2FeSFeS3FeS2H2CFeCFeHS2HCH2C7H4C6H4C3H2NHC3HC3H2C6H4NC4H17SH2CH2C2HC2SHC3H3C6H2CNH3CH2CH4C2H5CH2C2SCH5SCH3CH2CHCH3C2HNCH2C2NCH2CH2C2H3NCHNC3HCH6CH4FeC2FeS2FeS2CHFeSCSCH2FeS2FeSFeS3FeS2FeS2Fe2CS2CH4C2H2C6H4C6H5C3HCHCHC7H3CH4CHCHSCHNH5C4H4C3HFeHC2H2N2H2C4HCH4CH2FeHCH5SHCHCHCHCHCHSCHNHNC4H4CH3SH2CSHC6H2CHNHC2HC2HCH5CHC4H4CH3CHCHSH2CHCH3CHCHCFeS2FeS2FeSFeS3FeS2FeS2FeSHCS3FeS2FeH2FeSFeCS2C2SH2C2H4SC6H4C6H4C6H4C6H5C2H8CHCNHC2H2C2HC2NC9H18CHC2NCNC5H9CH2C2FeH2CH2C4H3C2H5C2HSHC3HC2HCSHCHNH2CH4CHC2H3CNC4H2CHNH3CH2CH2CFeS2FeS2HFeSHSFeS2FeS2CHFeS3FeS2FeS2FeSFeHS3C6H4C5H2CHC4HC7H4C2H2NC6H9CH2NCHCHFeH6C2H3C3HCH2C3HC3H2FeCSH2CH3CHCH2CNH2CH2NHCSH3C2H2C2H5C2HCH3C2H2CH4CH3CHC2HC2H3C2HCHC2H2C2HFeS2FeS2FeSFeHS2FeS2FeS2FeSFeHS2FeS2FeS2Fe2S3C4HC3H2C6H8C4H3CHC6H4C2H3C2HCHC2H4C2H2C6HC2H2CH4CH2C2H2C3SHCH3CNHC2HCH2CNHCH2CH4CH5CHCH3CNCH5CHNH2CH5C4HNC4H3CNHCSCH4C3H3CH2C2HC2H3C2HCHCH2CHC2H2CH2CHCH2CHCHCFeCFeS2FeSFeS3FeS2FeS2FeSFeS3HCFeS2FeS2FeSFeS3H2NC4H4C7H5CH2C2HCSH5C2HC6H6C4H3C2HNHC4H2C2H3CH2CH3C3HCH12CNH4C5HCH3CNHC4HCH2C3HC2H3CH3NC7HCH13CHC2HCNHC2HCHCH3CHCHSH2CH2C2H2NCH3C2HC5H2CHCH2FeS2FeS2FeSFeS3FeS2FeS2FeSHCSHFeS2FeSHFe2S3HCHCHC2NC2H3CH5C6H4C6H4C2H2C2H2C2H6C3HCHCH2SC3H2C2NHCH3C3H3C4H3S2CH2CH4C2H2CH2CH2CH3CHC2H2NCHCH2SH2C2H2C6HC2HCH2CH2C3H2CH2CHC6HCHC2H2CHCH3C2H2CHCH3FeHSHCNC4NCH3CH3C3H3CH3CH2CH4NCNHCH3C2HCHCH3FeS2FeS2FeSFeS2FeS2FeS2FeSFeS3FeS2FeS2FeSFeS3HC6H3C2H2C4H2C2H3C6H4C2HCHCH4C4HC6H5CH2CNCH4NCHNC9H20CH3C6HC3H4CHCH2SH3C4H7C4HC2H3CH3C2H2C4H3C2HCHC2H2CH2CNHCH3CHCNHC2HCH2CHCH2FeS2FeS2FeSFeS3FeS2FeS2FeSFeS3FeS2FeS2FeSFeS3H3C5HC2H7C6H4CH3C6H6C2HCH2C2HC3HC3HCHC3NCH2CH2CHC2HC3HNC9H12CH3CH2C2H2C3H2C2H3C2H2C2H2CHCHC2HCHC2NCHC5H3CHCHCH3CHNH6C3H2CHCH4NCHCHCH4CH7FeS2FeSFeS3FeS2FeS2FeSFeS2FeSCFeS2FeSFeS3CH2CHCH3C2HC3H4C6H4C6H4C4H4CHC3H2C2H3C5NCNH2CH3CH2C4H2C4HCHNHC2HC4H4CHCHCSCHC4SCHC3HC2HCH4C3H2CNHC4HCHNH2CH8CHC2H6CH3CHC2HCHSH2NHFeH6C2HC2H2C2HCH3C3NH3CHCH3C2H2SH4SHC2HCHC2HCH2C2H2CH2CH7C2H2CH4NC2HFeS2FeS2FeHFeSCSFeS2FeS2FeHFeS3FeS2FeS2FeSFeS3C2H3CHCHCSHC6H4CHC3H5C2HC2H2C8H4NC2HC2H5CHCH2CH4C2HC2HCHCH2SH2CH2CH3CNHNC3H4CH3CH2CHCH2NC2H2C3H6CHC2NH2CHCH2C4H2C3H2C2HCH7C4HCHC3HC3H10SCH4C2H4CSH2NHNFeS2FeCHFeSFeS3FeS2FeS2FeSFeCS2FeS2FeS2FeSFeS3CHC2HC3H3C3H2C6H5C2HC7H5CH3C3H2CNH3CH2CH2CHCH2C2HCHC2HC3H3NH4CHNHC3HCHCHCHC2HCH2CSC3H3CHCH2NHCH2CH4C2H2NC5SCHCH5CH4CHC2H3CH2CH2CH4C2H2C6SC4H2CH5CHNHFeS2FeS2FeSFeS3FeS2FeS2FeSFeCS2FeS2FeS2FeSFeS3CH2CNH6CH3C4H3NCHC7H4CHCH2CH3C6H4CHCNH6CHCH2CH2CHC5HCHC2H2CHC2H2CHNCHC6HCH2CH2CHCHNHC3NCHCHCHSH3C4H2CH4CH3CHC2H5CH3CHC2HCHCH2C4H2NH3C2H2C2HCH3CH2CH3CH3C3H2CH3CHCH4CFeS2FeCFeS3FeS2FeS2FeSFeS3FeS2FeS2FeSFeS3C2HCHCH3C2HSCH2NC6H6C6H7SH4CFeC3H2C2HC5HCNHC6H2NCH3CH4CHC3HC3H2CH2CHCH2C2H3C2NHC3H2CH3CH2CHCHCH2CHSHC2HCHCHNC2HCH2C2H3CH7CH4CH3NHC2H2CFeHCFeS2FeSFeS3FeS2FeS2FeSFeS4FeS2FeS2Fe3S3H2CH3C6H4C2HCHCHC2HC2H2C6H4C6H4C2H2NC3HC3HSH5CH2CH2C5H2CH4C2H4C5HSCH2NH2C2HCH4CH4CH3C2H3CHCH2C4H2C2H2C2H3CH5NH4CHC2H2C2H6CHCH3C7HCH2C2H2C2HNC2HNC3H13CSFeS2FeSFeSH2FeS2FeS2FeSFeS3FeS2FeS2FeSFeS3C2H3CHC2HC2H4C6H4CHC2H2C2HCH2C6H5CHCH2C2HC2HC2H3SHC2H2CH5CHNC4HCH8CH2C2H2CH2CHCHNC3H2C3H3CH2CHC2HCHCHC3H3C3H3CHNC2
_chemical_formula_sum              "Fe192 S384 H1728 C1440 N96"
_cell_length_a       53.5393
_cell_length_b       53.6409
_cell_length_c       53.5242
_cell_angle_alpha    82.8636
_cell_angle_beta     82.7568
_cell_angle_gamma    82.9817

_space_group_name_H-M_alt    "P 1"
_space_group_IT_number       1

loop_
  _space_group_symop_operation_xyz
  'x, y, z'

loop_
  _atom_site_type_symbol
  _atom_site_label
  _atom_site_symmetry_multiplicity
  _atom_site_fract_x
  _atom_site_fract_y
  _atom_site_fract_z
  _atom_site_occupancy
  Fe  Fe1       1.0  0.16570  0.11454  0.40408  1.0000
  S   S1        1.0  0.16625  0.15633  0.39441  1.0000
  S   S2        1.0  0.20369  0.08897  0.40721  1.0000
  Fe  Fe2       1.0  0.10522  0.11982  0.41137  1.0000
  S   S3        1.0  0.10359  0.16203  0.40388  1.0000
  S   S4        1.0  0.06756  0.10180  0.42358  1.0000
  Fe  Fe3       1.0  0.13406  0.15443  0.37201  1.0000
  S   S5        1.0  0.12780  0.17557  0.33394  1.0000
  Fe  Fe4       1.0  0.13601  0.15913  0.42730  1.0000
  S   S6        1.0  0.13915  0.18298  0.45836  1.0000
  S   S7        1.0  0.13523  0.11207  0.37858  1.0000
  S   S8        1.0  0.13579  0.11744  0.43773  1.0000
  Fe  Fe5       1.0  0.13432  0.34781  0.32011  1.0000
  S   S9        1.0  0.12793  0.30701  0.32624  1.0000
  S   S10       1.0  0.13321  0.37062  0.35405  1.0000
  Fe  Fe6       1.0  0.13997  0.34831  0.26038  1.0000
  S   S11       1.0  0.13399  0.30740  0.26358  1.0000
  S   S12       1.0  0.14642  0.37180  0.22134  1.0000
  Fe  Fe7       1.0  0.10336  0.31642  0.29483  1.0000
  S   S13       1.0  0.06662  0.29940  0.29810  1.0000
  Fe  Fe8       1.0  0.15921  0.30228  0.29466  1.0000
  S   S14       1.0  0.18914  0.26966  0.29968  1.0000
  S   S15       1.0  0.10740  0.35800  0.29002  1.0000
  S   S16       1.0  0.16766  0.34264  0.28993  1.0000
  Fe  Fe9       1.0  0.16168  0.37689  0.06512  1.0000
  S   S17       1.0  0.18409  0.41008  0.06263  1.0000
  S   S18       1.0  0.14949  0.35423  0.10371  1.0000
  H   H1        1.0  0.17869  0.24041  0.48938  1.0000
  H   H2        1.0  0.20545  0.08105  0.35382  1.0000
  C   C1        1.0  0.04555  0.34052  0.32195  1.0000
  Fe  Fe10      1.0  0.20790  0.39305  0.03007  1.0000
  C   C2        1.0  0.00504  0.12137  0.38407  1.0000
  Fe  Fe11      1.0  0.15934  0.42778  0.03278  1.0000
  H   H3        1.0  0.21434  0.02504  0.36450  1.0000
  S   S19       1.0  0.18753  0.35854  0.03398  1.0000
  S   S20       1.0  0.13519  0.39555  0.03652  1.0000
  H   H4        1.0  0.04880  0.33037  0.49161  1.0000
  C   C3        1.0  0.19474  0.49761  0.06349  1.0000
  H   H5        1.0  0.23005  0.30577  0.25098  1.0000
  H   H6        1.0  0.22544  0.33392  0.16538  1.0000
  C   C4        1.0  0.02633  0.38900  0.39063  1.0000
  C   C5        1.0  0.14774  0.36605  0.18879  1.0000
  C   C6        1.0  0.15585  0.38467  0.16950  1.0000
  C   C7        1.0  0.15675  0.38137  0.14352  1.0000
  C   C8        1.0  0.14936  0.35937  0.13629  1.0000
  C   C9        1.0  0.14129  0.34072  0.15563  1.0000
  C   C10       1.0  0.14050  0.34397  0.18161  1.0000
  H   H7        1.0  0.16141  0.40191  0.17462  1.0000
  H   H8        1.0  0.16295  0.39596  0.12905  1.0000
  H   H9        1.0  0.13549  0.32363  0.15039  1.0000
  H   H10       1.0  0.13405  0.32944  0.19598  1.0000
  C   C11       1.0  0.13451  0.36829  0.38765  1.0000
  C   C12       1.0  0.13025  0.34661  0.40480  1.0000
  C   C13       1.0  0.12919  0.34752  0.43147  1.0000
  C   C14       1.0  0.13259  0.37005  0.44112  1.0000
  C   C15       1.0  0.13708  0.39127  0.42380  1.0000
  C   C16       1.0  0.13812  0.39038  0.39757  1.0000
  H   H11       1.0  0.12709  0.32942  0.39761  1.0000
  H   H12       1.0  0.12502  0.33113  0.44452  1.0000
  H   H13       1.0  0.13967  0.40879  0.43074  1.0000
  H   H14       1.0  0.14138  0.40727  0.38483  1.0000
  C   C17       1.0  0.24123  0.03713  0.32036  1.0000
  C   C18       1.0  0.24117  0.12109  0.40905  1.0000
  C   C19       1.0  0.23533  0.09632  0.40914  1.0000
  H   H15       1.0  0.17188  0.30570  0.37226  1.0000
  H   H16       1.0  0.22627  0.13661  0.40786  1.0000
  N   N1        1.0  0.05644  0.22392  0.34589  1.0000
  H   H17       1.0  0.07748  0.23879  0.37150  1.0000
  C   C20       1.0  0.03638  0.10492  0.41341  1.0000
  C   C21       1.0  0.18224  0.48098  0.05239  1.0000
  C   C22       1.0  0.01686  0.31100  0.31561  1.0000
  H   H18       1.0  0.04438  0.12922  0.37894  1.0000
  C   C23       1.0  0.16824  0.17440  0.47079  1.0000
  C   C24       1.0  0.18854  0.16172  0.45669  1.0000
  C   C25       1.0  0.21016  0.34169  0.21796  1.0000
  H   H19       1.0  0.18654  0.15702  0.43818  1.0000
  H   H20       1.0  0.16529  0.26660  0.35511  1.0000
  C   C26       1.0  0.14617  0.20067  0.32377  1.0000
  C   C27       1.0  0.16898  0.20207  0.33348  1.0000
  C   C28       1.0  0.18282  0.22282  0.32536  1.0000
  C   C29       1.0  0.17344  0.24247  0.30811  1.0000
  C   C30       1.0  0.15071  0.24096  0.29842  1.0000
  C   C31       1.0  0.13740  0.21989  0.30582  1.0000
  H   H21       1.0  0.17615  0.18707  0.34694  1.0000
  H   H22       1.0  0.20041  0.22395  0.33293  1.0000
  H   H23       1.0  0.14346  0.25586  0.28492  1.0000
  H   H24       1.0  0.12010  0.21872  0.29782  1.0000
  N   N2        1.0  0.06265  0.36715  0.22463  1.0000
  C   C32       1.0  0.07097  0.38808  0.23617  1.0000
  C   C33       1.0  0.07578  0.34289  0.23518  1.0000
  C   C34       1.0  0.07122  0.37073  0.19702  1.0000
  C   C35       1.0  0.03149  0.23788  0.35325  1.0000
  H   H25       1.0  0.05863  0.41668  0.40672  1.0000
  H   H26       1.0  0.06780  0.37192  0.35933  1.0000
  H   H27       1.0  0.02465  0.37119  0.19164  1.0000
  H   H28       1.0  0.21543  0.08391  0.32008  1.0000
  H   H29       1.0  0.05838  0.24055  0.30708  1.0000
  H   H30       1.0  0.06746  0.38570  0.25719  1.0000
  H   H31       1.0  0.09172  0.38934  0.23146  1.0000
  H   H32       1.0  0.06090  0.40661  0.22936  1.0000
  H   H33       1.0  0.07206  0.33967  0.25616  1.0000
  H   H34       1.0  0.09672  0.34223  0.23055  1.0000
  H   H35       1.0  0.06949  0.32655  0.22762  1.0000
  H   H36       1.0  0.06249  0.38893  0.18785  1.0000
  H   H37       1.0  0.09211  0.37137  0.19328  1.0000
  H   H38       1.0  0.06693  0.35490  0.18719  1.0000
  H   H39       1.0  0.08385  0.35423  0.38418  1.0000
  H   H40       1.0  0.07775  0.21084  0.31220  1.0000
  H   H41       1.0  0.19133  0.46229  0.04956  1.0000
  S   S21       1.0  0.24287  0.14878  0.50366  1.0000
  H   H42       1.0  0.17030  0.03725  0.49406  1.0000
  H   H43       1.0  0.19001  0.31797  0.18527  1.0000
  C   C36       1.0  0.24077  0.32122  0.17275  1.0000
  H   H44       1.0  0.00921  0.20981  0.34322  1.0000
  H   H45       1.0  0.02606  0.34003  0.41689  1.0000
  C   C37       1.0  0.21461  0.16029  0.49080  1.0000
  C   C38       1.0  0.21229  0.07026  0.33732  1.0000
  H   H46       1.0  0.01561  0.40063  0.40511  1.0000
  C   C39       1.0  0.01718  0.09239  0.42863  1.0000
  C   C40       1.0  0.15819  0.48871  0.04475  1.0000
  S   S22       1.0  0.25032  0.39038  0.02122  1.0000
  H   H47       1.0  0.04494  0.27160  0.36435  1.0000
  C   C41       1.0  0.21501  0.30034  0.24078  1.0000
  C   C42       1.0  0.04941  0.34051  0.47271  1.0000
  C   C43       1.0  0.23835  0.30926  0.19802  1.0000
  H   H48       1.0  0.21324  0.49144  0.06955  1.0000
  H   H49       1.0  0.24826  0.04841  0.30253  1.0000
  H   H50       1.0  0.15696  0.23350  0.46900  1.0000
  C   C44       1.0  0.03664  0.34645  0.43033  1.0000
  C   C45       1.0  0.18183  0.08015  0.47265  1.0000
  C   C46       1.0  0.22428  0.08452  0.47953  1.0000
  C   C47       1.0  0.03488  0.36684  0.23062  1.0000
  C   C48       1.0  0.02381  0.36408  0.25623  1.0000
  C   C49       1.0  0.00877  0.22768  0.35071  1.0000
  H   H51       1.0  0.02165  0.08091  0.44594  1.0000
  H   H52       1.0  0.16187  0.07856  0.48090  1.0000
  C   C50       1.0  0.02998  0.11959  0.39107  1.0000
  N   N3        1.0  0.05239  0.38016  0.39709  1.0000
  H   H53       1.0  0.20680  0.29090  0.44625  1.0000
  H   H54       1.0  0.06678  0.41245  0.37383  1.0000
  H   H55       1.0  0.07720  0.18759  0.35571  1.0000
  C   C51       1.0  0.21181  0.15521  0.46642  1.0000
  H   H56       1.0  0.09667  0.22497  0.34601  1.0000
  H   H57       1.0  0.16090  0.28263  0.48649  1.0000
  C   C52       1.0  0.04139  0.31816  0.31301  1.0000
  H   H58       1.0  0.02829  0.37394  0.33846  1.0000
  H   H59       1.0  0.21893  0.25815  0.44632  1.0000
  H   H60       1.0  0.16206  0.30318  0.45794  1.0000
  H   H61       1.0  0.22752  0.14571  0.45524  1.0000
  C   C53       1.0  0.16712  0.24346  0.39082  1.0000
  C   C54       1.0  0.01810  0.36921  0.21163  1.0000
  H   H62       1.0  0.02424  0.31788  0.45982  1.0000
  H   H63       1.0  0.13981  0.27994  0.46359  1.0000
  H   H64       1.0  0.19584  0.28659  0.20090  1.0000
  H   H65       1.0  0.19067  0.22488  0.46209  1.0000
  H   H66       1.0  0.04434  0.21131  0.31289  1.0000
  C   C55       1.0  0.23018  0.03639  0.36549  1.0000
  H   H67       1.0  0.21758  0.27949  0.24023  1.0000
  H   H68       1.0  0.05506  0.19913  0.38081  1.0000
  C   C56       1.0  0.05928  0.22155  0.31834  1.0000
  C   C57       1.0  0.06438  0.36031  0.46621  1.0000
  S   S23       1.0  0.14220  0.46857  0.03032  1.0000
  C   C58       1.0  0.05822  0.19821  0.35997  1.0000
  H   H69       1.0  0.02116  0.16616  0.45115  1.0000
  H   H70       1.0  0.20566  0.35342  0.20011  1.0000
  H   H71       1.0  0.01518  0.37320  0.38897  1.0000
  H   H72       1.0  0.22419  0.02870  0.31676  1.0000
  H   H73       1.0  0.23375  0.06905  0.46846  1.0000
  S   S24       1.0  0.13002  0.37425  0.47415  1.0000
  C   C59       1.0  0.07829  0.23638  0.35106  1.0000
  H   H74       1.0  0.07938  0.25512  0.33955  1.0000
  H   H75       1.0  0.18163  0.09881  0.46086  1.0000
  H   H76       1.0  0.22482  0.04758  0.38182  1.0000
  C   C60       1.0  0.17140  0.18062  0.49476  1.0000
  H   H77       1.0  0.23404  0.38038  0.07486  1.0000
  H   H78       1.0  0.08703  0.39719  0.39607  1.0000
  C   C61       1.0  0.00933  0.15027  0.45245  1.0000
  H   H79       1.0  0.22697  0.34849  0.22416  1.0000
  C   C62       1.0  0.06481  0.36239  0.37902  1.0000
  H   H80       1.0  0.19379  0.34601  0.23234  1.0000
  H   H81       1.0  0.03531  0.36186  0.27172  1.0000
  H   H82       1.0  0.06442  0.34590  0.32055  1.0000
  C   C63       1.0  0.20409  0.27154  0.45553  1.0000
  C   C64       1.0  0.06549  0.37342  0.44188  1.0000
  H   H83       1.0  0.01354  0.29359  0.30890  1.0000
  N   N4        1.0  0.21466  0.31430  0.21501  1.0000
  C   C65       1.0  0.06675  0.40261  0.39343  1.0000
  H   H84       1.0  0.19626  0.05973  0.33481  1.0000
  H   H85       1.0  0.07789  0.38823  0.43820  1.0000
  C   C66       1.0  0.17451  0.26473  0.42695  1.0000
  C   C67       1.0  0.17150  0.28808  0.38468  1.0000
  N   N5        1.0  0.19922  0.07822  0.49250  1.0000
  C   C68       1.0  0.17044  0.24263  0.41644  1.0000
  H   H86       1.0  0.19683  0.30440  0.25293  1.0000
  H   H87       1.0  0.16417  0.22637  0.38314  1.0000
  C   C69       1.0  0.19298  0.30696  0.20387  1.0000
  H   H88       1.0  0.20779  0.27124  0.47565  1.0000
  H   H89       1.0  0.22255  0.10191  0.46590  1.0000
  C   C70       1.0  0.16769  0.26610  0.37499  1.0000
  C   C71       1.0  0.17494  0.28748  0.41023  1.0000
  H   H90       1.0  0.17800  0.30503  0.41677  1.0000
  H   H91       1.0  0.02037  0.13295  0.46092  1.0000
  H   H92       1.0  0.16972  0.22440  0.42755  1.0000
  N   N6        1.0  0.23565  0.05302  0.34168  1.0000
  C   C72       1.0  0.02514  0.35615  0.33261  1.0000
  H   H93       1.0  0.02644  0.40081  0.37197  1.0000
  N   N7        1.0  0.17840  0.26464  0.45388  1.0000
  C   C73       1.0  0.17603  0.23976  0.46914  1.0000
  C   C74       1.0  0.15944  0.28340  0.46586  1.0000
  C   C75       1.0  0.02885  0.26187  0.36262  1.0000
  H   H94       1.0  0.17488  0.31034  0.21633  1.0000
  C   C76       1.0  0.05143  0.36699  0.42318  1.0000
  H   H95       1.0  0.04442  0.18629  0.35499  1.0000
  H   H96       1.0  0.05364  0.34635  0.37845  1.0000
  H   H97       1.0  0.07557  0.36538  0.48003  1.0000
  H   H98       1.0  0.00731  0.14686  0.43282  1.0000
  H   H99       1.0  0.23724  0.08850  0.49285  1.0000
  H   H100      1.0  0.18783  0.06557  0.45935  1.0000
  C   C77       1.0  0.03558  0.33356  0.45478  1.0000
  H   H101      1.0  0.23771  0.10449  0.34712  1.0000
  H   H102      1.0  0.24686  0.02296  0.37013  1.0000
  H   H103      1.0  0.25132  0.05724  0.41122  1.0000
  H   H104      1.0  0.18603  0.11665  0.49954  1.0000
  Fe  Fe12      1.0  0.16333  0.38050  0.00501  1.0000
  C   C78       1.0  0.00492  0.27447  0.36936  1.0000
  C   C79       1.0  0.19453  0.17343  0.50485  1.0000
  Fe  Fe13      1.0  0.23647  0.13833  0.54553  1.0000
  S   S25       1.0  0.24114  0.09711  0.55885  1.0000
  S   S26       1.0  0.04894  0.10939  0.61144  1.0000
  Fe  Fe14      1.0  0.22158  0.15190  0.59838  1.0000
  S   S27       1.0  0.22519  0.11145  0.61574  1.0000
  S   S28       1.0  0.20422  0.18495  0.61856  1.0000
  C   C80       1.0  0.06945  0.34352  0.69827  1.0000
  H   H105      1.0  0.05486  0.32641  0.67025  1.0000
  Fe  Fe15      1.0  0.20391  0.10481  0.58344  1.0000
  S   S29       1.0  0.16875  0.08517  0.57930  1.0000
  C   C81       1.0  0.23477  0.31271  0.59661  1.0000
  S   S30       1.0  0.19891  0.14525  0.56803  1.0000
  C   C82       1.0  0.12899  0.17686  0.59674  1.0000
  H   H106      1.0  0.21367  0.06029  0.60341  1.0000
  H   H107      1.0  0.20918  0.35208  0.91052  1.0000
  Fe  Fe16      1.0  0.13516  0.34911  0.57213  1.0000
  S   S31       1.0  0.12838  0.30832  0.57849  1.0000
  S   S32       1.0  0.14238  0.37004  0.60542  1.0000
  Fe  Fe17      1.0  0.15333  0.30447  0.54196  1.0000
  S   S33       1.0  0.18393  0.27369  0.53248  1.0000
  Fe  Fe18      1.0  0.09763  0.31959  0.55324  1.0000
  S   S34       1.0  0.06150  0.30180  0.56381  1.0000
  S   S35       1.0  0.16259  0.34450  0.53664  1.0000
  S   S36       1.0  0.10259  0.36095  0.54846  1.0000
  Fe  Fe19      1.0  0.15785  0.36799  0.75709  1.0000
  S   S37       1.0  0.19383  0.38589  0.74542  1.0000
  S   S38       1.0  0.14300  0.34762  0.72695  1.0000
  Fe  Fe20      1.0  0.15467  0.38276  0.81328  1.0000
  S   S39       1.0  0.19011  0.40190  0.80355  1.0000
  S   S40       1.0  0.13545  0.38969  0.85352  1.0000
  Fe  Fe21      1.0  0.17467  0.41735  0.76716  1.0000
  Fe  Fe22      1.0  0.20548  0.36844  0.78297  1.0000
  C   C83       1.0  0.20888  0.02100  0.60577  1.0000
  S   S41       1.0  0.13782  0.40081  0.77738  1.0000
  S   S42       1.0  0.17092  0.34792  0.79416  1.0000
  C   C84       1.0  0.01448  0.36680  0.55968  1.0000
  H   H108      1.0  0.20225  0.34155  0.70321  1.0000
  H   H109      1.0  0.21094  0.34580  0.87846  1.0000
  H   H110      1.0  0.24440  0.34565  0.99486  1.0000
  H   H111      1.0  0.23296  0.06036  0.52678  1.0000
  C   C85       1.0  0.20657  0.34965  0.66260  1.0000
  C   C86       1.0  0.21766  0.48022  0.82408  1.0000
  H   H112      1.0  0.03853  0.01018  0.61019  1.0000
  H   H113      1.0  0.23232  0.33353  0.59163  1.0000
  C   C87       1.0  0.15314  0.36995  0.93722  1.0000
  C   C88       1.0  0.15836  0.35166  0.91993  1.0000
  C   C89       1.0  0.15401  0.35760  0.89419  1.0000
  C   C90       1.0  0.14343  0.38180  0.88538  1.0000
  C   C91       1.0  0.13769  0.39997  0.90280  1.0000
  C   C92       1.0  0.14292  0.39428  0.92835  1.0000
  H   H114      1.0  0.16576  0.33264  0.92652  1.0000
  H   H115      1.0  0.15795  0.34316  0.88137  1.0000
  H   H116      1.0  0.12909  0.41862  0.89646  1.0000
  H   H117      1.0  0.13841  0.40853  0.94132  1.0000
  C   C93       1.0  0.14295  0.36296  0.63915  1.0000
  C   C94       1.0  0.14869  0.38172  0.65318  1.0000
  C   C95       1.0  0.14924  0.37729  0.67979  1.0000
  C   C96       1.0  0.14383  0.35398  0.69302  1.0000
  C   C97       1.0  0.13811  0.33521  0.67898  1.0000
  C   C98       1.0  0.13778  0.33956  0.65233  1.0000
  H   H118      1.0  0.15274  0.39992  0.64339  1.0000
  H   H119      1.0  0.15359  0.39203  0.69011  1.0000
  H   H120      1.0  0.13382  0.31712  0.68887  1.0000
  H   H121      1.0  0.13337  0.32480  0.64213  1.0000
  H   H122      1.0  0.00485  0.34926  0.95809  1.0000
  C   C99       1.0  0.20171  0.05297  0.50731  1.0000
  C   C100      1.0  0.22309  0.04119  0.60490  1.0000
  C   C101      1.0  0.03467  0.32387  0.56653  1.0000
  H   H123      1.0  0.22253  0.46924  0.77875  1.0000
  C   C102      1.0  0.23654  0.48879  0.74421  1.0000
  H   H124      1.0  0.04930  0.24688  0.56526  1.0000
  C   C103      1.0  0.13592  0.09648  0.58677  1.0000
  H   H125      1.0  0.11997  0.15958  0.60483  1.0000
  C   C104      1.0  0.23044  0.38916  0.92763  1.0000
  C   C105      1.0  0.19821  0.20975  0.59494  1.0000
  C   C106      1.0  0.18043  0.23033  0.60013  1.0000
  C   C107      1.0  0.17566  0.25004  0.58095  1.0000
  C   C108      1.0  0.18873  0.24917  0.55667  1.0000
  C   C109      1.0  0.20624  0.22846  0.55147  1.0000
  C   C110      1.0  0.21091  0.20878  0.57055  1.0000
  H   H126      1.0  0.17037  0.23096  0.61893  1.0000
  H   H127      1.0  0.16208  0.26586  0.58510  1.0000
  H   H128      1.0  0.21638  0.22764  0.53271  1.0000
  C   C111      1.0  0.18919  0.09743  0.50993  1.0000
  H   H129      1.0  0.05247  0.35456  0.54445  1.0000
  H   H130      1.0  0.11992  0.17350  0.53555  1.0000
  H   H131      1.0  0.02820  0.34095  0.64045  1.0000
  H   H132      1.0  0.07105  0.32099  0.62910  1.0000
  C   C112      1.0  0.07598  0.17732  0.58298  1.0000
  H   H133      1.0  0.07161  0.33778  0.59828  1.0000
  C   C113      1.0  0.22283  0.02339  0.53897  1.0000
  H   H134      1.0  0.08240  0.15777  0.58849  1.0000
  S   S43       1.0  0.18541  0.41400  0.99998  1.0000
  C   C114      1.0  0.06308  0.34286  0.67383  1.0000
  H   H135      1.0  0.20867  0.27728  0.66259  1.0000
  N   N8        1.0  0.04853  0.02898  0.57302  1.0000
  H   H136      1.0  0.05572  0.40156  0.61693  1.0000
  H   H137      1.0  0.19932  0.48170  0.81601  1.0000
  H   H138      1.0  0.01532  0.38626  0.55166  1.0000
  H   H139      1.0  0.12395  0.19104  0.61059  1.0000
  H   H140      1.0  0.21191  0.38301  0.93394  1.0000
  C   C115      1.0  0.12892  0.01127  0.57772  1.0000
  C   C116      1.0  0.20498  0.33369  0.68519  1.0000
  C   C117      1.0  0.15524  0.47207  0.79541  1.0000
  C   C118      1.0  0.18948  0.31207  0.60068  1.0000
  H   H141      1.0  0.13222  0.21614  0.54195  1.0000
  H   H142      1.0  0.20596  0.33527  0.98074  1.0000
  H   H143      1.0  0.20229  0.09866  0.52413  1.0000
  H   H144      1.0  0.09467  0.23579  0.56137  1.0000
  C   C119      1.0  0.20666  0.00540  0.53723  1.0000
  C   C120      1.0  0.04983  0.18420  0.58492  1.0000
  C   C121      1.0  0.08936  0.03699  0.58772  1.0000
  H   H145      1.0  0.17233  0.30616  0.61290  1.0000
  Fe  Fe23      1.0  0.12928  0.35159  0.51361  1.0000
  H   H146      1.0  0.08704  0.38625  0.60755  1.0000
  C   C122      1.0  0.20843  0.29753  0.66151  1.0000
  C   C123      1.0  0.11851  0.09612  0.56911  1.0000
  H   H147      1.0  0.02405  0.05985  0.55625  1.0000
  H   H148      1.0  0.14986  0.17151  0.59583  1.0000
  N   N9        1.0  0.21269  0.30332  0.61314  1.0000
  N   N10       1.0  0.22764  0.37930  0.88333  1.0000
  H   H149      1.0  0.19698  0.17853  0.52320  1.0000
  H   H150      1.0  0.19306  0.39024  0.86596  1.0000
  C   C124      1.0  0.08232  0.10596  0.60058  1.0000
  C   C125      1.0  0.09979  0.10673  0.61802  1.0000
  C   C126      1.0  0.21632  0.27526  0.61497  1.0000
  C   C127      1.0  0.08306  0.22065  0.56790  1.0000
  H   H151      1.0  0.19097  0.39609  0.89834  1.0000
  C   C128      1.0  0.04024  0.20915  0.57833  1.0000
  H   H152      1.0  0.15240  0.45245  0.80113  1.0000
  H   H153      1.0  0.17082  0.09288  0.52074  1.0000
  H   H154      1.0  0.07972  0.05294  0.59685  1.0000
  H   H155      1.0  0.04920  0.06954  0.57024  1.0000
  C   C129      1.0  0.03459  0.02879  0.59884  1.0000
  H   H156      1.0  0.13912  0.10222  0.62524  1.0000
  H   H157      1.0  0.12521  0.04338  0.59880  1.0000
  Fe  Fe24      1.0  0.01116  0.11636  0.59342  1.0000
  H   H158      1.0  0.03694  0.17004  0.59164  1.0000
  C   C130      1.0  0.09346  0.19522  0.57410  1.0000
  H   H159      1.0  0.18655  0.33302  0.59678  1.0000
  H   H160      1.0  0.13919  0.48439  0.83147  1.0000
  H   H161      1.0  0.15738  0.20110  0.55935  1.0000
  H   H162      1.0  0.11819  0.14956  0.56205  1.0000
  H   H163      1.0  0.12548  0.09122  0.55030  1.0000
  S   S44       1.0  0.01408  0.13093  0.55235  1.0000
  H   H164      1.0  0.24041  0.40447  0.77869  1.0000
  C   C131      1.0  0.12693  0.16704  0.55427  1.0000
  H   H165      1.0  0.03969  0.04364  0.60949  1.0000
  C   C132      1.0  0.12626  0.10236  0.61115  1.0000
  H   H166      1.0  0.08400  0.39908  0.64713  1.0000
  C   C133      1.0  0.07900  0.38341  0.66078  1.0000
  H   H167      1.0  0.21903  0.26829  0.59593  1.0000
  C   C134      1.0  0.08506  0.38396  0.68537  1.0000
  H   H168      1.0  0.22467  0.19304  0.56635  1.0000
  C   C135      1.0  0.05682  0.22736  0.57004  1.0000
  H   H169      1.0  0.06087  0.38245  0.59130  1.0000
  S   S45       1.0  0.17785  0.45726  0.74979  1.0000
  C   C136      1.0  0.22417  0.32714  0.97238  1.0000
  H   H170      1.0  0.01373  0.03248  0.59821  1.0000
  N   N11       1.0  0.12107  0.18711  0.57155  1.0000
  H   H171      1.0  0.09706  0.50233  0.77255  1.0000
  N   N12       1.0  0.06096  0.36144  0.62850  1.0000
  C   C137      1.0  0.07559  0.33908  0.61796  1.0000
  C   C138      1.0  0.03351  0.35895  0.62967  1.0000
  C   C139      1.0  0.06640  0.38398  0.61040  1.0000
  C   C140      1.0  0.06764  0.36280  0.65430  1.0000
  H   H172      1.0  0.20780  0.30659  0.94777  1.0000
  H   H173      1.0  0.01151  0.29705  0.58856  1.0000
  H   H174      1.0  0.09432  0.39948  0.68983  1.0000
  H   H175      1.0  0.23424  0.39820  0.96507  1.0000
  C   C141      1.0  0.22144  0.35322  0.89218  1.0000
  H   H176      1.0  0.20768  0.41599  0.87424  1.0000
  H   H177      1.0  0.19019  0.30438  0.58215  1.0000
  H   H178      1.0  0.05564  0.05621  0.54054  1.0000
  S   S46       1.0  0.12176  0.31125  0.51747  1.0000
  H   H179      1.0  0.02759  0.35908  0.61047  1.0000
  H   H180      1.0  0.13416  0.22315  0.57385  1.0000
  C   C142      1.0  0.24145  0.38848  0.90207  1.0000
  S   S47       1.0  0.15951  0.36100  0.96948  1.0000
  H   H181      1.0  0.14764  0.16126  0.55085  1.0000
  C   C143      1.0  0.16660  0.47943  0.77103  1.0000
  C   C144      1.0  0.20385  0.39611  0.88038  1.0000
  C   C145      1.0  0.09202  0.10145  0.57573  1.0000
  C   C146      1.0  0.03561  0.34894  0.55585  1.0000
  C   C147      1.0  0.24295  0.39802  0.94562  1.0000
  C   C148      1.0  0.20875  0.33975  0.63936  1.0000
  H   H182      1.0  0.19952  0.26679  0.62544  1.0000
  H   H183      1.0  0.09277  0.11018  0.63729  1.0000
  C   C149      1.0  0.22034  0.04687  0.52440  1.0000
  H   H184      1.0  0.01992  0.21439  0.57974  1.0000
  N   N13       1.0  0.23210  0.50183  0.81345  1.0000
  H   H185      1.0  0.07912  0.10105  0.56183  1.0000
  C   C150      1.0  0.21020  0.31332  0.63805  1.0000
  C   C151      1.0  0.11542  0.03160  0.58903  1.0000
  H   H186      1.0  0.09630  0.34003  0.61750  1.0000
  C   C152      1.0  0.13675  0.20786  0.56118  1.0000
  C   C153      1.0  0.22524  0.31093  0.95381  1.0000
  H   H187      1.0  0.02185  0.37478  0.63867  1.0000
  C   C154      1.0  0.08039  0.36404  0.70402  1.0000
  H   H188      1.0  0.23128  0.37123  0.84432  1.0000
  H   H189      1.0  0.18861  0.02459  0.60481  1.0000
  H   H190      1.0  0.22853  0.46175  0.82034  1.0000
  H   H191      1.0  0.20509  0.36992  0.66318  1.0000
  H   H192      1.0  0.14912  0.00716  0.57875  1.0000
  C   C155      1.0  0.14773  0.49015  0.81254  1.0000
  H   H193      1.0  0.08604  0.36418  0.72279  1.0000
  C   C156      1.0  0.01233  0.31647  0.58035  1.0000
  C   C157      1.0  0.24639  0.33276  0.98053  1.0000
  C   C158      1.0  0.04426  0.05473  0.55946  1.0000
  C   C159      1.0  0.20576  0.30773  0.68465  1.0000
  H   H194      1.0  0.20381  0.29554  0.70239  1.0000
  H   H195      1.0  0.21301  0.47953  0.84500  1.0000
  H   H196      1.0  0.20861  0.35308  0.62247  1.0000
  H   H197      1.0  0.23337  0.26738  0.62447  1.0000
  C   C160      1.0  0.07600  0.02227  0.57477  1.0000
  H   H198      1.0  0.23787  0.30444  0.57821  1.0000
  H   H199      1.0  0.23114  0.47491  0.73332  1.0000
  H   H200      1.0  0.25242  0.30785  0.60601  1.0000
  C   C161      1.0  0.23159  0.48579  0.77062  1.0000
  H   H201      1.0  0.06635  0.32786  0.71278  1.0000
  C   C162      1.0  0.24205  0.37869  0.85781  1.0000
  H   H202      1.0  0.23892  0.34011  0.89476  1.0000
  S   S48       1.0  0.24485  0.35003  0.78826  1.0000
  H   H203      1.0  0.01660  0.01707  0.55822  1.0000
  H   H204      1.0  0.24613  0.39791  0.84913  1.0000
  C   C163      1.0  0.18795  0.01079  0.52088  1.0000
  H   H205      1.0  0.15598  0.19097  0.50549  1.0000
  C   C164      1.0  0.03722  0.01146  0.55930  1.0000
  H   H206      1.0  0.04614  0.01130  0.53936  1.0000
  H   H207      1.0  0.25311  0.49629  0.84587  1.0000
  H   H208      1.0  0.23722  0.01921  0.55188  1.0000
  C   C165      1.0  0.24924  0.03692  0.60597  1.0000
  H   H209      1.0  0.11431  0.49566  0.96838  1.0000
  C   C166      1.0  0.24864  0.30026  0.94326  1.0000
  H   H210      1.0  0.24938  0.28752  0.92889  1.0000
  C   C167      1.0  0.18534  0.03423  0.50613  1.0000
  Fe  Fe25      1.0  0.07478  0.69133  0.29864  1.0000
  S   S49       1.0  0.09193  0.65109  0.30651  1.0000
  S   S50       1.0  0.03552  0.70945  0.29221  1.0000
  Fe  Fe26      1.0  0.12437  0.71198  0.29850  1.0000
  S   S51       1.0  0.14588  0.67372  0.30622  1.0000
  S   S52       1.0  0.13840  0.75011  0.29534  1.0000
  Fe  Fe27      1.0  0.12381  0.66231  0.27639  1.0000
  S   S53       1.0  0.14302  0.64050  0.24277  1.0000
  Fe  Fe28      1.0  0.11243  0.66604  0.33561  1.0000
  S   S54       1.0  0.11121  0.64889  0.37784  1.0000
  S   S55       1.0  0.10500  0.70136  0.26733  1.0000
  S   S56       1.0  0.09274  0.70512  0.32910  1.0000
  Fe  Fe29      1.0  0.04941  0.85420  0.39520  1.0000
  S   S57       1.0  0.04584  0.89651  0.38961  1.0000
  S   S58       1.0  0.05731  0.83380  0.43315  1.0000
  Fe  Fe30      1.0  0.04362  0.85104  0.34050  1.0000
  S   S59       1.0  0.04049  0.89317  0.33088  1.0000
  S   S60       1.0  0.03874  0.82398  0.31313  1.0000
  Fe  Fe31      1.0  0.07340  0.89104  0.35461  1.0000
  S   S61       1.0  0.10959  0.91151  0.34467  1.0000
  H   H211      1.0  0.06364  0.62887  0.48649  1.0000
  C   C168      1.0  0.11392  0.59209  0.17059  1.0000
  S   S62       1.0  0.07772  0.84874  0.36137  1.0000
  S   S63       1.0  0.01560  0.85142  0.37540  1.0000
  S   S64       1.0  0.14188  0.89078  0.46641  1.0000
  Fe  Fe32      1.0  0.16002  0.63326  0.08619  1.0000
  S   S65       1.0  0.19942  0.61395  0.08854  1.0000
  S   S66       1.0  0.13787  0.65042  0.12150  1.0000
  Fe  Fe33      1.0  0.16086  0.62113  0.02944  1.0000
  H   H212      1.0  0.08750  0.78654  0.47894  1.0000
  H   H213      1.0  0.22434  0.89377  0.42520  1.0000
  Fe  Fe34      1.0  0.18695  0.58399  0.06872  1.0000
  S   S67       1.0  0.19958  0.54294  0.07991  1.0000
  Fe  Fe35      1.0  0.20835  0.63347  0.04936  1.0000
  C   C169      1.0  0.18708  0.90939  0.34065  1.0000
  S   S68       1.0  0.14691  0.60175  0.06807  1.0000
  S   S69       1.0  0.16973  0.65485  0.04724  1.0000
  C   C170      1.0  0.18354  0.52224  0.06632  1.0000
  C   C171      1.0  0.15941  0.57743  0.13287  1.0000
  S   S70       1.0  0.20001  0.60136  0.03000  1.0000
  H   H214      1.0  0.20121  0.92129  0.33141  1.0000
  H   H215      1.0  0.17716  0.68125  0.18281  1.0000
  C   C172      1.0  0.15963  0.53007  0.05842  1.0000
  C   C173      1.0  0.11145  0.58863  0.21631  1.0000
  H   H216      1.0  0.06572  0.66233  0.48690  1.0000
  H   H217      1.0  0.11061  0.85343  0.49426  1.0000
  H   H218      1.0  0.15076  0.54896  0.06064  1.0000
  H   H219      1.0  0.11690  0.76410  0.44828  1.0000
  S   S71       1.0  0.22703  0.87796  0.36179  1.0000
  C   C174      1.0  0.08257  0.84732  0.44218  1.0000
  C   C175      1.0  0.09661  0.86303  0.42440  1.0000
  C   C176      1.0  0.11536  0.87565  0.43184  1.0000
  C   C177      1.0  0.11998  0.87285  0.45719  1.0000
  C   C178      1.0  0.10654  0.85647  0.47486  1.0000
  C   C179      1.0  0.08780  0.84374  0.46740  1.0000
  H   H220      1.0  0.09287  0.86592  0.40487  1.0000
  H   H221      1.0  0.12576  0.88817  0.41801  1.0000
  H   H222      1.0  0.24026  0.64293  0.08860  1.0000
  H   H223      1.0  0.07693  0.83179  0.48133  1.0000
  C   C180      1.0  0.14186  0.64463  0.20894  1.0000
  C   C181      1.0  0.16003  0.63045  0.19334  1.0000
  C   C182      1.0  0.15967  0.63254  0.16668  1.0000
  C   C183      1.0  0.14067  0.64844  0.15501  1.0000
  C   C184      1.0  0.12268  0.66285  0.17057  1.0000
  C   C185      1.0  0.12332  0.66113  0.19718  1.0000
  H   H224      1.0  0.17457  0.61769  0.20199  1.0000
  H   H225      1.0  0.17404  0.62169  0.15525  1.0000
  H   H226      1.0  0.10793  0.67537  0.16199  1.0000
  H   H227      1.0  0.10921  0.67230  0.20864  1.0000
  C   C186      1.0  0.11767  0.65814  0.40745  1.0000
  C   C187      1.0  0.11100  0.64291  0.43020  1.0000
  C   C188      1.0  0.11513  0.64951  0.45411  1.0000
  C   C189      1.0  0.12656  0.67131  0.45576  1.0000
  C   C190      1.0  0.13381  0.68624  0.43296  1.0000
  C   C191      1.0  0.12929  0.67984  0.40909  1.0000
  H   H228      1.0  0.10260  0.62573  0.42932  1.0000
  H   H229      1.0  0.11023  0.63726  0.47118  1.0000
  H   H230      1.0  0.14339  0.70270  0.43368  1.0000
  H   H231      1.0  0.13546  0.69130  0.39187  1.0000
  C   C192      1.0  0.11141  0.77225  0.29699  1.0000
  C   C193      1.0  0.11285  0.79668  0.30291  1.0000
  C   C194      1.0  0.09062  0.81324  0.30687  1.0000
  C   C195      1.0  0.06706  0.80544  0.30458  1.0000
  C   C196      1.0  0.06588  0.78156  0.29726  1.0000
  C   C197      1.0  0.08793  0.76499  0.29367  1.0000
  H   H232      1.0  0.13096  0.80253  0.30532  1.0000
  H   H233      1.0  0.09173  0.83194  0.31190  1.0000
  H   H234      1.0  0.04782  0.77532  0.29542  1.0000
  H   H235      1.0  0.08647  0.74636  0.28886  1.0000
  H   H236      1.0  0.07080  0.89952  0.47976  1.0000
  C   C198      1.0  0.09426  0.77199  0.49401  1.0000
  C   C199      1.0  0.01914  0.83250  0.50090  1.0000
  H   H237      1.0  0.24365  0.57059  0.06604  1.0000
  H   H238      1.0  0.05601  0.93044  0.47024  1.0000
  H   H239      1.0  0.22878  0.96777  0.49730  1.0000
  H   H240      1.0  0.17198  0.82439  0.44502  1.0000
  H   H241      1.0  0.03369  0.65947  0.31985  1.0000
  H   H242      1.0  0.21042  0.92800  0.37698  1.0000
  H   H243      1.0  0.15440  0.72728  0.24292  1.0000
  H   H244      1.0  0.02052  0.61257  0.49576  1.0000
  C   C200      1.0  0.20428  0.90129  0.42321  1.0000
  H   H245      1.0  0.13557  0.86695  0.37292  1.0000
  C   C201      1.0  0.17564  0.87199  0.36737  1.0000
  N   N14       1.0  0.20152  0.92917  0.41736  1.0000
  H   H246      1.0  0.14123  0.52029  0.15725  1.0000
  C   C202      1.0  0.14222  0.90121  0.34896  1.0000
  C   C203      1.0  0.14976  0.87883  0.36388  1.0000
  H   H247      1.0  0.14559  0.75709  0.16461  1.0000
  H   H248      1.0  0.17467  0.57800  0.14506  1.0000
  C   C204      1.0  0.02255  0.65532  0.46483  1.0000
  C   C205      1.0  0.16461  0.82656  0.48507  1.0000
  H   H249      1.0  0.21685  0.95638  0.38803  1.0000
  C   C206      1.0  0.03688  0.65810  0.41913  1.0000
  C   C207      1.0  0.12705  0.56587  0.21625  1.0000
  N   N15       1.0  0.08690  0.76408  0.38554  1.0000
  C   C208      1.0  0.06796  0.77337  0.40598  1.0000
  C   C209      1.0  0.07436  0.76759  0.36200  1.0000
  C   C210      1.0  0.09378  0.73665  0.39236  1.0000
  C   C211      1.0  0.11005  0.77734  0.38122  1.0000
  C   C212      1.0  0.11358  0.79731  0.39518  1.0000
  C   C213      1.0  0.12982  0.77061  0.36218  1.0000
  C   C214      1.0  0.13533  0.80996  0.38992  1.0000
  C   C215      1.0  0.15141  0.78344  0.35699  1.0000
  C   C216      1.0  0.15411  0.80317  0.37074  1.0000
  H   H250      1.0  0.06107  0.79368  0.40126  1.0000
  H   H251      1.0  0.05090  0.76293  0.40882  1.0000
  H   H252      1.0  0.07585  0.77114  0.42447  1.0000
  H   H253      1.0  0.06974  0.78805  0.35571  1.0000
  H   H254      1.0  0.05647  0.75852  0.36443  1.0000
  H   H255      1.0  0.08648  0.75916  0.34614  1.0000
  H   H256      1.0  0.10432  0.73318  0.40931  1.0000
  H   H257      1.0  0.07682  0.72606  0.39646  1.0000
  H   H258      1.0  0.10593  0.72768  0.37675  1.0000
  H   H259      1.0  0.09958  0.80403  0.40981  1.0000
  H   H260      1.0  0.12853  0.75571  0.35066  1.0000
  H   H261      1.0  0.13733  0.82555  0.40038  1.0000
  H   H262      1.0  0.16588  0.77830  0.34184  1.0000
  H   H263      1.0  0.17067  0.81340  0.36628  1.0000
  H   H264      1.0  0.16925  0.93055  0.39639  1.0000
  H   H265      1.0  0.06192  0.65292  0.44720  1.0000
  H   H266      1.0  0.16112  0.52781  0.12834  1.0000
  H   H267      1.0  0.00798  0.93793  0.48035  1.0000
  C   C217      1.0  0.13614  0.55601  0.19340  1.0000
  H   H268      1.0  0.14849  0.53856  0.19475  1.0000
  C   C218      1.0  0.19400  0.93891  0.46271  1.0000
  C   C219      1.0  0.15405  0.53413  0.14733  1.0000
  N   N16       1.0  0.03025  0.90159  0.48049  1.0000
  C   C220      1.0  0.12986  0.56894  0.16976  1.0000
  N   N17       1.0  0.13701  0.77089  0.21457  1.0000
  C   C221      1.0  0.13052  0.79104  0.19402  1.0000
  C   C222      1.0  0.11331  0.76658  0.23127  1.0000
  C   C223      1.0  0.15474  0.78063  0.22927  1.0000
  C   C224      1.0  0.14851  0.74669  0.20532  1.0000
  C   C225      1.0  0.15141  0.74266  0.17926  1.0000
  H   H269      1.0  0.11601  0.78567  0.18308  1.0000
  H   H270      1.0  0.12233  0.80902  0.20174  1.0000
  H   H271      1.0  0.14760  0.79539  0.18080  1.0000
  H   H272      1.0  0.09960  0.75873  0.22117  1.0000
  H   H273      1.0  0.10385  0.78426  0.23875  1.0000
  H   H274      1.0  0.11688  0.75290  0.24807  1.0000
  H   H275      1.0  0.17305  0.78360  0.21754  1.0000
  H   H276      1.0  0.14668  0.79884  0.23655  1.0000
  H   H277      1.0  0.15917  0.76756  0.24630  1.0000
  C   C226      1.0  0.20892  0.94062  0.43878  1.0000
  H   H278      1.0  0.17706  0.92932  0.46576  1.0000
  H   H279      1.0  0.18100  0.85487  0.37927  1.0000
  C   C227      1.0  0.01035  0.69191  0.30450  1.0000
  C   C228      1.0  0.15649  0.72591  0.22274  1.0000
  Fe  Fe36      1.0  0.01334  0.89360  0.36701  1.0000
  H   H280      1.0  0.15575  0.93374  0.32588  1.0000
  H   H281      1.0  0.10509  0.54974  0.13768  1.0000
  C   C229      1.0  0.16117  0.91643  0.33751  1.0000
  H   H282      1.0  0.10520  0.59671  0.23397  1.0000
  H   H283      1.0  0.11238  0.58015  0.12213  1.0000
  C   C230      1.0  0.23840  0.96233  0.45794  1.0000
  C   C231      1.0  0.01458  0.66775  0.31741  1.0000
  C   C232      1.0  0.17470  0.93777  0.41341  1.0000
  C   C233      1.0  0.10466  0.60153  0.19355  1.0000
  H   H284      1.0  0.03217  0.91959  0.44185  1.0000
  H   H285      1.0  0.12825  0.55242  0.11024  1.0000
  H   H286      1.0  0.04521  0.88718  0.44534  1.0000
  C   C234      1.0  0.16288  0.81611  0.46286  1.0000
  C   C235      1.0  0.13659  0.78461  0.48658  1.0000
  H   H287      1.0  0.00783  0.66319  0.39402  1.0000
  H   H288      1.0  0.16854  0.57145  0.11447  1.0000
  H   H289      1.0  0.17208  0.68686  0.22836  1.0000
  H   H290      1.0  0.24453  0.95422  0.41988  1.0000
  H   H291      1.0  0.16112  0.93065  0.42938  1.0000
  C   C236      1.0  0.19461  0.88711  0.35573  1.0000
  C   C237      1.0  0.01188  0.66132  0.41358  1.0000
  H   H292      1.0  0.15046  0.59712  0.12897  1.0000
  S   S72       1.0  0.24555  0.64844  0.03428  1.0000
  H   H293      1.0  0.23718  0.92709  0.39337  1.0000
  C   C238      1.0  0.16176  0.71929  0.17137  1.0000
  C   C239      1.0  0.12071  0.56065  0.12819  1.0000
  C   C240      1.0  0.14685  0.51321  0.04804  1.0000
  H   H294      1.0  0.14850  0.78840  0.44554  1.0000
  C   C241      1.0  0.14912  0.79542  0.46345  1.0000
  C   C242      1.0  0.21721  0.93559  0.39298  1.0000
  H   H295      1.0  0.13258  0.55617  0.23405  1.0000
  C   C243      1.0  0.05356  0.91298  0.48349  1.0000
  S   S73       1.0  0.13320  0.68027  0.48544  1.0000
  H   H296      1.0  0.12806  0.51906  0.04267  1.0000
  C   C244      1.0  0.16677  0.70267  0.21462  1.0000
  H   H297      1.0  0.05232  0.65746  0.40383  1.0000
  N   N18       1.0  0.14079  0.56020  0.14511  1.0000
  H   H298      1.0  0.17492  0.84285  0.48441  1.0000
  H   H299      1.0  0.19261  0.89500  0.44103  1.0000
  C   C245      1.0  0.16953  0.69942  0.18898  1.0000
  H   H300      1.0  0.16340  0.71633  0.15151  1.0000
  H   H301      1.0  0.17125  0.95875  0.41085  1.0000
  H   H302      1.0  0.17119  0.53288  0.15741  1.0000
  H   H303      1.0  0.19809  0.89188  0.40801  1.0000
  C   C246      1.0  0.25158  0.54960  0.02332  1.0000
  H   H304      1.0  0.10940  0.60379  0.15344  1.0000
  C   C247      1.0  0.20096  0.94893  0.48340  1.0000
  C   C248      1.0  0.05493  0.64619  0.49511  1.0000
  H   H305      1.0  0.23537  0.54253  0.03627  1.0000
  H   H306      1.0  0.09309  0.61960  0.19364  1.0000
  H   H307      1.0  0.11354  0.73411  0.46623  1.0000
  C   C249      1.0  0.23155  0.95252  0.43705  1.0000
  N   N19       1.0  0.12141  0.76305  0.48798  1.0000
  C   C250      1.0  0.12424  0.75098  0.46409  1.0000
  C   C251      1.0  0.22314  0.96058  0.48104  1.0000
  C   C252      1.0  0.02056  0.85580  0.48609  1.0000
  C   C253      1.0  0.04222  0.65529  0.44432  1.0000
  H   H308      1.0  0.01137  0.89581  0.44840  1.0000
  H   H309      1.0  0.05341  0.91899  0.50265  1.0000
  C   C254      1.0  0.02970  0.90088  0.45291  1.0000
  H   H310      1.0  0.08220  0.75616  0.49623  1.0000
  N   N20       1.0  0.02757  0.65160  0.49173  1.0000
  H   H311      1.0  0.14442  0.74405  0.45853  1.0000
  H   H312      1.0  0.11600  0.54620  0.00750  1.0000
  H   H313      1.0  0.01488  0.85704  0.46729  1.0000
  C   C255      1.0  0.02957  0.87639  0.49532  1.0000
  H   H314      1.0  0.02598  0.69159  0.49361  1.0000
  H   H315      1.0  0.18942  0.94711  0.50157  1.0000
  C   C256      1.0  0.00783  0.91825  0.48984  1.0000
  H   H316      1.0  0.24337  0.56656  0.01174  1.0000
  H   H317      1.0  0.01276  0.81693  0.49317  1.0000
  C   C257      1.0  0.01761  0.67471  0.50393  1.0000
  Fe  Fe37      1.0  0.09840  0.92079  0.54767  1.0000
  S   S74       1.0  0.10251  0.88265  0.53376  1.0000
  S   S75       1.0  0.05903  0.94421  0.54780  1.0000
  Fe  Fe38      1.0  0.15796  0.91922  0.54782  1.0000
  S   S76       1.0  0.16471  0.88139  0.53333  1.0000
  S   S77       1.0  0.19185  0.93735  0.55815  1.0000
  H   H318      1.0  0.11876  0.54074  0.69161  1.0000
  Fe  Fe39      1.0  0.13150  0.87146  0.56111  1.0000
  S   S78       1.0  0.13862  0.83385  0.58429  1.0000
  H   H319      1.0  0.11653  0.59129  0.75659  1.0000
  S   S79       1.0  0.12560  0.90870  0.57744  1.0000
  Fe  Fe40      1.0  0.07441  0.65657  0.56675  1.0000
  S   S80       1.0  0.11442  0.63902  0.55829  1.0000
  S   S81       1.0  0.04069  0.63469  0.56934  1.0000
  Fe  Fe41      1.0  0.09036  0.70902  0.56507  1.0000
  S   S82       1.0  0.13143  0.69501  0.55706  1.0000
  S   S83       1.0  0.07373  0.74987  0.56168  1.0000
  C   C258      1.0  0.00735  0.95222  0.54398  1.0000
  H   H320      1.0  0.23853  0.64421  0.78714  1.0000
  Fe  Fe42      1.0  0.12275  0.66305  0.58800  1.0000
  S   S84       1.0  0.14776  0.64786  0.62044  1.0000
  S   S85       1.0  0.07812  0.68826  0.53577  1.0000
  S   S86       1.0  0.08219  0.67886  0.59723  1.0000
  Fe  Fe43      1.0  0.16281  0.62466  0.83699  1.0000
  S   S87       1.0  0.18592  0.58709  0.83881  1.0000
  S   S88       1.0  0.15662  0.64573  0.87283  1.0000
  Fe  Fe44      1.0  0.15786  0.62426  0.77846  1.0000
  S   S89       1.0  0.18137  0.58658  0.77783  1.0000
  S   S90       1.0  0.13772  0.64186  0.74314  1.0000
  Fe  Fe45      1.0  0.15881  0.57553  0.81497  1.0000
  S   S91       1.0  0.14444  0.53761  0.82748  1.0000
  Fe  Fe46      1.0  0.20620  0.60163  0.80176  1.0000
  H   H321      1.0  0.11201  0.60386  0.71545  1.0000
  S   S92       1.0  0.13371  0.61224  0.81516  1.0000
  S   S93       1.0  0.18469  0.64043  0.80046  1.0000
  S   S94       1.0  0.24820  0.59011  0.79849  1.0000
  C   C259      1.0  0.15553  0.63633  0.90632  1.0000
  C   C260      1.0  0.14924  0.65503  0.92304  1.0000
  C   C261      1.0  0.14782  0.64883  0.94962  1.0000
  C   C262      1.0  0.15263  0.62372  0.96015  1.0000
  C   C263      1.0  0.15953  0.60503  0.94342  1.0000
  C   C264      1.0  0.16119  0.61127  0.91675  1.0000
  H   H322      1.0  0.14472  0.67448  0.91540  1.0000
  H   H323      1.0  0.14166  0.66342  0.96200  1.0000
  H   H324      1.0  0.16289  0.58548  0.95110  1.0000
  H   H325      1.0  0.16619  0.59658  0.90429  1.0000
  C   C265      1.0  0.24693  0.99181  0.60900  1.0000
  C   C266      1.0  0.16247  0.52275  0.78073  1.0000
  C   C267      1.0  0.13658  0.54730  0.69578  1.0000
  C   C268      1.0  0.10750  0.51274  0.97813  1.0000
  C   C269      1.0  0.03613  0.87236  0.52051  1.0000
  H   H326      1.0  0.12743  0.56920  0.98348  1.0000
  H   H327      1.0  0.16470  0.54223  0.77472  1.0000
  C   C270      1.0  0.12110  0.55931  0.89054  1.0000
  H   H328      1.0  0.03340  0.82114  0.60250  1.0000
  C   C271      1.0  0.22737  0.63309  0.95804  1.0000
  C   C272      1.0  0.02618  0.82910  0.52536  1.0000
  C   C273      1.0  0.02089  0.91407  0.56981  1.0000
  C   C274      1.0  0.13837  0.79611  0.50871  1.0000
  H   H329      1.0  0.20706  0.82065  0.62888  1.0000
  C   C275      1.0  0.24916  0.52501  0.77225  1.0000
  C   C276      1.0  0.14466  0.64715  0.65453  1.0000
  C   C277      1.0  0.16521  0.63632  0.66787  1.0000
  C   C278      1.0  0.16373  0.63501  0.69467  1.0000
  C   C279      1.0  0.14150  0.64436  0.70889  1.0000
  C   C280      1.0  0.12098  0.65529  0.69556  1.0000
  C   C281      1.0  0.12248  0.65664  0.66874  1.0000
  H   H330      1.0  0.18257  0.62903  0.65729  1.0000
  H   H331      1.0  0.17988  0.62683  0.70430  1.0000
  H   H332      1.0  0.10365  0.66270  0.70609  1.0000
  H   H333      1.0  0.10645  0.66510  0.65905  1.0000
  C   C282      1.0  0.22555  0.93017  0.55097  1.0000
  C   C283      1.0  0.01035  0.67271  0.66355  1.0000
  H   H334      1.0  0.05802  0.64275  0.51552  1.0000
  H   H335      1.0  0.23395  0.94969  0.58114  1.0000
  N   N21       1.0  0.12361  0.53363  0.97014  1.0000
  C   C284      1.0  0.12035  0.81042  0.57860  1.0000
  C   C285      1.0  0.09771  0.81707  0.56777  1.0000
  C   C286      1.0  0.08347  0.79824  0.56309  1.0000
  C   C287      1.0  0.09181  0.77266  0.56897  1.0000
  C   C288      1.0  0.11444  0.76590  0.57983  1.0000
  C   C289      1.0  0.12861  0.78480  0.58480  1.0000
  H   H336      1.0  0.09095  0.83671  0.56337  1.0000
  H   H337      1.0  0.06604  0.80343  0.55468  1.0000
  H   H338      1.0  0.12095  0.74617  0.58455  1.0000
  H   H339      1.0  0.14605  0.77952  0.59331  1.0000
  H   H340      1.0  0.22104  0.83958  0.55936  1.0000
  H   H341      1.0  0.19533  0.85248  0.63618  1.0000
  H   H342      1.0  0.15321  0.82504  0.52519  1.0000
  H   H343      1.0  0.24907  0.86749  0.56127  1.0000
  H   H344      1.0  0.15210  0.51742  0.99434  1.0000
  C   C290      1.0  0.19784  0.83932  0.62132  1.0000
  H   H345      1.0  0.08187  0.98905  0.55354  1.0000
  H   H346      1.0  0.03175  0.68665  0.57890  1.0000
  N   N22       1.0  0.23470  0.65424  0.88709  1.0000
  C   C291      1.0  0.02716  0.93587  0.55419  1.0000
  H   H347      1.0  0.03672  0.77566  0.59753  1.0000
  C   C292      1.0  0.11516  0.56850  0.93421  1.0000
  H   H348      1.0  0.12686  0.98013  0.55668  1.0000
  Fe  Fe47      1.0  0.13526  0.89624  0.50760  1.0000
  H   H349      1.0  0.09648  0.57508  0.79783  1.0000
  H   H350      1.0  0.10741  0.50622  0.99877  1.0000
  H   H351      1.0  0.22794  0.54191  0.81801  1.0000
  H   H352      1.0  0.10977  0.59635  0.90203  1.0000
  H   H353      1.0  0.22437  0.81375  0.58395  1.0000
  H   H354      1.0  0.17816  0.87229  0.58756  1.0000
  C   C293      1.0  0.15178  0.51548  0.80533  1.0000
  C   C294      1.0  0.22693  0.63228  0.87683  1.0000
  H   H355      1.0  0.20982  0.62517  0.88807  1.0000
  H   H356      1.0  0.20639  0.88194  0.56958  1.0000
  H   H357      1.0  0.22205  0.63724  0.85702  1.0000
  C   C295      1.0  0.24196  0.93938  0.56544  1.0000
  C   C296      1.0  0.01751  0.81338  0.59670  1.0000
  C   C297      1.0  0.01948  0.78775  0.59387  1.0000
  H   H358      1.0  0.20873  0.68142  0.86721  1.0000
  C   C298      1.0  0.11239  0.53076  0.74470  1.0000
  H   H359      1.0  0.03005  0.67577  0.66324  1.0000
  H   H360      1.0  0.25108  0.51215  0.71131  1.0000
  C   C299      1.0  0.21701  0.52524  0.82142  1.0000
  C   C300      1.0  0.11215  0.57190  0.75910  1.0000
  C   C301      1.0  0.15604  0.57407  0.71841  1.0000
  H   H361      1.0  0.13429  0.50590  0.92942  1.0000
  C   C302      1.0  0.21296  0.83196  0.57853  1.0000
  C   C303      1.0  0.22204  0.63965  0.93300  1.0000
  C   C304      1.0  0.19845  0.87424  0.58876  1.0000
  H   H362      1.0  0.23735  0.84256  0.64205  1.0000
  H   H363      1.0  0.04022  0.84646  0.55415  1.0000
  Fe  Fe48      1.0  0.11867  0.67269  0.52832  1.0000
  C   C305      1.0  0.01370  0.67976  0.57844  1.0000
  S   S95       1.0  0.14416  0.61466  0.99327  1.0000
  H   H364      1.0  0.12470  0.59631  0.68466  1.0000
  H   H365      1.0  0.20277  0.63929  0.92919  1.0000
  C   C306      1.0  0.11552  0.58817  0.70327  1.0000
  H   H366      1.0  0.19355  0.82761  0.57638  1.0000
  H   H367      1.0  0.25035  0.67032  0.85032  1.0000
  H   H368      1.0  0.24233  0.61634  0.87660  1.0000
  C   C307      1.0  0.23747  0.50406  0.78548  1.0000
  H   H369      1.0  0.01939  0.62564  0.52522  1.0000
  C   C308      1.0  0.11849  0.55612  0.73928  1.0000
  H   H370      1.0  0.14948  0.53059  0.70254  1.0000
  H   H371      1.0  0.15732  0.50755  0.96347  1.0000
  C   C309      1.0  0.03464  0.84903  0.53514  1.0000
  N   N23       1.0  0.13139  0.56603  0.71456  1.0000
  H   H372      1.0  0.15367  0.58993  0.73033  1.0000
  H   H373      1.0  0.19903  0.88886  0.60168  1.0000
  C   C310      1.0  0.11513  0.55357  0.98724  1.0000
  H   H374      1.0  0.02513  0.81095  0.53671  1.0000
  H   H375      1.0  0.09063  0.78058  0.51217  1.0000
  N   N24       1.0  0.21245  0.84985  0.59770  1.0000
  H   H376      1.0  0.14599  0.55554  0.67735  1.0000
  C   C311      1.0  0.11472  0.57652  0.90835  1.0000
  S   S96       1.0  0.13034  0.93525  0.51968  1.0000
  H   H377      1.0  0.19556  0.66871  0.89720  1.0000
  H   H378      1.0  0.08756  0.51874  0.97430  1.0000
  H   H379      1.0  0.11031  0.58304  0.94681  1.0000
  C   C312      1.0  0.01258  0.65475  0.57434  1.0000
  C   C313      1.0  0.15234  0.81659  0.50796  1.0000
  H   H380      1.0  0.16811  0.55825  0.72791  1.0000
  H   H381      1.0  0.03565  0.90158  0.57841  1.0000
  C   C314      1.0  0.12218  0.54273  0.94298  1.0000
  C   C315      1.0  0.09032  0.00152  0.56358  1.0000
  H   H382      1.0  0.21002  0.52337  0.84198  1.0000
  H   H383      1.0  0.11696  0.51710  0.73117  1.0000
  H   H384      1.0  0.09670  0.58301  0.70027  1.0000
  H   H385      1.0  0.16676  0.58088  0.70015  1.0000
  H   H386      1.0  0.08663  0.53082  0.80617  1.0000
  C   C316      1.0  0.15017  0.52402  0.97404  1.0000
  C   C317      1.0  0.10052  0.56287  0.78279  1.0000
  H   H387      1.0  0.21224  0.62842  0.97278  1.0000
  C   C318      1.0  0.23642  0.91650  0.53090  1.0000
  H   H388      1.0  0.16302  0.53900  0.96792  1.0000
  H   H389      1.0  0.01172  0.96935  0.53215  1.0000
  H   H390      1.0  0.20956  0.98068  0.60850  1.0000
  C   C319      1.0  0.21344  0.67481  0.88683  1.0000
  C   C320      1.0  0.24110  0.64663  0.91332  1.0000
  H   H391      1.0  0.17836  0.83611  0.61798  1.0000
  H   H392      1.0  0.21798  0.69134  0.89539  1.0000
  C   C321      1.0  0.10078  0.52195  0.76851  1.0000
  H   H393      1.0  0.09520  0.56162  0.98537  1.0000
  H   H394      1.0  0.01718  0.65331  0.63015  1.0000
  H   H395      1.0  0.04238  0.88724  0.52923  1.0000
  H   H396      1.0  0.13289  0.52070  0.88439  1.0000
  C   C322      1.0  0.24764  0.50979  0.73182  1.0000
  H   H397      1.0  0.22432  0.90914  0.51949  1.0000
  H   H398      1.0  0.00704  0.91908  0.51052  1.0000
  H   H399      1.0  0.20855  0.98728  0.54867  1.0000
  C   C323      1.0  0.12796  0.53395  0.89847  1.0000
  H   H400      1.0  0.03906  0.99179  0.56894  1.0000
  C   C324      1.0  0.12859  0.52571  0.92426  1.0000
  C   C325      1.0  0.25196  0.63271  0.96416  1.0000
  H   H401      1.0  0.12084  0.56567  0.87051  1.0000
  C   C326      1.0  0.24847  0.84938  0.62488  1.0000
  C   C327      1.0  0.22076  0.99636  0.60780  1.0000
  H   H402      1.0  0.17851  0.51055  0.74475  1.0000
  H   H403      1.0  0.11863  0.72623  0.50894  1.0000
  H   H404      1.0  0.20009  0.53014  0.81095  1.0000
  C   C328      1.0  0.23867  0.85396  0.60101  1.0000
  C   C329      1.0  0.11636  0.99616  0.56518  1.0000
  H   H405      1.0  0.12475  0.74927  0.52749  1.0000
  C   C330      1.0  0.12903  0.74309  0.50823  1.0000
  H   H406      1.0  0.12871  0.78954  0.52681  1.0000
  C   C331      1.0  0.16991  0.50482  0.76364  1.0000
  C   C332      1.0  0.09487  0.53795  0.78750  1.0000
  H   H407      1.0  0.02219  0.67308  0.52384  1.0000
  H   H408      1.0  0.17533  0.99670  0.51975  1.0000
  C   C333      1.0  0.25402  0.52784  0.74583  1.0000
  C   C334      1.0  0.01472  0.62998  0.50533  1.0000
  H   H409      1.0  0.14964  0.73656  0.50519  1.0000
  Fe  Fe49      1.0  0.35739  0.09098  0.40562  1.0000
  S   S97       1.0  0.36295  0.06235  0.37761  1.0000
  S   S98       1.0  0.31805  0.11372  0.41333  1.0000
  Fe  Fe50      1.0  0.41475  0.08023  0.41654  1.0000
  S   S99       1.0  0.42209  0.04997  0.39068  1.0000
  S   S100      1.0  0.44780  0.08709  0.43789  1.0000
  Fe  Fe51      1.0  0.40016  0.07737  0.36426  1.0000
  S   S101      1.0  0.42030  0.08177  0.32479  1.0000
  Fe  Fe52      1.0  0.38425  0.03826  0.40692  1.0000
  H   H410      1.0  0.34503  0.23117  0.13958  1.0000
  S   S102      1.0  0.39362  0.10847  0.38960  1.0000
  S   S103      1.0  0.37786  0.06602  0.43568  1.0000
  Fe  Fe53      1.0  0.38236  0.08118  0.19752  1.0000
  S   S104      1.0  0.36704  0.08445  0.16016  1.0000
  S   S105      1.0  0.35599  0.08642  0.23302  1.0000
  Fe  Fe54      1.0  0.43575  0.06817  0.17430  1.0000
  S   S106      1.0  0.42445  0.07081  0.13496  1.0000
  S   S107      1.0  0.47547  0.05344  0.18153  1.0000
  Fe  Fe55      1.0  0.40028  0.10684  0.14563  1.0000
  S   S108      1.0  0.39652  0.14606  0.12166  1.0000
  Fe  Fe56      1.0  0.39264  0.04821  0.15374  1.0000
  H   H411      1.0  0.48122  0.18274  0.09177  1.0000
  S   S109      1.0  0.41399  0.10500  0.18367  1.0000
  S   S110      1.0  0.40563  0.04438  0.19230  1.0000
  Fe  Fe57      1.0  0.40361  0.36163  0.10454  1.0000
  S   S111      1.0  0.37583  0.36943  0.07594  1.0000
  S   S112      1.0  0.42084  0.39499  0.11734  1.0000
  Fe  Fe58      1.0  0.39806  0.30232  0.11101  1.0000
  S   S113      1.0  0.36966  0.30781  0.08276  1.0000
  S   S114      1.0  0.40833  0.26290  0.13317  1.0000
  Fe  Fe59      1.0  0.39539  0.33451  0.05998  1.0000
  Fe  Fe60      1.0  0.35315  0.34208  0.10176  1.0000
  S   S115      1.0  0.31165  0.35116  0.11427  1.0000
  S   S116      1.0  0.42513  0.32768  0.08704  1.0000
  S   S117      1.0  0.37975  0.33568  0.13162  1.0000
  C   C335      1.0  0.28228  0.05311  0.34420  1.0000
  C   C336      1.0  0.29445  0.36122  0.08835  1.0000
  C   C337      1.0  0.30690  0.36351  0.06373  1.0000
  C   C338      1.0  0.48167  0.35756  0.11784  1.0000
  H   H412      1.0  0.32714  0.35869  0.06051  1.0000
  C   C339      1.0  0.43202  0.43911  0.13245  1.0000
  C   C340      1.0  0.41960  0.42900  0.11512  1.0000
  C   C341      1.0  0.40747  0.44608  0.09701  1.0000
  H   H413      1.0  0.44158  0.42649  0.14650  1.0000
  H   H414      1.0  0.39848  0.43878  0.08293  1.0000
  C   C342      1.0  0.39956  0.17846  0.12564  1.0000
  C   C343      1.0  0.40907  0.18543  0.14673  1.0000
  C   C344      1.0  0.41181  0.21112  0.14851  1.0000
  C   C345      1.0  0.40492  0.23052  0.12943  1.0000
  C   C346      1.0  0.39542  0.22353  0.10837  1.0000
  C   C347      1.0  0.39287  0.19781  0.10650  1.0000
  H   H415      1.0  0.41460  0.17105  0.16156  1.0000
  H   H416      1.0  0.41914  0.21610  0.16495  1.0000
  H   H417      1.0  0.39005  0.23796  0.09343  1.0000
  H   H418      1.0  0.38564  0.19289  0.08998  1.0000
  H   H419      1.0  0.27039  0.14522  0.41060  1.0000
  H   H420      1.0  0.34986  0.12671  0.19361  1.0000
  H   H421      1.0  0.29231  0.43544  0.14289  1.0000
  H   H422      1.0  0.27668  0.33384  0.01786  1.0000
  C   C348      1.0  0.35568  0.23468  0.20008  1.0000
  C   C349      1.0  0.34984  0.11935  0.49714  1.0000
  C   C350      1.0  0.48148  0.08902  0.43419  1.0000
  C   C351      1.0  0.25776  0.06652  0.34370  1.0000
  H   H423      1.0  0.47841  0.33724  0.12039  1.0000
  H   H424      1.0  0.48032  0.09524  0.47328  1.0000
  H   H425      1.0  0.46826  0.02323  0.14374  1.0000
  C   C352      1.0  0.29317  0.37243  0.04320  1.0000
  H   H426      1.0  0.27484  0.12473  0.35098  1.0000
  C   C353      1.0  0.40181  0.08249  0.29987  1.0000
  C   C354      1.0  0.37532  0.08545  0.30390  1.0000
  C   C355      1.0  0.36114  0.08660  0.28332  1.0000
  C   C356      1.0  0.37349  0.08453  0.25886  1.0000
  C   C357      1.0  0.39993  0.08119  0.25498  1.0000
  C   C358      1.0  0.41405  0.08035  0.27542  1.0000
  H   H427      1.0  0.36581  0.08726  0.32274  1.0000
  H   H428      1.0  0.34066  0.08911  0.28637  1.0000
  H   H429      1.0  0.40961  0.07933  0.23624  1.0000
  H   H430      1.0  0.43451  0.07799  0.27229  1.0000
  C   C359      1.0  0.28641  0.10627  0.41158  1.0000
  C   C360      1.0  0.28056  0.08147  0.41178  1.0000
  H   H431      1.0  0.29400  0.15545  0.48824  1.0000
  H   H432      1.0  0.29552  0.06600  0.41270  1.0000
  H   H433      1.0  0.34539  0.43181  0.03350  1.0000
  C   C361      1.0  0.32050  0.42715  0.09616  1.0000
  C   C362      1.0  0.28767  0.42928  0.06746  1.0000
  H   H434      1.0  0.35774  0.20418  0.22943  1.0000
  C   C363      1.0  0.30930  0.00707  0.39187  1.0000
  H   H435      1.0  0.29347  0.02165  0.39145  1.0000
  C   C364      1.0  0.35047  0.01877  0.26533  1.0000
  C   C365      1.0  0.33841  0.42954  0.07427  1.0000
  H   H436      1.0  0.32426  0.16479  0.49207  1.0000
  H   H437      1.0  0.34398  0.18704  0.15521  1.0000
  H   H438      1.0  0.31146  0.16738  0.21734  1.0000
  H   H439      1.0  0.40310  0.03827  0.49590  1.0000
  C   C366      1.0  0.35487  0.20930  0.20975  1.0000
  C   C367      1.0  0.25566  0.09284  0.34613  1.0000
  H   H440      1.0  0.47300  0.11832  0.14702  1.0000
  H   H441      1.0  0.44681  0.14084  0.13991  1.0000
  C   C368      1.0  0.42059  0.42924  0.01131  1.0000
  C   C369      1.0  0.49229  0.09327  0.45561  1.0000
  C   C370      1.0  0.34683  0.19956  0.16868  1.0000
  C   C371      1.0  0.36413  0.12000  0.47289  1.0000
  C   C372      1.0  0.31479  0.14984  0.48549  1.0000
  C   C373      1.0  0.36747  0.36811  0.00587  1.0000
  H   H442      1.0  0.32185  0.05448  0.34710  1.0000
  C   C374      1.0  0.33726  0.02669  0.21209  1.0000
  C   C375      1.0  0.46914  0.16801  0.10116  1.0000
  H   H443      1.0  0.46054  0.11978  0.11719  1.0000
  H   H444      1.0  0.35373  0.26198  0.16707  1.0000
  C   C376      1.0  0.26689  0.37851  0.04715  1.0000
  H   H445      1.0  0.42268  0.42385  0.03122  1.0000
  H   H446      1.0  0.30102  0.29871  0.15209  1.0000
  H   H447      1.0  0.30993  0.32544  0.01521  1.0000
  H   H448      1.0  0.33934  0.02540  0.19127  1.0000
  C   C377      1.0  0.26816  0.36741  0.09233  1.0000
  H   H449      1.0  0.25845  0.36595  0.11133  1.0000
  H   H450      1.0  0.35493  0.12366  0.45571  1.0000
  C   C378      1.0  0.35098  0.19081  0.19420  1.0000
  C   C379      1.0  0.42013  0.48264  0.11441  1.0000
  H   H451      1.0  0.31850  0.03724  0.21734  1.0000
  H   H452      1.0  0.28913  0.30188  0.01346  1.0000
  C   C380      1.0  0.33075  0.01076  0.40298  1.0000
  C   C381      1.0  0.25528  0.07656  0.41082  1.0000
  C   C382      1.0  0.46993  0.01964  0.45481  1.0000
  S   S118      1.0  0.37633  0.01162  0.14801  1.0000
  H   H453      1.0  0.48969  0.08359  0.39467  1.0000
  C   C383      1.0  0.30823  0.42004  0.14255  1.0000
  H   H454      1.0  0.34366  0.44995  0.14426  1.0000
  H   H455      1.0  0.36732  0.40938  0.11232  1.0000
  H   H456      1.0  0.48239  0.13307  0.21455  1.0000
  C   C384      1.0  0.28367  0.30138  0.16481  1.0000
  N   N25       1.0  0.35133  0.16386  0.20464  1.0000
  H   H457      1.0  0.42413  0.10855  0.48938  1.0000
  C   C385      1.0  0.28194  0.28922  0.18944  1.0000
  C   C386      1.0  0.27695  0.10482  0.34839  1.0000
  H   H458      1.0  0.32196  0.46596  0.12283  1.0000
  C   C387      1.0  0.26308  0.31719  0.15647  1.0000
  H   H459      1.0  0.49691  0.00714  0.34895  1.0000
  H   H460      1.0  0.35371  0.45485  0.11115  1.0000
  C   C388      1.0  0.34994  0.40550  0.12510  1.0000
  N   N26       1.0  0.32866  0.42570  0.12184  1.0000
  H   H461      1.0  0.35579  0.40320  0.14457  1.0000
  C   C389      1.0  0.49475  0.40827  0.11090  1.0000
  H   H462      1.0  0.42145  0.01312  0.44622  1.0000
  H   H463      1.0  0.46272  0.15798  0.08650  1.0000
  C   C390      1.0  0.33121  0.43094  0.04986  1.0000
  H   H464      1.0  0.44216  0.47240  0.14578  1.0000
  H   H465      1.0  0.28992  0.10887  0.48917  1.0000
  H   H466      1.0  0.30298  0.37483  0.02430  1.0000
  H   H467      1.0  0.37686  0.13458  0.22247  1.0000
  C   C391      1.0  0.47907  0.09747  0.20111  1.0000
  H   H468      1.0  0.30029  0.43131  0.02761  1.0000
  H   H469      1.0  0.34458  0.38698  0.12156  1.0000
  H   H470      1.0  0.49554  0.15278  0.15622  1.0000
  H   H471      1.0  0.45893  0.09833  0.20654  1.0000
  H   H472      1.0  0.45816  0.03332  0.44363  1.0000
  C   C392      1.0  0.33732  0.45017  0.12517  1.0000
  H   H473      1.0  0.30077  0.40189  0.14062  1.0000
  C   C393      1.0  0.43235  0.46538  0.13205  1.0000
  H   H474      1.0  0.46917  0.36666  0.13319  1.0000
  H   H475      1.0  0.48542  0.08334  0.29946  1.0000
  H   H476      1.0  0.46212  0.01111  0.11567  1.0000
  C   C394      1.0  0.30586  0.43081  0.04648  1.0000
  N   N27       1.0  0.50226  0.04594  0.33535  1.0000
  C   C395      1.0  0.34729  0.22506  0.15935  1.0000
  H   H477      1.0  0.42643  0.46797  0.01243  1.0000
  H   H478      1.0  0.32942  0.14059  0.23283  1.0000
  H   H479      1.0  0.35964  0.24832  0.21201  1.0000
  H   H480      1.0  0.35194  0.03853  0.21516  1.0000
  H   H481      1.0  0.33116  0.17158  0.24096  1.0000
  C   C396      1.0  0.40359  0.11125  0.49161  1.0000
  H   H482      1.0  0.36496  0.14795  0.16972  1.0000
  N   N28       1.0  0.32189  0.12471  0.49933  1.0000
  H   H483      1.0  0.33127  0.02809  0.41119  1.0000
  H   H484      1.0  0.25963  0.28303  0.22472  1.0000
  C   C397      1.0  0.30076  0.09109  0.34852  1.0000
  H   H485      1.0  0.36320  0.36979  0.02586  1.0000
  H   H486      1.0  0.47093  0.17653  0.14767  1.0000
  H   H487      1.0  0.39204  0.15856  0.20165  1.0000
  H   H488      1.0  0.49769  0.04103  0.23570  1.0000
  H   H489      1.0  0.31516  0.41792  0.16155  1.0000
  C   C398      1.0  0.49764  0.08662  0.41145  1.0000
  C   C399      1.0  0.49211  0.06553  0.29209  1.0000
  C   C400      1.0  0.32991  0.16079  0.22481  1.0000
  C   C401      1.0  0.35211  0.24250  0.17486  1.0000
  H   H490      1.0  0.33085  0.15117  0.17709  1.0000
  N   N29       1.0  0.43170  0.00839  0.48457  1.0000
  C   C402      1.0  0.34916  0.14682  0.18534  1.0000
  C   C403      1.0  0.26637  0.12595  0.41054  1.0000
  C   C404      1.0  0.40757  0.47278  0.09676  1.0000
  C   C405      1.0  0.34732  0.02078  0.29138  1.0000
  H   H491      1.0  0.39832  0.48568  0.08273  1.0000
  H   H492      1.0  0.37723  0.16470  0.23260  1.0000
  H   H493      1.0  0.35821  0.43003  0.07585  1.0000
  C   C406      1.0  0.37537  0.15517  0.21578  1.0000
  N   N30       1.0  0.48258  0.15014  0.11984  1.0000
  H   H494      1.0  0.29804  0.27687  0.19580  1.0000
  C   C407      1.0  0.39058  0.11623  0.47028  1.0000
  S   S119      1.0  0.40714  0.33287  0.01823  1.0000
  C   C408      1.0  0.29474  0.42727  0.09198  1.0000
  H   H495      1.0  0.31780  0.10489  0.46749  1.0000
  H   H496      1.0  0.50263  0.17804  0.13214  1.0000
  H   H497      1.0  0.31978  0.15017  0.46464  1.0000
  H   H498      1.0  0.35927  0.03200  0.29931  1.0000
  C   C409      1.0  0.46506  0.13145  0.13151  1.0000
  C   C410      1.0  0.50120  0.04410  0.30811  1.0000
  C   C411      1.0  0.46734  0.00559  0.13524  1.0000
  H   H499      1.0  0.48553  0.44866  0.10432  1.0000
  H   H500      1.0  0.45175  0.17830  0.11029  1.0000
  H   H501      1.0  0.36495  0.02884  0.25386  1.0000
  C   C412      1.0  0.49241  0.11691  0.20598  1.0000
  H   H502      1.0  0.47543  0.40545  0.10924  1.0000
  H   H503      1.0  0.28522  0.03292  0.34356  1.0000
  C   C413      1.0  0.49590  0.01682  0.44680  1.0000
  C   C414      1.0  0.49195  0.07684  0.18962  1.0000
  H   H504      1.0  0.47497  0.36556  0.09933  1.0000
  C   C415      1.0  0.50033  0.43337  0.10798  1.0000
  C   C416      1.0  0.30342  0.06527  0.34641  1.0000
  H   H505      1.0  0.26459  0.32648  0.13723  1.0000
  H   H506      1.0  0.40109  0.11741  0.45155  1.0000
  H   H507      1.0  0.31704  0.10034  0.35106  1.0000
  C   C417      1.0  0.47693  0.05550  0.34730  1.0000
  C   C418      1.0  0.49091  0.06434  0.26631  1.0000
  H   H508      1.0  0.32692  0.00940  0.32748  1.0000
  C   C419      1.0  0.32900  0.00830  0.30722  1.0000
  H   H509      1.0  0.47108  0.07552  0.34040  1.0000
  C   C420      1.0  0.31098  0.10524  0.48796  1.0000
  H   H510      1.0  0.46204  0.04415  0.34340  1.0000
  H   H511      1.0  0.27968  0.42527  0.10726  1.0000
  C   C421      1.0  0.48816  0.16495  0.13978  1.0000
  H   H512      1.0  0.47630  0.05491  0.36822  1.0000
  C   C422      1.0  0.42345  0.03527  0.48831  1.0000
  C   C423      1.0  0.29229  0.32202  0.00771  1.0000
  H   H513      1.0  0.42543  0.04803  0.47035  1.0000
  H   H514      1.0  0.26801  0.42869  0.06469  1.0000
  C   C424      1.0  0.25965  0.29298  0.20591  1.0000
  H   H515      1.0  0.31604  0.08603  0.49763  1.0000
  H   H516      1.0  0.48350  0.08088  0.25457  1.0000
  C   C425      1.0  0.49885  0.04190  0.25567  1.0000
  H   H517      1.0  0.25564  0.02075  0.32419  1.0000
  C   C426      1.0  0.45932  0.00496  0.47659  1.0000
  H   H518      1.0  0.50356  0.02824  0.43007  1.0000
  H   H519      1.0  0.43474  0.04201  0.50174  1.0000
  C   C427      1.0  0.33541  0.00393  0.25434  1.0000
  H   H520      1.0  0.39705  0.00327  0.46987  1.0000
  C   C428      1.0  0.25433  0.37572  0.07170  1.0000
  H   H521      1.0  0.39375  0.07128  0.60242  1.0000
  C   C429      1.0  0.42271  0.45406  0.00066  1.0000
  Fe  Fe61      1.0  0.26208  0.10847  0.58909  1.0000
  C   C430      1.0  0.40471  0.03165  0.74887  1.0000
  Fe  Fe62      1.0  0.45308  0.10225  0.60226  1.0000
  S   S120      1.0  0.45157  0.07167  0.63479  1.0000
  S   S121      1.0  0.41463  0.12075  0.58921  1.0000
  Fe  Fe63      1.0  0.48297  0.08871  0.64793  1.0000
  S   S122      1.0  0.48678  0.08948  0.68890  1.0000
  Fe  Fe64      1.0  0.48285  0.05099  0.61106  1.0000
  S   S123      1.0  0.48300  0.01033  0.60510  1.0000
  S   S124      1.0  0.48285  0.12163  0.61762  1.0000
  S   S125      1.0  0.48383  0.08066  0.57775  1.0000
  Fe  Fe65      1.0  0.39969  0.12432  0.82036  1.0000
  S   S126      1.0  0.43482  0.12600  0.79328  1.0000
  S   S127      1.0  0.38001  0.08783  0.82297  1.0000
  Fe  Fe66      1.0  0.39996  0.18169  0.83044  1.0000
  S   S128      1.0  0.43541  0.18572  0.80398  1.0000
  S   S129      1.0  0.37986  0.21716  0.84838  1.0000
  Fe  Fe67      1.0  0.41777  0.16449  0.77862  1.0000
  S   S130      1.0  0.41731  0.17738  0.73719  1.0000
  Fe  Fe68      1.0  0.44889  0.14686  0.82140  1.0000
  S   S131      1.0  0.48871  0.13591  0.83109  1.0000
  S   S132      1.0  0.38128  0.16210  0.80372  1.0000
  S   S133      1.0  0.41463  0.14351  0.85013  1.0000
  H   H522      1.0  0.26828  0.48101  0.81902  1.0000
  C   C431      1.0  0.26564  0.39747  0.89564  1.0000
  Fe  Fe69      1.0  0.37918  0.37187  0.85582  1.0000
  S   S134      1.0  0.33854  0.37542  0.87351  1.0000
  S   S135      1.0  0.40006  0.33458  0.84196  1.0000
  Fe  Fe70      1.0  0.38330  0.42994  0.85932  1.0000
  S   S136      1.0  0.34359  0.43554  0.87729  1.0000
  S   S137      1.0  0.40528  0.46494  0.85133  1.0000
  Fe  Fe71      1.0  0.35235  0.39846  0.90028  1.0000
  S   S138      1.0  0.33828  0.39879  0.94162  1.0000
  Fe  Fe72      1.0  0.33457  0.41231  0.84845  1.0000
  S   S139      1.0  0.30274  0.43033  0.82645  1.0000
  S   S140      1.0  0.39324  0.39361  0.88427  1.0000
  S   S141      1.0  0.37409  0.40794  0.82889  1.0000
  H   H523      1.0  0.31348  0.37606  0.82752  1.0000
  H   H524      1.0  0.47375  0.00747  0.66989  1.0000
  N   N31       1.0  0.49784  0.23584  0.82979  1.0000
  C   C432      1.0  0.35284  0.38319  0.98859  1.0000
  C   C433      1.0  0.35791  0.38085  0.96262  1.0000
  C   C434      1.0  0.37796  0.36374  0.95388  1.0000
  C   C435      1.0  0.39293  0.34903  0.97114  1.0000
  H   H525      1.0  0.33528  0.34171  0.78715  1.0000
  H   H526      1.0  0.29796  0.36076  0.95245  1.0000
  H   H527      1.0  0.38180  0.36158  0.93390  1.0000
  H   H528      1.0  0.40852  0.33585  0.96436  1.0000
  C   C436      1.0  0.40121  0.01855  0.70070  1.0000
  C   C437      1.0  0.38586  0.24979  0.84604  1.0000
  C   C438      1.0  0.36779  0.26729  0.85791  1.0000
  C   C439      1.0  0.37166  0.29312  0.85686  1.0000
  C   C440      1.0  0.39385  0.30203  0.84399  1.0000
  C   C441      1.0  0.41191  0.28454  0.83205  1.0000
  C   C442      1.0  0.40796  0.25874  0.83297  1.0000
  H   H529      1.0  0.35058  0.26080  0.86806  1.0000
  H   H530      1.0  0.35746  0.30611  0.86608  1.0000
  H   H531      1.0  0.42917  0.29101  0.82202  1.0000
  H   H532      1.0  0.42224  0.24570  0.82390  1.0000
  H   H533      1.0  0.37883  0.46056  0.78535  1.0000
  C   C443      1.0  0.41592  0.41129  0.99629  1.0000
  H   H534      1.0  0.28723  0.01398  0.64827  1.0000
  H   H535      1.0  0.40245  0.05723  0.68718  1.0000
  C   C444      1.0  0.43259  0.22432  0.88454  1.0000
  C   C445      1.0  0.35332  0.07883  0.59965  1.0000
  H   H536      1.0  0.48410  0.16628  0.78298  1.0000
  C   C446      1.0  0.46826  0.03312  0.85412  1.0000
  S   S142      1.0  0.30142  0.08717  0.59591  1.0000
  H   H537      1.0  0.29797  0.00949  0.56834  1.0000
  H   H538      1.0  0.26019  0.36619  0.85851  1.0000
  H   H539      1.0  0.31684  0.13969  0.53548  1.0000
  H   H540      1.0  0.38597  0.09561  0.70081  1.0000
  H   H541      1.0  0.40031  0.10638  0.53239  1.0000
  C   C447      1.0  0.30991  0.12500  0.52592  1.0000
  C   C448      1.0  0.33756  0.12230  0.58838  1.0000
  H   H542      1.0  0.42932  0.10047  0.74683  1.0000
  C   C449      1.0  0.47066  0.11715  0.69970  1.0000
  C   C450      1.0  0.45233  0.13169  0.68602  1.0000
  C   C451      1.0  0.43691  0.15163  0.69675  1.0000
  C   C452      1.0  0.44001  0.15698  0.72103  1.0000
  C   C453      1.0  0.45981  0.14384  0.73360  1.0000
  C   C454      1.0  0.47489  0.12368  0.72315  1.0000
  H   H543      1.0  0.44912  0.12683  0.66775  1.0000
  H   H544      1.0  0.42179  0.16197  0.68682  1.0000
  H   H545      1.0  0.46320  0.14889  0.75167  1.0000
  H   H546      1.0  0.48939  0.11281  0.73356  1.0000
  H   H547      1.0  0.32264  0.48622  0.82788  1.0000
  H   H548      1.0  0.47447  0.24712  0.79956  1.0000
  C   C455      1.0  0.37357  0.03777  0.81963  1.0000
  C   C456      1.0  0.39125  0.05520  0.81987  1.0000
  C   C457      1.0  0.41705  0.04622  0.81734  1.0000
  C   C458      1.0  0.40131  0.49874  0.85153  1.0000
  H   H549      1.0  0.31788  0.01767  0.63077  1.0000
  H   H550      1.0  0.35357  0.04433  0.82144  1.0000
  H   H551      1.0  0.43100  0.05924  0.81718  1.0000
  C   C459      1.0  0.29705  0.02089  0.62957  1.0000
  C   C460      1.0  0.49848  0.06399  0.84727  1.0000
  H   H552      1.0  0.25944  0.05330  0.60494  1.0000
  N   N32       1.0  0.34834  0.48988  0.79363  1.0000
  H   H553      1.0  0.27550  0.39792  0.87670  1.0000
  C   C461      1.0  0.43192  0.01504  0.61980  1.0000
  C   C462      1.0  0.40680  0.01166  0.61753  1.0000
  C   C463      1.0  0.47430  0.05723  0.85623  1.0000
  C   C464      1.0  0.33266  0.09706  0.59462  1.0000
  H   H554      1.0  0.43588  0.02515  0.63474  1.0000
  H   H555      1.0  0.39151  0.01974  0.63031  1.0000
  C   C465      1.0  0.50028  0.01740  0.72159  1.0000
  C   C466      1.0  0.38322  0.11090  0.59215  1.0000
  H   H556      1.0  0.31742  0.29348  0.97300  1.0000
  H   H557      1.0  0.29254  0.04172  0.62674  1.0000
  H   H558      1.0  0.38185  0.10544  0.75498  1.0000
  C   C467      1.0  0.42797  0.08044  0.74413  1.0000
  H   H559      1.0  0.44940  0.02800  0.86092  1.0000
  H   H560      1.0  0.43105  0.43865  0.89569  1.0000
  C   C468      1.0  0.33250  0.47742  0.77903  1.0000
  H   H561      1.0  0.29018  0.34451  0.81274  1.0000
  H   H562      1.0  0.26294  0.43601  0.79443  1.0000
  H   H563      1.0  0.30311  0.31750  0.77485  1.0000
  C   C469      1.0  0.31755  0.31431  0.96862  1.0000
  C   C470      1.0  0.39016  0.10997  0.51572  1.0000
  C   C471      1.0  0.38767  0.35110  0.99718  1.0000
  H   H564      1.0  0.35009  0.05919  0.60439  1.0000
  C   C472      1.0  0.32214  0.30838  0.77696  1.0000
  H   H565      1.0  0.50212  0.08301  0.84921  1.0000
  H   H566      1.0  0.38416  0.45097  0.90652  1.0000
  H   H567      1.0  0.28854  0.29664  0.94253  1.0000
  H   H568      1.0  0.32211  0.13670  0.58464  1.0000
  H   H569      1.0  0.33452  0.31939  0.97624  1.0000
  H   H570      1.0  0.40576  0.03579  0.76790  1.0000
  H   H571      1.0  0.31261  0.36105  0.98071  1.0000
  H   H572      1.0  0.38123  0.49029  0.76588  1.0000
  H   H573      1.0  0.40186  0.48983  0.93186  1.0000
  H   H574      1.0  0.29635  0.41307  0.90861  1.0000
  H   H575      1.0  0.27931  0.36735  0.98161  1.0000
  H   H576      1.0  0.43767  0.50184  0.82981  1.0000
  C   C473      1.0  0.41328  0.41806  0.97059  1.0000
  N   N33       1.0  0.40451  0.07779  0.73306  1.0000
  H   H577      1.0  0.48180  0.02376  0.73216  1.0000
  H   H578      1.0  0.35460  0.11266  0.53779  1.0000
  H   H579      1.0  0.37834  0.32106  0.79274  1.0000
  H   H580      1.0  0.45149  0.43549  0.92039  1.0000
  C   C474      1.0  0.29761  0.38233  0.81685  1.0000
  C   C475      1.0  0.38139  0.01180  0.81756  1.0000
  C   C476      1.0  0.46573  0.20848  0.85362  1.0000
  C   C477      1.0  0.36368  0.11383  0.51856  1.0000
  C   C478      1.0  0.28934  0.40809  0.81250  1.0000
  H   H581      1.0  0.36594  0.14862  0.58195  1.0000
  C   C479      1.0  0.26346  0.37241  0.79519  1.0000
  H   H582      1.0  0.27627  0.41353  0.95270  1.0000
  H   H583      1.0  0.31205  0.48017  0.78626  1.0000
  H   H584      1.0  0.49933  0.02399  0.51868  1.0000
  C   C480      1.0  0.26200  0.01207  0.60825  1.0000
  N   N34       1.0  0.41288  0.44969  0.93167  1.0000
  H   H585      1.0  0.46006  0.07089  0.86462  1.0000
  C   C481      1.0  0.42483  0.02020  0.81559  1.0000
  C   C482      1.0  0.41555  0.44312  0.95901  1.0000
  C   C483      1.0  0.44438  0.20477  0.87099  1.0000
  C   C484      1.0  0.26904  0.41609  0.79831  1.0000
  H   H586      1.0  0.48457  0.21404  0.80379  1.0000
  C   C485      1.0  0.49060  0.23298  0.80454  1.0000
  H   H587      1.0  0.33506  0.48440  0.75849  1.0000
  H   H588      1.0  0.43563  0.48100  0.92485  1.0000
  C   C486      1.0  0.30247  0.01889  0.58438  1.0000
  C   C487      1.0  0.27108  0.30563  0.95139  1.0000
  C   C488      1.0  0.25616  0.39825  0.78958  1.0000
  H   H589      1.0  0.42223  0.48055  0.96795  1.0000
  C   C489      1.0  0.42027  0.46103  0.97491  1.0000
  C   C490      1.0  0.38722  0.44529  0.92674  1.0000
  H   H590      1.0  0.49388  0.03070  0.55083  1.0000
  H   H591      1.0  0.46013  0.02312  0.69675  1.0000
  H   H592      1.0  0.39941  0.01346  0.68205  1.0000
  C   C491      1.0  0.28461  0.36448  0.80824  1.0000
  H   H593      1.0  0.47387  0.19274  0.84331  1.0000
  H   H594      1.0  0.32079  0.31916  0.94771  1.0000
  H   H595      1.0  0.43656  0.18677  0.87357  1.0000
  N   N35       1.0  0.35897  0.24340  0.77200  1.0000
  C   C492      1.0  0.38573  0.23340  0.77477  1.0000
  C   C493      1.0  0.34264  0.22821  0.79094  1.0000
  C   C494      1.0  0.35407  0.23937  0.74618  1.0000
  C   C495      1.0  0.35303  0.27049  0.77579  1.0000
  C   C496      1.0  0.37097  0.28506  0.78283  1.0000
  C   C497      1.0  0.32838  0.28297  0.77300  1.0000
  C   C498      1.0  0.36448  0.31042  0.78690  1.0000
  H   H596      1.0  0.33732  0.39642  0.99541  1.0000
  C   C499      1.0  0.34017  0.32207  0.78391  1.0000
  H   H597      1.0  0.39044  0.23426  0.79426  1.0000
  H   H598      1.0  0.38964  0.21315  0.77138  1.0000
  H   H599      1.0  0.39917  0.24373  0.76086  1.0000
  H   H600      1.0  0.34539  0.23125  0.81060  1.0000
  H   H601      1.0  0.34697  0.20762  0.78930  1.0000
  H   H602      1.0  0.32218  0.23305  0.78890  1.0000
  H   H603      1.0  0.36503  0.25155  0.73147  1.0000
  H   H604      1.0  0.35974  0.21938  0.74227  1.0000
  H   H605      1.0  0.33373  0.24354  0.74330  1.0000
  H   H606      1.0  0.39008  0.27728  0.78563  1.0000
  H   H607      1.0  0.31363  0.27309  0.76800  1.0000
  H   H608      1.0  0.35484  0.48828  0.83274  1.0000
  H   H609      1.0  0.31342  0.10633  0.53732  1.0000
  C   C500      1.0  0.29595  0.35546  0.97333  1.0000
  H   H610      1.0  0.36425  0.08316  0.74396  1.0000
  C   C501      1.0  0.37531  0.48147  0.78533  1.0000
  C   C502      1.0  0.40414  0.05117  0.72841  1.0000
  H   H611      1.0  0.32343  0.01676  0.58419  1.0000
  C   C503      1.0  0.36257  0.12905  0.58696  1.0000
  N   N36       1.0  0.29378  0.32811  0.97975  1.0000
  H   H612      1.0  0.41468  0.48059  0.90161  1.0000
  C   C504      1.0  0.38235  0.08539  0.75119  1.0000
  C   C505      1.0  0.41642  0.47645  0.92230  1.0000
  H   H613      1.0  0.41554  0.22157  0.89736  1.0000
  C   C506      1.0  0.43193  0.43354  0.91645  1.0000
  H   H614      1.0  0.43256  0.26299  0.89107  1.0000
  C   C507      1.0  0.27057  0.32196  0.97051  1.0000
  H   H615      1.0  0.40359  0.11578  0.71407  1.0000
  H   H616      1.0  0.44516  0.07403  0.73158  1.0000
  H   H617      1.0  0.38392  0.42505  0.93086  1.0000
  C   C508      1.0  0.37828  0.08566  0.59858  1.0000
  H   H618      1.0  0.28898  0.12937  0.52685  1.0000
  C   C509      1.0  0.34274  0.48070  0.82075  1.0000
  H   H619      1.0  0.44478  0.01353  0.81391  1.0000
  S   S143      1.0  0.25908  0.14944  0.57403  1.0000
  H   H620      1.0  0.42033  0.09213  0.69570  1.0000
  H   H621      1.0  0.38256  0.07405  0.77000  1.0000
  C   C510      1.0  0.40278  0.04381  0.70399  1.0000
  H   H622      1.0  0.48555  0.03600  0.67642  1.0000
  H   H623      1.0  0.42887  0.06956  0.76315  1.0000
  C   C511      1.0  0.40355  0.09597  0.70980  1.0000
  C   C512      1.0  0.47592  0.23209  0.84920  1.0000
  H   H624      1.0  0.42906  0.41318  0.92030  1.0000
  H   H625      1.0  0.29679  0.03948  0.58035  1.0000
  N   N37       1.0  0.28981  0.00810  0.60889  1.0000
  C   C513      1.0  0.45173  0.00482  0.60319  1.0000
  H   H626      1.0  0.34620  0.45976  0.82401  1.0000
  H   H627      1.0  0.33738  0.45649  0.78080  1.0000
  H   H628      1.0  0.40945  0.40343  0.95985  1.0000
  C   C514      1.0  0.46354  0.25163  0.86351  1.0000
  C   C515      1.0  0.47837  0.01790  0.68517  1.0000
  H   H629      1.0  0.49227  0.27654  0.82248  1.0000
  C   C516      1.0  0.27788  0.40639  0.91381  1.0000
  C   C517      1.0  0.25633  0.49833  0.82479  1.0000
  C   C518      1.0  0.40319  0.00651  0.74539  1.0000
  C   C519      1.0  0.50282  0.16681  0.78819  1.0000
  C   C520      1.0  0.44223  0.24764  0.88093  1.0000
  H   H630      1.0  0.46951  0.27036  0.86126  1.0000
  H   H631      1.0  0.38850  0.48602  0.79819  1.0000
  C   C521      1.0  0.26657  0.40672  0.93869  1.0000
  H   H632      1.0  0.37224  0.45615  0.93864  1.0000
  C   C522      1.0  0.48629  0.01579  0.84275  1.0000
  H   H633      1.0  0.41445  0.39192  0.00461  1.0000
  H   H634      1.0  0.36461  0.50285  0.87348  1.0000
  Fe  Fe73      1.0  0.40039  0.85901  0.14216  1.0000
  S   S144      1.0  0.39226  0.85341  0.18435  1.0000
  S   S145      1.0  0.41358  0.89727  0.12406  1.0000
  Fe  Fe74      1.0  0.40150  0.79993  0.13872  1.0000
  S   S146      1.0  0.39451  0.79191  0.18106  1.0000
  S   S147      1.0  0.40553  0.76798  0.11233  1.0000
  Fe  Fe75      1.0  0.36579  0.82619  0.17848  1.0000
  S   S148      1.0  0.32907  0.82584  0.20394  1.0000
  Fe  Fe76      1.0  0.42173  0.82026  0.18235  1.0000
  S   S149      1.0  0.45410  0.81744  0.20575  1.0000
  S   S150      1.0  0.37121  0.83358  0.13589  1.0000
  S   S151      1.0  0.43106  0.82619  0.14037  1.0000
  Fe  Fe77      1.0  0.29767  0.91754  0.30191  1.0000
  S   S152      1.0  0.29867  0.87924  0.32423  1.0000
  S   S153      1.0  0.30628  0.92492  0.25956  1.0000
  Fe  Fe78      1.0  0.28882  0.94389  0.34936  1.0000
  S   S154      1.0  0.28926  0.90752  0.37488  1.0000
  S   S155      1.0  0.28231  0.98083  0.36586  1.0000
  Fe  Fe79      1.0  0.32367  0.89512  0.34827  1.0000
  S   S156      1.0  0.36219  0.87486  0.35868  1.0000
  H   H635      1.0  0.46680  0.86504  0.12607  1.0000
  C   C523      1.0  0.49459  0.55335  0.11359  1.0000
  S   S157      1.0  0.32409  0.93226  0.32447  1.0000
  H   H636      1.0  0.49977  0.00049  0.17001  1.0000
  Fe  Fe80      1.0  0.41236  0.61585  0.10281  1.0000
  S   S158      1.0  0.38377  0.62733  0.07524  1.0000
  S   S159      1.0  0.42793  0.64615  0.12210  1.0000
  Fe  Fe81      1.0  0.40818  0.55708  0.10085  1.0000
  S   S160      1.0  0.37876  0.56604  0.07376  1.0000
  H   H637      1.0  0.32549  0.98500  0.19725  1.0000
  Fe  Fe82      1.0  0.40343  0.59536  0.05436  1.0000
  Fe  Fe83      1.0  0.36247  0.59693  0.09766  1.0000
  S   S161      1.0  0.32195  0.60513  0.11337  1.0000
  S   S162      1.0  0.43399  0.58539  0.08020  1.0000
  S   S163      1.0  0.38992  0.58649  0.12648  1.0000
  H   H638      1.0  0.33054  0.62566  0.16075  1.0000
  C   C524      1.0  0.33750  0.68883  0.16145  1.0000
  H   H639      1.0  0.38425  0.66254  0.15989  1.0000
  C   C525      1.0  0.30898  0.72204  0.18148  1.0000
  H   H640      1.0  0.27431  0.58055  0.06582  1.0000
  C   C526      1.0  0.30169  0.61856  0.09095  1.0000
  C   C527      1.0  0.49439  0.60551  0.09417  1.0000
  N   N38       1.0  0.40985  0.91442  0.44603  1.0000
  C   C528      1.0  0.29300  0.63108  0.04746  1.0000
  C   C529      1.0  0.31010  0.62116  0.06500  1.0000
  H   H641      1.0  0.48750  0.94492  0.45185  1.0000
  H   H642      1.0  0.29934  0.63254  0.02736  1.0000
  H   H643      1.0  0.32961  0.61520  0.05844  1.0000
  C   C530      1.0  0.32581  0.73980  0.17229  1.0000
  H   H644      1.0  0.35392  0.64161  0.12334  1.0000
  H   H645      1.0  0.48308  0.97588  0.41412  1.0000
  H   H646      1.0  0.39524  0.84588  0.31185  1.0000
  H   H647      1.0  0.38330  0.82069  0.29977  1.0000
  H   H648      1.0  0.39670  0.83351  0.24470  1.0000
  C   C531      1.0  0.41117  0.73403  0.11603  1.0000
  C   C532      1.0  0.40629  0.72052  0.09647  1.0000
  C   C533      1.0  0.41094  0.69380  0.09810  1.0000
  C   C534      1.0  0.42115  0.68002  0.11916  1.0000
  C   C535      1.0  0.42643  0.69353  0.13854  1.0000
  C   C536      1.0  0.42115  0.72020  0.13720  1.0000
  H   H649      1.0  0.39875  0.73085  0.07989  1.0000
  H   H650      1.0  0.40699  0.68395  0.08283  1.0000
  H   H651      1.0  0.43439  0.68329  0.15493  1.0000
  H   H652      1.0  0.42520  0.73010  0.15242  1.0000
  C   C537      1.0  0.32102  0.85393  0.21835  1.0000
  C   C538      1.0  0.32992  0.87658  0.20696  1.0000
  C   C539      1.0  0.32472  0.89849  0.21942  1.0000
  C   C540      1.0  0.31061  0.89784  0.24334  1.0000
  C   C541      1.0  0.30116  0.87537  0.25445  1.0000
  C   C542      1.0  0.30632  0.85347  0.24196  1.0000
  H   H653      1.0  0.34062  0.87730  0.18841  1.0000
  H   H654      1.0  0.33191  0.91584  0.21060  1.0000
  H   H655      1.0  0.28975  0.87485  0.27261  1.0000
  H   H656      1.0  0.29916  0.83608  0.25073  1.0000
  C   C543      1.0  0.39439  0.88038  0.36025  1.0000
  C   C544      1.0  0.41097  0.85949  0.36828  1.0000
  H   H657      1.0  0.29930  0.98437  0.30943  1.0000
  H   H658      1.0  0.40392  0.84124  0.37337  1.0000
  C   C545      1.0  0.41853  0.94835  0.12239  1.0000
  C   C546      1.0  0.40411  0.92851  0.13302  1.0000
  H   H659      1.0  0.43525  0.94424  0.10937  1.0000
  H   H660      1.0  0.37055  0.91955  0.15739  1.0000
  C   C547      1.0  0.35020  0.96930  0.39369  1.0000
  C   C548      1.0  0.32882  0.96567  0.38244  1.0000
  H   H661      1.0  0.28924  0.51744  0.04335  1.0000
  H   H662      1.0  0.41348  0.83069  0.28624  1.0000
  H   H663      1.0  0.36876  0.85515  0.23870  1.0000
  H   H664      1.0  0.36607  0.95476  0.39396  1.0000
  H   H665      1.0  0.32823  0.94819  0.37456  1.0000
  H   H666      1.0  0.37421  0.69169  0.02644  1.0000
  C   C549      1.0  0.27928  0.53265  0.05448  1.0000
  C   C550      1.0  0.30846  0.98466  0.38126  1.0000
  C   C551      1.0  0.42207  0.92135  0.25522  1.0000
  H   H667      1.0  0.46532  0.95867  0.30947  1.0000
  C   C552      1.0  0.49232  0.70922  0.08589  1.0000
  H   H668      1.0  0.29191  0.53628  0.06828  1.0000
  C   C553      1.0  0.31617  0.56826  0.03139  1.0000
  H   H669      1.0  0.39169  0.92034  0.34765  1.0000
  H   H670      1.0  0.47749  0.51840  0.12131  1.0000
  S   S164      1.0  0.37883  0.99725  0.41615  1.0000
  C   C554      1.0  0.43024  0.93098  0.43759  1.0000
  C   C555      1.0  0.42848  0.94895  0.41588  1.0000
  C   C556      1.0  0.43657  0.86168  0.36997  1.0000
  H   H671      1.0  0.45604  0.87245  0.27163  1.0000
  H   H672      1.0  0.29150  0.72784  0.19288  1.0000
  C   C557      1.0  0.39839  0.89410  0.28645  1.0000
  C   C558      1.0  0.39609  0.87767  0.26821  1.0000
  N   N39       1.0  0.38126  0.85578  0.27531  1.0000
  H   H673      1.0  0.26247  0.52513  0.06613  1.0000
  C   C559      1.0  0.35411  0.70747  0.15239  1.0000
  H   H674      1.0  0.38990  0.89060  0.30582  1.0000
  H   H675      1.0  0.30072  0.68417  0.18397  1.0000
  H   H676      1.0  0.40840  0.87176  0.22840  1.0000
  C   C560      1.0  0.50227  0.98410  0.48124  1.0000
  C   C561      1.0  0.41508  0.89593  0.46835  1.0000
  C   C562      1.0  0.45202  0.93013  0.45053  1.0000
  H   H677      1.0  0.41237  0.95091  0.40521  1.0000
  H   H678      1.0  0.31697  0.56582  0.05165  1.0000
  H   H679      1.0  0.36609  0.67126  0.11943  1.0000
  C   C563      1.0  0.31459  0.69689  0.17620  1.0000
  C   C564      1.0  0.41097  0.97360  0.12762  1.0000
  C   C565      1.0  0.40632  0.89985  0.42511  1.0000
  C   C566      1.0  0.38581  0.93016  0.45307  1.0000
  H   H680      1.0  0.42450  0.88914  0.41808  1.0000
  H   H681      1.0  0.39221  0.88603  0.43111  1.0000
  H   H682      1.0  0.39925  0.91212  0.40862  1.0000
  S   S165      1.0  0.26223  0.93382  0.32402  1.0000
  S   S166      1.0  0.41546  0.59757  0.01252  1.0000
  C   C567      1.0  0.33756  0.57602  0.01601  1.0000
  H   H683      1.0  0.38789  0.94186  0.46832  1.0000
  H   H684      1.0  0.35157  0.67795  0.06802  1.0000
  C   C568      1.0  0.47633  0.98690  0.48957  1.0000
  H   H685      1.0  0.47552  0.70263  0.09829  1.0000
  H   H686      1.0  0.45985  0.90364  0.16541  1.0000
  H   H687      1.0  0.36986  0.98656  0.20008  1.0000
  H   H688      1.0  0.34253  0.84940  0.28948  1.0000
  C   C569      1.0  0.26763  0.63848  0.05598  1.0000
  C   C570      1.0  0.47472  0.80897  0.07794  1.0000
  H   H689      1.0  0.46358  0.74196  0.10954  1.0000
  H   H690      1.0  0.26396  0.72339  0.01066  1.0000
  C   C571      1.0  0.48743  0.92335  0.25032  1.0000
  H   H691      1.0  0.43138  0.93836  0.25011  1.0000
  H   H692      1.0  0.50312  0.82982  0.21442  1.0000
  C   C572      1.0  0.48046  0.87521  0.11229  1.0000
  H   H693      1.0  0.44873  0.84508  0.37634  1.0000
  H   H694      1.0  0.27004  0.62466  0.11942  1.0000
  C   C573      1.0  0.27653  0.62646  0.09935  1.0000
  H   H695      1.0  0.47720  0.60537  0.10830  1.0000
  H   H696      1.0  0.48373  0.97259  0.17396  1.0000
  H   H697      1.0  0.46920  0.98265  0.26685  1.0000
  C   C574      1.0  0.44663  0.88483  0.36364  1.0000
  H   H698      1.0  0.33276  0.66996  0.11845  1.0000
  C   C575      1.0  0.48823  0.77594  0.14743  1.0000
  C   C576      1.0  0.36582  0.98897  0.22062  1.0000
  H   H699      1.0  0.37387  0.63193  0.16373  1.0000
  H   H700      1.0  0.37186  0.70276  0.14123  1.0000
  N   N40       1.0  0.27178  0.55571  0.03752  1.0000
  C   C577      1.0  0.47713  0.83073  0.08900  1.0000
  H   H701      1.0  0.48368  0.89210  0.12113  1.0000
  C   C578      1.0  0.32470  0.64534  0.16561  1.0000
  H   H702      1.0  0.36511  0.65247  0.18839  1.0000
  H   H703      1.0  0.48366  0.96015  0.22902  1.0000
  S   S167      1.0  0.42206  0.51582  0.11578  1.0000
  H   H704      1.0  0.39955  0.88361  0.47407  1.0000
  H   H705      1.0  0.44523  0.97873  0.39115  1.0000
  C   C579      1.0  0.47608  0.86928  0.26315  1.0000
  C   C580      1.0  0.39393  0.83749  0.29409  1.0000
  H   H706      1.0  0.37947  0.94335  0.43683  1.0000
  H   H707      1.0  0.47592  0.91336  0.31502  1.0000
  C   C581      1.0  0.40844  0.88347  0.24339  1.0000
  C   C582      1.0  0.49815  0.98298  0.16140  1.0000
  C   C583      1.0  0.49369  0.88866  0.18244  1.0000
  C   C584      1.0  0.36788  0.65189  0.16750  1.0000
  C   C585      1.0  0.35134  0.99200  0.40367  1.0000
  C   C586      1.0  0.49368  0.84595  0.20380  1.0000
  H   H708      1.0  0.48136  0.84849  0.26364  1.0000
  C   C587      1.0  0.49437  0.52759  0.12196  1.0000
  C   C588      1.0  0.40418  0.90391  0.35379  1.0000
  H   H709      1.0  0.43941  0.86493  0.17701  1.0000
  C   C589      1.0  0.37429  0.95970  0.15408  1.0000
  H   H710      1.0  0.45097  0.77459  0.13701  1.0000
  H   H711      1.0  0.36610  0.82653  0.25906  1.0000
  C   C590      1.0  0.46845  0.96355  0.42061  1.0000
  H   H712      1.0  0.43752  0.92426  0.35065  1.0000
  H   H713      1.0  0.34673  0.88083  0.27489  1.0000
  C   C591      1.0  0.47135  0.94875  0.29292  1.0000
  C   C592      1.0  0.38212  0.93438  0.14929  1.0000
  C   C593      1.0  0.34832  0.73253  0.15770  1.0000
  H   H714      1.0  0.42160  0.98862  0.11821  1.0000
  H   H715      1.0  0.50317  0.95001  0.12757  1.0000
  C   C594      1.0  0.37823  0.84223  0.25346  1.0000
  H   H716      1.0  0.30676  0.65170  0.15705  1.0000
  H   H717      1.0  0.49081  0.91089  0.49043  1.0000
  C   C595      1.0  0.38864  0.97958  0.14339  1.0000
  H   H718      1.0  0.35552  0.87057  0.30598  1.0000
  C   C596      1.0  0.35549  0.86449  0.28689  1.0000
  C   C597      1.0  0.45755  0.86568  0.18313  1.0000
  C   C598      1.0  0.43024  0.90613  0.35545  1.0000
  C   C599      1.0  0.34101  0.68450  0.05205  1.0000
  C   C600      1.0  0.46944  0.84482  0.19710  1.0000
  C   C601      1.0  0.42102  0.90514  0.23705  1.0000
  H   H719      1.0  0.42980  0.90943  0.21781  1.0000
  C   C602      1.0  0.35372  0.69236  0.02861  1.0000
  H   H720      1.0  0.35430  0.57891  0.02437  1.0000
  C   C603      1.0  0.47751  0.92252  0.29584  1.0000
  C   C604      1.0  0.29412  0.56423  0.02086  1.0000
  H   H721      1.0  0.32149  0.75925  0.17652  1.0000
  H   H722      1.0  0.43279  0.88319  0.46427  1.0000
  C   C605      1.0  0.34952  0.66140  0.12808  1.0000
  H   H723      1.0  0.30461  0.97960  0.26463  1.0000
  C   C606      1.0  0.44725  0.96504  0.40765  1.0000
  H   H724      1.0  0.49102  0.59621  0.07758  1.0000
  H   H725      1.0  0.37003  0.91840  0.45999  1.0000
  H   H726      1.0  0.47742  0.56287  0.10678  1.0000
  C   C607      1.0  0.46932  0.88773  0.17636  1.0000
  C   C608      1.0  0.48591  0.90900  0.27454  1.0000
  H   H727      1.0  0.49670  0.84839  0.30451  1.0000
  H   H728      1.0  0.48590  0.72594  0.07286  1.0000
  C   C609      1.0  0.41115  0.91563  0.27998  1.0000
  H   H729      1.0  0.48219  0.79077  0.15965  1.0000
  C   C610      1.0  0.31674  0.99161  0.27104  1.0000
  H   H730      1.0  0.32080  0.64393  0.18662  1.0000
  H   H731      1.0  0.45135  0.99652  0.14671  1.0000
  H   H732      1.0  0.36762  0.62884  0.02214  1.0000
  Fe  Fe84      1.0  0.26406  0.89636  0.34793  1.0000
  H   H733      1.0  0.45627  0.80538  0.07367  1.0000
  S   S168      1.0  0.47970  0.88495  0.36663  1.0000
  H   H734      1.0  0.41224  0.92807  0.29423  1.0000
  C   C611      1.0  0.47068  0.76690  0.13466  1.0000
  N   N41       1.0  0.34454  0.66233  0.15587  1.0000
  C   C612      1.0  0.31353  0.99407  0.29701  1.0000
  C   C613      1.0  0.31479  0.68471  0.05479  1.0000
  C   C614      1.0  0.47085  0.94612  0.44195  1.0000
  C   C615      1.0  0.47355  0.96228  0.26893  1.0000
  N   N42       1.0  0.49301  0.88130  0.27682  1.0000
  C   C616      1.0  0.30116  0.69276  0.03409  1.0000
  H   H735      1.0  0.36848  0.96988  0.23144  1.0000
  H   H736      1.0  0.46005  0.84341  0.09228  1.0000
  H   H737      1.0  0.47146  0.87179  0.31304  1.0000
  C   C617      1.0  0.48650  0.96451  0.12649  1.0000
  H   H738      1.0  0.42380  0.98126  0.46100  1.0000
  H   H739      1.0  0.28092  0.69177  0.03703  1.0000
  H   H740      1.0  0.36143  0.74639  0.15051  1.0000
  C   C618      1.0  0.47821  0.74774  0.11898  1.0000
  C   C619      1.0  0.25958  0.63652  0.08191  1.0000
  C   C620      1.0  0.32198  0.98603  0.21810  1.0000
  H   H741      1.0  0.35660  0.96391  0.16566  1.0000
  H   H742      1.0  0.47061  0.95590  0.13870  1.0000
  H   H743      1.0  0.30495  0.67798  0.07289  1.0000
  C   C621      1.0  0.49114  0.86915  0.30340  1.0000
  H   H744      1.0  0.45502  0.91722  0.46728  1.0000
  H   H745      1.0  0.48136  0.96747  0.10675  1.0000
  H   H746      1.0  0.47666  0.87686  0.24285  1.0000
  C   C622      1.0  0.50092  0.83567  0.09535  1.0000
  H   H747      1.0  0.47107  0.88250  0.09501  1.0000
  H   H748      1.0  0.32405  0.96613  0.22707  1.0000
  C   C623      1.0  0.48162  0.94961  0.24767  1.0000
  H   H749      1.0  0.41675  0.90555  0.48528  1.0000
  H   H750      1.0  0.49958  0.69378  0.07381  1.0000
  H   H751      1.0  0.49369  0.91443  0.23321  1.0000
  H   H752      1.0  0.38057  0.00015  0.22494  1.0000
  N   N43       1.0  0.33984  0.00136  0.22683  1.0000
  C   C624      1.0  0.26075  0.57595  0.05338  1.0000
  N   N44       1.0  0.49141  0.98857  0.13511  1.0000
  H   H753      1.0  0.25878  0.53459  0.01081  1.0000
  C   C625      1.0  0.31341  0.70125  0.00999  1.0000
  H   H754      1.0  0.50255  0.68864  0.13332  1.0000
  H   H755      1.0  0.49389  0.77525  0.06355  1.0000
  H   H756      1.0  0.30195  0.99415  0.22218  1.0000
  C   C626      1.0  0.41795  0.00124  0.46461  1.0000
  C   C627      1.0  0.49588  0.79190  0.07236  1.0000
  H   H757      1.0  0.49605  0.62575  0.08710  1.0000
  C   C628      1.0  0.50372  0.73657  0.11601  1.0000
  H   H758      1.0  0.25591  0.97101  0.45627  1.0000
  C   C629      1.0  0.34025  0.70072  0.00782  1.0000
  H   H759      1.0  0.50408  0.84025  0.14445  1.0000
  H   H760      1.0  0.50392  0.87680  0.31474  1.0000
  H   H761      1.0  0.25503  0.59364  0.04136  1.0000
  Fe  Fe85      1.0  0.34784  0.92206  0.55110  1.0000
  S   S169      1.0  0.34211  0.92860  0.59202  1.0000
  S   S170      1.0  0.31322  0.91726  0.53079  1.0000
  Fe  Fe86      1.0  0.40757  0.92145  0.54895  1.0000
  S   S171      1.0  0.40459  0.92699  0.58992  1.0000
  S   S172      1.0  0.44641  0.92069  0.52431  1.0000
  Fe  Fe87      1.0  0.37559  0.89958  0.59644  1.0000
  S   S173      1.0  0.37662  0.87106  0.63091  1.0000
  Fe  Fe88      1.0  0.37174  0.95533  0.58131  1.0000
  S   S174      1.0  0.38048  0.89111  0.55585  1.0000
  S   S175      1.0  0.37545  0.95154  0.53979  1.0000
  Fe  Fe89      1.0  0.38416  0.91111  0.76141  1.0000
  S   S176      1.0  0.37240  0.91228  0.80316  1.0000
  S   S177      1.0  0.35952  0.92597  0.73062  1.0000
  Fe  Fe90      1.0  0.43903  0.89697  0.76925  1.0000
  S   S178      1.0  0.43126  0.89630  0.81136  1.0000
  S   S179      1.0  0.47871  0.89267  0.74990  1.0000
  Fe  Fe91      1.0  0.39821  0.87507  0.80720  1.0000
  S   S180      1.0  0.38547  0.83930  0.83236  1.0000
  Fe  Fe92      1.0  0.40677  0.93340  0.80294  1.0000
  S   S181      1.0  0.41832  0.96962  0.81612  1.0000
  S   S182      1.0  0.40801  0.87370  0.76518  1.0000
  S   S183      1.0  0.41627  0.93401  0.76095  1.0000
  Fe  Fe93      1.0  0.33701  0.66637  0.84500  1.0000
  S   S184      1.0  0.37610  0.65943  0.82514  1.0000
  S   S185      1.0  0.30470  0.67955  0.82198  1.0000
  Fe  Fe94      1.0  0.35542  0.65792  0.89674  1.0000
  S   S186      1.0  0.39614  0.65090  0.88025  1.0000
  S   S187      1.0  0.34077  0.65807  0.93820  1.0000
  Fe  Fe95      1.0  0.38677  0.68487  0.85191  1.0000
  S   S188      1.0  0.41090  0.71782  0.83729  1.0000
  Fe  Fe96      1.0  0.38075  0.62621  0.85550  1.0000
  S   S189      1.0  0.39897  0.58647  0.84637  1.0000
  S   S190      1.0  0.34718  0.69301  0.87022  1.0000
  S   S191      1.0  0.34058  0.63211  0.87353  1.0000
  H   H762      1.0  0.35142  0.70615  0.99018  1.0000
  C   C630      1.0  0.39860  0.55270  0.84943  1.0000
  C   C631      1.0  0.41964  0.53852  0.83783  1.0000
  C   C632      1.0  0.28674  0.60967  0.81572  1.0000
  C   C633      1.0  0.28912  0.86238  0.60609  1.0000
  C   C634      1.0  0.28010  0.86709  0.58249  1.0000
  C   C635      1.0  0.37863  0.53956  0.86236  1.0000
  H   H763      1.0  0.43522  0.54814  0.82784  1.0000
  H   H764      1.0  0.40298  0.99212  0.76162  1.0000
  H   H765      1.0  0.36220  0.55011  0.87143  1.0000
  C   C636      1.0  0.36137  0.64112  0.95897  1.0000
  C   C637      1.0  0.35561  0.64156  0.98523  1.0000
  H   H766      1.0  0.26238  0.54435  0.73617  1.0000
  H   H767      1.0  0.27209  0.64855  0.86674  1.0000
  C   C638      1.0  0.40007  0.61402  0.96619  1.0000
  C   C639      1.0  0.38349  0.62707  0.94956  1.0000
  C   C640      1.0  0.40149  0.99752  0.59900  1.0000
  C   C641      1.0  0.33749  0.58044  0.98984  1.0000
  H   H768      1.0  0.41720  0.60320  0.95873  1.0000
  H   H769      1.0  0.38780  0.62596  0.92948  1.0000
  C   C642      1.0  0.29044  0.65453  0.81357  1.0000
  C   C643      1.0  0.29975  0.62943  0.82047  1.0000
  H   H770      1.0  0.40722  0.94182  0.65368  1.0000
  H   H771      1.0  0.31685  0.62521  0.82965  1.0000
  H   H772      1.0  0.48476  0.96829  0.79038  1.0000
  C   C644      1.0  0.39329  0.80558  0.83349  1.0000
  C   C645      1.0  0.37802  0.78955  0.85006  1.0000
  C   C646      1.0  0.38305  0.76287  0.85150  1.0000
  C   C647      1.0  0.40368  0.75158  0.83652  1.0000
  C   C648      1.0  0.41921  0.76757  0.82022  1.0000
  C   C649      1.0  0.41396  0.79427  0.81853  1.0000
  H   H773      1.0  0.36204  0.79790  0.86184  1.0000
  H   H774      1.0  0.37098  0.75108  0.86435  1.0000
  H   H775      1.0  0.43530  0.75928  0.80854  1.0000
  H   H776      1.0  0.42600  0.80612  0.80571  1.0000
  C   C650      1.0  0.46636  0.72843  0.87501  1.0000
  C   C651      1.0  0.48194  0.93524  0.77228  1.0000
  H   H777      1.0  0.48697  0.66907  0.85997  1.0000
  C   C652      1.0  0.46898  0.68901  0.90277  1.0000
  H   H778      1.0  0.26770  0.73794  0.97894  1.0000
  C   C653      1.0  0.26614  0.64551  0.92011  1.0000
  H   H779      1.0  0.46224  0.93470  0.77923  1.0000
  H   H780      1.0  0.28051  0.85002  0.64556  1.0000
  H   H781      1.0  0.42936  0.96433  0.65347  1.0000
  H   H782      1.0  0.43070  0.69252  0.89163  1.0000
  C   C654      1.0  0.47931  0.92238  0.52763  1.0000
  C   C655      1.0  0.27134  0.63862  0.94519  1.0000
  C   C656      1.0  0.42103  0.51206  0.83897  1.0000
  C   C657      1.0  0.34359  0.51784  0.79051  1.0000
  H   H783      1.0  0.41731  0.97611  0.56815  1.0000
  C   C658      1.0  0.37132  0.88593  0.65888  1.0000
  C   C659      1.0  0.37618  0.87218  0.68214  1.0000
  C   C660      1.0  0.37292  0.88432  0.70434  1.0000
  C   C661      1.0  0.36405  0.91004  0.70340  1.0000
  C   C662      1.0  0.35902  0.92365  0.68021  1.0000
  C   C663      1.0  0.36307  0.91175  0.65797  1.0000
  H   H784      1.0  0.38280  0.85225  0.68291  1.0000
  H   H785      1.0  0.37680  0.87371  0.72221  1.0000
  H   H786      1.0  0.35230  0.94357  0.67939  1.0000
  H   H787      1.0  0.35971  0.92262  0.64016  1.0000
  H   H788      1.0  0.26752  0.51468  0.81897  1.0000
  C   C664      1.0  0.27952  0.92225  0.53940  1.0000
  H   H789      1.0  0.29248  0.87395  0.56608  1.0000
  H   H790      1.0  0.28082  0.94240  0.57136  1.0000
  C   C665      1.0  0.43210  0.92876  0.69365  1.0000
  N   N45       1.0  0.44297  0.92606  0.66705  1.0000
  C   C666      1.0  0.43996  0.90035  0.66124  1.0000
  H   H791      1.0  0.43349  0.94229  0.62991  1.0000
  H   H792      1.0  0.44819  0.89734  0.64152  1.0000
  H   H793      1.0  0.41968  0.89707  0.66301  1.0000
  H   H794      1.0  0.44929  0.88530  0.67429  1.0000
  N   N46       1.0  0.29845  0.70967  0.98839  1.0000
  C   C667      1.0  0.37999  0.51267  0.86343  1.0000
  H   H795      1.0  0.48737  0.88931  0.81566  1.0000
  N   N47       1.0  0.35201  0.73961  0.78120  1.0000
  C   C668      1.0  0.37909  0.72928  0.77897  1.0000
  C   C669      1.0  0.34162  0.73673  0.80834  1.0000
  C   C670      1.0  0.33824  0.72380  0.76784  1.0000
  C   C671      1.0  0.34988  0.76670  0.77105  1.0000
  C   C672      1.0  0.36036  0.78445  0.78313  1.0000
  C   C673      1.0  0.33823  0.77618  0.74880  1.0000
  C   C674      1.0  0.35901  0.81006  0.77389  1.0000
  C   C675      1.0  0.33709  0.80187  0.73958  1.0000
  C   C676      1.0  0.34741  0.81877  0.75213  1.0000
  H   H796      1.0  0.39052  0.73939  0.78955  1.0000
  H   H797      1.0  0.38169  0.70901  0.78681  1.0000
  H   H798      1.0  0.38766  0.73091  0.75886  1.0000
  H   H799      1.0  0.32170  0.74561  0.81107  1.0000
  H   H800      1.0  0.35283  0.74515  0.82053  1.0000
  H   H801      1.0  0.34173  0.71648  0.81611  1.0000
  H   H802      1.0  0.34616  0.72340  0.74764  1.0000
  H   H803      1.0  0.33960  0.70372  0.77654  1.0000
  H   H804      1.0  0.31765  0.73054  0.76895  1.0000
  H   H805      1.0  0.36989  0.77863  0.79981  1.0000
  H   H806      1.0  0.32992  0.76418  0.73813  1.0000
  H   H807      1.0  0.36710  0.82320  0.78368  1.0000
  H   H808      1.0  0.28659  0.74595  0.00174  1.0000
  H   H809      1.0  0.34648  0.83866  0.74496  1.0000
  H   H810      1.0  0.39900  0.98059  0.71904  1.0000
  H   H811      1.0  0.47510  0.93408  0.56522  1.0000
  H   H812      1.0  0.48390  0.65746  0.95983  1.0000
  H   H813      1.0  0.45747  0.68765  0.85475  1.0000
  H   H814      1.0  0.27282  0.68086  0.99819  1.0000
  H   H815      1.0  0.26327  0.67996  0.87622  1.0000
  C   C677      1.0  0.26864  0.93528  0.55992  1.0000
  H   H816      1.0  0.43967  0.91323  0.70739  1.0000
  H   H817      1.0  0.32852  0.70480  0.95791  1.0000
  H   H818      1.0  0.43595  0.94692  0.69958  1.0000
  C   C678      1.0  0.39448  0.61467  0.99237  1.0000
  C   C679      1.0  0.31594  0.57750  0.97892  1.0000
  C   C680      1.0  0.27334  0.85360  0.62723  1.0000
  C   C681      1.0  0.26452  0.61496  0.80391  1.0000
  C   C682      1.0  0.26310  0.91290  0.52499  1.0000
  C   C683      1.0  0.44287  0.68536  0.90619  1.0000
  H   H819      1.0  0.48126  0.99726  0.84055  1.0000
  C   C684      1.0  0.48593  0.97910  0.71192  1.0000
  C   C685      1.0  0.43199  0.67216  0.92828  1.0000
  C   C686      1.0  0.48134  0.94644  0.64405  1.0000
  H   H820      1.0  0.25489  0.97226  0.61053  1.0000
  H   H821      1.0  0.48324  0.96738  0.69692  1.0000
  H   H822      1.0  0.27111  0.90275  0.50909  1.0000
  H   H823      1.0  0.36866  0.56997  0.80429  1.0000
  C   C687      1.0  0.31782  0.55749  0.77774  1.0000
  H   H824      1.0  0.47479  0.73961  0.85774  1.0000
  C   C688      1.0  0.50111  0.93543  0.84741  1.0000
  H   H825      1.0  0.37627  0.52413  0.80877  1.0000
  H   H826      1.0  0.28211  0.64987  0.90645  1.0000
  S   S192      1.0  0.37020  0.99208  0.59720  1.0000
  H   H827      1.0  0.32337  0.73605  0.96828  1.0000
  H   H828      1.0  0.41120  0.92817  0.69632  1.0000
  H   H829      1.0  0.44618  0.72806  0.87224  1.0000
  C   C689      1.0  0.42134  0.98685  0.58268  1.0000
  C   C690      1.0  0.49482  0.95423  0.77884  1.0000
  C   C691      1.0  0.44675  0.66209  0.94753  1.0000
  C   C692      1.0  0.37218  0.62843  0.00193  1.0000
  H   H830      1.0  0.49180  0.95214  0.85549  1.0000
  H   H831      1.0  0.46174  0.98228  0.57206  1.0000
  H   H832      1.0  0.33831  0.65187  0.99279  1.0000
  H   H833      1.0  0.46677  0.73911  0.89149  1.0000
  H   H834      1.0  0.46730  0.92673  0.83419  1.0000
  H   H835      1.0  0.35414  0.58644  0.97801  1.0000
  H   H836      1.0  0.43831  0.65161  0.96452  1.0000
  C   C693      1.0  0.32201  0.53105  0.77985  1.0000
  C   C694      1.0  0.29996  0.98106  0.61317  1.0000
  C   C695      1.0  0.48838  0.92978  0.54896  1.0000
  C   C696      1.0  0.36003  0.53270  0.79955  1.0000
  H   H837      1.0  0.49831  0.96711  0.72482  1.0000
  C   C697      1.0  0.48729  0.92092  0.83558  1.0000
  C   C698      1.0  0.47028  0.92949  0.66374  1.0000
  H   H838      1.0  0.40321  0.99643  0.51457  1.0000
  H   H839      1.0  0.33160  0.59191  0.78432  1.0000
  H   H840      1.0  0.29722  0.97048  0.59730  1.0000
  C   C699      1.0  0.35575  0.55907  0.79721  1.0000
  H   H841      1.0  0.43370  0.99723  0.52450  1.0000
  H   H842      1.0  0.36741  0.99875  0.81802  1.0000
  H   H843      1.0  0.27547  0.69338  0.96558  1.0000
  C   C700      1.0  0.47241  0.66535  0.94483  1.0000
  C   C701      1.0  0.42774  0.94451  0.65031  1.0000
  H   H844      1.0  0.41204  0.66951  0.93039  1.0000
  H   H845      1.0  0.29366  0.59030  0.82158  1.0000
  C   C702      1.0  0.33484  0.57144  0.78609  1.0000
  C   C703      1.0  0.27835  0.73010  0.99526  1.0000
  C   C704      1.0  0.44648  0.99038  0.58485  1.0000
  C   C705      1.0  0.29449  0.56953  0.99407  1.0000
  H   H846      1.0  0.30807  0.52146  0.77305  1.0000
  H   H847      1.0  0.30841  0.86559  0.60797  1.0000
  H   H848      1.0  0.30212  0.72598  0.94919  1.0000
  C   C706      1.0  0.48349  0.67857  0.92285  1.0000
  C   C707      1.0  0.49915  0.89934  0.82496  1.0000
  H   H849      1.0  0.30116  0.56734  0.76980  1.0000
  C   C708      1.0  0.49474  0.91678  0.75762  1.0000
  H   H850      1.0  0.32824  0.80879  0.72254  1.0000
  C   C709      1.0  0.28632  0.68812  0.98223  1.0000
  C   C710      1.0  0.31386  0.71960  0.96502  1.0000
  H   H851      1.0  0.48630  0.69811  0.83907  1.0000
  H   H852      1.0  0.30070  0.67205  0.97773  1.0000
  C   C711      1.0  0.25609  0.66363  0.86951  1.0000
  H   H853      1.0  0.47006  0.97440  0.50598  1.0000
  H   H854      1.0  0.29115  0.97169  0.63131  1.0000
  C   C712      1.0  0.47760  0.68879  0.85730  1.0000
  N   N48       1.0  0.48007  0.70272  0.87898  1.0000
  H   H855      1.0  0.32074  0.97882  0.61442  1.0000
  C   C713      1.0  0.26842  0.65979  0.80141  1.0000
  H   H856      1.0  0.29057  0.63797  0.94991  1.0000
  H   H857      1.0  0.31593  0.58152  0.95855  1.0000
  H   H858      1.0  0.46732  0.98318  0.72336  1.0000
  C   C714      1.0  0.48691  0.91493  0.68001  1.0000
  H   H859      1.0  0.47042  0.95799  0.63042  1.0000
  C   C715      1.0  0.42391  0.99289  0.50864  1.0000
  N   N49       1.0  0.49702  0.00256  0.70079  1.0000
  H   H860      1.0  0.27847  0.56776  0.98430  1.0000
  C   C716      1.0  0.40714  0.00265  0.81601  1.0000
  C   C717      1.0  0.40113  0.99999  0.72141  1.0000
  H   H861      1.0  0.26116  0.67918  0.79600  1.0000
  C   C718      1.0  0.49707  0.91691  0.50691  1.0000
  H   H862      1.0  0.48007  0.90114  0.69500  1.0000
  H   H863      1.0  0.25598  0.62783  0.98365  1.0000
  C   C719      1.0  0.25541  0.64003  0.79670  1.0000
  H   H864      1.0  0.50350  0.68023  0.92206  1.0000
  C   C720      1.0  0.25524  0.86315  0.57994  1.0000
  H   H865      1.0  0.42786  0.97228  0.50678  1.0000
  H   H866      1.0  0.25427  0.53962  0.78225  1.0000
  Fe  Fe97      1.0  0.60855  0.17187  0.14430  1.0000
  S   S193      1.0  0.60081  0.16559  0.18672  1.0000
  S   S194      1.0  0.62020  0.21058  0.12487  1.0000
  Fe  Fe98      1.0  0.60683  0.11361  0.14022  1.0000
  S   S195      1.0  0.59976  0.10472  0.18222  1.0000
  S   S196      1.0  0.61125  0.08146  0.11467  1.0000
  Fe  Fe99      1.0  0.57275  0.14007  0.18013  1.0000
  S   S197      1.0  0.53460  0.14134  0.20296  1.0000
  Fe  Fe100     1.0  0.62859  0.13088  0.18448  1.0000
  S   S198      1.0  0.65879  0.11735  0.21027  1.0000
  S   S199      1.0  0.57801  0.14831  0.13771  1.0000
  S   S200      1.0  0.63816  0.13777  0.14242  1.0000
  Fe  Fe101     1.0  0.66612  0.09620  0.40292  1.0000
  S   S201      1.0  0.67067  0.08243  0.36449  1.0000
  S   S202      1.0  0.70096  0.10238  0.42220  1.0000
  Fe  Fe102     1.0  0.60599  0.09475  0.40824  1.0000
  S   S203      1.0  0.60839  0.08110  0.37024  1.0000
  S   S204      1.0  0.56738  0.09753  0.43297  1.0000
  Fe  Fe103     1.0  0.64236  0.05594  0.38238  1.0000
  S   S205      1.0  0.64612  0.01399  0.38239  1.0000
  Fe  Fe104     1.0  0.63598  0.10954  0.35740  1.0000
  S   S206      1.0  0.62684  0.13789  0.32418  1.0000
  S   S207      1.0  0.63916  0.06809  0.42112  1.0000
  S   S208      1.0  0.63236  0.12495  0.39510  1.0000
  Fe  Fe105     1.0  0.61383  0.42439  0.10126  1.0000
  S   S209      1.0  0.65518  0.41890  0.08716  1.0000
  S   S210      1.0  0.59348  0.46523  0.09579  1.0000
  Fe  Fe106     1.0  0.61131  0.36481  0.10960  1.0000
  S   S211      1.0  0.65233  0.35727  0.09539  1.0000
  S   S212      1.0  0.58806  0.33107  0.12395  1.0000
  Fe  Fe107     1.0  0.65792  0.38749  0.11888  1.0000
  S   S213      1.0  0.68954  0.37781  0.14355  1.0000
  Fe  Fe108     1.0  0.64500  0.38935  0.06527  1.0000
  S   S214      1.0  0.66383  0.38936  0.02517  1.0000
  S   S215      1.0  0.61705  0.39422  0.13484  1.0000
  S   S216      1.0  0.60333  0.39568  0.07757  1.0000
  H   H867      1.0  0.56025  0.03605  0.26886  1.0000
  H   H868      1.0  0.59747  0.14096  0.50354  1.0000
  H   H869      1.0  0.54130  0.05525  0.11277  1.0000
  C   C721      1.0  0.53843  0.39413  0.11739  1.0000
  C   C722      1.0  0.59638  0.03293  0.13436  1.0000
  C   C723      1.0  0.57381  0.10568  0.28124  1.0000
  C   C724      1.0  0.55241  0.02481  0.08994  1.0000
  C   C725      1.0  0.71423  0.39700  0.13641  1.0000
  H   H870      1.0  0.74130  0.36919  0.15364  1.0000
  C   C726      1.0  0.71032  0.42110  0.12331  1.0000
  C   C727      1.0  0.52179  0.11982  0.12419  1.0000
  H   H871      1.0  0.69168  0.42848  0.11841  1.0000
  H   H872      1.0  0.59901  0.03947  0.40414  1.0000
  H   H873      1.0  0.61775  0.48369  0.13564  1.0000
  H   H874      1.0  0.54410  0.12969  0.05234  1.0000
  H   H875      1.0  0.57055  0.10127  0.08104  1.0000
  H   H876      1.0  0.51910  0.35729  0.07897  1.0000
  H   H877      1.0  0.60975  0.38693  0.02514  1.0000
  C   C728      1.0  0.61098  0.24398  0.12570  1.0000
  C   C729      1.0  0.58824  0.25376  0.13879  1.0000
  C   C730      1.0  0.58168  0.28027  0.13819  1.0000
  C   C731      1.0  0.59783  0.29759  0.12486  1.0000
  C   C732      1.0  0.62078  0.28778  0.11222  1.0000
  C   C733      1.0  0.62716  0.26131  0.11254  1.0000
  H   H878      1.0  0.57545  0.24091  0.14901  1.0000
  H   H879      1.0  0.56388  0.28741  0.14808  1.0000
  H   H880      1.0  0.63347  0.30060  0.10178  1.0000
  H   H881      1.0  0.64478  0.25420  0.10227  1.0000
  C   C734      1.0  0.60907  0.04832  0.11468  1.0000
  H   H882      1.0  0.52582  0.09940  0.47134  1.0000
  H   H883      1.0  0.58724  0.04115  0.15107  1.0000
  H   H884      1.0  0.57040  0.12303  0.26777  1.0000
  C   C735      1.0  0.65062  0.12341  0.24192  1.0000
  C   C736      1.0  0.63108  0.14210  0.24818  1.0000
  C   C737      1.0  0.62434  0.14652  0.27350  1.0000
  C   C738      1.0  0.63656  0.13181  0.29281  1.0000
  C   C739      1.0  0.65597  0.11289  0.28669  1.0000
  C   C740      1.0  0.66329  0.10899  0.26117  1.0000
  H   H885      1.0  0.62143  0.15349  0.23353  1.0000
  H   H886      1.0  0.60947  0.16132  0.27819  1.0000
  H   H887      1.0  0.66558  0.10161  0.30155  1.0000
  H   H888      1.0  0.67846  0.09451  0.25638  1.0000
  H   H889      1.0  0.60108  0.45944  0.04322  1.0000
  H   H890      1.0  0.52597  0.04341  0.48748  1.0000
  C   C741      1.0  0.53150  0.09469  0.18849  1.0000
  C   C742      1.0  0.62271  0.50004  0.01529  1.0000
  H   H891      1.0  0.60220  0.02954  0.45448  1.0000
  C   C743      1.0  0.60097  0.03672  0.32358  1.0000
  H   H892      1.0  0.52826  0.05912  0.17507  1.0000
  H   H893      1.0  0.55155  0.09370  0.18293  1.0000
  C   C744      1.0  0.61967  0.01153  0.09106  1.0000
  C   C745      1.0  0.50634  0.13669  0.10855  1.0000
  H   H894      1.0  0.60400  0.10181  0.23817  1.0000
  C   C746      1.0  0.53455  0.09373  0.43198  1.0000
  C   C747      1.0  0.51829  0.09566  0.45450  1.0000
  C   C748      1.0  0.52411  0.08885  0.41038  1.0000
  H   H895      1.0  0.53633  0.08732  0.39283  1.0000
  C   C749      1.0  0.59558  0.01649  0.49422  1.0000
  C   C750      1.0  0.73475  0.09931  0.41350  1.0000
  C   C751      1.0  0.58832  0.02784  0.47104  1.0000
  H   H896      1.0  0.73492  0.08012  0.38049  1.0000
  C   C752      1.0  0.58248  0.05964  0.28634  1.0000
  H   H897      1.0  0.74553  0.38034  0.09210  1.0000
  C   C753      1.0  0.73047  0.43592  0.11704  1.0000
  C   C754      1.0  0.52479  0.43884  0.10974  1.0000
  C   C755      1.0  0.65250  0.03220  0.16171  1.0000
  N   N50       1.0  0.72234  0.00769  0.41498  1.0000
  C   C756      1.0  0.74646  0.08736  0.39253  1.0000
  H   H898      1.0  0.53682  0.34719  0.14435  1.0000
  H   H899      1.0  0.55657  0.10429  0.29507  1.0000
  C   C757      1.0  0.60163  0.09651  0.48280  1.0000
  H   H900      1.0  0.56482  0.06765  0.23785  1.0000
  H   H901      1.0  0.50622  0.35822  0.15928  1.0000
  C   C758      1.0  0.67894  0.10087  0.49163  1.0000
  H   H902      1.0  0.66933  0.44951  0.02458  1.0000
  C   C759      1.0  0.55260  0.11082  0.08851  1.0000
  C   C760      1.0  0.62057  0.45684  0.03318  1.0000
  H   H903      1.0  0.61167  0.07852  0.47666  1.0000
  C   C761      1.0  0.54457  0.10720  0.11433  1.0000
  C   C762      1.0  0.53771  0.12693  0.07244  1.0000
  C   C763      1.0  0.60449  0.08438  0.25186  1.0000
  H   H904      1.0  0.68576  0.02934  0.41147  1.0000
  N   N51       1.0  0.65887  0.21093  0.19357  1.0000
  C   C764      1.0  0.63139  0.21960  0.19414  1.0000
  C   C765      1.0  0.67332  0.23149  0.18020  1.0000
  C   C766      1.0  0.66437  0.18912  0.17835  1.0000
  C   C767      1.0  0.66552  0.20482  0.21986  1.0000
  C   C768      1.0  0.67704  0.18068  0.22913  1.0000
  C   C769      1.0  0.65972  0.22314  0.23734  1.0000
  C   C770      1.0  0.68139  0.17509  0.25455  1.0000
  C   C771      1.0  0.66410  0.21729  0.26274  1.0000
  C   C772      1.0  0.67464  0.19321  0.27139  1.0000
  H   H905      1.0  0.62492  0.22157  0.17496  1.0000
  H   H906      1.0  0.61991  0.20607  0.20664  1.0000
  H   H907      1.0  0.62633  0.23844  0.20108  1.0000
  H   H908      1.0  0.66898  0.24923  0.18941  1.0000
  H   H909      1.0  0.66874  0.23636  0.16027  1.0000
  H   H910      1.0  0.69409  0.22590  0.17960  1.0000
  H   H911      1.0  0.65852  0.19403  0.15892  1.0000
  H   H912      1.0  0.68495  0.18251  0.17584  1.0000
  H   H913      1.0  0.65404  0.17292  0.18728  1.0000
  H   H914      1.0  0.68227  0.16546  0.21738  1.0000
  H   H915      1.0  0.65128  0.24199  0.23158  1.0000
  H   H916      1.0  0.68939  0.15628  0.26142  1.0000
  C   C773      1.0  0.61754  0.39412  0.00643  1.0000
  H   H917      1.0  0.55526  0.02783  0.40948  1.0000
  H   H918      1.0  0.63026  0.04869  0.07776  1.0000
  H   H919      1.0  0.56272  0.42363  0.11602  1.0000
  C   C774      1.0  0.51856  0.11580  0.19914  1.0000
  H   H920      1.0  0.67741  0.18846  0.29122  1.0000
  H   H921      1.0  0.55759  0.04591  0.45102  1.0000
  C   C775      1.0  0.58954  0.01538  0.32101  1.0000
  C   C776      1.0  0.60076  0.49587  0.10123  1.0000
  H   H922      1.0  0.60786  0.07414  0.30885  1.0000
  H   H923      1.0  0.65045  0.04097  0.22358  1.0000
  C   C777      1.0  0.51824  0.07511  0.18393  1.0000
  C   C778      1.0  0.65354  0.04439  0.18301  1.0000
  C   C779      1.0  0.62048  0.03725  0.09313  1.0000
  H   H924      1.0  0.50686  0.03506  0.13834  1.0000
  H   H925      1.0  0.60957  0.06794  0.24074  1.0000
  C   C780      1.0  0.70622  0.03184  0.40946  1.0000
  C   C781      1.0  0.65347  0.09930  0.48915  1.0000
  H   H926      1.0  0.55784  0.10071  0.23826  1.0000
  H   H927      1.0  0.69329  0.09791  0.47578  1.0000
  H   H928      1.0  0.52215  0.06533  0.35837  1.0000
  C   C782      1.0  0.57096  0.01417  0.40399  1.0000
  C   C783      1.0  0.59573  0.02096  0.40036  1.0000
  H   H929      1.0  0.54136  0.08019  0.26190  1.0000
  H   H930      1.0  0.58941  0.10949  0.29163  1.0000
  C   C784      1.0  0.54505  0.03547  0.49041  1.0000
  C   C785      1.0  0.51753  0.02514  0.12339  1.0000
  H   H931      1.0  0.56808  0.03375  0.07913  1.0000
  H   H932      1.0  0.52921  0.45826  0.10726  1.0000
  C   C786      1.0  0.57498  0.01559  0.30115  1.0000
  H   H933      1.0  0.74178  0.11801  0.44492  1.0000
  C   C787      1.0  0.75042  0.10869  0.42867  1.0000
  H   H934      1.0  0.64941  0.09513  0.47094  1.0000
  C   C788      1.0  0.64751  0.00693  0.16436  1.0000
  C   C789      1.0  0.73830  0.38782  0.14341  1.0000
  H   H935      1.0  0.62025  0.08490  0.26339  1.0000
  C   C790      1.0  0.56011  0.08259  0.25090  1.0000
  H   H936      1.0  0.51160  0.32823  0.14649  1.0000
  C   C791      1.0  0.64940  0.03141  0.20710  1.0000
  C   C792      1.0  0.51612  0.34818  0.14323  1.0000
  N   N52       1.0  0.62358  0.47381  0.00904  1.0000
  C   C793      1.0  0.57143  0.03733  0.28399  1.0000
  H   H937      1.0  0.65894  0.23137  0.27592  1.0000
  C   C794      1.0  0.50920  0.02146  0.29664  1.0000
  C   C795      1.0  0.51484  0.13970  0.08217  1.0000
  C   C796      1.0  0.61195  0.49976  0.12253  1.0000
  C   C797      1.0  0.74187  0.38235  0.07191  1.0000
  C   C798      1.0  0.74911  0.01258  0.40725  1.0000
  H   H938      1.0  0.65748  0.06399  0.18080  1.0000
  H   H939      1.0  0.63310  0.46051  0.04708  1.0000
  H   H940      1.0  0.55635  0.09486  0.12684  1.0000
  C   C799      1.0  0.51372  0.38781  0.11575  1.0000
  H   H941      1.0  0.71065  0.04049  0.38962  1.0000
  C   C800      1.0  0.52385  0.34805  0.09783  1.0000
  H   H942      1.0  0.52063  0.32778  0.09922  1.0000
  C   C801      1.0  0.59530  0.00682  0.13212  1.0000
  H   H943      1.0  0.72743  0.45452  0.10682  1.0000
  H   H944      1.0  0.55394  0.37964  0.12073  1.0000
  H   H945      1.0  0.58108  0.09512  0.48249  1.0000
  C   C802      1.0  0.59775  0.05847  0.30645  1.0000
  H   H946      1.0  0.69905  0.49339  0.11487  1.0000
  N   N53       1.0  0.58004  0.08259  0.26791  1.0000
  H   H947      1.0  0.65531  0.04253  0.14296  1.0000
  H   H948      1.0  0.61287  0.03615  0.33870  1.0000
  H   H949      1.0  0.73162  0.36598  0.06989  1.0000
  H   H950      1.0  0.62447  0.43663  0.02980  1.0000
  H   H951      1.0  0.70885  0.04593  0.42230  1.0000
  H   H952      1.0  0.72893  0.40009  0.06888  1.0000
  C   C803      1.0  0.53728  0.03691  0.10890  1.0000
  C   C804      1.0  0.56312  0.03713  0.46914  1.0000
  C   C805      1.0  0.54373  0.41927  0.11457  1.0000
  H   H953      1.0  0.60671  0.11240  0.46830  1.0000
  H   H954      1.0  0.51642  0.11656  0.14429  1.0000
  C   C806      1.0  0.52062  0.06374  0.33806  1.0000
  H   H955      1.0  0.75222  0.02031  0.38693  1.0000
  C   C807      1.0  0.50805  0.02055  0.27078  1.0000
  H   H956      1.0  0.72037  0.38476  0.03183  1.0000
  H   H957      1.0  0.54456  0.34829  0.09811  1.0000
  H   H958      1.0  0.53990  0.05728  0.32926  1.0000
  H   H959      1.0  0.51509  0.08315  0.32917  1.0000
  N   N54       1.0  0.50871  0.36097  0.11860  1.0000
  C   C808      1.0  0.73751  0.38600  0.01890  1.0000
  H   H960      1.0  0.63853  0.50208  0.02630  1.0000
  C   C809      1.0  0.51007  0.02144  0.34994  1.0000
  H   H961      1.0  0.61524  0.00944  0.49585  1.0000
  C   C810      1.0  0.61592  0.00409  0.39122  1.0000
  H   H962      1.0  0.58322  0.47364  0.00780  1.0000
  H   H963      1.0  0.51542  0.49374  0.13764  1.0000
  H   H964      1.0  0.51003  0.02348  0.37041  1.0000
  H   H965      1.0  0.52973  0.01369  0.34337  1.0000
  C   C811      1.0  0.64394  0.00627  0.21000  1.0000
  H   H966      1.0  0.62883  0.00365  0.07414  1.0000
  H   H967      1.0  0.51640  0.00410  0.30715  1.0000
  H   H968      1.0  0.74336  0.50245  0.11462  1.0000
  H   H969      1.0  0.50431  0.15192  0.06866  1.0000
  H   H970      1.0  0.68312  0.05664  0.83359  1.0000
  H   H971      1.0  0.60319  0.45372  0.98728  1.0000
  H   H972      1.0  0.68029  0.38942  0.80128  1.0000
  Fe  Fe109     1.0  0.69771  0.11690  0.60528  1.0000
  S   S217      1.0  0.69672  0.07901  0.62742  1.0000
  S   S218      1.0  0.65814  0.13787  0.59981  1.0000
  Fe  Fe110     1.0  0.72481  0.09153  0.64954  1.0000
  S   S219      1.0  0.71419  0.08592  0.69189  1.0000
  Fe  Fe111     1.0  0.73035  0.06715  0.60058  1.0000
  S   S220      1.0  0.73310  0.03302  0.57968  1.0000
  S   S221      1.0  0.72519  0.13035  0.62836  1.0000
  S   S222      1.0  0.73050  0.10443  0.57685  1.0000
  Fe  Fe112     1.0  0.63323  0.22685  0.81239  1.0000
  S   S223      1.0  0.62806  0.23131  0.77087  1.0000
  S   S224      1.0  0.63996  0.25913  0.83538  1.0000
  Fe  Fe113     1.0  0.62934  0.16806  0.81614  1.0000
  S   S225      1.0  0.62392  0.16957  0.77535  1.0000
  S   S226      1.0  0.63016  0.13001  0.84084  1.0000
  Fe  Fe114     1.0  0.65441  0.19538  0.76848  1.0000
  S   S227      1.0  0.68572  0.19103  0.73646  1.0000
  Fe  Fe115     1.0  0.59820  0.20472  0.78202  1.0000
  S   S228      1.0  0.66191  0.19212  0.80914  1.0000
  S   S229      1.0  0.60126  0.20212  0.82375  1.0000
  Fe  Fe116     1.0  0.62377  0.47216  0.85699  1.0000
  S   S230      1.0  0.63507  0.46684  0.89623  1.0000
  C   C812      1.0  0.53527  0.15190  0.81575  1.0000
  Fe  Fe117     1.0  0.63380  0.41336  0.85174  1.0000
  S   S231      1.0  0.64752  0.40523  0.89012  1.0000
  S   S232      1.0  0.63049  0.38138  0.82714  1.0000
  Fe  Fe118     1.0  0.61431  0.43243  0.90249  1.0000
  S   S233      1.0  0.59136  0.42154  0.93952  1.0000
  Fe  Fe119     1.0  0.66684  0.44054  0.88026  1.0000
  S   S234      1.0  0.70449  0.44821  0.88926  1.0000
  S   S235      1.0  0.59932  0.43958  0.86455  1.0000
  S   S236      1.0  0.65686  0.44668  0.84041  1.0000
  C   C813      1.0  0.64223  0.10877  0.53244  1.0000
  H   H973      1.0  0.67691  0.09662  0.84460  1.0000
  H   H974      1.0  0.54364  0.07906  0.85535  1.0000
  C   C814      1.0  0.50727  0.03294  0.53316  1.0000
  H   H975      1.0  0.62878  0.11166  0.54885  1.0000
  C   C815      1.0  0.61154  0.41090  0.96300  1.0000
  H   H976      1.0  0.58731  0.39143  0.90041  1.0000
  H   H977      1.0  0.64544  0.42041  0.93935  1.0000
  H   H978      1.0  0.67364  0.40619  0.97249  1.0000
  C   C816      1.0  0.72611  0.42179  0.88475  1.0000
  C   C817      1.0  0.68101  0.01935  0.66135  1.0000
  H   H979      1.0  0.56915  0.37366  0.94107  1.0000
  C   C818      1.0  0.65356  0.40473  0.97670  1.0000
  C   C819      1.0  0.59478  0.30384  0.91991  1.0000
  C   C820      1.0  0.72094  0.39767  0.89598  1.0000
  H   H980      1.0  0.62431  0.05629  0.79331  1.0000
  H   H981      1.0  0.65097  0.13235  0.69023  1.0000
  H   H982      1.0  0.51224  0.01107  0.64824  1.0000
  H   H983      1.0  0.70351  0.39531  0.90823  1.0000
  C   C821      1.0  0.63726  0.29319  0.83248  1.0000
  C   C822      1.0  0.64540  0.30534  0.85149  1.0000
  C   C823      1.0  0.64339  0.33207  0.85034  1.0000
  C   C824      1.0  0.63317  0.34731  0.83007  1.0000
  C   C825      1.0  0.62509  0.33519  0.81104  1.0000
  C   C826      1.0  0.62702  0.30845  0.81222  1.0000
  H   H984      1.0  0.65335  0.29392  0.86729  1.0000
  H   H985      1.0  0.65001  0.34077  0.86504  1.0000
  H   H986      1.0  0.61723  0.34658  0.79516  1.0000
  H   H987      1.0  0.62063  0.29967  0.79739  1.0000
  C   C827      1.0  0.70668  0.11483  0.70483  1.0000
  C   C828      1.0  0.68779  0.11706  0.72534  1.0000
  C   C829      1.0  0.68118  0.14033  0.73528  1.0000
  C   C830      1.0  0.69368  0.16136  0.72498  1.0000
  C   C831      1.0  0.71270  0.15898  0.70466  1.0000
  C   C832      1.0  0.71920  0.13580  0.69464  1.0000
  H   H988      1.0  0.67802  0.10090  0.73334  1.0000
  H   H989      1.0  0.66650  0.14192  0.75093  1.0000
  H   H990      1.0  0.72255  0.17511  0.69668  1.0000
  H   H991      1.0  0.73432  0.13408  0.67934  1.0000
  C   C833      1.0  0.59125  0.12386  0.51555  1.0000
  C   C834      1.0  0.66020  0.04856  0.56560  1.0000
  C   C835      1.0  0.68461  0.05146  0.57086  1.0000
  C   C836      1.0  0.70415  0.03182  0.56802  1.0000
  H   H992      1.0  0.54145  0.14027  0.83232  1.0000
  H   H993      1.0  0.66008  0.18857  0.68739  1.0000
  H   H994      1.0  0.64484  0.06314  0.56915  1.0000
  H   H995      1.0  0.68797  0.06852  0.57805  1.0000
  C   C837      1.0  0.59129  0.16633  0.70341  1.0000
  H   H996      1.0  0.68810  0.04127  0.70436  1.0000
  C   C838      1.0  0.62774  0.08033  0.85805  1.0000
  C   C839      1.0  0.62718  0.09799  0.83649  1.0000
  C   C840      1.0  0.62574  0.08923  0.81299  1.0000
  H   H997      1.0  0.62891  0.08664  0.87627  1.0000
  H   H998      1.0  0.62552  0.10256  0.79608  1.0000
  C   C841      1.0  0.60757  0.14473  0.59238  1.0000
  C   C842      1.0  0.62805  0.12680  0.59814  1.0000
  H   H999      1.0  0.61021  0.16460  0.58971  1.0000
  H   H1000     1.0  0.51263  0.19525  0.75753  1.0000
  H   H1001     1.0  0.61937  0.20022  0.64992  1.0000
  C   C843      1.0  0.65531  0.02602  0.55763  1.0000
  C   C844      1.0  0.67021  0.03296  0.71181  1.0000
  C   C845      1.0  0.62722  0.05452  0.85648  1.0000
  C   C846      1.0  0.60155  0.40139  0.98728  1.0000
  C   C847      1.0  0.58440  0.32392  0.87886  1.0000
  N   N55       1.0  0.59020  0.35138  0.91293  1.0000
  C   C848      1.0  0.56975  0.35484  0.93402  1.0000
  N   N56       1.0  0.70629  0.10064  0.81334  1.0000
  H   H1002     1.0  0.59822  0.07377  0.59813  1.0000
  H   H1003     1.0  0.69973  0.12850  0.78132  1.0000
  C   C849      1.0  0.69260  0.44944  0.98957  1.0000
  H   H1004     1.0  0.56912  0.15158  0.58279  1.0000
  H   H1005     1.0  0.60154  0.37181  0.87674  1.0000
  H   H1006     1.0  0.56769  0.37435  0.88601  1.0000
  C   C850      1.0  0.69965  0.37540  0.84468  1.0000
  H   H1007     1.0  0.57230  0.34046  0.95059  1.0000
  H   H1008     1.0  0.72808  0.32506  0.84741  1.0000
  C   C851      1.0  0.69753  0.09834  0.84092  1.0000
  C   C852      1.0  0.54021  0.07638  0.80628  1.0000
  C   C853      1.0  0.58011  0.11175  0.59070  1.0000
  C   C854      1.0  0.62502  0.06298  0.81142  1.0000
  H   H1009     1.0  0.57032  0.16847  0.80638  1.0000
  H   H1010     1.0  0.74385  0.48535  0.91658  1.0000
  C   C855      1.0  0.66767  0.11037  0.53469  1.0000
  C   C856      1.0  0.58399  0.13733  0.58867  1.0000
  C   C857      1.0  0.51908  0.18303  0.77365  1.0000
  C   C858      1.0  0.62401  0.10113  0.60144  1.0000
  H   H1011     1.0  0.52489  0.21755  0.85462  1.0000
  C   C859      1.0  0.66971  0.45528  0.00449  1.0000
  H   H1012     1.0  0.69543  0.27370  0.80948  1.0000
  N   N57       1.0  0.54280  0.05461  0.82615  1.0000
  H   H1013     1.0  0.74790  0.02563  0.52091  1.0000
  C   C860      1.0  0.56050  0.03428  0.81497  1.0000
  C   C861      1.0  0.69095  0.05731  0.81394  1.0000
  H   H1014     1.0  0.74518  0.08756  0.81809  1.0000
  C   C862      1.0  0.55773  0.14421  0.69305  1.0000
  C   C863      1.0  0.57290  0.13717  0.67140  1.0000
  C   C864      1.0  0.73348  0.10473  0.81038  1.0000
  C   C865      1.0  0.60036  0.09367  0.59736  1.0000
  H   H1015     1.0  0.63090  0.34884  0.90745  1.0000
  H   H1016     1.0  0.65276  0.19028  0.64369  1.0000
  H   H1017     1.0  0.63028  0.17280  0.63392  1.0000
  H   H1018     1.0  0.69186  0.14019  0.81137  1.0000
  C   C866      1.0  0.56693  0.15869  0.70904  1.0000
  H   H1019     1.0  0.60010  0.26305  0.92380  1.0000
  C   C867      1.0  0.63382  0.18345  0.64945  1.0000
  H   H1020     1.0  0.51498  0.19711  0.83466  1.0000
  C   C868      1.0  0.63757  0.41253  0.95777  1.0000
  S   S237      1.0  0.56119  0.20827  0.76575  1.0000
  C   C869      1.0  0.58476  0.30009  0.87069  1.0000
  H   H1021     1.0  0.64246  0.07713  0.70851  1.0000
  C   C870      1.0  0.58978  0.32651  0.90373  1.0000
  C   C871      1.0  0.65194  0.14532  0.67232  1.0000
  C   C872      1.0  0.55464  0.06246  0.84714  1.0000
  C   C873      1.0  0.54309  0.18440  0.78074  1.0000
  S   S238      1.0  0.62392  0.01984  0.55768  1.0000
  C   C874      1.0  0.51743  0.04675  0.83576  1.0000
  H   H1022     1.0  0.53047  0.07159  0.79059  1.0000
  C   C875      1.0  0.64792  0.46737  0.99346  1.0000
  C   C876      1.0  0.59731  0.14463  0.66563  1.0000
  C   C877      1.0  0.67395  0.46845  0.95212  1.0000
  H   H1023     1.0  0.59694  0.17775  0.71658  1.0000
  C   C878      1.0  0.58652  0.37306  0.89308  1.0000
  C   C879      1.0  0.68603  0.10631  0.51436  1.0000
  H   H1024     1.0  0.58408  0.00487  0.53293  1.0000
  C   C880      1.0  0.69978  0.01018  0.55777  1.0000
  H   H1025     1.0  0.50694  0.05363  0.52727  1.0000
  H   H1026     1.0  0.61623  0.37152  0.92833  1.0000
  H   H1027     1.0  0.61887  0.04170  0.65722  1.0000
  H   H1028     1.0  0.57090  0.12304  0.51359  1.0000
  C   C881      1.0  0.68598  0.00931  0.63811  1.0000
  C   C882      1.0  0.74851  0.42493  0.86903  1.0000
  C   C883      1.0  0.69182  0.12330  0.80122  1.0000
  H   H1029     1.0  0.60823  0.13892  0.64849  1.0000
  H   H1030     1.0  0.58163  0.29852  0.85134  1.0000
  C   C884      1.0  0.62640  0.03144  0.70805  1.0000
  N   N58       1.0  0.71181  0.36929  0.81942  1.0000
  H   H1031     1.0  0.70784  0.08175  0.85128  1.0000
  C   C885      1.0  0.73939  0.37131  0.81789  1.0000
  C   C886      1.0  0.70128  0.38887  0.80023  1.0000
  C   C887      1.0  0.70757  0.34320  0.81595  1.0000
  C   C888      1.0  0.69338  0.33767  0.79696  1.0000
  H   H1032     1.0  0.67903  0.02070  0.81191  1.0000
  C   C889      1.0  0.59546  0.28012  0.91139  1.0000
  H   H1033     1.0  0.61809  0.33891  0.93929  1.0000
  N   N59       1.0  0.65018  0.04059  0.69463  1.0000
  H   H1034     1.0  0.71598  0.38746  0.98726  1.0000
  H   H1035     1.0  0.60204  0.08087  0.54610  1.0000
  C   C890      1.0  0.71737  0.32236  0.83230  1.0000
  H   H1036     1.0  0.67427  0.01197  0.71487  1.0000
  H   H1037     1.0  0.58142  0.40004  0.99143  1.0000
  H   H1038     1.0  0.67559  0.47323  0.93174  1.0000
  H   H1039     1.0  0.51300  0.26444  0.84658  1.0000
  H   H1040     1.0  0.71582  0.05562  0.74280  1.0000
  H   H1041     1.0  0.60939  0.03950  0.69871  1.0000
  H   H1042     1.0  0.55502  0.16436  0.72581  1.0000
  H   H1043     1.0  0.56557  0.12618  0.65879  1.0000
  C   C891      1.0  0.61490  0.35261  0.92237  1.0000
  H   H1044     1.0  0.62782  0.20087  0.69456  1.0000
  C   C892      1.0  0.60147  0.47209  0.99528  1.0000
  C   C893      1.0  0.55158  0.16802  0.80113  1.0000
  H   H1045     1.0  0.57941  0.04065  0.80806  1.0000
  H   H1046     1.0  0.53643  0.21919  0.82139  1.0000
  H   H1047     1.0  0.74941  0.36593  0.79951  1.0000
  H   H1048     1.0  0.55329  0.02794  0.79843  1.0000
  H   H1049     1.0  0.53869  0.13863  0.69733  1.0000
  H   H1050     1.0  0.56400  0.01759  0.82920  1.0000
  C   C894      1.0  0.65102  0.47451  0.96685  1.0000
  H   H1051     1.0  0.57923  0.07637  0.52606  1.0000
  H   H1052     1.0  0.74850  0.35891  0.83316  1.0000
  H   H1053     1.0  0.63945  0.08696  0.60597  1.0000
  C   C895      1.0  0.63761  0.03224  0.65286  1.0000
  H   H1054     1.0  0.74107  0.10938  0.79025  1.0000
  C   C896      1.0  0.71154  0.07706  0.77485  1.0000
  C   C897      1.0  0.64058  0.18299  0.69291  1.0000
  H   H1055     1.0  0.55089  0.35355  0.92788  1.0000
  C   C898      1.0  0.62587  0.04544  0.83334  1.0000
  H   H1056     1.0  0.69545  0.01933  0.76679  1.0000
  S   S239      1.0  0.55369  0.10288  0.57735  1.0000
  H   H1057     1.0  0.67162  0.15075  0.66832  1.0000
  H   H1058     1.0  0.67895  0.37393  0.84656  1.0000
  N   N60       1.0  0.63290  0.16777  0.67435  1.0000
  H   H1059     1.0  0.59171  0.12676  0.53566  1.0000
  Fe  Fe120     1.0  0.51342  0.09644  0.59662  1.0000
  H   H1060     1.0  0.59857  0.30427  0.93920  1.0000
  H   H1061     1.0  0.66429  0.07598  0.68021  1.0000
  H   H1062     1.0  0.55897  0.08244  0.79807  1.0000
  H   H1063     1.0  0.64942  0.13441  0.65662  1.0000
  H   H1064     1.0  0.64077  0.17221  0.71206  1.0000
  H   H1065     1.0  0.58067  0.33994  0.86498  1.0000
  C   C899      1.0  0.60724  0.15957  0.68136  1.0000
  C   C900      1.0  0.68955  0.31280  0.79449  1.0000
  H   H1066     1.0  0.63578  0.48449  0.95697  1.0000
  C   C901      1.0  0.68836  0.03641  0.80161  1.0000
  C   C902      1.0  0.57760  0.01422  0.51548  1.0000
  H   H1067     1.0  0.68444  0.35221  0.78416  1.0000
  H   H1068     1.0  0.67165  0.12016  0.80108  1.0000
  C   C903      1.0  0.69742  0.03570  0.77612  1.0000
  C   C904      1.0  0.51050  0.15209  0.80989  1.0000
  H   H1069     1.0  0.70228  0.39494  0.84807  1.0000
  C   C905      1.0  0.59069  0.27827  0.88674  1.0000
  H   H1070     1.0  0.70746  0.36243  0.86031  1.0000
  H   H1071     1.0  0.54334  0.05369  0.55222  1.0000
  H   H1072     1.0  0.73674  0.12083  0.82043  1.0000
  C   C906      1.0  0.59954  0.07880  0.52619  1.0000
  C   C907      1.0  0.70294  0.07824  0.80093  1.0000
  C   C908      1.0  0.54149  0.03324  0.55796  1.0000
  N   N61       1.0  0.53326  0.02119  0.53728  1.0000
  H   H1073     1.0  0.52900  0.09330  0.81374  1.0000
  H   H1074     1.0  0.57394  0.06811  0.84066  1.0000
  H   H1075     1.0  0.72043  0.28203  0.84277  1.0000
  C   C909      1.0  0.51941  0.21665  0.83541  1.0000
  H   H1076     1.0  0.67317  0.11456  0.55241  1.0000
  C   C910      1.0  0.71320  0.29760  0.82978  1.0000
  H   H1077     1.0  0.62792  0.04138  0.87353  1.0000
  H   H1078     1.0  0.67814  0.30899  0.78031  1.0000
  H   H1079     1.0  0.59214  0.25991  0.87982  1.0000
  C   C911      1.0  0.70890  0.05604  0.76273  1.0000
  C   C912      1.0  0.69930  0.29284  0.81092  1.0000
  H   H1080     1.0  0.72030  0.09248  0.76353  1.0000
  H   H1081     1.0  0.74334  0.39083  0.81994  1.0000
  S   S240      1.0  0.62578  0.01204  0.83395  1.0000
  H   H1082     1.0  0.55653  0.04677  0.86273  1.0000
  H   H1083     1.0  0.70974  0.38556  0.78069  1.0000
  H   H1084     1.0  0.71211  0.45049  0.95176  1.0000
  H   H1085     1.0  0.62264  0.03654  0.72782  1.0000
  S   S241      1.0  0.51409  0.06462  0.62775  1.0000
  H   H1086     1.0  0.56003  0.02432  0.56380  1.0000
  C   C913      1.0  0.73876  0.37667  0.89178  1.0000
  C   C914      1.0  0.55181  0.02385  0.51435  1.0000
  H   H1087     1.0  0.70503  0.40818  0.80328  1.0000
  C   C915      1.0  0.74298  0.48833  0.81463  1.0000
  H   H1088     1.0  0.66458  0.03967  0.73079  1.0000
  C   C916      1.0  0.67531  0.00728  0.55258  1.0000
  C   C917      1.0  0.69462  0.45573  0.96341  1.0000
  H   H1089     1.0  0.70578  0.10739  0.51622  1.0000
  C   C918      1.0  0.64275  0.02188  0.62981  1.0000
  H   H1090     1.0  0.52378  0.26296  0.81369  1.0000
  H   H1091     1.0  0.70033  0.11540  0.84974  1.0000
  C   C919      1.0  0.64675  0.06856  0.69034  1.0000
  C   C920      1.0  0.65634  0.03043  0.66982  1.0000
  H   H1092     1.0  0.71019  0.47254  0.83479  1.0000
  H   H1093     1.0  0.52771  0.03192  0.57537  1.0000
  C   C921      1.0  0.73466  0.38763  0.99310  1.0000
  H   H1094     1.0  0.69680  0.01814  0.67228  1.0000
  H   H1095     1.0  0.61105  0.06100  0.52130  1.0000
  C   C922      1.0  0.64356  0.39609  0.00122  1.0000
  H   H1096     1.0  0.62745  0.01044  0.70919  1.0000
  H   H1097     1.0  0.63113  0.07563  0.67855  1.0000
  H   H1098     1.0  0.59913  0.48748  0.97957  1.0000
  H   H1099     1.0  0.73525  0.35807  0.90091  1.0000
  H   H1100     1.0  0.51167  0.00634  0.73602  1.0000
  H   H1101     1.0  0.50670  0.23526  0.78933  1.0000
  H   H1102     1.0  0.70864  0.43941  0.99836  1.0000
  C   C923      1.0  0.51056  0.02233  0.83369  1.0000
  C   C924      1.0  0.71781  0.48954  0.82534  1.0000
  H   H1103     1.0  0.62821  0.02326  0.61712  1.0000
  H   H1104     1.0  0.50974  0.03463  0.71402  1.0000
  C   C925      1.0  0.63428  0.10312  0.50968  1.0000
  H   H1105     1.0  0.70791  0.50008  0.89644  1.0000
  H   H1106     1.0  0.75250  0.44350  0.86021  1.0000
  H   H1107     1.0  0.52345  0.00794  0.82496  1.0000
  H   H1108     1.0  0.74328  0.49154  0.87072  1.0000
  N   N62       1.0  0.60723  0.10065  0.50835  1.0000
  C   C926      1.0  0.50702  0.26110  0.82820  1.0000
  C   C927      1.0  0.66673  0.00999  0.62276  1.0000
  H   H1109     1.0  0.75340  0.39007  0.95494  1.0000
  Fe  Fe121     1.0  0.53775  0.95272  0.37332  1.0000
  S   S242      1.0  0.54081  0.91209  0.38906  1.0000
  S   S243      1.0  0.53548  0.98310  0.39896  1.0000
  Fe  Fe122     1.0  0.54324  0.94017  0.31971  1.0000
  S   S244      1.0  0.54814  0.89842  0.33145  1.0000
  S   S245      1.0  0.54336  0.95596  0.27923  1.0000
  Fe  Fe123     1.0  0.51442  0.90763  0.36025  1.0000
  H   H1110     1.0  0.73050  0.79419  0.37479  1.0000
  Fe  Fe124     1.0  0.57410  0.90800  0.35860  1.0000
  S   S246      1.0  0.61253  0.88988  0.37141  1.0000
  C   C928      1.0  0.69217  0.99377  0.45269  1.0000
  S   S247      1.0  0.57121  0.94899  0.34380  1.0000
  Fe  Fe125     1.0  0.59503  0.92631  0.12644  1.0000
  S   S248      1.0  0.57810  0.92819  0.16617  1.0000
  S   S249      1.0  0.60724  0.96351  0.10510  1.0000
  Fe  Fe126     1.0  0.58823  0.86804  0.12891  1.0000
  S   S250      1.0  0.57098  0.86690  0.16946  1.0000
  S   S251      1.0  0.58942  0.83354  0.10610  1.0000
  Fe  Fe127     1.0  0.54977  0.90425  0.15770  1.0000
  H   H1111     1.0  0.65046  0.69788  0.01743  1.0000
  Fe  Fe128     1.0  0.60102  0.89090  0.17463  1.0000
  S   S252      1.0  0.61906  0.88714  0.21074  1.0000
  S   S253      1.0  0.56458  0.90469  0.11662  1.0000
  S   S254      1.0  0.62050  0.88994  0.13495  1.0000
  Fe  Fe129     1.0  0.60045  0.67777  0.10309  1.0000
  S   S255      1.0  0.60579  0.68579  0.06080  1.0000
  S   S256      1.0  0.59163  0.71146  0.12735  1.0000
  Fe  Fe130     1.0  0.60540  0.61791  0.09989  1.0000
  S   S257      1.0  0.61047  0.62375  0.05751  1.0000
  S   S258      1.0  0.60832  0.57706  0.12021  1.0000
  Fe  Fe131     1.0  0.63589  0.65273  0.06237  1.0000
  S   S259      1.0  0.67418  0.65217  0.03991  1.0000
  Fe  Fe132     1.0  0.57987  0.65596  0.06114  1.0000
  S   S260      1.0  0.54466  0.66250  0.04160  1.0000
  S   S261      1.0  0.63255  0.64584  0.10476  1.0000
  S   S262      1.0  0.57281  0.64885  0.10350  1.0000
  C   C929      1.0  0.69605  0.66339  0.05630  1.0000
  C   C930      1.0  0.68784  0.67667  0.07726  1.0000
  H   H1112     1.0  0.66785  0.68162  0.08249  1.0000
  H   H1113     1.0  0.55442  0.55973  0.12599  1.0000
  H   H1114     1.0  0.51489  0.96998  0.49108  1.0000
  C   C931      1.0  0.60717  0.99595  0.11034  1.0000
  H   H1115     1.0  0.58348  0.51483  0.06877  1.0000
  C   C932      1.0  0.51617  0.85193  0.13033  1.0000
  H   H1116     1.0  0.65789  0.91840  0.48882  1.0000
  C   C933      1.0  0.60654  0.54603  0.11137  1.0000
  S   S263      1.0  0.50912  0.94903  0.34718  1.0000
  H   H1117     1.0  0.59001  0.55815  0.07667  1.0000
  C   C934      1.0  0.59041  0.79955  0.11263  1.0000
  C   C935      1.0  0.59364  0.78466  0.09222  1.0000
  C   C936      1.0  0.59445  0.75791  0.09624  1.0000
  C   C937      1.0  0.59181  0.74536  0.12088  1.0000
  C   C938      1.0  0.58806  0.76028  0.14128  1.0000
  C   C939      1.0  0.58747  0.78702  0.13726  1.0000
  H   H1118     1.0  0.59587  0.79391  0.07305  1.0000
  H   H1119     1.0  0.59722  0.74703  0.08022  1.0000
  H   H1120     1.0  0.58579  0.75106  0.16046  1.0000
  H   H1121     1.0  0.58483  0.79791  0.15328  1.0000
  C   C940      1.0  0.61330  0.91168  0.43228  1.0000
  H   H1122     1.0  0.61560  0.95593  0.47200  1.0000
  C   C941      1.0  0.72836  0.51795  0.11290  1.0000
  C   C942      1.0  0.74739  0.79763  0.36092  1.0000
  C   C943      1.0  0.61432  0.52458  0.12777  1.0000
  H   H1123     1.0  0.69841  0.93351  0.40061  1.0000
  H   H1124     1.0  0.53206  0.99646  0.45329  1.0000
  H   H1125     1.0  0.58898  0.94793  0.45846  1.0000
  H   H1126     1.0  0.52231  0.88195  0.24488  1.0000
  H   H1127     1.0  0.52469  0.86861  0.20126  1.0000
  C   C944      1.0  0.64417  0.89829  0.36247  1.0000
  C   C945      1.0  0.65069  0.91491  0.34095  1.0000
  H   H1128     1.0  0.63618  0.92353  0.32928  1.0000
  C   C946      1.0  0.52053  0.60678  0.12713  1.0000
  C   C947      1.0  0.63947  0.95472  0.16834  1.0000
  H   H1129     1.0  0.65892  0.87447  0.39395  1.0000
  H   H1130     1.0  0.54115  0.86443  0.08574  1.0000
  C   C948      1.0  0.71635  0.98900  0.39900  1.0000
  C   C949      1.0  0.68924  0.93020  0.41983  1.0000
  C   C950      1.0  0.56405  0.93504  0.26178  1.0000
  C   C951      1.0  0.58834  0.92680  0.26869  1.0000
  C   C952      1.0  0.60511  0.91085  0.25378  1.0000
  C   C953      1.0  0.59717  0.90242  0.23265  1.0000
  C   C954      1.0  0.57219  0.90902  0.22722  1.0000
  C   C955      1.0  0.55603  0.92613  0.24105  1.0000
  H   H1131     1.0  0.59447  0.93333  0.28502  1.0000
  H   H1132     1.0  0.62432  0.90553  0.25829  1.0000
  H   H1133     1.0  0.56543  0.90137  0.21194  1.0000
  H   H1134     1.0  0.53727  0.93225  0.23579  1.0000
  N   N63       1.0  0.72138  0.58999  0.10542  1.0000
  C   C956      1.0  0.61161  0.97958  0.38806  1.0000
  C   C957      1.0  0.58698  0.97247  0.39272  1.0000
  H   H1135     1.0  0.55150  0.72214  0.09254  1.0000
  C   C958      1.0  0.68893  0.89277  0.37066  1.0000
  C   C959      1.0  0.73968  0.66484  0.06348  1.0000
  H   H1136     1.0  0.62716  0.96629  0.38137  1.0000
  H   H1137     1.0  0.58376  0.95339  0.39069  1.0000
  H   H1138     1.0  0.70329  0.88441  0.38256  1.0000
  H   H1139     1.0  0.53272  0.88553  0.27464  1.0000
  H   H1140     1.0  0.64882  0.95575  0.22959  1.0000
  C   C960      1.0  0.66574  0.92136  0.46924  1.0000
  H   H1141     1.0  0.61751  0.91425  0.49445  1.0000
  C   C961      1.0  0.66356  0.88732  0.37724  1.0000
  H   H1142     1.0  0.61385  0.92482  0.41453  1.0000
  H   H1143     1.0  0.69010  0.60845  0.08562  1.0000
  C   C962      1.0  0.53941  0.59633  0.08583  1.0000
  H   H1144     1.0  0.51426  0.00308  0.26244  1.0000
  H   H1145     1.0  0.54050  0.73773  0.12916  1.0000
  H   H1146     1.0  0.62601  0.96408  0.15497  1.0000
  H   H1147     1.0  0.53093  0.73795  0.07008  1.0000
  C   C963      1.0  0.72670  0.70726  0.00654  1.0000
  C   C964      1.0  0.65060  0.92345  0.44888  1.0000
  H   H1148     1.0  0.60620  0.97335  0.22239  1.0000
  C   C965      1.0  0.53745  0.55132  0.12429  1.0000
  C   C966      1.0  0.51565  0.51369  0.13120  1.0000
  H   H1149     1.0  0.71497  0.84256  0.32336  1.0000
  C   C967      1.0  0.59622  0.54209  0.08954  1.0000
  H   H1150     1.0  0.56070  0.99093  0.07160  1.0000
  C   C968      1.0  0.54808  0.00072  0.08562  1.0000
  H   H1151     1.0  0.74973  0.69460  0.15685  1.0000
  H   H1152     1.0  0.72030  0.99540  0.37842  1.0000
  S   S264      1.0  0.72786  0.91469  0.33820  1.0000
  H   H1153     1.0  0.75142  0.58209  0.12982  1.0000
  H   H1154     1.0  0.50814  0.68252  0.00831  1.0000
  C   C969      1.0  0.69562  0.90877  0.34869  1.0000
  H   H1155     1.0  0.52051  0.62744  0.12148  1.0000
  H   H1156     1.0  0.61488  0.96090  0.43837  1.0000
  C   C970      1.0  0.73327  0.59428  0.12789  1.0000
  H   H1157     1.0  0.67302  0.95165  0.20335  1.0000
  H   H1158     1.0  0.74627  0.97630  0.49564  1.0000
  H   H1159     1.0  0.65307  0.93176  0.40746  1.0000
  C   C971      1.0  0.52103  0.74590  0.12965  1.0000
  N   N64       1.0  0.51743  0.59317  0.10543  1.0000
  H   H1160     1.0  0.67656  0.99757  0.44127  1.0000
  N   N65       1.0  0.63642  0.96680  0.19226  1.0000
  C   C972      1.0  0.68966  0.55767  0.10792  1.0000
  C   C973      1.0  0.67621  0.91986  0.33401  1.0000
  C   C974      1.0  0.52204  0.81780  0.08948  1.0000
  H   H1161     1.0  0.55378  0.51469  0.13947  1.0000
  H   H1162     1.0  0.68795  0.71445  0.01988  1.0000
  H   H1163     1.0  0.66771  0.98095  0.48575  1.0000
  H   H1164     1.0  0.51904  0.86899  0.13903  1.0000
  C   C975      1.0  0.69185  0.92300  0.46479  1.0000
  H   H1165     1.0  0.73794  0.61414  0.12674  1.0000
  H   H1166     1.0  0.63551  0.93456  0.17180  1.0000
  H   H1167     1.0  0.59497  0.90265  0.47910  1.0000
  C   C976      1.0  0.70635  0.97801  0.49350  1.0000
  H   H1168     1.0  0.53523  0.84115  0.12757  1.0000
  H   H1169     1.0  0.74861  0.86440  0.31056  1.0000
  C   C977      1.0  0.52824  0.98882  0.09985  1.0000
  H   H1170     1.0  0.59685  0.97930  0.19088  1.0000
  C   C978      1.0  0.68425  0.53257  0.11034  1.0000
  H   H1171     1.0  0.68095  0.93232  0.31702  1.0000
  H   H1172     1.0  0.50488  0.60398  0.14270  1.0000
  N   N66       1.0  0.51201  0.71508  0.10093  1.0000
  C   C979      1.0  0.69919  0.60936  0.10307  1.0000
  C   C980      1.0  0.61541  0.90568  0.47706  1.0000
  H   H1173     1.0  0.72387  0.92833  0.43691  1.0000
  H   H1174     1.0  0.73559  0.86147  0.35339  1.0000
  C   C981      1.0  0.72199  0.65803  0.04906  1.0000
  C   C982      1.0  0.50593  0.86783  0.19623  1.0000
  C   C983      1.0  0.51859  0.69225  0.11841  1.0000
  H   H1175     1.0  0.69909  0.69279  0.10851  1.0000
  H   H1176     1.0  0.53973  0.61631  0.07722  1.0000
  H   H1177     1.0  0.53872  0.60022  0.13516  1.0000
  H   H1178     1.0  0.72785  0.97046  0.40291  1.0000
  H   H1179     1.0  0.60344  0.94759  0.20527  1.0000
  H   H1180     1.0  0.52711  0.77233  0.15494  1.0000
  C   C984      1.0  0.73963  0.59439  0.08248  1.0000
  H   H1181     1.0  0.52633  0.97003  0.09568  1.0000
  C   C985      1.0  0.56651  0.99017  0.39926  1.0000
  C   C986      1.0  0.64310  0.99313  0.18869  1.0000
  N   N67       1.0  0.62286  0.92204  0.45339  1.0000
  H   H1182     1.0  0.53893  0.58461  0.07016  1.0000
  H   H1183     1.0  0.59249  0.99853  0.33423  1.0000
  C   C987      1.0  0.70555  0.68321  0.09185  1.0000
  H   H1184     1.0  0.53607  0.78311  0.07388  1.0000
  C   C988      1.0  0.72078  0.82337  0.33269  1.0000
  H   H1185     1.0  0.51664  0.97095  0.16194  1.0000
  H   H1186     1.0  0.52258  0.89272  0.09433  1.0000
  C   C989      1.0  0.71482  0.56366  0.10802  1.0000
  C   C990      1.0  0.51950  0.79628  0.07817  1.0000
  C   C991      1.0  0.53716  0.52553  0.13234  1.0000
  C   C992      1.0  0.71720  0.99794  0.44208  1.0000
  H   H1187     1.0  0.64904  0.93036  0.21144  1.0000
  H   H1188     1.0  0.67369  0.57196  0.10602  1.0000
  C   C993      1.0  0.60999  0.94783  0.45564  1.0000
  C   C994      1.0  0.65256  0.95062  0.20990  1.0000
  C   C995      1.0  0.51201  0.99900  0.45993  1.0000
  H   H1189     1.0  0.62207  0.52718  0.14487  1.0000
  H   H1190     1.0  0.51451  0.87729  0.06907  1.0000
  C   C996      1.0  0.59280  0.51733  0.08491  1.0000
  C   C997      1.0  0.68689  0.98415  0.47808  1.0000
  H   H1191     1.0  0.62443  0.89349  0.42791  1.0000
  C   C998      1.0  0.73401  0.54299  0.11055  1.0000
  H   H1192     1.0  0.74243  0.70689  0.18674  1.0000
  H   H1193     1.0  0.59307  0.90812  0.43662  1.0000
  H   H1194     1.0  0.62665  0.88678  0.47752  1.0000
  H   H1195     1.0  0.54083  0.82054  0.09325  1.0000
  H   H1196     1.0  0.72352  0.83901  0.37806  1.0000
  H   H1197     1.0  0.72840  0.64837  0.03243  1.0000
  H   H1198     1.0  0.74459  0.61415  0.07971  1.0000
  C   C999      1.0  0.66310  0.92876  0.42404  1.0000
  C   C1000     1.0  0.73111  0.98171  0.48370  1.0000
  C   C1001     1.0  0.52141  0.87394  0.08811  1.0000
  C   C1002     1.0  0.73658  0.99166  0.45844  1.0000
  H   H1199     1.0  0.70420  0.81827  0.34632  1.0000
  C   C1003     1.0  0.73146  0.67661  0.08541  1.0000
  H   H1200     1.0  0.64683  0.99883  0.14699  1.0000
  C   C1004     1.0  0.60958  0.96684  0.20320  1.0000
  C   C1005     1.0  0.51960  0.87576  0.26553  1.0000
  C   C1006     1.0  0.54833  0.67326  0.00899  1.0000
  H   H1201     1.0  0.53538  0.69409  0.12819  1.0000
  C   C1007     1.0  0.70360  0.92723  0.44016  1.0000
  C   C1008     1.0  0.51210  0.00087  0.11907  1.0000
  C   C1009     1.0  0.70349  0.51277  0.11290  1.0000
  H   H1202     1.0  0.70476  0.62884  0.10174  1.0000
  H   H1203     1.0  0.72374  0.81005  0.31794  1.0000
  H   H1204     1.0  0.65910  0.95492  0.15861  1.0000
  H   H1205     1.0  0.52611  0.85517  0.26779  1.0000
  H   H1206     1.0  0.64020  0.99726  0.22909  1.0000
  H   H1207     1.0  0.70312  0.92103  0.48056  1.0000
  H   H1208     1.0  0.73160  0.59102  0.06515  1.0000
  H   H1209     1.0  0.55786  0.59096  0.09362  1.0000
  H   H1210     1.0  0.56675  0.99860  0.29880  1.0000
  H   H1211     1.0  0.73271  0.71191  0.02387  1.0000
  S   S265      1.0  0.50906  0.91535  0.17102  1.0000
  C   C1010     1.0  0.53471  0.72031  0.08288  1.0000
  H   H1212     1.0  0.69601  0.98573  0.40221  1.0000
  H   H1213     1.0  0.53602  0.91444  0.49064  1.0000
  H   H1214     1.0  0.72045  0.59044  0.14565  1.0000
  H   H1215     1.0  0.66493  0.52848  0.11020  1.0000
  C   C1011     1.0  0.73970  0.84221  0.36324  1.0000
  C   C1012     1.0  0.51343  0.76552  0.14481  1.0000
  H   H1216     1.0  0.68472  0.60750  0.11987  1.0000
  H   H1217     1.0  0.54079  0.70474  0.07074  1.0000
  H   H1218     1.0  0.60469  0.50581  0.02696  1.0000
  H   H1219     1.0  0.58511  0.99526  0.14701  1.0000
  C   C1013     1.0  0.51633  0.56598  0.11427  1.0000
  S   S266      1.0  0.75311  0.68181  0.10574  1.0000
  H   H1220     1.0  0.52318  0.67522  0.10811  1.0000
  H   H1221     1.0  0.75065  0.78187  0.34880  1.0000
  N   N68       1.0  0.74392  0.82259  0.34553  1.0000
  H   H1222     1.0  0.75360  0.54607  0.11062  1.0000
  N   N69       1.0  0.50443  0.85881  0.10637  1.0000
  Fe  Fe133     1.0  0.61383  0.92241  0.81086  1.0000
  S   S267      1.0  0.59989  0.92933  0.77238  1.0000
  S   S268      1.0  0.61499  0.88347  0.83547  1.0000
  Fe  Fe134     1.0  0.61886  0.98058  0.81104  1.0000
  C   C1014     1.0  0.72604  0.84797  0.61386  1.0000
  H   H1223     1.0  0.70234  0.96997  0.51300  1.0000
  Fe  Fe135     1.0  0.57676  0.96362  0.78637  1.0000
  S   S269      1.0  0.53662  0.97790  0.78040  1.0000
  Fe  Fe136     1.0  0.63033  0.95548  0.76241  1.0000
  S   S270      1.0  0.65339  0.96151  0.72441  1.0000
  S   S271      1.0  0.58808  0.95549  0.82563  1.0000
  S   S272      1.0  0.64613  0.94698  0.79997  1.0000
  Fe  Fe137     1.0  0.59801  0.93563  0.54793  1.0000
  S   S273      1.0  0.59007  0.95871  0.58073  1.0000
  S   S274      1.0  0.56584  0.92920  0.52518  1.0000
  Fe  Fe138     1.0  0.65748  0.93053  0.55140  1.0000
  S   S275      1.0  0.65201  0.95283  0.58462  1.0000
  S   S276      1.0  0.69821  0.91656  0.53554  1.0000
  Fe  Fe139     1.0  0.61916  0.93077  0.59859  1.0000
  S   S277      1.0  0.61183  0.91264  0.63855  1.0000
  Fe  Fe140     1.0  0.62378  0.97796  0.56277  1.0000
  C   C1015     1.0  0.73043  0.68747  0.82597  1.0000
  S   S278      1.0  0.62590  0.90621  0.56672  1.0000
  S   S279      1.0  0.63048  0.95705  0.52859  1.0000
  Fe  Fe141     1.0  0.61418  0.72732  0.85073  1.0000
  S   S280      1.0  0.61759  0.72515  0.89238  1.0000
  S   S281      1.0  0.61352  0.76500  0.82406  1.0000
  Fe  Fe142     1.0  0.61372  0.66753  0.85432  1.0000
  S   S282      1.0  0.61640  0.66269  0.89608  1.0000
  S   S283      1.0  0.61313  0.63308  0.83263  1.0000
  Fe  Fe143     1.0  0.58854  0.69745  0.89747  1.0000
  S   S284      1.0  0.55259  0.70107  0.92428  1.0000
  Fe  Fe144     1.0  0.64497  0.69061  0.88635  1.0000
  S   S285      1.0  0.68231  0.68291  0.90204  1.0000
  S   S286      1.0  0.58343  0.70096  0.85602  1.0000
  S   S287      1.0  0.64402  0.69420  0.84436  1.0000
  C   C1016     1.0  0.55197  0.69027  0.95681  1.0000
  H   H1224     1.0  0.51417  0.86724  0.78662  1.0000
  C   C1017     1.0  0.52838  0.69087  0.97147  1.0000
  C   C1018     1.0  0.67850  0.55867  0.90333  1.0000
  H   H1225     1.0  0.71496  0.99515  0.55509  1.0000
  C   C1019     1.0  0.52308  0.93418  0.65752  1.0000
  C   C1020     1.0  0.69114  0.64460  0.87145  1.0000
  C   C1021     1.0  0.70080  0.65772  0.88848  1.0000
  H   H1226     1.0  0.55893  0.90227  0.83987  1.0000
  H   H1227     1.0  0.67157  0.64872  0.86786  1.0000
  H   H1228     1.0  0.73352  0.66174  0.90674  1.0000
  C   C1022     1.0  0.61929  0.58340  0.85874  1.0000
  C   C1023     1.0  0.61328  0.59931  0.83677  1.0000
  C   C1024     1.0  0.60781  0.58805  0.81613  1.0000
  H   H1229     1.0  0.62353  0.59174  0.87489  1.0000
  H   H1230     1.0  0.60308  0.59987  0.79911  1.0000
  C   C1025     1.0  0.61579  0.85047  0.83160  1.0000
  C   C1026     1.0  0.61438  0.83262  0.85332  1.0000
  C   C1027     1.0  0.61380  0.80655  0.85147  1.0000
  C   C1028     1.0  0.61449  0.79776  0.82778  1.0000
  C   C1029     1.0  0.61604  0.81559  0.80604  1.0000
  C   C1030     1.0  0.61684  0.84163  0.80788  1.0000
  H   H1231     1.0  0.61360  0.83902  0.87182  1.0000
  H   H1232     1.0  0.61266  0.79328  0.86843  1.0000
  H   H1233     1.0  0.61677  0.80917  0.78756  1.0000
  H   H1234     1.0  0.61825  0.85484  0.79091  1.0000
  H   H1235     1.0  0.71052  0.83643  0.61703  1.0000
  C   C1031     1.0  0.68362  0.77427  0.82066  1.0000
  C   C1032     1.0  0.74189  0.63387  0.88032  1.0000
  H   H1236     1.0  0.51536  0.96147  0.62572  1.0000
  C   C1033     1.0  0.72404  0.55950  0.89838  1.0000
  C   C1034     1.0  0.64147  0.94803  0.70071  1.0000
  C   C1035     1.0  0.64446  0.95925  0.67563  1.0000
  C   C1036     1.0  0.63486  0.94891  0.65648  1.0000
  C   C1037     1.0  0.62277  0.92689  0.66227  1.0000
  C   C1038     1.0  0.61983  0.91562  0.68734  1.0000
  C   C1039     1.0  0.62910  0.92621  0.70654  1.0000
  H   H1237     1.0  0.65407  0.97603  0.67109  1.0000
  H   H1238     1.0  0.63695  0.95796  0.63728  1.0000
  H   H1239     1.0  0.61059  0.89851  0.69191  1.0000
  H   H1240     1.0  0.62735  0.91700  0.72569  1.0000
  H   H1241     1.0  0.57462  0.88361  0.80480  1.0000
  C   C1040     1.0  0.53236  0.92619  0.52803  1.0000
  H   H1242     1.0  0.66550  0.52253  0.90200  1.0000
  H   H1243     1.0  0.52149  0.93722  0.56567  1.0000
  H   H1244     1.0  0.51918  0.68711  0.88060  1.0000
  C   C1041     1.0  0.74646  0.70736  0.85784  1.0000
  C   C1042     1.0  0.73081  0.93818  0.56201  1.0000
  C   C1043     1.0  0.72847  0.92219  0.54382  1.0000
  H   H1245     1.0  0.67174  0.99011  0.54571  1.0000
  H   H1246     1.0  0.71400  0.94825  0.57096  1.0000
  C   C1044     1.0  0.68188  0.53282  0.90116  1.0000
  N   N70       1.0  0.69628  0.88608  0.62503  1.0000
  H   H1247     1.0  0.66133  0.54236  0.80696  1.0000
  H   H1248     1.0  0.70742  0.91573  0.64371  1.0000
  H   H1249     1.0  0.66040  0.75379  0.84978  1.0000
  C   C1045     1.0  0.72205  0.87408  0.61721  1.0000
  H   H1250     1.0  0.51054  0.71650  0.89434  1.0000
  H   H1251     1.0  0.74345  0.75528  0.79722  1.0000
  C   C1046     1.0  0.51480  0.93160  0.54919  1.0000
  H   H1252     1.0  0.51517  0.71619  0.86075  1.0000
  H   H1253     1.0  0.54009  0.97734  0.71907  1.0000
  C   C1047     1.0  0.67960  0.88454  0.60529  1.0000
  H   H1254     1.0  0.51744  0.99105  0.56267  1.0000
  C   C1048     1.0  0.68554  0.87282  0.64930  1.0000
  H   H1255     1.0  0.65956  0.56852  0.90582  1.0000
  H   H1256     1.0  0.67106  0.71738  0.93819  1.0000
  C   C1049     1.0  0.53890  0.90691  0.83828  1.0000
  C   C1050     1.0  0.69731  0.73335  0.84196  1.0000
  H   H1257     1.0  0.74439  0.67039  0.82847  1.0000
  C   C1051     1.0  0.56964  0.98143  0.65929  1.0000
  H   H1258     1.0  0.51138  0.69803  0.96279  1.0000
  C   C1052     1.0  0.52541  0.89161  0.82608  1.0000
  C   C1053     1.0  0.57216  0.67297  0.99456  1.0000
  H   H1259     1.0  0.67057  0.00168  0.60512  1.0000
  C   C1054     1.0  0.65979  0.72249  0.95605  1.0000
  C   C1055     1.0  0.65903  0.67869  0.97300  1.0000
  C   C1056     1.0  0.75288  0.51018  0.80277  1.0000
  H   H1260     1.0  0.54330  0.93567  0.65496  1.0000
  H   H1261     1.0  0.66906  0.78999  0.81800  1.0000
  H   H1262     1.0  0.55896  0.83319  0.82895  1.0000
  N   N71       1.0  0.53857  0.86865  0.81549  1.0000
  H   H1263     1.0  0.56279  0.85900  0.84551  1.0000
  H   H1264     1.0  0.70646  0.68920  0.94489  1.0000
  H   H1265     1.0  0.67749  0.86474  0.60259  1.0000
  H   H1266     1.0  0.66938  0.67252  0.95513  1.0000
  C   C1057     1.0  0.60816  0.56173  0.81709  1.0000
  H   H1267     1.0  0.66013  0.89382  0.61023  1.0000
  N   N72       1.0  0.66519  0.70373  0.97802  1.0000
  H   H1268     1.0  0.69249  0.71791  0.85603  1.0000
  C   C1058     1.0  0.61992  0.55659  0.85961  1.0000
  C   C1059     1.0  0.52053  0.91746  0.74942  1.0000
  C   C1060     1.0  0.69952  0.57192  0.90204  1.0000
  H   H1269     1.0  0.72528  0.68934  0.80626  1.0000
  C   C1061     1.0  0.50735  0.94863  0.64108  1.0000
  H   H1270     1.0  0.56959  0.85894  0.78726  1.0000
  C   C1062     1.0  0.71139  0.69434  0.96237  1.0000
  H   H1271     1.0  0.58774  0.97573  0.64893  1.0000
  C   C1063     1.0  0.70708  0.62663  0.85831  1.0000
  H   H1272     1.0  0.67961  0.55209  0.77776  1.0000
  C   C1064     1.0  0.54883  0.85077  0.83612  1.0000
  C   C1065     1.0  0.52076  0.95435  0.77148  1.0000
  H   H1273     1.0  0.63854  0.67879  0.97116  1.0000
  C   C1066     1.0  0.52197  0.85505  0.80288  1.0000
  H   H1274     1.0  0.74953  0.89787  0.51753  1.0000
  H   H1275     1.0  0.68271  0.85296  0.64761  1.0000
  C   C1067     1.0  0.69237  0.70223  0.98166  1.0000
  S   S288      1.0  0.61565  0.51226  0.83670  1.0000
  C   C1068     1.0  0.50735  0.70570  0.87874  1.0000
  C   C1069     1.0  0.57396  0.68131  0.96835  1.0000
  C   C1070     1.0  0.53360  0.93610  0.75657  1.0000
  H   H1276     1.0  0.68727  0.89390  0.58663  1.0000
  H   H1277     1.0  0.74261  0.90769  0.61374  1.0000
  H   H1278     1.0  0.69981  0.61729  0.84444  1.0000
  C   C1071     1.0  0.69555  0.91315  0.62877  1.0000
  H   H1279     1.0  0.69683  0.59209  0.90366  1.0000
  C   C1072     1.0  0.72819  0.53310  0.89616  1.0000
  H   H1280     1.0  0.62462  0.54451  0.87646  1.0000
  H   H1281     1.0  0.55349  0.93657  0.75015  1.0000
  N   N73       1.0  0.74057  0.71061  0.83118  1.0000
  H   H1282     1.0  0.71315  0.68336  0.83887  1.0000
  C   C1073     1.0  0.72578  0.75395  0.80923  1.0000
  H   H1283     1.0  0.67600  0.92144  0.63486  1.0000
  H   H1284     1.0  0.54994  0.98401  0.55113  1.0000
  C   C1074     1.0  0.70706  0.77436  0.80605  1.0000
  H   H1285     1.0  0.66434  0.74154  0.95901  1.0000
  H   H1286     1.0  0.71472  0.57884  0.77794  1.0000
  H   H1287     1.0  0.55327  0.99905  0.62599  1.0000
  H   H1288     1.0  0.53345  0.84528  0.85106  1.0000
  C   C1075     1.0  0.51284  0.91745  0.67702  1.0000
  C   C1076     1.0  0.55987  0.87559  0.79640  1.0000
  H   H1289     1.0  0.52511  0.90602  0.68968  1.0000
  H   H1290     1.0  0.74674  0.54963  0.79245  1.0000
  N   N74       1.0  0.69506  0.55943  0.81103  1.0000
  C   C1077     1.0  0.70774  0.58143  0.79803  1.0000
  C   C1078     1.0  0.67321  0.55711  0.79728  1.0000
  C   C1079     1.0  0.68542  0.56534  0.83707  1.0000
  C   C1080     1.0  0.71186  0.53530  0.81218  1.0000
  C   C1081     1.0  0.64771  0.71144  0.00025  1.0000
  S   S289      1.0  0.60567  0.99033  0.77284  1.0000
  C   C1082     1.0  0.54223  0.98252  0.69881  1.0000
  H   H1291     1.0  0.55316  0.88996  0.78126  1.0000
  C   C1083     1.0  0.61433  0.54561  0.83860  1.0000
  H   H1292     1.0  0.69811  0.87259  0.66442  1.0000
  H   H1293     1.0  0.69455  0.59923  0.79770  1.0000
  H   H1294     1.0  0.53247  0.83796  0.79507  1.0000
  H   H1295     1.0  0.59222  0.68079  0.95707  1.0000
  H   H1296     1.0  0.66031  0.57506  0.79573  1.0000
  C   C1084     1.0  0.72601  0.65186  0.89338  1.0000
  H   H1297     1.0  0.70135  0.56694  0.84810  1.0000
  H   H1298     1.0  0.67288  0.58356  0.83696  1.0000
  H   H1299     1.0  0.67385  0.55079  0.84761  1.0000
  H   H1300     1.0  0.62748  0.71193  0.99704  1.0000
  C   C1085     1.0  0.72139  0.73270  0.82733  1.0000
  H   H1301     1.0  0.60371  0.55377  0.80077  1.0000
  C   C1086     1.0  0.52655  0.68219  0.99732  1.0000
  C   C1087     1.0  0.56569  0.97540  0.68545  1.0000
  H   H1302     1.0  0.71065  0.79035  0.79209  1.0000
  H   H1303     1.0  0.53050  0.90332  0.73797  1.0000
  H   H1304     1.0  0.68293  0.51247  0.83255  1.0000
  C   C1088     1.0  0.55017  0.99450  0.64639  1.0000
  H   H1305     1.0  0.66652  0.88215  0.65611  1.0000
  H   H1306     1.0  0.72964  0.70356  0.87160  1.0000
  C   C1089     1.0  0.73260  0.62163  0.86240  1.0000
  H   H1307     1.0  0.66400  0.66383  0.98856  1.0000
  H   H1308     1.0  0.75364  0.72456  0.86270  1.0000
  C   C1090     1.0  0.67879  0.75384  0.83861  1.0000
  H   H1309     1.0  0.63954  0.72409  0.95258  1.0000
  H   H1310     1.0  0.58086  0.96499  0.69542  1.0000
  H   H1311     1.0  0.70187  0.92468  0.61088  1.0000
  H   H1312     1.0  0.65039  0.73067  0.00449  1.0000
  C   C1091     1.0  0.70085  0.70870  0.00394  1.0000
  C   C1092     1.0  0.70241  0.51260  0.82412  1.0000
  H   H1313     1.0  0.73938  0.57112  0.89713  1.0000
  H   H1314     1.0  0.72389  0.58489  0.80793  1.0000
  C   C1093     1.0  0.73771  0.53342  0.80161  1.0000
  C   C1094     1.0  0.52302  0.91879  0.50709  1.0000
  C   C1095     1.0  0.75087  0.91005  0.53186  1.0000
  C   C1096     1.0  0.75010  0.83629  0.60602  1.0000
  C   C1097     1.0  0.70630  0.52017  0.89778  1.0000
  C   C1098     1.0  0.53166  0.99398  0.54578  1.0000
  S   S290      1.0  0.75319  0.60115  0.84424  1.0000
  C   C1099     1.0  0.52657  0.00147  0.65953  1.0000
  C   C1100     1.0  0.74364  0.88774  0.61206  1.0000
  C   C1101     1.0  0.74479  0.69923  0.98732  1.0000
  C   C1102     1.0  0.52190  0.99582  0.68627  1.0000
  H   H1315     1.0  0.62431  0.51372  0.99788  1.0000
  H   H1316     1.0  0.52624  0.98407  0.53055  1.0000
  C   C1103     1.0  0.73715  0.69280  0.96525  1.0000
  H   H1317     1.0  0.75129  0.68650  0.95029  1.0000
  H   H1318     1.0  0.70490  0.00107  0.63183  1.0000
  H   H1319     1.0  0.58907  0.66599  0.00348  1.0000
  H   H1320     1.0  0.75274  0.81632  0.60358  1.0000
  H   H1321     1.0  0.50591  0.84842  0.81633  1.0000
  C   C1104     1.0  0.52687  0.92848  0.84872  1.0000
  H   H1322     1.0  0.53763  0.93988  0.85783  1.0000
  N   N75       1.0  0.75383  0.51912  0.89279  1.0000
  H   H1323     1.0  0.75385  0.51972  0.85271  1.0000
  Fe  Fe145     1.0  0.93796  0.35405  0.34927  1.0000
  S   S291      1.0  0.90133  0.37942  0.35256  1.0000
  S   S292      1.0  0.97559  0.36864  0.34931  1.0000
  Fe  Fe146     1.0  0.91160  0.30764  0.35094  1.0000
  S   S293      1.0  0.87300  0.32919  0.35496  1.0000
  S   S294      1.0  0.91870  0.26616  0.34703  1.0000
  Fe  Fe147     1.0  0.88943  0.35698  0.32348  1.0000
  S   S295      1.0  0.86798  0.37292  0.28869  1.0000
  Fe  Fe148     1.0  0.88893  0.34913  0.38343  1.0000
  S   S296      1.0  0.86738  0.35740  0.42211  1.0000
  S   S297      1.0  0.92721  0.33401  0.31844  1.0000
  S   S298      1.0  0.92628  0.32520  0.38120  1.0000
  Fe  Fe149     1.0  0.91389  0.11219  0.40914  1.0000
  S   S299      1.0  0.90631  0.13048  0.44514  1.0000
  S   S300      1.0  0.95501  0.11021  0.38889  1.0000
  Fe  Fe150     1.0  0.85517  0.10686  0.40952  1.0000
  S   S301      1.0  0.84539  0.12559  0.44503  1.0000
  S   S302      1.0  0.82271  0.09108  0.39369  1.0000
  Fe  Fe151     1.0  0.87330  0.15270  0.42808  1.0000
  S   S303      1.0  0.86557  0.19379  0.43459  1.0000
  Fe  Fe152     1.0  0.87932  0.10148  0.45790  1.0000
  C   C1105     1.0  0.84933  0.02881  0.46275  1.0000
  S   S304      1.0  0.88128  0.13598  0.39103  1.0000
  S   S305      1.0  0.88872  0.08103  0.42335  1.0000
  Fe  Fe153     1.0  0.87013  0.43854  0.09456  1.0000
  S   S306      1.0  0.88799  0.39829  0.09467  1.0000
  S   S307      1.0  0.88806  0.47486  0.08697  1.0000
  Fe  Fe154     1.0  0.81799  0.42353  0.10994  1.0000
  S   S308      1.0  0.83094  0.38192  0.11153  1.0000
  S   S309      1.0  0.77944  0.44526  0.11498  1.0000
  Fe  Fe155     1.0  0.86294  0.39107  0.13198  1.0000
  S   S310      1.0  0.87995  0.36878  0.16720  1.0000
  Fe  Fe156     1.0  0.85476  0.39256  0.07430  1.0000
  S   S311      1.0  0.85369  0.37136  0.03942  1.0000
  S   S312      1.0  0.84781  0.43182  0.13245  1.0000
  S   S313      1.0  0.83922  0.43318  0.07195  1.0000
  C   C1106     1.0  0.81126  0.02981  0.44323  1.0000
  H   H1324     1.0  0.94966  0.04733  0.42437  1.0000
  H   H1325     1.0  0.85979  0.27334  0.33866  1.0000
  C   C1107     1.0  0.84707  0.22279  0.29752  1.0000
  N   N76       1.0  0.93450  0.35048  0.02058  1.0000
  H   H1326     1.0  0.94185  0.33563  0.05868  1.0000
  H   H1327     1.0  0.84917  0.25048  0.26576  1.0000
  H   H1328     1.0  0.90296  0.39717  0.42942  1.0000
  H   H1329     1.0  0.79107  0.03737  0.44251  1.0000
  H   H1330     1.0  0.83340  0.47822  0.09424  1.0000
  H   H1331     1.0  0.82886  0.31538  0.48406  1.0000
  C   C1108     1.0  0.77864  0.40437  0.05981  1.0000
  H   H1332     1.0  0.79799  0.40470  0.04947  1.0000
  H   H1333     1.0  0.77721  0.39524  0.14192  1.0000
  H   H1334     1.0  0.96933  0.16379  0.41964  1.0000
  C   C1109     1.0  0.77712  0.10671  0.42277  1.0000
  C   C1110     1.0  0.78884  0.09479  0.40178  1.0000
  C   C1111     1.0  0.95124  0.22294  0.45556  1.0000
  C   C1112     1.0  0.94198  0.38509  0.43427  1.0000
  H   H1335     1.0  0.81275  0.00888  0.44335  1.0000
  H   H1336     1.0  0.78859  0.11457  0.43441  1.0000
  H   H1337     1.0  0.96784  0.23273  0.35465  1.0000
  N   N77       1.0  0.76576  0.38294  0.05445  1.0000
  C   C1113     1.0  0.95458  0.38900  0.47540  1.0000
  H   H1338     1.0  0.92373  0.07267  0.46611  1.0000
  C   C1114     1.0  0.85272  0.23536  0.33796  1.0000
  C   C1115     1.0  0.87228  0.37210  0.25479  1.0000
  C   C1116     1.0  0.85345  0.38480  0.24013  1.0000
  C   C1117     1.0  0.85560  0.38436  0.21347  1.0000
  C   C1118     1.0  0.87661  0.37104  0.20083  1.0000
  C   C1119     1.0  0.89537  0.35821  0.21552  1.0000
  C   C1120     1.0  0.89339  0.35889  0.24213  1.0000
  H   H1339     1.0  0.83696  0.39501  0.24951  1.0000
  H   H1340     1.0  0.84079  0.39402  0.20271  1.0000
  H   H1341     1.0  0.91171  0.34775  0.20616  1.0000
  H   H1342     1.0  0.90824  0.34917  0.25279  1.0000
  C   C1121     1.0  0.86871  0.35630  0.45558  1.0000
  H   H1343     1.0  0.94643  0.37944  0.41528  1.0000
  C   C1122     1.0  0.97082  0.17902  0.45546  1.0000
  H   H1344     1.0  0.97800  0.08438  0.43354  1.0000
  H   H1345     1.0  0.97949  0.37388  0.44468  1.0000
  C   C1123     1.0  0.96050  0.38196  0.45084  1.0000
  H   H1346     1.0  0.83119  0.37583  0.46040  1.0000
  H   H1347     1.0  0.94772  0.20182  0.39907  1.0000
  H   H1348     1.0  0.90608  0.33651  0.45780  1.0000
  C   C1124     1.0  0.90388  0.24652  0.37165  1.0000
  C   C1125     1.0  0.88849  0.25651  0.39195  1.0000
  C   C1126     1.0  0.87667  0.24023  0.41126  1.0000
  C   C1127     1.0  0.88039  0.21400  0.41036  1.0000
  C   C1128     1.0  0.89594  0.20414  0.39014  1.0000
  C   C1129     1.0  0.90754  0.22036  0.37076  1.0000
  H   H1349     1.0  0.88551  0.27674  0.39266  1.0000
  H   H1350     1.0  0.86444  0.24795  0.42675  1.0000
  H   H1351     1.0  0.89918  0.18398  0.38943  1.0000
  H   H1352     1.0  0.91936  0.21258  0.35504  1.0000
  C   C1130     1.0  0.82855  0.46941  0.18128  1.0000
  H   H1353     1.0  0.79810  0.07268  0.46494  1.0000
  C   C1131     1.0  0.84734  0.36719  0.46985  1.0000
  N   N78       1.0  0.85847  0.29266  0.28868  1.0000
  H   H1354     1.0  0.94623  0.23976  0.46518  1.0000
  H   H1355     1.0  0.80067  0.48092  0.14117  1.0000
  H   H1356     1.0  0.95107  0.13701  0.48040  1.0000
  H   H1357     1.0  0.96099  0.31978  0.03426  1.0000
  H   H1358     1.0  0.88303  0.48997  0.14845  1.0000
  H   H1359     1.0  0.97778  0.32023  0.32968  1.0000
  C   C1132     1.0  0.98582  0.10906  0.39949  1.0000
  H   H1360     1.0  0.97986  0.11622  0.47622  1.0000
  C   C1133     1.0  0.99221  0.09451  0.42181  1.0000
  H   H1361     1.0  0.78114  0.40333  0.08027  1.0000
  H   H1362     1.0  0.90469  0.25402  0.49529  1.0000
  C   C1134     1.0  0.85604  0.25981  0.32658  1.0000
  H   H1363     1.0  0.99201  0.04930  0.36172  1.0000
  H   H1364     1.0  0.96835  0.06967  0.47531  1.0000
  C   C1135     1.0  0.88944  0.34512  0.46845  1.0000
  H   H1365     1.0  0.97411  0.02161  0.33971  1.0000
  C   C1136     1.0  0.85768  0.15874  0.50031  1.0000
  C   C1137     1.0  0.99654  0.32620  0.32717  1.0000
  C   C1138     1.0  0.85995  0.29242  0.46609  1.0000
  C   C1139     1.0  0.85494  0.26655  0.30018  1.0000
  C   C1140     1.0  0.78147  0.03131  0.49475  1.0000
  H   H1366     1.0  0.85382  0.23067  0.35814  1.0000
  C   C1141     1.0  0.81822  0.06467  0.46504  1.0000
  H   H1367     1.0  0.83776  0.29348  0.25642  1.0000
  C   C1142     1.0  0.92785  0.07387  0.48515  1.0000
  C   C1143     1.0  0.88849  0.34509  0.49523  1.0000
  H   H1368     1.0  0.96953  0.38606  0.48763  1.0000
  H   H1369     1.0  0.79353  0.47207  0.22212  1.0000
  C   C1144     1.0  0.96949  0.13416  0.46834  1.0000
  H   H1370     1.0  0.96457  0.27406  0.37111  1.0000
  C   C1145     1.0  0.83880  0.31070  0.30083  1.0000
  C   C1146     1.0  0.92979  0.39942  0.48414  1.0000
  H   H1371     1.0  0.92315  0.03935  0.37022  1.0000
  H   H1372     1.0  0.91331  0.37315  0.04837  1.0000
  C   C1147     1.0  0.84636  0.36706  0.49621  1.0000
  H   H1373     1.0  0.93862  0.44251  0.50012  1.0000
  N   N79       1.0  0.80062  0.47241  0.18148  1.0000
  C   C1148     1.0  0.85030  0.24724  0.28591  1.0000
  H   H1374     1.0  0.84363  0.20828  0.28633  1.0000
  C   C1149     1.0  0.84502  0.30146  0.48698  1.0000
  C   C1150     1.0  0.87107  0.47954  0.16296  1.0000
  C   C1151     1.0  0.88382  0.29876  0.29277  1.0000
  C   C1152     1.0  0.84473  0.48385  0.16353  1.0000
  C   C1153     1.0  0.95216  0.20168  0.41829  1.0000
  C   C1154     1.0  0.98450  0.03988  0.38041  1.0000
  H   H1375     1.0  0.85890  0.03780  0.44481  1.0000
  C   C1155     1.0  0.95298  0.01420  0.40362  1.0000
  H   H1376     1.0  0.89916  0.28529  0.28441  1.0000
  H   H1377     1.0  0.96143  0.36655  0.24836  1.0000
  C   C1156     1.0  0.77321  0.08494  0.38691  1.0000
  H   H1378     1.0  0.79393  0.43483  0.19964  1.0000
  H   H1379     1.0  0.78185  0.07573  0.37058  1.0000
  C   C1157     1.0  0.84537  0.20365  0.49826  1.0000
  H   H1380     1.0  0.87539  0.43383  0.21254  1.0000
  C   C1158     1.0  0.95304  0.07226  0.49026  1.0000
  H   H1381     1.0  0.82157  0.03765  0.42508  1.0000
  N   N80       1.0  0.98447  0.15583  0.46748  1.0000
  H   H1382     1.0  0.80117  0.35882  0.04981  1.0000
  C   C1159     1.0  0.88122  0.27521  0.46962  1.0000
  C   C1160     1.0  0.98943  0.15760  0.49383  1.0000
  C   C1161     1.0  0.78274  0.38715  0.00825  1.0000
  N   N81       1.0  0.82163  0.03675  0.46556  1.0000
  C   C1162     1.0  0.96382  0.20128  0.46780  1.0000
  H   H1383     1.0  0.87163  0.28456  0.25040  1.0000
  C   C1163     1.0  0.94767  0.02737  0.42548  1.0000
  H   H1384     1.0  0.82550  0.07072  0.48169  1.0000
  C   C1164     1.0  0.85672  0.29684  0.26094  1.0000
  H   H1385     1.0  0.85949  0.31672  0.25308  1.0000
  S   S314      1.0  0.87680  0.08221  0.49734  1.0000
  H   H1386     1.0  0.84589  0.19789  0.33239  1.0000
  H   H1387     1.0  0.96800  0.20250  0.48684  1.0000
  H   H1388     1.0  0.81944  0.30598  0.29922  1.0000
  C   C1165     1.0  0.91750  0.39528  0.44221  1.0000
  C   C1166     1.0  0.75860  0.40247  0.13669  1.0000
  C   C1167     1.0  0.76178  0.38560  0.02730  1.0000
  C   C1168     1.0  0.94535  0.22310  0.43089  1.0000
  H   H1389     1.0  0.83441  0.20348  0.48189  1.0000
  H   H1390     1.0  0.97941  0.37096  0.20335  1.0000
  C   C1169     1.0  0.98306  0.26391  0.36657  1.0000
  H   H1391     1.0  0.98092  0.05499  0.39327  1.0000
  H   H1392     1.0  0.93802  0.38832  0.02825  1.0000
  H   H1393     1.0  0.96707  0.35084  0.04053  1.0000
  H   H1394     1.0  0.96525  0.13084  0.44935  1.0000
  C   C1170     1.0  0.80800  0.02511  0.48913  1.0000
  H   H1395     1.0  0.94649  0.05818  0.35246  1.0000
  H   H1396     1.0  0.93554  0.23983  0.42141  1.0000
  H   H1397     1.0  0.89285  0.26846  0.45320  1.0000
  C   C1171     1.0  0.84829  0.21687  0.32346  1.0000
  H   H1398     1.0  0.85533  0.29930  0.44709  1.0000
  C   C1172     1.0  0.86675  0.44786  0.19888  1.0000
  C   C1173     1.0  0.79178  0.48858  0.15900  1.0000
  H   H1399     1.0  0.84049  0.31089  0.32126  1.0000
  H   H1400     1.0  0.88724  0.31825  0.28435  1.0000
  H   H1401     1.0  0.82940  0.44091  0.21422  1.0000
  H   H1402     1.0  0.77051  0.44919  0.18004  1.0000
  H   H1403     1.0  0.87674  0.16240  0.49079  1.0000
  C   C1174     1.0  0.84038  0.45189  0.19950  1.0000
  H   H1404     1.0  0.80085  0.43729  0.16579  1.0000
  H   H1405     1.0  0.84015  0.33050  0.29200  1.0000
  H   H1406     1.0  0.88620  0.29785  0.31314  1.0000
  C   C1175     1.0  0.98498  0.24058  0.35726  1.0000
  H   H1407     1.0  0.87061  0.41674  0.00726  1.0000
  C   C1176     1.0  0.79117  0.44739  0.18188  1.0000
  C   C1177     1.0  0.88207  0.46142  0.18043  1.0000
  H   H1408     1.0  0.00067  0.13226  0.36646  1.0000
  C   C1178     1.0  0.96460  0.17994  0.43031  1.0000
  H   H1409     1.0  0.82849  0.07391  0.44763  1.0000
  C   C1179     1.0  0.93945  0.01513  0.44917  1.0000
  H   H1410     1.0  0.77079  0.04458  0.48213  1.0000
  H   H1411     1.0  0.90250  0.45783  0.17961  1.0000
  C   C1180     1.0  0.92330  0.37522  0.02879  1.0000
  C   C1181     1.0  0.75459  0.42654  0.12358  1.0000
  C   C1182     1.0  0.98173  0.36657  0.24343  1.0000
  C   C1183     1.0  0.78891  0.48404  0.20444  1.0000
  H   H1412     1.0  0.85862  0.03423  0.47847  1.0000
  H   H1413     1.0  0.76756  0.42282  0.05463  1.0000
  N   N82       1.0  0.96138  0.02772  0.37870  1.0000
  H   H1414     1.0  0.90900  0.38480  0.01653  1.0000
  H   H1415     1.0  0.77335  0.34248  0.05623  1.0000
  H   H1416     1.0  0.90445  0.33026  0.04144  1.0000
  C   C1184     1.0  0.94106  0.04761  0.37124  1.0000
  C   C1185     1.0  0.95199  0.33863  0.03921  1.0000
  H   H1417     1.0  0.78501  0.35607  0.08106  1.0000
  H   H1418     1.0  0.77094  0.48938  0.15875  1.0000
  C   C1186     1.0  0.88779  0.26708  0.49404  1.0000
  C   C1187     1.0  0.78200  0.35906  0.06063  1.0000
  H   H1419     1.0  0.93552  0.02549  0.46563  1.0000
  C   C1188     1.0  0.91401  0.33388  0.02180  1.0000
  H   H1420     1.0  0.84665  0.15625  0.48470  1.0000
  H   H1421     1.0  0.83763  0.49818  0.14944  1.0000
  H   H1422     1.0  0.93669  0.06201  0.38486  1.0000
  C   C1189     1.0  0.91133  0.40230  0.46675  1.0000
  H   H1423     1.0  0.89180  0.40943  0.47169  1.0000
  H   H1424     1.0  0.00191  0.17255  0.49477  1.0000
  C   C1190     1.0  0.99193  0.36908  0.21809  1.0000
  H   H1425     1.0  0.98964  0.36208  0.28218  1.0000
  H   H1426     1.0  0.89867  0.34240  0.01024  1.0000
  H   H1427     1.0  0.85349  0.00810  0.46194  1.0000
  C   C1191     1.0  0.96741  0.01101  0.35808  1.0000
  H   H1428     1.0  0.99980  0.02580  0.38747  1.0000
  H   H1429     1.0  0.76788  0.48698  0.20520  1.0000
  H   H1430     1.0  0.86483  0.20740  0.48987  1.0000
  C   C1192     1.0  0.83908  0.49643  0.09604  1.0000
  C   C1193     1.0  0.99764  0.36406  0.26245  1.0000
  C   C1194     1.0  0.86476  0.50009  0.09319  1.0000
  H   H1431     1.0  0.99916  0.13951  0.50218  1.0000
  H   H1432     1.0  0.80179  0.38667  0.01316  1.0000
  C   C1195     1.0  0.00065  0.34894  0.33543  1.0000
  H   H1433     1.0  0.92147  0.31538  0.01488  1.0000
  H   H1434     1.0  0.00328  0.29298  0.37594  1.0000
  H   H1435     1.0  0.75474  0.02673  0.41842  1.0000
  C   C1196     1.0  0.85719  0.38077  0.00582  1.0000
  H   H1436     1.0  0.89262  0.43500  0.50375  1.0000
  C   C1197     1.0  0.90809  0.07749  0.50454  1.0000
  H   H1437     1.0  0.79577  0.50276  0.20491  1.0000
  H   H1438     1.0  0.90439  0.33627  0.50485  1.0000
  H   H1439     1.0  0.91984  0.18387  0.55068  1.0000
  H   H1440     1.0  0.90696  0.24464  0.56306  1.0000
  C   C1198     1.0  0.85922  0.18108  0.53693  1.0000
  Fe  Fe157     1.0  0.95086  0.11847  0.59624  1.0000
  S   S315      1.0  0.95192  0.13295  0.55519  1.0000
  S   S316      1.0  0.91099  0.11324  0.61761  1.0000
  Fe  Fe158     1.0  0.98565  0.10421  0.55012  1.0000
  C   C1199     1.0  0.82890  0.11972  0.59435  1.0000
  Fe  Fe159     1.0  0.97997  0.15795  0.56270  1.0000
  S   S317      1.0  0.97668  0.19876  0.54595  1.0000
  S   S318      1.0  0.98378  0.08785  0.59071  1.0000
  S   S319      1.0  0.97803  0.14523  0.60437  1.0000
  Fe  Fe160     1.0  0.93300  0.36144  0.59597  1.0000
  S   S320      1.0  0.89424  0.38281  0.59838  1.0000
  S   S321      1.0  0.96633  0.38191  0.57960  1.0000
  Fe  Fe161     1.0  0.91307  0.31135  0.61286  1.0000
  S   S322      1.0  0.87293  0.32921  0.61561  1.0000
  S   S323      1.0  0.91678  0.26953  0.62463  1.0000
  Fe  Fe162     1.0  0.88473  0.35126  0.57803  1.0000
  S   S324      1.0  0.86297  0.35732  0.54297  1.0000
  Fe  Fe163     1.0  0.88734  0.35833  0.63586  1.0000
  S   S325      1.0  0.86542  0.36953  0.67368  1.0000
  S   S326      1.0  0.92375  0.33117  0.57436  1.0000
  S   S327      1.0  0.92714  0.33927  0.63432  1.0000
  Fe  Fe164     1.0  0.82012  0.37312  0.86044  1.0000
  S   S328      1.0  0.86066  0.35661  0.86221  1.0000
  S   S329      1.0  0.78439  0.35446  0.87084  1.0000
  Fe  Fe165     1.0  0.83345  0.42598  0.84481  1.0000
  S   S330      1.0  0.87502  0.41395  0.84553  1.0000
  S   S331      1.0  0.81391  0.46463  0.83351  1.0000
  Fe  Fe166     1.0  0.86800  0.38153  0.82482  1.0000
  S   S332      1.0  0.89245  0.37217  0.78757  1.0000
  Fe  Fe167     1.0  0.86357  0.39063  0.88276  1.0000
  S   S333      1.0  0.88092  0.39508  0.91923  1.0000
  S   S334      1.0  0.82724  0.39519  0.82235  1.0000
  S   S335      1.0  0.82273  0.40525  0.88270  1.0000
  C   C1200     1.0  0.86819  0.39093  0.95199  1.0000
  C   C1201     1.0  0.87256  0.40815  0.96845  1.0000
  H   H1441     1.0  0.86815  0.46394  0.73358  1.0000
  C   C1202     1.0  0.96961  0.36300  0.94344  1.0000
  H   H1442     1.0  0.83956  0.30169  0.52695  1.0000
  C   C1203     1.0  0.85735  0.36900  0.96272  1.0000
  H   H1443     1.0  0.88123  0.42503  0.96056  1.0000
  H   H1444     1.0  0.83684  0.21992  0.50862  1.0000
  H   H1445     1.0  0.85423  0.35527  0.95054  1.0000
  C   C1204     1.0  0.82961  0.48923  0.84065  1.0000
  C   C1205     1.0  0.85255  0.48427  0.85120  1.0000
  H   H1446     1.0  0.92412  0.38854  0.54855  1.0000
  S   S336      1.0  0.79733  0.12533  0.58482  1.0000
  C   C1206     1.0  0.82081  0.06305  0.56586  1.0000
  H   H1447     1.0  0.86075  0.46507  0.85547  1.0000
  H   H1448     1.0  0.80716  0.19036  0.53187  1.0000
  N   N83       1.0  0.92402  0.40653  0.51031  1.0000
  C   C1207     1.0  0.87372  0.37166  0.70485  1.0000
  C   C1208     1.0  0.89874  0.36746  0.71087  1.0000
  C   C1209     1.0  0.90405  0.36795  0.73609  1.0000
  C   C1210     1.0  0.88456  0.37277  0.75579  1.0000
  C   C1211     1.0  0.85960  0.37739  0.74969  1.0000
  C   C1212     1.0  0.85428  0.37683  0.72449  1.0000
  H   H1449     1.0  0.91403  0.36358  0.69616  1.0000
  H   H1450     1.0  0.92346  0.36433  0.74041  1.0000
  H   H1451     1.0  0.84429  0.38102  0.76445  1.0000
  H   H1452     1.0  0.83483  0.38011  0.72026  1.0000
  H   H1453     1.0  0.85029  0.02728  0.54006  1.0000
  H   H1454     1.0  0.89078  0.12183  0.56773  1.0000
  C   C1213     1.0  0.96094  0.21854  0.56816  1.0000
  C   C1214     1.0  0.96279  0.24462  0.56437  1.0000
  C   C1215     1.0  0.94970  0.26050  0.58185  1.0000
  C   C1216     1.0  0.93468  0.25028  0.60310  1.0000
  C   C1217     1.0  0.93298  0.22423  0.60687  1.0000
  C   C1218     1.0  0.94598  0.20844  0.58941  1.0000
  H   H1455     1.0  0.97452  0.25252  0.54805  1.0000
  H   H1456     1.0  0.95147  0.28052  0.57902  1.0000
  H   H1457     1.0  0.92140  0.21621  0.62324  1.0000
  H   H1458     1.0  0.94412  0.18846  0.59229  1.0000
  H   H1459     1.0  0.89535  0.30406  0.66470  1.0000
  H   H1460     1.0  0.89065  0.24177  0.73104  1.0000
  H   H1461     1.0  0.81787  0.11277  0.63443  1.0000
  S   S337      1.0  0.98940  0.07924  0.51924  1.0000
  H   H1462     1.0  0.94280  0.08038  0.55288  1.0000
  H   H1463     1.0  0.89797  0.18201  0.59429  1.0000
  H   H1464     1.0  0.86378  0.25116  0.69871  1.0000
  H   H1465     1.0  0.91216  0.36902  0.97752  1.0000
  C   C1219     1.0  0.94694  0.35437  0.99425  1.0000
  Fe  Fe168     1.0  0.75827  0.11256  0.60293  1.0000
  C   C1220     1.0  0.85853  0.03623  0.55433  1.0000
  C   C1221     1.0  0.82026  0.00732  0.50690  1.0000
  C   C1222     1.0  0.76130  0.37992  0.87599  1.0000
  H   H1466     1.0  0.85732  0.44558  0.80233  1.0000
  H   H1467     1.0  0.89516  0.27516  0.79836  1.0000
  C   C1223     1.0  0.77966  0.38889  0.98250  1.0000
  C   C1224     1.0  0.87830  0.26306  0.68850  1.0000
  H   H1468     1.0  0.93614  0.43192  0.53357  1.0000
  C   C1225     1.0  0.90319  0.25084  0.54315  1.0000
  C   C1226     1.0  0.84996  0.12180  0.57577  1.0000
  C   C1227     1.0  0.86058  0.44401  0.78165  1.0000
  C   C1228     1.0  0.91350  0.07912  0.52912  1.0000
  C   C1229     1.0  0.90575  0.44176  0.77966  1.0000
  H   H1469     1.0  0.89618  0.30242  0.54282  1.0000
  C   C1230     1.0  0.92869  0.38391  0.52870  1.0000
  N   N84       1.0  0.87783  0.28699  0.69999  1.0000
  H   H1470     1.0  0.97417  0.32851  0.59527  1.0000
  C   C1231     1.0  0.87970  0.11524  0.60783  1.0000
  C   C1232     1.0  0.85277  0.30163  0.69704  1.0000
  C   C1233     1.0  0.88229  0.28316  0.72704  1.0000
  C   C1234     1.0  0.88087  0.30421  0.74101  1.0000
  C   C1235     1.0  0.88878  0.25891  0.74008  1.0000
  C   C1236     1.0  0.88544  0.30129  0.76639  1.0000
  H   H1471     1.0  0.84690  0.12531  0.55605  1.0000
  H   H1472     1.0  0.89360  0.42240  0.53624  1.0000
  N   N85       1.0  0.88299  0.45665  0.76997  1.0000
  C   C1237     1.0  0.82730  0.01927  0.58696  1.0000
  H   H1473     1.0  0.91698  0.29137  0.68725  1.0000
  H   H1474     1.0  0.96099  0.41792  0.51297  1.0000
  H   H1475     1.0  0.78266  0.40671  0.85162  1.0000
  C   C1238     1.0  0.85169  0.05173  0.59534  1.0000
  H   H1476     1.0  0.85172  0.32115  0.70237  1.0000
  H   H1477     1.0  0.84851  0.30409  0.67697  1.0000
  H   H1478     1.0  0.83730  0.29218  0.70894  1.0000
  H   H1479     1.0  0.87641  0.32321  0.73233  1.0000
  C   C1239     1.0  0.86676  0.35617  0.50928  1.0000
  H   H1480     1.0  0.88438  0.31780  0.77655  1.0000
  C   C1240     1.0  0.87505  0.11968  0.58236  1.0000
  C   C1241     1.0  0.87305  0.27615  0.51580  1.0000
  C   C1242     1.0  0.95843  0.07549  0.51443  1.0000
  H   H1481     1.0  0.80872  0.17251  0.50572  1.0000
  C   C1243     1.0  0.89545  0.49299  0.79070  1.0000
  C   C1244     1.0  0.88242  0.29056  0.55454  1.0000
  C   C1245     1.0  0.93239  0.36427  0.97414  1.0000
  H   H1482     1.0  0.89819  0.23753  0.77519  1.0000
  H   H1483     1.0  0.88314  0.50049  0.86374  1.0000
  C   C1246     1.0  0.89773  0.30137  0.68523  1.0000
  H   H1484     1.0  0.86641  0.05351  0.54445  1.0000
  H   H1485     1.0  0.84481  0.34632  0.99723  1.0000
  C   C1247     1.0  0.85141  0.29354  0.51147  1.0000
  H   H1486     1.0  0.84288  0.45247  0.77371  1.0000
  C   C1248     1.0  0.89736  0.41742  0.51640  1.0000
  H   H1487     1.0  0.82714  0.17974  0.56704  1.0000
  H   H1488     1.0  0.89613  0.18329  0.51458  1.0000
  C   C1249     1.0  0.83361  0.11449  0.61975  1.0000
  C   C1250     1.0  0.84714  0.18134  0.56218  1.0000
  H   H1489     1.0  0.86295  0.24827  0.57653  1.0000
  H   H1490     1.0  0.86186  0.10872  0.64612  1.0000
  H   H1491     1.0  0.86437  0.30295  0.55786  1.0000
  C   C1251     1.0  0.87953  0.48328  0.77570  1.0000
  C   C1252     1.0  0.89158  0.27730  0.77867  1.0000
  N   N86       1.0  0.87939  0.26813  0.54197  1.0000
  H   H1492     1.0  0.97156  0.16152  0.50641  1.0000
  C   C1253     1.0  0.81842  0.17459  0.52246  1.0000
  C   C1254     1.0  0.98455  0.35336  0.96268  1.0000
  C   C1255     1.0  0.97352  0.34908  0.98777  1.0000
  H   H1493     1.0  0.83037  0.07970  0.55663  1.0000
  H   H1494     1.0  0.90153  0.46592  0.73250  1.0000
  C   C1256     1.0  0.88718  0.18266  0.57833  1.0000
  H   H1495     1.0  0.89734  0.25197  0.68811  1.0000
  H   H1496     1.0  0.85562  0.23791  0.54786  1.0000
  H   H1497     1.0  0.91681  0.36900  0.52625  1.0000
  C   C1257     1.0  0.88555  0.45560  0.74216  1.0000
  H   H1498     1.0  0.80691  0.07027  0.58130  1.0000
  H   H1499     1.0  0.86290  0.42353  0.77902  1.0000
  C   C1258     1.0  0.85867  0.25480  0.55675  1.0000
  H   H1500     1.0  0.79608  0.38976  0.96835  1.0000
  C   C1259     1.0  0.85917  0.50021  0.76686  1.0000
  H   H1501     1.0  0.93190  0.37607  0.93420  1.0000
  C   C1260     1.0  0.88573  0.18282  0.53327  1.0000
  H   H1502     1.0  0.89831  0.08221  0.54413  1.0000
  H   H1503     1.0  0.86139  0.06870  0.58755  1.0000
  C   C1261     1.0  0.85213  0.36390  0.98935  1.0000
  H   H1504     1.0  0.82946  0.37563  0.50656  1.0000
  S   S338      1.0  0.75875  0.07435  0.62561  1.0000
  H   H1505     1.0  0.88376  0.40366  0.51493  1.0000
  C   C1262     1.0  0.89946  0.18336  0.55375  1.0000
  C   C1263     1.0  0.93870  0.07833  0.53401  1.0000
  H   H1506     1.0  0.83768  0.05716  0.61151  1.0000
  C   C1264     1.0  0.75729  0.49992  0.91488  1.0000
  H   H1507     1.0  0.90230  0.23328  0.53448  1.0000
  C   C1265     1.0  0.86107  0.18197  0.58248  1.0000
  H   H1508     1.0  0.85172  0.18062  0.60174  1.0000
  N   N87       1.0  0.83917  0.04224  0.57577  1.0000
  C   C1266     1.0  0.89325  0.25616  0.76556  1.0000
  C   C1267     1.0  0.99117  0.33427  0.58410  1.0000
  H   H1509     1.0  0.97820  0.36634  0.92403  1.0000
  C   C1268     1.0  0.76578  0.40400  0.86432  1.0000
  H   H1510     1.0  0.85972  0.14035  0.51250  1.0000
  H   H1511     1.0  0.90439  0.44018  0.80071  1.0000
  C   C1269     1.0  0.94066  0.42555  0.51429  1.0000
  C   C1270     1.0  0.85871  0.11231  0.62636  1.0000
  H   H1512     1.0  0.90808  0.42197  0.77467  1.0000
  H   H1513     1.0  0.88912  0.43572  0.73735  1.0000
  H   H1514     1.0  0.78733  0.03479  0.58622  1.0000
  C   C1271     1.0  0.80060  0.01861  0.59112  1.0000
  H   H1515     1.0  0.92340  0.45018  0.77154  1.0000
  H   H1516     1.0  0.91990  0.26019  0.53368  1.0000
  H   H1517     1.0  0.86635  0.03744  0.60316  1.0000
  H   H1518     1.0  0.81029  0.05690  0.55143  1.0000
  H   H1519     1.0  0.87439  0.26670  0.66831  1.0000
  H   H1520     1.0  0.89730  0.32055  0.69116  1.0000
  H   H1521     1.0  0.88934  0.28516  0.57349  1.0000
  C   C1272     1.0  0.94357  0.36845  0.94917  1.0000
  H   H1522     1.0  0.84040  0.26716  0.55833  1.0000
  H   H1523     1.0  0.77668  0.48951  0.91331  1.0000
  H   H1524     1.0  0.87512  0.02348  0.56042  1.0000
  H   H1525     1.0  0.98626  0.34172  0.00168  1.0000
  C   C1273     1.0  0.99233  0.35948  0.57397  1.0000
  H   H1526     1.0  0.81698  0.15675  0.53544  1.0000
  H   H1527     1.0  0.91095  0.48151  0.79897  1.0000
  H   H1528     1.0  0.84588  0.49403  0.75598  1.0000
  N   N88       1.0  0.84527  0.17948  0.51506  1.0000
  H   H1529     1.0  0.77594  0.49546  0.86639  1.0000
  C   C1274     1.0  0.76813  0.02047  0.51678  1.0000
  C   C1275     1.0  0.86666  0.40340  0.99506  1.0000
  H   H1530     1.0  0.94881  0.37560  0.52707  1.0000
  H   H1531     1.0  0.75501  0.47049  0.81585  1.0000
  C   C1276     1.0  0.75567  0.38908  0.97492  1.0000
  Fe  Fe169     1.0  0.76380  0.90504  0.35883  1.0000
  H   H1532     1.0  0.85398  0.79050  0.45317  1.0000
  C   C1277     1.0  0.84501  0.77321  0.45525  1.0000
  Fe  Fe170     1.0  0.82346  0.90243  0.36111  1.0000
  S   S339      1.0  0.81865  0.88792  0.40218  1.0000
  S   S340      1.0  0.86518  0.90065  0.34301  1.0000
  Fe  Fe171     1.0  0.79207  0.86311  0.39149  1.0000
  S   S341      1.0  0.79450  0.82127  0.40350  1.0000
  Fe  Fe172     1.0  0.78485  0.91690  0.40483  1.0000
  S   S342      1.0  0.77630  0.94256  0.43541  1.0000
  S   S343      1.0  0.79742  0.87627  0.35007  1.0000
  S   S344      1.0  0.79046  0.93334  0.36429  1.0000
  Fe  Fe173     1.0  0.87317  0.72036  0.33297  1.0000
  S   S345      1.0  0.83699  0.70209  0.33926  1.0000
  S   S346      1.0  0.87486  0.76247  0.32835  1.0000
  Fe  Fe174     1.0  0.90545  0.67023  0.33606  1.0000
  S   S347      1.0  0.87149  0.64859  0.34309  1.0000
  S   S348      1.0  0.94372  0.64755  0.33573  1.0000
  Fe  Fe175     1.0  0.85663  0.67570  0.31096  1.0000
  S   S349      1.0  0.83867  0.66195  0.27833  1.0000
  Fe  Fe176     1.0  0.85609  0.67719  0.37049  1.0000
  S   S350      1.0  0.83672  0.66729  0.41092  1.0000
  S   S351      1.0  0.89159  0.69588  0.30305  1.0000
  S   S352      1.0  0.89112  0.69693  0.36499  1.0000
  S   S353      1.0  0.88216  0.95811  0.46641  1.0000
  Fe  Fe177     1.0  0.83901  0.64587  0.12535  1.0000
  S   S354      1.0  0.80098  0.63149  0.13529  1.0000
  S   S355      1.0  0.85934  0.65886  0.15670  1.0000
  Fe  Fe178     1.0  0.83749  0.64115  0.06686  1.0000
  S   S356      1.0  0.79941  0.62705  0.07466  1.0000
  S   S357      1.0  0.85677  0.64064  0.02578  1.0000
  Fe  Fe179     1.0  0.78995  0.65695  0.10106  1.0000
  Fe  Fe180     1.0  0.88261  0.93497  0.50409  1.0000
  Fe  Fe181     1.0  0.81478  0.60322  0.10771  1.0000
  S   S358      1.0  0.80353  0.56368  0.11360  1.0000
  S   S359      1.0  0.82719  0.67303  0.09174  1.0000
  S   S360      1.0  0.85380  0.61555  0.09930  1.0000
  H   H1533     1.0  0.95528  0.61542  0.29125  1.0000
  H   H1534     1.0  0.78468  0.87371  0.27972  1.0000
  C   C1278     1.0  0.82934  0.84061  0.48957  1.0000
  H   H1535     1.0  0.87015  0.89304  0.41381  1.0000
  H   H1536     1.0  0.80068  0.51328  0.10358  1.0000
  H   H1537     1.0  0.95264  0.97636  0.39157  1.0000
  C   C1279     1.0  0.84483  0.66158  0.24442  1.0000
  C   C1280     1.0  0.86462  0.67324  0.22965  1.0000
  C   C1281     1.0  0.86853  0.67242  0.20302  1.0000
  C   C1282     1.0  0.85272  0.66008  0.19048  1.0000
  C   C1283     1.0  0.83277  0.64864  0.20522  1.0000
  C   C1284     1.0  0.82895  0.64936  0.23186  1.0000
  H   H1538     1.0  0.87684  0.68305  0.23869  1.0000
  H   H1539     1.0  0.88406  0.68133  0.19203  1.0000
  H   H1540     1.0  0.82047  0.63888  0.19619  1.0000
  H   H1541     1.0  0.81351  0.64032  0.24287  1.0000
  C   C1285     1.0  0.84378  0.66417  0.44322  1.0000
  C   C1286     1.0  0.86192  0.67690  0.45210  1.0000
  H   H1542     1.0  0.94727  0.59186  0.27330  1.0000
  C   C1287     1.0  0.93750  0.62722  0.21875  1.0000
  H   H1543     1.0  0.93620  0.66043  0.28269  1.0000
  C   C1288     1.0  0.82901  0.64910  0.46105  1.0000
  H   H1544     1.0  0.87339  0.68881  0.43872  1.0000
  C   C1289     1.0  0.99729  0.65918  0.45846  1.0000
  C   C1290     1.0  0.76499  0.85041  0.30967  1.0000
  H   H1545     1.0  0.81491  0.63921  0.45474  1.0000
  C   C1291     1.0  0.91682  0.88894  0.34532  1.0000
  C   C1292     1.0  0.89472  0.90361  0.35457  1.0000
  H   H1546     1.0  0.91524  0.87517  0.33270  1.0000
  H   H1547     1.0  0.88060  0.93305  0.37817  1.0000
  C   C1293     1.0  0.80495  0.95025  0.44315  1.0000
  C   C1294     1.0  0.80738  0.95318  0.46828  1.0000
  C   C1295     1.0  0.83108  0.95609  0.47526  1.0000
  C   C1296     1.0  0.85218  0.95703  0.45702  1.0000
  C   C1297     1.0  0.84946  0.95565  0.43160  1.0000
  C   C1298     1.0  0.82590  0.95179  0.42472  1.0000
  H   H1548     1.0  0.79129  0.95173  0.48263  1.0000
  H   H1549     1.0  0.76532  0.69281  0.22102  1.0000
  H   H1550     1.0  0.86577  0.95635  0.41746  1.0000
  H   H1551     1.0  0.82407  0.94951  0.40524  1.0000
  C   C1299     1.0  0.81750  0.80483  0.38336  1.0000
  C   C1300     1.0  0.83579  0.81755  0.36744  1.0000
  C   C1301     1.0  0.85353  0.80437  0.35082  1.0000
  C   C1302     1.0  0.85316  0.77840  0.35012  1.0000
  C   C1303     1.0  0.83520  0.76559  0.36642  1.0000
  C   C1304     1.0  0.81732  0.77881  0.38290  1.0000
  H   H1552     1.0  0.83640  0.83754  0.36795  1.0000
  H   H1553     1.0  0.86745  0.81440  0.33842  1.0000
  H   H1554     1.0  0.83499  0.74551  0.36634  1.0000
  H   H1555     1.0  0.80336  0.76883  0.39531  1.0000
  C   C1305     1.0  0.83408  0.73776  0.43684  1.0000
  C   C1306     1.0  0.95364  0.80588  0.30814  1.0000
  H   H1556     1.0  0.81043  0.57134  0.02577  1.0000
  H   H1557     1.0  0.91504  0.86898  0.28288  1.0000
  N   N89       1.0  0.78095  0.70957  0.16983  1.0000
  C   C1307     1.0  0.96918  0.66497  0.32415  1.0000
  C   C1308     1.0  0.93601  0.98960  0.45176  1.0000
  C   C1309     1.0  0.89722  0.92130  0.37109  1.0000
  H   H1558     1.0  0.75627  0.99348  0.45205  1.0000
  C   C1310     1.0  0.93117  0.62346  0.19502  1.0000
  C   C1311     1.0  0.84581  0.75986  0.43441  1.0000
  C   C1312     1.0  0.79974  0.69455  0.15334  1.0000
  H   H1559     1.0  0.91580  0.66846  0.25800  1.0000
  S   S361      1.0  0.97400  0.91628  0.37534  1.0000
  H   H1560     1.0  0.80548  0.67571  0.16339  1.0000
  H   H1561     1.0  0.84223  0.73748  0.21143  1.0000
  H   H1562     1.0  0.85551  0.76665  0.41628  1.0000
  H   H1563     1.0  0.79142  0.79360  0.33672  1.0000
  H   H1564     1.0  0.77890  0.71517  0.49353  1.0000
  C   C1313     1.0  0.82144  0.72891  0.46012  1.0000
  H   H1565     1.0  0.76359  0.79646  0.37238  1.0000
  H   H1566     1.0  0.86734  0.52291  0.02296  1.0000
  C   C1314     1.0  0.92735  0.80715  0.30567  1.0000
  H   H1567     1.0  0.98518  0.82912  0.30232  1.0000
  H   H1568     1.0  0.86998  0.86014  0.41049  1.0000
  C   C1315     1.0  0.94359  0.91023  0.36783  1.0000
  C   C1316     1.0  0.82048  0.51633  0.10153  1.0000
  C   C1317     1.0  0.78864  0.81105  0.32449  1.0000
  C   C1318     1.0  0.80767  0.83927  0.29050  1.0000
  C   C1319     1.0  0.95362  0.76057  0.32496  1.0000
  H   H1569     1.0  0.98990  0.91113  0.48671  1.0000
  H   H1570     1.0  0.94913  0.65965  0.25059  1.0000
  C   C1320     1.0  0.87402  0.57103  0.02334  1.0000
  H   H1571     1.0  0.75785  0.58212  0.08362  1.0000
  H   H1572     1.0  0.78537  0.69805  0.25791  1.0000
  H   H1573     1.0  0.91670  0.79108  0.31080  1.0000
  H   H1574     1.0  0.86713  0.82617  0.47872  1.0000
  C   C1321     1.0  0.83232  0.64627  0.48693  1.0000
  C   C1322     1.0  0.81444  0.71882  0.23702  1.0000
  H   H1575     1.0  0.98255  0.77222  0.28078  1.0000
  H   H1576     1.0  0.87389  0.57141  0.04414  1.0000
  H   H1577     1.0  0.93772  0.76439  0.34003  1.0000
  H   H1578     1.0  0.81311  0.71147  0.46060  1.0000
  C   C1323     1.0  0.98977  0.77524  0.29866  1.0000
  C   C1324     1.0  0.79288  0.70622  0.23932  1.0000
  C   C1325     1.0  0.85889  0.86461  0.45983  1.0000
  C   C1326     1.0  0.89691  0.61473  0.23824  1.0000
  C   C1327     1.0  0.82866  0.57715  0.02968  1.0000
  H   H1579     1.0  0.89145  0.55901  0.01686  1.0000
  S   S362      1.0  0.75738  0.89016  0.39971  1.0000
  C   C1328     1.0  0.77430  0.73463  0.15571  1.0000
  H   H1580     1.0  0.83493  0.72723  0.42061  1.0000
  H   H1581     1.0  0.99727  0.63538  0.33679  1.0000
  N   N90       1.0  0.92710  0.62869  0.26576  1.0000
  H   H1582     1.0  0.89154  0.52689  0.09356  1.0000
  H   H1583     1.0  0.88914  0.63723  0.28382  1.0000
  C   C1329     1.0  0.75766  0.69639  0.17476  1.0000
  C   C1330     1.0  0.90174  0.84372  0.44673  1.0000
  H   H1584     1.0  0.95763  0.88078  0.34420  1.0000
  C   C1331     1.0  0.85327  0.84235  0.47593  1.0000
  H   H1585     1.0  0.82550  0.82356  0.50186  1.0000
  H   H1586     1.0  0.79205  0.85959  0.49862  1.0000
  H   H1587     1.0  0.76161  0.67676  0.18399  1.0000
  H   H1588     1.0  0.82647  0.80397  0.30574  1.0000
  C   C1332     1.0  0.79197  0.71274  0.19314  1.0000
  H   H1589     1.0  0.99300  0.80153  0.33701  1.0000
  H   H1590     1.0  0.96422  0.79363  0.35570  1.0000
  H   H1591     1.0  0.88239  0.61174  0.25393  1.0000
  H   H1592     1.0  0.75674  0.84243  0.37305  1.0000
  C   C1333     1.0  0.81051  0.86091  0.48790  1.0000
  H   H1593     1.0  0.94557  0.75553  0.30829  1.0000
  H   H1594     1.0  0.98271  0.99561  0.36246  1.0000
  H   H1595     1.0  0.98133  0.65986  0.47301  1.0000
  C   C1334     1.0  0.76584  0.82774  0.32653  1.0000
  C   C1335     1.0  0.78169  0.70316  0.21780  1.0000
  H   H1596     1.0  0.82905  0.59769  0.02350  1.0000
  H   H1597     1.0  0.94418  0.62724  0.17811  1.0000
  H   H1598     1.0  0.84767  0.53359  0.04948  1.0000
  C   C1336     1.0  0.99212  0.66201  0.43320  1.0000
  H   H1599     1.0  0.80087  0.89892  0.47144  1.0000
  C   C1337     1.0  0.81405  0.72535  0.19152  1.0000
  H   H1600     1.0  0.90260  0.61327  0.17438  1.0000
  H   H1601     1.0  0.90637  0.83827  0.46652  1.0000
  C   C1338     1.0  0.83280  0.76430  0.47874  1.0000
  C   C1339     1.0  0.82502  0.72834  0.21317  1.0000
  C   C1340     1.0  0.89095  0.61071  0.21447  1.0000
  C   C1341     1.0  0.87171  0.52394  0.09566  1.0000
  H   H1602     1.0  0.87262  0.60493  0.21260  1.0000
  H   H1603     1.0  0.96697  0.61565  0.25855  1.0000
  C   C1342     1.0  0.84987  0.65914  0.49614  1.0000
  C   C1343     1.0  0.95151  0.85090  0.29174  1.0000
  H   H1604     1.0  0.89845  0.88308  0.47404  1.0000
  H   H1605     1.0  0.92295  0.93871  0.38992  1.0000
  C   C1344     1.0  0.94930  0.98809  0.40696  1.0000
  C   C1345     1.0  0.96529  0.82850  0.30086  1.0000
  H   H1606     1.0  0.82081  0.63413  0.50004  1.0000
  H   H1607     1.0  0.98230  0.72099  0.29096  1.0000
  H   H1608     1.0  0.80534  0.65411  0.00995  1.0000
  C   C1346     1.0  0.95016  0.61216  0.27240  1.0000
  H   H1609     1.0  0.84239  0.90269  0.44761  1.0000
  H   H1610     1.0  0.75965  0.66093  0.05763  1.0000
  H   H1611     1.0  0.76229  0.99485  0.40936  1.0000
  H   H1612     1.0  0.89362  0.83025  0.29523  1.0000
  H   H1613     1.0  0.94588  0.69764  0.30921  1.0000
  N   N91       1.0  0.96864  0.78248  0.31804  1.0000
  H   H1614     1.0  0.89906  0.87452  0.40547  1.0000
  H   H1615     1.0  0.91244  0.62855  0.30528  1.0000
  H   H1616     1.0  0.81736  0.70373  0.14720  1.0000
  H   H1617     1.0  0.87842  0.68477  0.48515  1.0000
  C   C1347     1.0  0.89587  0.88747  0.45360  1.0000
  H   H1618     1.0  0.00133  0.75746  0.30525  1.0000
  C   C1348     1.0  0.92041  0.62335  0.24107  1.0000
  C   C1349     1.0  0.82037  0.74200  0.48185  1.0000
  H   H1619     1.0  0.79202  0.69147  0.13575  1.0000
  H   H1620     1.0  0.88431  0.90612  0.45131  1.0000
  C   C1350     1.0  0.96496  0.68924  0.31149  1.0000
  C   C1351     1.0  0.81552  0.88308  0.47264  1.0000
  H   H1621     1.0  0.92011  0.84618  0.43487  1.0000
  H   H1622     1.0  0.96540  0.74330  0.33238  1.0000
  H   H1623     1.0  0.91473  0.89003  0.44280  1.0000
  H   H1624     1.0  0.83309  0.95702  0.49495  1.0000
  H   H1625     1.0  0.76098  0.74695  0.16780  1.0000
  H   H1626     1.0  0.85860  0.56184  0.10429  1.0000
  C   C1352     1.0  0.86466  0.67473  0.47853  1.0000
  H   H1627     1.0  0.92924  0.98024  0.47007  1.0000
  C   C1353     1.0  0.97944  0.78700  0.34108  1.0000
  H   H1628     1.0  0.93760  0.95637  0.43277  1.0000
  H   H1629     1.0  0.96078  0.86801  0.28666  1.0000
  H   H1630     1.0  0.77624  0.76111  0.50435  1.0000
  C   C1354     1.0  0.93228  0.65543  0.26409  1.0000
  C   C1355     1.0  0.90786  0.61538  0.19288  1.0000
  C   C1356     1.0  0.88057  0.87397  0.41757  1.0000
  C   C1357     1.0  0.90680  0.62454  0.28700  1.0000
  C   C1358     1.0  0.98556  0.70252  0.30136  1.0000
  C   C1359     1.0  0.94097  0.89205  0.35194  1.0000
  C   C1360     1.0  0.92141  0.92458  0.37760  1.0000
  H   H1631     1.0  0.83354  0.52709  0.02265  1.0000
  C   C1361     1.0  0.91374  0.82967  0.29656  1.0000
  H   H1632     1.0  0.95573  0.63367  0.21942  1.0000
  H   H1633     1.0  0.90234  0.60460  0.28997  1.0000
  C   C1362     1.0  0.84978  0.53526  0.02842  1.0000
  C   C1363     1.0  0.78562  0.85600  0.29196  1.0000
  H   H1634     1.0  0.87599  0.59063  0.01415  1.0000
  H   H1635     1.0  0.82344  0.72037  0.25375  1.0000
  C   C1364     1.0  0.85305  0.54380  0.10158  1.0000
  C   C1365     1.0  0.92580  0.85147  0.28952  1.0000
  H   H1636     1.0  0.82865  0.57508  0.05069  1.0000
  N   N92       1.0  0.88386  0.86717  0.44478  1.0000
  C   C1366     1.0  0.82740  0.53991  0.10476  1.0000
  C   C1367     1.0  0.83936  0.88501  0.45895  1.0000
  H   H1637     1.0  0.89384  0.82773  0.44016  1.0000
  N   N93       1.0  0.85071  0.56192  0.01716  1.0000
  C   C1368     1.0  0.99398  0.65418  0.32702  1.0000
  C   C1369     1.0  0.80914  0.81683  0.30666  1.0000
  C   C1370     1.0  0.94083  0.97615  0.43071  1.0000
  H   H1638     1.0  0.79605  0.50848  0.15835  1.0000
  H   H1639     1.0  0.83344  0.77482  0.49456  1.0000
  H   H1640     1.0  0.82380  0.84387  0.27708  1.0000
  H   H1641     1.0  0.97267  0.66452  0.42878  1.0000
  H   H1642     1.0  0.99018  0.76956  0.34954  1.0000
  H   H1643     1.0  0.84027  0.00104  0.50413  1.0000
  H   H1644     1.0  0.79120  0.74473  0.14882  1.0000
  H   H1645     1.0  0.82334  0.73253  0.17341  1.0000
  H   H1646     1.0  0.76509  0.73282  0.13852  1.0000
  H   H1647     1.0  0.80656  0.69386  0.50087  1.0000
  H   H1648     1.0  0.99665  0.67855  0.50481  1.0000
  H   H1649     1.0  0.00315  0.78989  0.29386  1.0000
  H   H1650     1.0  0.95046  0.00228  0.35469  1.0000
  C   C1371     1.0  0.81828  0.64991  0.99343  1.0000
  S   S363      1.0  0.87585  0.95082  0.54149  1.0000
  Fe  Fe182     1.0  0.88724  0.88115  0.52805  1.0000
  S   S364      1.0  0.87956  0.89287  0.56720  1.0000
  S   S365      1.0  0.89949  0.84118  0.52048  1.0000
  Fe  Fe183     1.0  0.84849  0.92087  0.55134  1.0000
  S   S366      1.0  0.80715  0.93120  0.56839  1.0000
  Fe  Fe184     1.0  0.90787  0.92108  0.55273  1.0000
  S   S367      1.0  0.94333  0.91833  0.57407  1.0000
  H   H1651     1.0  0.92239  0.65877  0.70540  1.0000
  H   H1652     1.0  0.84381  0.95749  0.60998  1.0000
  Fe  Fe185     1.0  0.86259  0.67336  0.56267  1.0000
  S   S368      1.0  0.87935  0.70996  0.55440  1.0000
  S   S369      1.0  0.85175  0.65439  0.52977  1.0000
  Fe  Fe186     1.0  0.85875  0.67525  0.62196  1.0000
  S   S370      1.0  0.87382  0.71299  0.61636  1.0000
  S   S371      1.0  0.85150  0.65284  0.66179  1.0000
  Fe  Fe187     1.0  0.84963  0.72334  0.58464  1.0000
  S   S372      1.0  0.82769  0.76180  0.57721  1.0000
  Fe  Fe188     1.0  0.90211  0.69639  0.58669  1.0000
  S   S373      1.0  0.94068  0.70863  0.58703  1.0000
  S   S374      1.0  0.83153  0.68705  0.59222  1.0000
  S   S375      1.0  0.88838  0.65794  0.59297  1.0000
  Fe  Fe189     1.0  0.83457  0.64146  0.81798  1.0000
  S   S376      1.0  0.82485  0.60238  0.81590  1.0000
  S   S377      1.0  0.84331  0.66787  0.78093  1.0000
  Fe  Fe190     1.0  0.82374  0.63581  0.87830  1.0000
  S   S378      1.0  0.81331  0.59650  0.87869  1.0000
  S   S379      1.0  0.81330  0.65156  0.91719  1.0000
  Fe  Fe191     1.0  0.84667  0.59134  0.84952  1.0000
  S   S380      1.0  0.87102  0.55444  0.85538  1.0000
  Fe  Fe192     1.0  0.79252  0.61127  0.84544  1.0000
  S   S381      1.0  0.91601  0.90805  0.51419  1.0000
  S   S382      1.0  0.85903  0.62986  0.85040  1.0000
  S   S383      1.0  0.80046  0.65118  0.84602  1.0000
  C   C1372     1.0  0.82572  0.64704  0.94735  1.0000
  C   C1373     1.0  0.80931  0.65212  0.96935  1.0000
  H   H1653     1.0  0.99374  0.63368  0.50673  1.0000
  H   H1654     1.0  0.93419  0.62942  0.69288  1.0000
  H   H1655     1.0  0.99077  0.89285  0.58853  1.0000
  C   C1374     1.0  0.85134  0.63946  0.94997  1.0000
  H   H1656     1.0  0.78948  0.65793  0.96773  1.0000
  C   C1375     1.0  0.95871  0.66496  0.66398  1.0000
  C   C1376     1.0  0.98902  0.64610  0.57356  1.0000
  H   H1657     1.0  0.86433  0.63557  0.93339  1.0000
  C   C1377     1.0  0.84257  0.99671  0.59459  1.0000
  C   C1378     1.0  0.96660  0.66254  0.57705  1.0000
  H   H1658     1.0  0.84195  0.70969  0.51676  1.0000
  H   H1659     1.0  0.76194  0.71450  0.79410  1.0000
  H   H1660     1.0  0.94843  0.65594  0.57634  1.0000
  H   H1661     1.0  0.82244  0.55325  0.83779  1.0000
  C   C1379     1.0  0.84889  0.65781  0.69478  1.0000
  C   C1380     1.0  0.84431  0.63738  0.71346  1.0000
  C   C1381     1.0  0.84250  0.64004  0.73969  1.0000
  C   C1382     1.0  0.84537  0.66326  0.74788  1.0000
  C   C1383     1.0  0.85015  0.68366  0.72919  1.0000
  C   C1384     1.0  0.85184  0.68103  0.70294  1.0000
  H   H1662     1.0  0.84201  0.61929  0.70760  1.0000
  H   H1663     1.0  0.83886  0.62409  0.75359  1.0000
  H   H1664     1.0  0.85237  0.70176  0.73509  1.0000
  H   H1665     1.0  0.85519  0.69708  0.68908  1.0000
  C   C1385     1.0  0.96786  0.68745  0.58164  1.0000
  H   H1666     1.0  0.93684  0.62786  0.64536  1.0000
  C   C1386     1.0  0.77732  0.92848  0.55729  1.0000
  C   C1387     1.0  0.92640  0.64714  0.64413  1.0000
  H   H1667     1.0  0.90314  0.52506  0.80817  1.0000
  H   H1668     1.0  0.79190  0.90332  0.52928  1.0000
  C   C1388     1.0  0.97555  0.92490  0.56464  1.0000
  C   C1389     1.0  0.98185  0.94657  0.54874  1.0000
  H   H1669     1.0  0.81960  0.71711  0.54346  1.0000
  C   C1390     1.0  0.84403  0.64298  0.99592  1.0000
  H   H1670     1.0  0.96698  0.95949  0.54084  1.0000
  H   H1671     1.0  0.77938  0.74588  0.53600  1.0000
  C   C1391     1.0  0.87925  0.81986  0.53701  1.0000
  C   C1392     1.0  0.88888  0.79463  0.54236  1.0000
  C   C1393     1.0  0.87335  0.77724  0.55588  1.0000
  C   C1394     1.0  0.84768  0.78447  0.56270  1.0000
  C   C1395     1.0  0.83793  0.80978  0.55725  1.0000
  C   C1396     1.0  0.85387  0.82763  0.54493  1.0000
  H   H1672     1.0  0.88462  0.53636  0.98374  1.0000
  H   H1673     1.0  0.88145  0.75828  0.56111  1.0000
  H   H1674     1.0  0.81811  0.81557  0.56263  1.0000
  H   H1675     1.0  0.84636  0.84719  0.54093  1.0000
  H   H1676     1.0  0.78941  0.84122  0.59487  1.0000
  C   C1397     1.0  0.89130  0.51813  0.79608  1.0000
  H   H1677     1.0  0.97346  0.64649  0.62980  1.0000
  C   C1398     1.0  0.77506  0.91318  0.53845  1.0000
  H   H1678     1.0  0.95346  0.68511  0.69760  1.0000
  H   H1679     1.0  0.90851  0.78850  0.53647  1.0000
  C   C1399     1.0  0.83181  0.97472  0.60493  1.0000
  C   C1400     1.0  0.87126  0.53424  0.78695  1.0000
  H   H1680     1.0  0.93318  0.81263  0.55881  1.0000
  C   C1401     1.0  0.92238  0.64776  0.68913  1.0000
  C   C1402     1.0  0.75496  0.94116  0.56876  1.0000
  H   H1681     1.0  0.86781  0.55350  0.79183  1.0000
  C   C1403     1.0  0.97768  0.65619  0.64501  1.0000
  C   C1404     1.0  0.85521  0.52531  0.77239  1.0000
  H   H1682     1.0  0.81884  0.59278  0.98467  1.0000
  H   H1683     1.0  0.79367  0.52457  0.88713  1.0000
  H   H1684     1.0  0.96258  0.84300  0.53992  1.0000
  S   S384      1.0  0.85473  0.90637  0.51342  1.0000
  H   H1685     1.0  0.86298  0.99585  0.59260  1.0000
  C   C1405     1.0  0.91653  0.68661  0.66153  1.0000
  C   C1406     1.0  0.97692  0.79299  0.58165  1.0000
  H   H1686     1.0  0.90591  0.64458  0.64531  1.0000
  H   H1687     1.0  0.90241  0.64359  0.68949  1.0000
  C   C1407     1.0  0.76757  0.87591  0.60407  1.0000
  H   H1688     1.0  0.83936  0.53784  0.76576  1.0000
  H   H1689     1.0  0.76479  0.69785  0.98957  1.0000
  H   H1690     1.0  0.77466  0.54520  0.90739  1.0000
  H   H1691     1.0  0.77260  0.50912  0.79477  1.0000
  H   H1692     1.0  0.82132  0.59450  0.93903  1.0000
  C   C1408     1.0  0.83103  0.53414  0.84137  1.0000
  H   H1693     1.0  0.77343  0.55022  0.87347  1.0000
  N   N94       1.0  0.95079  0.83616  0.57989  1.0000
  C   C1409     1.0  0.94221  0.85136  0.60140  1.0000
  C   C1410     1.0  0.95618  0.85359  0.55661  1.0000
  C   C1411     1.0  0.92928  0.82238  0.57629  1.0000
  C   C1412     1.0  0.87118  0.55030  0.94837  1.0000
  H   H1694     1.0  0.80114  0.51817  0.82764  1.0000
  C   C1413     1.0  0.86038  0.63762  0.97399  1.0000
  H   H1695     1.0  0.88032  0.63225  0.97548  1.0000
  H   H1696     1.0  0.99801  0.69143  0.69687  1.0000
  H   H1697     1.0  0.77874  0.69595  0.81773  1.0000
  H   H1698     1.0  0.95543  0.86527  0.60327  1.0000
  H   H1699     1.0  0.92379  0.86302  0.59888  1.0000
  H   H1700     1.0  0.93981  0.83900  0.61966  1.0000
  H   H1701     1.0  0.79736  0.95745  0.61610  1.0000
  H   H1702     1.0  0.93902  0.86654  0.55216  1.0000
  C   C1414     1.0  0.99140  0.69596  0.58229  1.0000
  H   H1703     1.0  0.92474  0.80825  0.59281  1.0000
  H   H1704     1.0  0.91166  0.83541  0.57384  1.0000
  C   C1415     1.0  0.80562  0.97466  0.60848  1.0000
  C   C1416     1.0  0.99227  0.68153  0.68243  1.0000
  H   H1705     1.0  0.00117  0.75772  0.58372  1.0000
  H   H1706     1.0  0.96209  0.78375  0.57586  1.0000
  C   C1417     1.0  0.99532  0.90897  0.57535  1.0000
  H   H1707     1.0  0.99239  0.71514  0.58595  1.0000
  H   H1708     1.0  0.81616  0.98244  0.54187  1.0000
  C   C1418     1.0  0.97410  0.81921  0.58477  1.0000
  H   H1709     1.0  0.85463  0.56792  0.91506  1.0000
  C   C1419     1.0  0.81886  0.51419  0.83579  1.0000
  H   H1710     1.0  0.97106  0.86580  0.55847  1.0000
  N   N95       1.0  0.93158  0.66154  0.66455  1.0000
  C   C1420     1.0  0.75674  0.50595  0.86967  1.0000
  C   C1421     1.0  0.85114  0.56363  0.98924  1.0000
  C   C1422     1.0  0.79010  0.75298  0.51782  1.0000
  H   H1711     1.0  0.88598  0.53904  0.93764  1.0000
  H   H1712     1.0  0.78437  0.70439  0.52575  1.0000
  C   C1423     1.0  0.87016  0.54887  0.97477  1.0000
  C   C1424     1.0  0.85448  0.52932  0.85095  1.0000
  C   C1425     1.0  0.85348  0.56653  0.93559  1.0000
  H   H1713     1.0  0.92326  0.69782  0.64348  1.0000
  H   H1714     1.0  0.91751  0.69798  0.67728  1.0000
  H   H1715     1.0  0.93147  0.65727  0.62504  1.0000
  C   C1426     1.0  0.83464  0.58135  0.94916  1.0000
  H   H1716     1.0  0.99492  0.84878  0.59396  1.0000
  H   H1717     1.0  0.89608  0.68470  0.66117  1.0000
  C   C1427     1.0  0.79007  0.99655  0.60169  1.0000
  H   H1718     1.0  0.98812  0.62676  0.57025  1.0000
  C   C1428     1.0  0.96682  0.67776  0.68270  1.0000
  C   C1429     1.0  0.83343  0.58011  0.97557  1.0000
  H   H1719     1.0  0.78370  0.88680  0.59987  1.0000
  C   C1430     1.0  0.77467  0.53557  0.89014  1.0000
  H   H1720     1.0  0.77409  0.72935  0.81809  1.0000
  C   C1431     1.0  0.77080  0.85026  0.60110  1.0000
  H   H1721     1.0  0.83830  0.74066  0.52705  1.0000
  C   C1432     1.0  0.86511  0.50433  0.85612  1.0000
  C   C1433     1.0  0.80664  0.99640  0.52875  1.0000
  C   C1434     1.0  0.00307  0.66004  0.64493  1.0000
  H   H1722     1.0  0.76145  0.62973  0.88400  1.0000
  H   H1723     1.0  0.76967  0.99637  0.60432  1.0000
  H   H1724     1.0  0.79985  0.76862  0.52264  1.0000
  C   C1435     1.0  0.82782  0.72472  0.52430  1.0000
  C   C1436     1.0  0.99934  0.77765  0.58616  1.0000
  C   C1437     1.0  0.76479  0.71287  0.81452  1.0000
  H   H1725     1.0  0.76104  0.69109  0.86150  1.0000
  H   H1726     1.0  0.75629  0.95328  0.58315  1.0000
  H   H1727     1.0  0.77021  0.99442  0.55061  1.0000
  C   C1438     1.0  0.99530  0.82898  0.59198  1.0000
  H   H1728     1.0  0.75440  0.50888  0.93285  1.0000
  N   N96       1.0  0.80809  0.73265  0.50706  1.0000
  C   C1439     1.0  0.79380  0.71065  0.50663  1.0000
  C   C1440     1.0  0.78067  0.00296  0.53366  1.0000
