data_image0
_chemical_formula_structural       SHCFeS3FeHFeHS2HS3CHC2HCSC6H6C2HCHSH4SC6FeH2CH4CNHNH2CH2C2HFeH5CH3CH2C3H3CH2CH3NC9H14C2HFeCHCSH3SC3HC2H2C2H5CH2CHC4H2CHCHC2HCH2CFeS2FeS3CFeSCHSFeSCSFeS2H5NSFeCSFeS2HFeS3CHC4HCH4CHC3HSHC6H4C6H5CFeH4FeH2CH2CH2FeHC2H2C2SH2C2HNHC2H4C2HCH2C3FeCSHCHCHCHC3H2SH3CHFeCFeNC3H2FeHCNHC2H2CH2CHCS2H3CH4CH6CHC2HNCSHSH3SNHCH2CHCH2CHCFeS2FeH2FeCS2C2S2H7C6H4CH2SHSHNFeHC2HC6H3NC5HSHCHSH2CH2SH3CH3SHNHFeCFeC2HC3H9CH2CHC3HC3HC3HCH3C2HCHCH2CNCHC2H4C2H2CHCHSHNSC2HC2HCHCH2FeH2C2HFeS2FeSHSH2SH2SFeSHSFeS2CFeSFeHS2FeHSFeS2HFeS3C6H4C4HC2H3C6H4C7H4CFeHCH2NC3H3CNC7HCH2CH2CHCH2SHC2HCHC2H5FeC2H2NHC2HCH4C2H2CH2CH2FeHSHNH2CH5C2HC3SCSH6C2HCHFeHCH3SCHCH7CHCH2C3H3CHFeSC2S3HSH2FeS2FeS2FeHFeS3CHC2H3CNCHCHC9H5CHC2FeC2H3C4HCH3CNH2CH2CFeHC7H2CH2CH2SHCH3CH5CHCH2SC2HCHCHFeHCHCHSCH4NCH2CHCSH2NCH4C6H3CSH3CHNFeS2CHCH2FeH2C2FeSHFeS2FeS2H4SHFeHSFeSFeSCSHC5NHCH2C9HCH3C2HC3FeH3C2H3C3SH3CSC5H3SHFeH3C2HCSH2FeHCHCH2C2H2C2HC2SCH3SCNC2SHCHCH2SHNC6H11CH4SHCNC9H2CHNHC2H2CH2CH4FeH4S2CHCH3CH4CHC2HSC2HCHCHC3SFeCFeCSHCHSCSFeH2FeS2FeHFeS3H2C2H3CHSH2CHCHC6H4C3HCH3CHSC6H6C2HCHCHCNC9H12SC5HCH4NH3SCHC2HNCHCSHCHCHC2HCH2CH2Fe2H2CHSC3HCHCH2C2HCH4CFeS2C2HC2FeCHCHFeSHFeS2FeS2HSC2H2FeCSH2CH2SCFeHSFeCHCHC2FeSHCN2C3SCH2C2HC3H5C4HC2H7C7H3CSHCH3NC3HCH3SH3CHCHCH4CHCHC4HCH2C2HCHCHSH3C4HCHSH2CH3CHCHCH3CHC6HCH3NSH3C2FeH5S2CHNHC3HSH2CHS2NHC2FeS2FeSH2FeS2CSFeSCFeCFeS2CFeHSH2CHSCHNH2FeS2HFeS2HCHC3HNCH2CHC2HSH7C8H4C7H2C6H4FeH3C3NC6H19C3SCH2C2NC2HCSHFeHCNCH3C3H8C3H3SHC5H3CH3FeH5CH2C2H4NCHSHC2H3C2H3FeH2FeC2H2SCHSCSCS2HCNFeS2FeHFeS3HS2HSCSH3C7H4CH2FeH4C2HFeSH3C6H3CH8C2HCH3SHCH5SC2HCHCHCH2CHSC3H3FeHNC10H6C2H2CHCNC3H3C3HC2HFeH2SH2C2H2SC2FeS2CSHCFeS2H2FeS2FeSFeS2CFeCSH2CS2Fe2C2HFeS2HFeS2C2HC2H4C3HCH5C4H2C7H4FeH2C3HSHCHC6HNCH3CHCHSC3H2CH2FeCH4NC3H2CHCHCH3CH4NC9HFeH5CH6NH3C2H3CHCNC3H3C2HC3HCSH3SC4HCHCH3CSHNC3H8SCS2HSH3CH2C3H2CHFeS3HFeHS2FeS2CSCH3C8H6C2H3CHSH2CH3C6HSCH3C3HCSC3SH3C3HFeCH3C2H2C3NC7H14C2H2CSH2FeHSCHFe2H3CH4CHCNCNCN2HCH4FeCHC2H2CHCH2CH5CH2NC2H4FeS2Fe2HS2C2HCSHFeSH3CH2NS2FeS2FeS2Fe2HFeHS2CNH3C2H2C4H2C6H3C6H3SC6H9CHC2HSNSH2CHCHCHCHC2HN2H4NC6H3SCHCHCH3CHFeCH2CHFeHCHCHC2HSH2CHCH2CH2CHCHC2H2CHCH3SH2CH2C5HCH3CSCHC2HFeHC3NSH2C2H3CHC3SC2H2C2H3CSHSH2S2FeS2FeHCFeNFeS3HNC2H3CH2C2HC7H4CFeC2H2C3H3C6SH2NC2H4CH3C2HCHSCH6CSH2C2H2CHC2H2C5HSCHCFeHCHC4FeH2CH4C3SH2C2H4CHC3H2CH2CSCNH2C3H6CHC3H2CHNH5CFeS2FeH2FeH2C2HS2FeSFeSH2CSFeS2FeS2FeS2Fe2CFeCS2HCSHFeC2H3CH2CHCSCHCH2C8H4C6H4CNH3C4H3C2HCSH2FeH5NC9H12C2H2S2C2HCH5C3H2CHC2HSHNHC2HCHS3CHC2HNC3HCNC9H14CHCSNH2C2HFeCH5SHC2HC2SHCHCH3CH3CH6CSH2NSHCH2S2FeS2FeSCFeHFeS3H2C3SH2CHCSH2C6H6C3HC2NFeH2C6H3CH2C2H2CHCH3CH2CHC3H2CH3CHCH3C4H3CH3C3H4C2H2C2HNCH2NCH2CSHC3H2CHC2HC3H2CFeCHCHC2H2C2H4C3HSHCHCH3CS2CHC2H2C4HSC2
_chemical_formula_sum              "S320 H1440 C1200 Fe160 N80"
_cell_length_a       54.5149
_cell_length_b       41.7484
_cell_length_c       54.7806
_cell_angle_alpha    89.5965
_cell_angle_beta     91.2978
_cell_angle_gamma    90.1356

_space_group_name_H-M_alt    "P 1"
_space_group_IT_number       1

loop_
  _space_group_symop_operation_xyz
  'x, y, z'

loop_
  _atom_site_type_symbol
  _atom_site_label
  _atom_site_symmetry_multiplicity
  _atom_site_fract_x
  _atom_site_fract_y
  _atom_site_fract_z
  _atom_site_occupancy
  S   S1        1.0  0.15687  0.38963  0.01383  1.0000
  H   H1        1.0  0.17991  0.08951  0.39863  1.0000
  C   C1        1.0  0.03412  0.40442  0.16768  1.0000
  Fe  Fe1       1.0  0.19910  0.11368  0.30895  1.0000
  S   S2        1.0  0.20903  0.09531  0.27210  1.0000
  S   S3        1.0  0.16229  0.12857  0.32362  1.0000
  S   S4        1.0  0.26663  0.09572  0.29271  1.0000
  Fe  Fe2       1.0  0.24045  0.13034  0.27465  1.0000
  H   H2        1.0  0.25275  0.44657  0.26870  1.0000
  Fe  Fe3       1.0  0.23448  0.06221  0.29301  1.0000
  H   H3        1.0  0.27187  0.03208  0.31986  1.0000
  S   S5        1.0  0.22883  0.15134  0.31007  1.0000
  S   S6        1.0  0.22201  0.07760  0.33000  1.0000
  H   H4        1.0  0.03764  0.26074  0.13206  1.0000
  S   S7        1.0  0.04064  0.08911  0.22031  1.0000
  S   S8        1.0  0.04996  0.12166  0.28884  1.0000
  S   S9        1.0  0.08188  0.29471  0.06370  1.0000
  C   C2        1.0  0.26906  0.07648  0.42122  1.0000
  H   H5        1.0  0.25790  0.30713  0.15607  1.0000
  C   C3        1.0  0.14814  0.16104  0.21903  1.0000
  C   C4        1.0  0.14939  0.17777  0.26823  1.0000
  H   H6        1.0  0.24438  0.16233  0.40523  1.0000
  C   C5        1.0  0.23828  0.13277  0.46216  1.0000
  S   S10       1.0  0.27101  0.33043  0.03390  1.0000
  C   C6        1.0  0.13171  0.12451  0.31215  1.0000
  C   C7        1.0  0.11335  0.13842  0.32595  1.0000
  C   C8        1.0  0.08873  0.13697  0.31829  1.0000
  C   C9        1.0  0.08179  0.12175  0.29656  1.0000
  C   C10       1.0  0.10004  0.10755  0.28244  1.0000
  C   C11       1.0  0.12507  0.10889  0.29027  1.0000
  H   H7        1.0  0.11815  0.15050  0.34280  1.0000
  H   H8        1.0  0.07488  0.14785  0.32938  1.0000
  H   H9        1.0  0.09486  0.09521  0.26583  1.0000
  H   H10       1.0  0.13911  0.09799  0.27946  1.0000
  H   H11       1.0  0.18866  0.17432  0.26606  1.0000
  H   H12       1.0  0.20957  0.08758  0.38521  1.0000
  C   C12       1.0  0.21178  0.13548  0.41696  1.0000
  C   C13       1.0  0.17437  0.15269  0.39597  1.0000
  H   H13       1.0  0.11302  0.40089  0.04052  1.0000
  C   C14       1.0  0.03824  0.21436  0.14963  1.0000
  H   H14       1.0  0.18427  0.10849  0.43698  1.0000
  S   S11       1.0  0.23685  0.00930  0.28511  1.0000
  H   H15       1.0  0.04033  0.48678  0.11243  1.0000
  H   H16       1.0  0.11432  0.12432  0.19387  1.0000
  H   H17       1.0  0.06824  0.23104  0.03530  1.0000
  H   H18       1.0  0.10393  0.21111  0.20291  1.0000
  S   S12       1.0  0.03816  0.15518  0.17108  1.0000
  C   C15       1.0  0.13522  0.36302  0.02619  1.0000
  C   C16       1.0  0.13799  0.32985  0.02420  1.0000
  C   C17       1.0  0.12151  0.30905  0.03575  1.0000
  C   C18       1.0  0.10180  0.32130  0.04879  1.0000
  C   C19       1.0  0.09858  0.35445  0.05014  1.0000
  C   C20       1.0  0.11536  0.37525  0.03900  1.0000
  Fe  Fe4       1.0  0.04647  0.31590  0.07678  1.0000
  H   H19       1.0  0.12408  0.28342  0.03457  1.0000
  H   H20       1.0  0.08340  0.36412  0.06013  1.0000
  C   C21       1.0  0.12548  0.16617  0.23073  1.0000
  H   H21       1.0  0.11063  0.17840  0.26652  1.0000
  H   H22       1.0  0.14996  0.18360  0.28751  1.0000
  H   H23       1.0  0.03921  0.34290  0.17038  1.0000
  H   H24       1.0  0.08347  0.18534  0.18592  1.0000
  C   C22       1.0  0.25509  0.06590  0.20805  1.0000
  N   N1        1.0  0.19790  0.13541  0.39339  1.0000
  H   H25       1.0  0.07858  0.15129  0.24704  1.0000
  N   N2        1.0  0.10195  0.16290  0.21685  1.0000
  H   H26       1.0  0.18324  0.10091  0.36763  1.0000
  H   H27       1.0  0.08196  0.12663  0.19667  1.0000
  C   C23       1.0  0.02899  0.24525  0.14524  1.0000
  H   H28       1.0  0.18775  0.15972  0.22251  1.0000
  H   H29       1.0  0.05381  0.20599  0.13958  1.0000
  C   C24       1.0  0.26690  0.08739  0.39683  1.0000
  C   C25       1.0  0.07992  0.16879  0.23169  1.0000
  H   H30       1.0  0.07985  0.19344  0.23924  1.0000
  Fe  Fe5       1.0  0.02722  0.11114  0.25464  1.0000
  H   H31       1.0  0.14866  0.15452  0.20000  1.0000
  H   H32       1.0  0.17760  0.17783  0.40191  1.0000
  H   H33       1.0  0.26744  0.01298  0.34847  1.0000
  H   H34       1.0  0.16644  0.46451  0.25877  1.0000
  H   H35       1.0  0.15293  0.32018  0.01397  1.0000
  C   C26       1.0  0.12678  0.17470  0.25582  1.0000
  H   H36       1.0  0.03544  0.27231  0.03345  1.0000
  H   H37       1.0  0.25294  0.07753  0.38477  1.0000
  H   H38       1.0  0.11570  0.18137  0.18271  1.0000
  C   C27       1.0  0.17228  0.48240  0.27271  1.0000
  H   H39       1.0  0.23473  0.04028  0.23506  1.0000
  H   H40       1.0  0.10053  0.11178  0.22183  1.0000
  C   C28       1.0  0.21524  0.11849  0.45996  1.0000
  C   C29       1.0  0.17122  0.17234  0.25624  1.0000
  C   C30       1.0  0.19246  0.10194  0.38598  1.0000
  H   H41       1.0  0.16229  0.14107  0.40951  1.0000
  H   H42       1.0  0.06263  0.16621  0.22063  1.0000
  H   H43       1.0  0.21789  0.33189  0.16442  1.0000
  C   C31       1.0  0.24804  0.14904  0.44235  1.0000
  H   H44       1.0  0.24890  0.13064  0.47909  1.0000
  H   H45       1.0  0.18150  0.50379  0.22795  1.0000
  C   C32       1.0  0.26440  0.24657  0.26698  1.0000
  H   H46       1.0  0.20782  0.10572  0.47544  1.0000
  H   H47       1.0  0.26175  0.25924  0.28388  1.0000
  H   H48       1.0  0.25228  0.38572  0.06057  1.0000
  N   N3        1.0  0.19225  0.32580  0.08189  1.0000
  C   C33       1.0  0.20289  0.34989  0.06517  1.0000
  C   C34       1.0  0.18798  0.29554  0.06830  1.0000
  C   C35       1.0  0.16791  0.33781  0.08938  1.0000
  C   C36       1.0  0.20966  0.32016  0.10264  1.0000
  C   C37       1.0  0.23290  0.30611  0.09862  1.0000
  C   C38       1.0  0.20461  0.32927  0.12701  1.0000
  C   C39       1.0  0.24977  0.30087  0.11781  1.0000
  C   C40       1.0  0.22186  0.32442  0.14600  1.0000
  C   C41       1.0  0.24439  0.31032  0.14140  1.0000
  H   H49       1.0  0.20757  0.37243  0.07498  1.0000
  H   H50       1.0  0.22003  0.34118  0.05680  1.0000
  H   H51       1.0  0.18993  0.35618  0.04987  1.0000
  H   H52       1.0  0.18161  0.27611  0.08066  1.0000
  H   H53       1.0  0.20471  0.28693  0.05915  1.0000
  H   H54       1.0  0.17388  0.29851  0.05346  1.0000
  H   H55       1.0  0.16936  0.36185  0.09795  1.0000
  H   H56       1.0  0.15506  0.34089  0.07344  1.0000
  H   H57       1.0  0.15891  0.32080  0.10212  1.0000
  H   H58       1.0  0.23854  0.29972  0.08047  1.0000
  H   H59       1.0  0.18761  0.34046  0.13187  1.0000
  H   H60       1.0  0.25655  0.05840  0.42782  1.0000
  H   H61       1.0  0.04550  0.35732  0.20087  1.0000
  H   H62       1.0  0.24908  0.20246  0.28048  1.0000
  C   C42       1.0  0.20203  0.12001  0.43779  1.0000
  C   C43       1.0  0.24544  0.03836  0.21866  1.0000
  H   H63       1.0  0.08562  0.25789  0.01675  1.0000
  Fe  Fe6       1.0  0.25244  0.11360  0.32828  1.0000
  C   C44       1.0  0.07217  0.23781  0.01608  1.0000
  H   H64       1.0  0.22894  0.13854  0.36974  1.0000
  C   C45       1.0  0.10132  0.18618  0.19624  1.0000
  S   S13       1.0  0.25229  0.15694  0.24078  1.0000
  H   H65       1.0  0.20043  0.15041  0.35573  1.0000
  H   H66       1.0  0.21512  0.17666  0.37690  1.0000
  H   H67       1.0  0.26745  0.29028  0.11422  1.0000
  S   S14       1.0  0.04141  0.34405  0.11102  1.0000
  C   C46       1.0  0.21129  0.15095  0.37316  1.0000
  C   C47       1.0  0.25722  0.21435  0.26510  1.0000
  C   C48       1.0  0.09969  0.13003  0.20690  1.0000
  H   H68       1.0  0.16368  0.15350  0.37833  1.0000
  C   C49       1.0  0.17062  0.16402  0.23168  1.0000
  C   C50       1.0  0.23517  0.15035  0.41999  1.0000
  H   H69       1.0  0.04988  0.41212  0.17950  1.0000
  H   H70       1.0  0.24769  0.47165  0.15802  1.0000
  C   C51       1.0  0.26928  0.46039  0.26589  1.0000
  C   C52       1.0  0.26533  0.37313  0.07225  1.0000
  H   H71       1.0  0.25181  0.08916  0.21610  1.0000
  H   H72       1.0  0.04166  0.39257  0.15132  1.0000
  H   H73       1.0  0.26471  0.43478  0.15958  1.0000
  H   H74       1.0  0.19208  0.47808  0.27733  1.0000
  H   H75       1.0  0.16204  0.47728  0.28961  1.0000
  C   C53       1.0  0.26073  0.19767  0.24344  1.0000
  H   H76       1.0  0.25484  0.45272  0.18693  1.0000
  H   H77       1.0  0.26080  0.40474  0.10282  1.0000
  C   C54       1.0  0.26210  0.45835  0.16859  1.0000
  H   H78       1.0  0.26621  0.15958  0.44406  1.0000
  C   C55       1.0  0.02718  0.19423  0.16674  1.0000
  C   C56       1.0  0.27002  0.49286  0.27223  1.0000
  C   C57       1.0  0.03978  0.27650  0.01394  1.0000
  C   C58       1.0  0.26910  0.06346  0.18719  1.0000
  H   H79       1.0  0.26723  0.48936  0.21542  1.0000
  H   H80       1.0  0.05351  0.29632  0.01386  1.0000
  C   C59       1.0  0.03071  0.35310  0.18693  1.0000
  H   H81       1.0  0.27386  0.20087  0.20668  1.0000
  C   C60       1.0  0.27032  0.38397  0.09619  1.0000
  H   H82       1.0  0.27282  0.05542  0.34732  1.0000
  C   C61       1.0  0.27354  0.03348  0.17691  1.0000
  C   C62       1.0  0.27126  0.21359  0.22356  1.0000
  H   H83       1.0  0.02475  0.42611  0.16041  1.0000
  C   C63       1.0  0.24991  0.00823  0.20866  1.0000
  H   H84       1.0  0.15206  0.20231  0.77989  1.0000
  H   H85       1.0  0.11193  0.32388  0.84373  1.0000
  C   C64       1.0  0.07365  0.02899  0.87242  1.0000
  Fe  Fe7       1.0  0.22889  0.38364  0.95840  1.0000
  S   S15       1.0  0.24770  0.33633  0.96484  1.0000
  S   S16       1.0  0.23296  0.41912  0.92668  1.0000
  Fe  Fe8       1.0  0.20980  0.31487  0.96501  1.0000
  S   S17       1.0  0.19979  0.27259  0.94111  1.0000
  S   S18       1.0  0.04107  0.40589  0.75134  1.0000
  S   S19       1.0  0.19127  0.36131  0.95625  1.0000
  C   C65       1.0  0.13925  0.18753  0.81461  1.0000
  Fe  Fe9       1.0  0.25405  0.21413  0.72550  1.0000
  S   S20       1.0  0.22289  0.19207  0.70420  1.0000
  C   C66       1.0  0.05738  0.02925  0.83075  1.0000
  H   H86       1.0  0.19032  0.47100  0.96698  1.0000
  S   S21       1.0  0.21762  0.25971  0.67508  1.0000
  Fe  Fe10      1.0  0.20361  0.23904  0.71008  1.0000
  S   S22       1.0  0.16489  0.23878  0.72489  1.0000
  C   C67       1.0  0.14980  0.28735  0.80490  1.0000
  S   S23       1.0  0.23389  0.25962  0.73338  1.0000
  Fe  Fe11      1.0  0.07103  0.37323  0.76600  1.0000
  S   S24       1.0  0.07339  0.39715  0.80259  1.0000
  S   S25       1.0  0.10784  0.36824  0.74757  1.0000
  H   H87       1.0  0.15014  0.41192  0.93553  1.0000
  H   H88       1.0  0.19515  0.49686  0.88487  1.0000
  H   H89       1.0  0.03313  0.28345  0.87877  1.0000
  H   H90       1.0  0.27202  0.08715  0.71205  1.0000
  H   H91       1.0  0.13886  0.45315  0.79173  1.0000
  N   N4        1.0  0.15430  0.45725  0.95353  1.0000
  S   S26       1.0  0.04437  0.33574  0.77808  1.0000
  Fe  Fe12      1.0  0.07453  0.10209  0.90384  1.0000
  C   C68       1.0  0.16140  0.14494  0.83520  1.0000
  S   S27       1.0  0.08078  0.04864  0.90020  1.0000
  Fe  Fe13      1.0  0.08699  0.16133  0.93436  1.0000
  S   S28       1.0  0.05904  0.19106  0.91432  1.0000
  S   S29       1.0  0.10572  0.18883  0.96506  1.0000
  H   H92       1.0  0.11783  0.24906  0.90728  1.0000
  Fe  Fe14      1.0  0.07330  0.16822  0.88065  1.0000
  S   S30       1.0  0.08047  0.19510  0.84574  1.0000
  S   S31       1.0  0.06080  0.12008  0.93980  1.0000
  S   S32       1.0  0.10322  0.14088  0.90046  1.0000
  C   C69       1.0  0.05327  0.29796  0.84719  1.0000
  H   H93       1.0  0.06812  0.27620  0.97613  1.0000
  C   C70       1.0  0.05249  0.24390  0.86324  1.0000
  C   C71       1.0  0.06846  0.23401  0.84522  1.0000
  C   C72       1.0  0.07594  0.25590  0.82740  1.0000
  C   C73       1.0  0.06815  0.28786  0.82827  1.0000
  H   H94       1.0  0.06572  0.47240  0.88200  1.0000
  C   C74       1.0  0.20988  0.13609  0.77577  1.0000
  H   H95       1.0  0.08826  0.24842  0.81332  1.0000
  H   H96       1.0  0.07460  0.30491  0.81494  1.0000
  H   H97       1.0  0.03516  0.02210  0.92227  1.0000
  H   H98       1.0  0.10795  0.24263  0.87625  1.0000
  C   C75       1.0  0.06365  0.04565  0.85234  1.0000
  H   H99       1.0  0.24712  0.15478  0.59026  1.0000
  C   C76       1.0  0.26268  0.29393  0.87631  1.0000
  C   C77       1.0  0.05628  0.47538  0.84356  1.0000
  C   C78       1.0  0.27058  0.13157  0.73184  1.0000
  H   H100      1.0  0.06081  0.07118  0.85334  1.0000
  S   S33       1.0  0.04237  0.48065  0.79477  1.0000
  H   H101      1.0  0.05546  0.44969  0.84121  1.0000
  C   C79       1.0  0.14933  0.27489  0.73151  1.0000
  C   C80       1.0  0.12582  0.27354  0.74158  1.0000
  C   C81       1.0  0.11293  0.30184  0.74689  1.0000
  C   C82       1.0  0.12341  0.33178  0.74200  1.0000
  C   C83       1.0  0.14702  0.33307  0.73222  1.0000
  C   C84       1.0  0.15996  0.30482  0.72707  1.0000
  H   H102      1.0  0.11745  0.25050  0.74511  1.0000
  H   H103      1.0  0.09478  0.30046  0.75441  1.0000
  H   H104      1.0  0.15532  0.35607  0.72838  1.0000
  H   H105      1.0  0.17804  0.30623  0.71937  1.0000
  C   C85       1.0  0.17384  0.24926  0.94840  1.0000
  C   C86       1.0  0.15948  0.25634  0.96850  1.0000
  C   C87       1.0  0.13866  0.23761  0.97351  1.0000
  C   C88       1.0  0.13181  0.21209  0.95820  1.0000
  C   C89       1.0  0.14598  0.20532  0.93792  1.0000
  C   C90       1.0  0.16702  0.22370  0.93316  1.0000
  H   H106      1.0  0.16452  0.27605  0.98030  1.0000
  H   H107      1.0  0.12784  0.24291  0.98928  1.0000
  H   H108      1.0  0.14105  0.18546  0.92623  1.0000
  H   H109      1.0  0.17813  0.21794  0.91768  1.0000
  H   H110      1.0  0.22147  0.13526  0.75928  1.0000
  C   C91       1.0  0.04518  0.27589  0.86448  1.0000
  Fe  Fe15      1.0  0.04188  0.42706  0.78914  1.0000
  H   H111      1.0  0.09398  0.30009  0.87780  1.0000
  H   H112      1.0  0.03878  0.26063  0.96585  1.0000
  H   H113      1.0  0.17744  0.43716  0.98238  1.0000
  H   H114      1.0  0.09106  0.50397  0.78867  1.0000
  Fe  Fe16      1.0  0.04446  0.36235  0.81338  1.0000
  H   H115      1.0  0.22664  0.29318  0.62525  1.0000
  H   H116      1.0  0.19178  0.12523  0.81736  1.0000
  C   C92       1.0  0.25972  0.42968  0.91058  1.0000
  H   H117      1.0  0.12968  0.16810  0.84960  1.0000
  H   H118      1.0  0.16526  0.13378  0.75262  1.0000
  C   C93       1.0  0.09444  0.46102  0.74760  1.0000
  H   H119      1.0  0.21763  0.19225  0.75636  1.0000
  H   H120      1.0  0.26765  0.14608  0.71559  1.0000
  Fe  Fe17      1.0  0.03431  0.14834  0.91659  1.0000
  H   H121      1.0  0.18889  0.43214  0.95268  1.0000
  C   C94       1.0  0.12593  0.30728  0.83831  1.0000
  C   C95       1.0  0.15557  0.47522  0.93016  1.0000
  H   H122      1.0  0.11615  0.33120  0.88477  1.0000
  H   H123      1.0  0.16367  0.17599  0.74645  1.0000
  C   C96       1.0  0.17468  0.16331  0.79485  1.0000
  C   C97       1.0  0.12110  0.44827  0.78205  1.0000
  S   S34       1.0  0.20578  0.31951  0.00550  1.0000
  H   H124      1.0  0.20127  0.11199  0.77747  1.0000
  H   H125      1.0  0.24593  0.30303  0.91083  1.0000
  C   C98       1.0  0.20430  0.19278  0.77138  1.0000
  C   C99       1.0  0.15521  0.18587  0.79502  1.0000
  H   H126      1.0  0.13957  0.41232  0.96635  1.0000
  N   N5        1.0  0.19113  0.16184  0.77374  1.0000
  H   H127      1.0  0.16048  0.31652  0.89099  1.0000
  C   C100      1.0  0.13405  0.48875  0.91923  1.0000
  C   C101      1.0  0.25723  0.44007  0.88616  1.0000
  H   H128      1.0  0.16356  0.12894  0.85080  1.0000
  H   H129      1.0  0.14955  0.29274  0.91598  1.0000
  H   H130      1.0  0.22278  0.13998  0.79152  1.0000
  H   H131      1.0  0.16499  0.24759  0.85706  1.0000
  C   C102      1.0  0.16150  0.26581  0.82079  1.0000
  C   C103      1.0  0.14115  0.47610  0.97206  1.0000
  H   H132      1.0  0.19482  0.46814  0.92328  1.0000
  C   C104      1.0  0.17812  0.49492  0.89463  1.0000
  H   H133      1.0  0.23928  0.44004  0.87733  1.0000
  H   H134      1.0  0.12420  0.20452  0.81419  1.0000
  C   C105      1.0  0.17644  0.15601  0.75103  1.0000
  C   C106      1.0  0.13208  0.30802  0.81363  1.0000
  C   C107      1.0  0.26526  0.16250  0.59615  1.0000
  Fe  Fe18      1.0  0.24029  0.21492  0.67147  1.0000
  C   C108      1.0  0.27266  0.14607  0.75471  1.0000
  S   S35       1.0  0.24169  0.18922  0.63488  1.0000
  H   H135      1.0  0.13856  0.23290  0.88609  1.0000
  C   C109      1.0  0.23658  0.27960  0.61110  1.0000
  H   H136      1.0  0.12291  0.32462  0.80109  1.0000
  C   C110      1.0  0.13728  0.28525  0.85498  1.0000
  H   H137      1.0  0.15449  0.28809  0.78575  1.0000
  C   C111      1.0  0.14231  0.16705  0.83461  1.0000
  H   H138      1.0  0.02716  0.14204  0.98314  1.0000
  C   C112      1.0  0.05101  0.49577  0.82376  1.0000
  C   C113      1.0  0.15539  0.26468  0.84545  1.0000
  C   C114      1.0  0.17883  0.44920  0.96426  1.0000
  H   H139      1.0  0.21491  0.19854  0.78839  1.0000
  H   H140      1.0  0.17533  0.24981  0.81391  1.0000
  S   S36       1.0  0.04619  0.12804  0.88103  1.0000
  H   H141      1.0  0.18828  0.15351  0.73486  1.0000
  H   H142      1.0  0.10697  0.30350  0.90782  1.0000
  H   H143      1.0  0.16871  0.27513  0.89397  1.0000
  C   C115      1.0  0.17747  0.14299  0.81570  1.0000
  H   H144      1.0  0.19168  0.21308  0.76722  1.0000
  Fe  Fe19      1.0  0.24214  0.34527  0.00514  1.0000
  C   C116      1.0  0.14081  0.42687  0.94927  1.0000
  Fe  Fe20      1.0  0.24941  0.27723  0.69821  1.0000
  N   N6        1.0  0.13136  0.28372  0.88124  1.0000
  C   C117      1.0  0.15343  0.29242  0.89610  1.0000
  C   C118      1.0  0.11127  0.30567  0.88809  1.0000
  C   C119      1.0  0.12366  0.25073  0.88795  1.0000
  H   H145      1.0  0.02703  0.17662  0.83519  1.0000
  H   H146      1.0  0.04954  0.04229  0.81534  1.0000
  Fe  Fe21      1.0  0.19012  0.36794  0.99662  1.0000
  H   H147      1.0  0.13632  0.46599  0.72386  1.0000
  C   C120      1.0  0.17765  0.47844  0.91694  1.0000
  N   N7        1.0  0.04936  0.24699  0.00252  1.0000
  H   H148      1.0  0.26243  0.28787  0.65146  1.0000
  C   C121      1.0  0.27260  0.27595  0.63672  1.0000
  C   C122      1.0  0.26815  0.17965  0.61806  1.0000
  H   H149      1.0  0.06525  0.23521  0.96784  1.0000
  H   H150      1.0  0.11999  0.42199  0.77875  1.0000
  C   C123      1.0  0.12200  0.50144  0.76414  1.0000
  H   H151      1.0  0.12141  0.47949  0.96730  1.0000
  H   H152      1.0  0.10612  0.45392  0.79478  1.0000
  C   C124      1.0  0.05561  0.25512  0.97698  1.0000
  H   H153      1.0  0.26685  0.36452  0.81680  1.0000
  C   C125      1.0  0.06200  0.48829  0.86669  1.0000
  S   S37       1.0  0.22609  0.39440  0.99863  1.0000
  S   S38       1.0  0.04504  0.33815  0.84985  1.0000
  H   H154      1.0  0.04536  0.22688  0.87602  1.0000
  H   H155      1.0  0.25630  0.26931  0.87567  1.0000
  H   H156      1.0  0.09189  0.43541  0.74249  1.0000
  C   C126      1.0  0.26481  0.34453  0.89710  1.0000
  H   H157      1.0  0.11634  0.48646  0.92758  1.0000
  H   H158      1.0  0.24707  0.24041  0.57765  1.0000
  H   H159      1.0  0.14147  0.46384  0.99024  1.0000
  H   H160      1.0  0.26297  0.50201  0.92441  1.0000
  C   C127      1.0  0.13754  0.45403  0.74207  1.0000
  H   H161      1.0  0.09160  0.47575  0.73077  1.0000
  H   H162      1.0  0.12170  0.43110  0.94247  1.0000
  H   H163      1.0  0.13469  0.42793  0.73865  1.0000
  H   H164      1.0  0.07930  0.46676  0.76007  1.0000
  H   H165      1.0  0.02888  0.06363  0.88970  1.0000
  H   H166      1.0  0.02615  0.26836  0.78805  1.0000
  C   C128      1.0  0.03828  0.19004  0.99229  1.0000
  H   H167      1.0  0.23249  0.25382  0.61468  1.0000
  C   C129      1.0  0.26625  0.24677  0.57702  1.0000
  C   C130      1.0  0.25680  0.31287  0.89616  1.0000
  H   H168      1.0  0.15650  0.45654  0.74977  1.0000
  N   N8        1.0  0.11901  0.46686  0.75892  1.0000
  C   C131      1.0  0.03178  0.21987  0.00260  1.0000
  S   S39       1.0  0.27149  0.18792  0.75756  1.0000
  H   H169      1.0  0.22838  0.28658  0.59307  1.0000
  S   S40       1.0  0.26080  0.32842  0.69156  1.0000
  H   H170      1.0  0.14960  0.50022  0.97443  1.0000
  H   H171      1.0  0.05610  0.18645  0.98447  1.0000
  H   H172      1.0  0.26007  0.35932  0.91249  1.0000
  S   S41       1.0  0.27303  0.23384  0.69255  1.0000
  N   N9        1.0  0.26341  0.28611  0.61226  1.0000
  H   H173      1.0  0.26116  0.32974  0.59119  1.0000
  C   C132      1.0  0.26683  0.32127  0.60979  1.0000
  H   H174      1.0  0.27034  0.24969  0.63923  1.0000
  H   H175      1.0  0.25588  0.33460  0.62336  1.0000
  C   C133      1.0  0.27309  0.09822  0.72985  1.0000
  H   H176      1.0  0.08177  0.21737  0.00759  1.0000
  C   C134      1.0  0.13477  0.50534  0.89699  1.0000
  H   H177      1.0  0.27146  0.21326  0.54781  1.0000
  H   H178      1.0  0.27240  0.39372  0.70347  1.0000
  C   C135      1.0  0.06408  0.67256  0.17036  1.0000
  H   H179      1.0  0.08423  0.68413  0.20316  1.0000
  C   C136      1.0  0.20835  0.69031  0.36434  1.0000
  Fe  Fe22      1.0  0.20287  0.61429  0.29593  1.0000
  S   S42       1.0  0.22137  0.59441  0.26321  1.0000
  S   S43       1.0  0.16171  0.62115  0.30066  1.0000
  Fe  Fe23      1.0  0.25167  0.61943  0.32547  1.0000
  H   H180      1.0  0.19398  0.63574  0.34184  1.0000
  H   H181      1.0  0.18304  0.54602  0.23563  1.0000
  Fe  Fe24      1.0  0.24286  0.56418  0.29009  1.0000
  C   C137      1.0  0.23682  0.80174  0.13544  1.0000
  S   S44       1.0  0.23043  0.65395  0.30123  1.0000
  S   S45       1.0  0.22249  0.58146  0.32267  1.0000
  C   C138      1.0  0.26411  0.00487  0.18734  1.0000
  C   C139      1.0  0.20281  0.65310  0.45159  1.0000
  S   S46       1.0  0.08402  0.60593  0.21226  1.0000
  S   S47       1.0  0.07086  0.83364  0.08941  1.0000
  H   H182      1.0  0.08281  0.81511  0.15389  1.0000
  H   H183      1.0  0.06554  0.64693  0.17335  1.0000
  H   H184      1.0  0.26671  0.76135  0.27853  1.0000
  H   H185      1.0  0.22988  0.80487  0.09657  1.0000
  H   H186      1.0  0.24721  0.89843  0.10834  1.0000
  H   H187      1.0  0.04783  0.67428  0.01820  1.0000
  H   H188      1.0  0.22800  0.68390  0.36723  1.0000
  C   C140      1.0  0.14014  0.61704  0.27599  1.0000
  C   C141      1.0  0.11486  0.61642  0.28068  1.0000
  C   C142      1.0  0.09733  0.61310  0.26148  1.0000
  C   C143      1.0  0.10496  0.61051  0.23735  1.0000
  C   C144      1.0  0.13023  0.61111  0.23272  1.0000
  C   C145      1.0  0.14773  0.61428  0.25187  1.0000
  H   H189      1.0  0.10878  0.61852  0.29925  1.0000
  H   H190      1.0  0.07795  0.61260  0.26532  1.0000
  H   H191      1.0  0.13632  0.60914  0.21413  1.0000
  H   H192      1.0  0.16706  0.61499  0.24791  1.0000
  C   C146      1.0  0.07465  0.69368  0.18711  1.0000
  H   H193      1.0  0.20537  0.71365  0.37347  1.0000
  H   H194      1.0  0.24640  0.78616  0.21950  1.0000
  S   S48       1.0  0.26894  0.64187  0.35965  1.0000
  H   H195      1.0  0.04271  0.66769  0.13726  1.0000
  S   S49       1.0  0.24338  0.51084  0.28346  1.0000
  H   H196      1.0  0.24552  0.75126  0.20117  1.0000
  N   N10       1.0  0.19153  0.66531  0.37374  1.0000
  Fe  Fe25      1.0  0.25064  0.63148  0.27047  1.0000
  H   H197      1.0  0.24444  0.83782  0.20338  1.0000
  C   C147      1.0  0.13357  0.52708  0.23265  1.0000
  C   C148      1.0  0.27342  0.74777  0.26332  1.0000
  H   H198      1.0  0.23514  0.87775  0.06737  1.0000
  C   C149      1.0  0.12267  0.88168  0.03552  1.0000
  C   C150      1.0  0.13028  0.85512  0.04938  1.0000
  C   C151      1.0  0.11438  0.84106  0.06624  1.0000
  C   C152      1.0  0.09069  0.85326  0.06920  1.0000
  C   C153      1.0  0.08318  0.88017  0.05567  1.0000
  C   C154      1.0  0.09923  0.89450  0.03904  1.0000
  H   H199      1.0  0.14844  0.84550  0.04727  1.0000
  H   H200      1.0  0.12037  0.82043  0.07682  1.0000
  H   H201      1.0  0.06504  0.88996  0.05802  1.0000
  N   N11       1.0  0.05844  0.77481  0.15889  1.0000
  C   C155      1.0  0.04525  0.78933  0.17945  1.0000
  C   C156      1.0  0.08343  0.78886  0.15786  1.0000
  C   C157      1.0  0.04524  0.78421  0.13598  1.0000
  C   C158      1.0  0.06005  0.73967  0.16255  1.0000
  C   C159      1.0  0.07271  0.72679  0.18334  1.0000
  H   H202      1.0  0.09399  0.78585  0.17528  1.0000
  S   S50       1.0  0.25612  0.82704  0.03739  1.0000
  H   H203      1.0  0.10258  0.80760  0.02363  1.0000
  C   C160      1.0  0.04915  0.71735  0.14603  1.0000
  H   H204      1.0  0.05518  0.78619  0.19721  1.0000
  S   S51       1.0  0.18413  0.82181  0.01461  1.0000
  H   H205      1.0  0.05442  0.77480  0.11955  1.0000
  H   H206      1.0  0.21683  0.73994  0.17134  1.0000
  C   C161      1.0  0.26525  0.96132  0.26711  1.0000
  H   H207      1.0  0.04460  0.81069  0.13362  1.0000
  H   H208      1.0  0.25641  0.70381  0.27497  1.0000
  S   S52       1.0  0.26758  0.65673  0.23818  1.0000
  H   H209      1.0  0.19513  0.53567  0.28856  1.0000
  H   H210      1.0  0.08107  0.74221  0.19692  1.0000
  H   H211      1.0  0.16425  0.67614  0.34561  1.0000
  C   C162      1.0  0.09881  0.52224  0.26920  1.0000
  H   H212      1.0  0.03858  0.72466  0.13005  1.0000
  H   H213      1.0  0.20580  0.69401  0.34428  1.0000
  H   H214      1.0  0.24433  0.84648  0.17165  1.0000
  S   S53       1.0  0.14147  0.89849  0.01294  1.0000
  H   H215      1.0  0.17244  0.56328  0.27715  1.0000
  N   N12       1.0  0.24486  0.79576  0.18062  1.0000
  H   H216      1.0  0.07222  0.53455  0.24101  1.0000
  Fe  Fe26      1.0  0.03140  0.84972  0.09171  1.0000
  C   C163      1.0  0.21991  0.75522  0.15572  1.0000
  Fe  Fe27      1.0  0.04213  0.60285  0.20990  1.0000
  C   C164      1.0  0.20997  0.74486  0.13333  1.0000
  C   C165      1.0  0.21346  0.76278  0.11212  1.0000
  H   H217      1.0  0.25046  0.94545  0.27221  1.0000
  C   C166      1.0  0.19725  0.63447  0.36194  1.0000
  C   C167      1.0  0.23355  0.78426  0.15744  1.0000
  C   C168      1.0  0.23829  0.77615  0.20229  1.0000
  H   H218      1.0  0.16505  0.53466  0.30024  1.0000
  H   H219      1.0  0.09411  0.77764  0.14307  1.0000
  H   H220      1.0  0.26334  0.57605  0.37780  1.0000
  H   H221      1.0  0.23374  0.64931  0.39905  1.0000
  H   H222      1.0  0.20590  0.75462  0.09476  1.0000
  H   H223      1.0  0.06335  0.82921  0.02468  1.0000
  H   H224      1.0  0.09332  0.91525  0.02855  1.0000
  H   H225      1.0  0.21686  0.83131  0.18527  1.0000
  H   H226      1.0  0.24229  0.98800  0.21830  1.0000
  C   C169      1.0  0.12365  0.51719  0.27493  1.0000
  H   H227      1.0  0.16081  0.69789  0.37335  1.0000
  H   H228      1.0  0.02587  0.77594  0.13592  1.0000
  C   C170      1.0  0.16615  0.67424  0.36592  1.0000
  H   H229      1.0  0.21675  0.62739  0.36481  1.0000
  C   C171      1.0  0.17578  0.66651  0.41726  1.0000
  C   C172      1.0  0.22691  0.79114  0.11317  1.0000
  C   C173      1.0  0.19503  0.66191  0.40053  1.0000
  H   H230      1.0  0.15261  0.65574  0.37151  1.0000
  C   C174      1.0  0.17977  0.66216  0.44242  1.0000
  C   C175      1.0  0.25074  0.86757  0.07719  1.0000
  C   C176      1.0  0.22204  0.64858  0.43569  1.0000
  H   H231      1.0  0.19967  0.72264  0.13237  1.0000
  C   C177      1.0  0.17542  0.53817  0.28324  1.0000
  C   C178      1.0  0.25769  0.87930  0.10045  1.0000
  C   C179      1.0  0.26400  0.84274  0.06670  1.0000
  H   H232      1.0  0.10274  0.53826  0.20870  1.0000
  C   C180      1.0  0.25836  0.94593  0.18948  1.0000
  H   H233      1.0  0.23998  0.64129  0.44277  1.0000
  H   H234      1.0  0.15748  0.67330  0.41140  1.0000
  H   H235      1.0  0.20581  0.64946  0.47106  1.0000
  C   C181      1.0  0.05132  0.68434  0.14995  1.0000
  C   C182      1.0  0.25905  0.97279  0.15074  1.0000
  H   H236      1.0  0.16487  0.66562  0.45491  1.0000
  C   C183      1.0  0.21828  0.65309  0.41060  1.0000
  H   H237      1.0  0.18568  0.61467  0.36911  1.0000
  C   C184      1.0  0.10866  0.53163  0.22710  1.0000
  H   H238      1.0  0.02672  0.77839  0.18129  1.0000
  H   H239      1.0  0.23804  0.94778  0.19019  1.0000
  C   C185      1.0  0.27102  0.51068  0.20482  1.0000
  N   N13       1.0  0.26919  0.97342  0.17611  1.0000
  C   C186      1.0  0.09136  0.52959  0.24535  1.0000
  H   H240      1.0  0.21810  0.77526  0.20470  1.0000
  C   C187      1.0  0.23721  0.82924  0.18536  1.0000
  C   C188      1.0  0.02901  0.67587  0.01138  1.0000
  H   H241      1.0  0.24740  0.82361  0.13523  1.0000
  H   H242      1.0  0.04240  0.81556  0.17667  1.0000
  H   H243      1.0  0.23893  0.97740  0.15037  1.0000
  H   H244      1.0  0.08529  0.52110  0.28339  1.0000
  C   C189      1.0  0.27189  0.79509  0.17867  1.0000
  C   C190      1.0  0.26341  0.99426  0.27155  1.0000
  H   H245      1.0  0.26236  0.92273  0.18046  1.0000
  H   H246      1.0  0.25915  0.54124  0.23389  1.0000
  C   C191      1.0  0.14188  0.51997  0.25690  1.0000
  H   H247      1.0  0.14590  0.53012  0.21769  1.0000
  C   C192      1.0  0.26753  0.71514  0.26133  1.0000
  H   H248      1.0  0.26214  0.94910  0.14199  1.0000
  S   S54       1.0  0.27378  0.59945  0.29485  1.0000
  H   H249      1.0  0.26774  0.99095  0.13880  1.0000
  N   N14       1.0  0.16815  0.51553  0.26362  1.0000
  S   S55       1.0  0.02832  0.58762  0.17250  1.0000
  C   C193      1.0  0.18489  0.52115  0.24296  1.0000
  C   C194      1.0  0.27226  0.59024  0.39188  1.0000
  H   H250      1.0  0.26860  0.59156  0.21205  1.0000
  C   C195      1.0  0.26645  0.54026  0.21565  1.0000
  C   C196      1.0  0.05328  0.81287  0.01293  1.0000
  H   H251      1.0  0.20450  0.51829  0.24870  1.0000
  C   C197      1.0  0.27176  0.56865  0.20337  1.0000
  H   H252      1.0  0.12850  0.51167  0.29371  1.0000
  C   C198      1.0  0.02913  0.80569  0.01913  1.0000
  H   H253      1.0  0.26610  0.94408  0.20842  1.0000
  H   H254      1.0  0.02675  0.51846  0.14791  1.0000
  Fe  Fe28      1.0  0.22330  0.83974  0.01234  1.0000
  H   H255      1.0  0.27428  0.55128  0.41799  1.0000
  H   H256      1.0  0.10503  0.76974  0.00878  1.0000
  C   C199      1.0  0.05312  0.87306  0.69963  1.0000
  C   C200      1.0  0.10824  0.54945  0.78564  1.0000
  H   H257      1.0  0.11538  0.87518  0.86947  1.0000
  Fe  Fe29      1.0  0.21470  0.87142  0.96157  1.0000
  S   S56       1.0  0.22638  0.82232  0.97374  1.0000
  S   S57       1.0  0.23264  0.88132  0.92500  1.0000
  Fe  Fe30      1.0  0.18651  0.80982  0.97472  1.0000
  S   S58       1.0  0.17057  0.77291  0.94875  1.0000
  H   H258      1.0  0.20759  0.57016  0.90319  1.0000
  S   S59       1.0  0.17486  0.85820  0.96138  1.0000
  H   H259      1.0  0.19205  0.87428  0.89331  1.0000
  H   H260      1.0  0.25821  0.79954  0.65182  1.0000
  S   S60       1.0  0.23656  0.69302  0.71013  1.0000
  H   H261      1.0  0.11419  0.83244  0.89614  1.0000
  H   H262      1.0  0.24343  0.65722  0.59438  1.0000
  S   S61       1.0  0.22533  0.76354  0.68599  1.0000
  Fe  Fe31      1.0  0.22030  0.73988  0.72244  1.0000
  S   S62       1.0  0.18693  0.74372  0.74649  1.0000
  H   H263      1.0  0.15739  0.56750  0.75123  1.0000
  S   S63       1.0  0.25588  0.75757  0.73896  1.0000
  Fe  Fe32      1.0  0.08227  0.86901  0.77155  1.0000
  S   S64       1.0  0.09077  0.89461  0.80676  1.0000
  S   S65       1.0  0.11057  0.85925  0.74268  1.0000
  C   C201      1.0  0.26584  0.60163  0.75889  1.0000
  Fe  Fe33      1.0  0.05654  0.92286  0.79844  1.0000
  S   S66       1.0  0.05239  0.97643  0.80170  1.0000
  Fe  Fe34      1.0  0.06480  0.85894  0.82297  1.0000
  H   H264      1.0  0.15404  0.91257  0.82077  1.0000
  S   S67       1.0  0.05006  0.90062  0.76152  1.0000
  S   S68       1.0  0.05860  0.83129  0.78841  1.0000
  Fe  Fe35      1.0  0.06213  0.58992  0.90569  1.0000
  H   H265      1.0  0.25537  0.58829  0.65523  1.0000
  S   S69       1.0  0.06904  0.53706  0.89956  1.0000
  Fe  Fe36      1.0  0.07187  0.64689  0.93938  1.0000
  S   S70       1.0  0.04571  0.67861  0.91847  1.0000
  S   S71       1.0  0.09082  0.66734  0.97294  1.0000
  H   H266      1.0  0.15796  0.82598  0.84582  1.0000
  Fe  Fe37      1.0  0.06305  0.65779  0.88550  1.0000
  S   S72       1.0  0.07377  0.68606  0.85225  1.0000
  S   S73       1.0  0.04548  0.60542  0.94099  1.0000
  S   S74       1.0  0.09102  0.62849  0.90642  1.0000
  C   C202      1.0  0.07612  0.79484  0.85863  1.0000
  C   C203      1.0  0.05201  0.52904  0.82712  1.0000
  C   C204      1.0  0.07163  0.74264  0.87782  1.0000
  C   C205      1.0  0.07644  0.72774  0.85564  1.0000
  C   C206      1.0  0.08258  0.74650  0.83538  1.0000
  C   C207      1.0  0.08243  0.78001  0.83688  1.0000
  H   H267      1.0  0.26691  0.83588  0.78520  1.0000
  H   H268      1.0  0.22330  0.52855  0.93186  1.0000
  H   H269      1.0  0.24696  0.59377  0.75990  1.0000
  H   H270      1.0  0.08717  0.79424  0.82116  1.0000
  C   C208      1.0  0.25617  0.52042  0.91189  1.0000
  C   C209      1.0  0.10662  0.79610  0.00596  1.0000
  C   C210      1.0  0.05764  0.54191  0.85023  1.0000
  C   C211      1.0  0.24775  0.94496  0.92107  1.0000
  H   H271      1.0  0.03395  0.80458  0.65613  1.0000
  C   C212      1.0  0.07154  0.97946  0.84891  1.0000
  C   C213      1.0  0.13365  0.92007  0.87216  1.0000
  H   H272      1.0  0.12619  0.82715  0.85356  1.0000
  H   H273      1.0  0.08528  0.82581  0.69636  1.0000
  H   H274      1.0  0.07454  0.95394  0.84768  1.0000
  C   C214      1.0  0.16608  0.77627  0.74533  1.0000
  C   C215      1.0  0.14776  0.77820  0.76293  1.0000
  C   C216      1.0  0.13077  0.80362  0.76254  1.0000
  C   C217      1.0  0.13187  0.82727  0.74438  1.0000
  C   C218      1.0  0.15029  0.82548  0.72689  1.0000
  C   C219      1.0  0.16741  0.80023  0.72742  1.0000
  H   H275      1.0  0.14661  0.75978  0.77687  1.0000
  H   H276      1.0  0.11671  0.80469  0.77613  1.0000
  H   H277      1.0  0.15135  0.84374  0.71283  1.0000
  H   H278      1.0  0.18143  0.79908  0.71379  1.0000
  C   C220      1.0  0.14873  0.74359  0.95632  1.0000
  C   C221      1.0  0.14375  0.73551  0.98054  1.0000
  C   C222      1.0  0.12600  0.71193  0.98559  1.0000
  C   C223      1.0  0.11310  0.69663  0.96646  1.0000
  C   C224      1.0  0.11789  0.70513  0.94231  1.0000
  C   C225      1.0  0.13577  0.72833  0.93728  1.0000
  C   C226      1.0  0.13267  0.88665  0.87398  1.0000
  H   H279      1.0  0.26094  0.99357  0.91724  1.0000
  H   H280      1.0  0.10800  0.69361  0.92745  1.0000
  H   H281      1.0  0.13954  0.73444  0.91851  1.0000
  H   H282      1.0  0.14526  0.87158  0.78926  1.0000
  C   C227      1.0  0.26146  0.78823  0.63385  1.0000
  Fe  Fe38      1.0  0.24539  0.71878  0.67517  1.0000
  H   H283      1.0  0.23833  0.79396  0.78114  1.0000
  C   C228      1.0  0.06242  0.52159  0.87017  1.0000
  H   H284      1.0  0.25625  0.65013  0.74874  1.0000
  H   H285      1.0  0.24327  0.83536  0.74754  1.0000
  N   N15       1.0  0.15175  0.83311  0.88405  1.0000
  C   C229      1.0  0.06124  0.99614  0.82895  1.0000
  C   C230      1.0  0.06730  0.82185  0.68661  1.0000
  C   C231      1.0  0.24545  0.91499  0.91000  1.0000
  H   H286      1.0  0.09554  0.56062  0.79797  1.0000
  H   H287      1.0  0.11168  0.84943  0.97848  1.0000
  H   H288      1.0  0.19687  0.92273  0.83473  1.0000
  C   C232      1.0  0.17530  0.88585  0.88730  1.0000
  N   N16       1.0  0.22776  0.84374  0.78285  1.0000
  C   C233      1.0  0.25255  0.85128  0.79316  1.0000
  C   C234      1.0  0.22302  0.80919  0.78741  1.0000
  C   C235      1.0  0.22841  0.84937  0.75609  1.0000
  C   C236      1.0  0.20793  0.86306  0.79346  1.0000
  C   C237      1.0  0.18314  0.85796  0.78594  1.0000
  C   C238      1.0  0.21237  0.88703  0.81139  1.0000
  C   C239      1.0  0.16399  0.87560  0.79572  1.0000
  H   H289      1.0  0.24519  0.79424  0.62210  1.0000
  C   C240      1.0  0.26506  0.68718  0.61853  1.0000
  H   H290      1.0  0.08877  0.85549  0.00025  1.0000
  H   H291      1.0  0.25364  0.84722  0.81325  1.0000
  C   C241      1.0  0.15529  0.93637  0.87806  1.0000
  H   H292      1.0  0.04029  0.80037  0.72475  1.0000
  H   H293      1.0  0.12852  0.59286  0.77942  1.0000
  C   C242      1.0  0.12678  0.56759  0.77522  1.0000
  H   H294      1.0  0.15393  0.51110  0.74135  1.0000
  C   C243      1.0  0.17607  0.91928  0.88558  1.0000
  H   H295      1.0  0.05658  0.76439  0.96288  1.0000
  H   H296      1.0  0.17841  0.84041  0.77222  1.0000
  S   S75       1.0  0.03105  0.88909  0.81745  1.0000
  H   H297      1.0  0.03976  0.68244  0.97422  1.0000
  C   C244      1.0  0.26129  0.55233  0.87445  1.0000
  C   C245      1.0  0.15344  0.86846  0.88176  1.0000
  H   H298      1.0  0.22065  0.80425  0.80720  1.0000
  C   C246      1.0  0.16892  0.89873  0.81338  1.0000
  H   H299      1.0  0.25614  0.75605  0.59499  1.0000
  C   C247      1.0  0.04638  0.82583  0.72437  1.0000
  C   C248      1.0  0.07763  0.99585  0.87061  1.0000
  H   H300      1.0  0.11808  0.51567  0.88915  1.0000
  H   H301      1.0  0.26762  0.88661  0.99821  1.0000
  H   H302      1.0  0.07989  0.85205  0.96875  1.0000
  H   H303      1.0  0.26178  0.76187  0.63705  1.0000
  H   H304      1.0  0.06958  0.83098  0.66767  1.0000
  Fe  Fe39      1.0  0.17493  0.87136  0.00095  1.0000
  C   C249      1.0  0.23839  0.56707  0.87922  1.0000
  C   C250      1.0  0.02453  0.68045  0.98651  1.0000
  H   H305      1.0  0.05834  0.56758  0.85256  1.0000
  H   H306      1.0  0.19290  0.93197  0.89040  1.0000
  N   N17       1.0  0.08985  0.80724  0.98601  1.0000
  H   H307      1.0  0.21106  0.84217  0.74655  1.0000
  C   C251      1.0  0.02557  0.76973  0.98500  1.0000
  C   C252      1.0  0.19304  0.90442  0.82119  1.0000
  H   H308      1.0  0.19013  0.82233  0.87934  1.0000
  C   C253      1.0  0.09803  0.79254  0.96297  1.0000
  H   H309      1.0  0.15713  0.52133  0.86749  1.0000
  H   H310      1.0  0.11730  0.79940  0.95884  1.0000
  H   H311      1.0  0.24112  0.94844  0.93931  1.0000
  H   H312      1.0  0.08635  0.80018  0.94707  1.0000
  C   C254      1.0  0.04970  0.77682  0.97854  1.0000
  C   C255      1.0  0.14077  0.52063  0.75380  1.0000
  H   H313      1.0  0.13720  0.83554  0.92010  1.0000
  H   H314      1.0  0.20632  0.80037  0.77749  1.0000
  C   C256      1.0  0.15676  0.50853  0.88476  1.0000
  H   H315      1.0  0.09786  0.76593  0.96416  1.0000
  H   H316      1.0  0.04802  0.54495  0.81187  1.0000
  C   C257      1.0  0.06424  0.79905  0.99220  1.0000
  H   H317      1.0  0.23176  0.87512  0.75182  1.0000
  H   H318      1.0  0.23043  0.58520  0.86736  1.0000
  Fe  Fe40      1.0  0.02684  0.86478  0.78112  1.0000
  H   H319      1.0  0.15591  0.96232  0.87698  1.0000
  S   S76       1.0  0.07252  0.83651  0.85986  1.0000
  H   H320      1.0  0.13176  0.79808  0.90500  1.0000
  N   N18       1.0  0.04699  0.83843  0.69901  1.0000
  H   H321      1.0  0.06761  0.72842  0.89369  1.0000
  H   H322      1.0  0.06476  0.82709  0.73362  1.0000
  C   C258      1.0  0.13286  0.82450  0.90206  1.0000
  H   H323      1.0  0.17320  0.79124  0.89416  1.0000
  H   H324      1.0  0.25811  0.87647  0.78911  1.0000
  H   H325      1.0  0.06699  0.78756  0.89632  1.0000
  H   H326      1.0  0.18114  0.82631  0.91076  1.0000
  H   H327      1.0  0.14373  0.79247  0.86098  1.0000
  C   C259      1.0  0.26520  0.93652  0.87366  1.0000
  C   C260      1.0  0.07151  0.77617  0.87934  1.0000
  H   H328      1.0  0.25948  0.90271  0.96849  1.0000
  C   C261      1.0  0.14301  0.55322  0.75934  1.0000
  C   C262      1.0  0.26795  0.96636  0.88485  1.0000
  C   C263      1.0  0.25398  0.91103  0.88618  1.0000
  S   S77       1.0  0.24066  0.69323  0.63884  1.0000
  C   C264      1.0  0.25895  0.97053  0.90850  1.0000
  S   S78       1.0  0.03569  0.61773  0.88199  1.0000
  H   H329      1.0  0.08539  0.98284  0.88608  1.0000
  H   H330      1.0  0.11747  0.93347  0.86638  1.0000
  H   H331      1.0  0.07136  0.87747  0.70864  1.0000
  H   H332      1.0  0.08690  0.73508  0.81833  1.0000
  H   H333      1.0  0.24613  0.57693  0.82898  1.0000
  H   H334      1.0  0.23060  0.89309  0.81805  1.0000
  C   C265      1.0  0.09258  0.84247  0.98320  1.0000
  C   C266      1.0  0.26120  0.66815  0.59771  1.0000
  H   H335      1.0  0.12238  0.70535  0.00430  1.0000
  C   C267      1.0  0.14464  0.81912  0.86008  1.0000
  H   H336      1.0  0.26150  0.62856  0.64578  1.0000
  Fe  Fe41      1.0  0.26178  0.77885  0.70195  1.0000
  H   H337      1.0  0.15380  0.74704  0.99531  1.0000
  C   C268      1.0  0.17511  0.81775  0.89233  1.0000
  H   H338      1.0  0.24834  0.62166  0.67463  1.0000
  H   H339      1.0  0.25230  0.88793  0.87748  1.0000
  H   H340      1.0  0.26787  0.84150  0.60665  1.0000
  S   S79       1.0  0.21395  0.89004  0.00027  1.0000
  C   C269      1.0  0.26984  0.52900  0.89158  1.0000
  H   H341      1.0  0.25985  0.51959  0.83318  1.0000
  C   C270      1.0  0.23380  0.53522  0.91603  1.0000
  H   H342      1.0  0.12616  0.80170  0.00208  1.0000
  H   H343      1.0  0.03434  0.75459  0.82081  1.0000
  H   H344      1.0  0.06435  0.79546  0.68619  1.0000
  H   H345      1.0  0.02873  0.80853  0.83861  1.0000
  H   H346      1.0  0.02665  0.93957  0.86710  1.0000
  H   H347      1.0  0.03961  0.88718  0.70992  1.0000
  H   H348      1.0  0.05365  0.88342  0.68087  1.0000
  C   C271      1.0  0.22498  0.55858  0.89980  1.0000
  H   H349      1.0  0.03369  0.83950  0.73592  1.0000
  C   C272      1.0  0.27107  0.63352  0.75240  1.0000
  H   H350      1.0  0.26261  0.60787  0.84587  1.0000
  H   H351      1.0  0.26726  0.73093  0.55723  1.0000
  C   C273      1.0  0.26442  0.58461  0.83628  1.0000
  C   C274      1.0  0.10582  0.51693  0.78020  1.0000
  C   C275      1.0  0.26199  0.61204  0.66175  1.0000
  H   H352      1.0  0.27210  0.93299  0.85551  1.0000
  H   H353      1.0  0.02530  0.97493  0.90188  1.0000
  H   H354      1.0  0.27303  0.84998  0.95256  1.0000
  C   C276      1.0  0.27340  0.76323  0.58732  1.0000
  H   H355      1.0  0.27103  0.59954  0.70827  1.0000
  Fe  Fe42      1.0  0.27249  0.71290  0.72379  1.0000
  S   S80       1.0  0.27270  0.83029  0.69599  1.0000
  C   C277      1.0  0.52244  0.35790  0.18512  1.0000
  C   C278      1.0  0.49419  0.43260  0.49157  1.0000
  S   S81       1.0  0.28900  0.07506  0.46791  1.0000
  S   S82       1.0  0.28058  0.12640  0.35795  1.0000
  S   S83       1.0  0.40216  0.12902  0.47008  1.0000
  H   H356      1.0  0.29289  0.16795  0.30532  1.0000
  S   S84       1.0  0.48906  0.36276  0.26763  1.0000
  H   H357      1.0  0.45604  0.42678  0.32219  1.0000
  H   H358      1.0  0.32898  0.03327  0.43791  1.0000
  Fe  Fe43      1.0  0.31474  0.36348  0.17461  1.0000
  S   S85       1.0  0.29512  0.37759  0.20867  1.0000
  S   S86       1.0  0.29273  0.38290  0.14162  1.0000
  Fe  Fe44      1.0  0.35904  0.33783  0.20517  1.0000
  S   S87       1.0  0.34228  0.35119  0.24054  1.0000
  S   S88       1.0  0.39517  0.31024  0.20843  1.0000
  Fe  Fe45      1.0  0.30756  0.33049  0.22438  1.0000
  H   H359      1.0  0.46047  0.34715  0.19260  1.0000
  Fe  Fe46      1.0  0.33134  0.39683  0.22172  1.0000
  S   S89       1.0  0.33683  0.44576  0.23838  1.0000
  S   S90       1.0  0.32450  0.31432  0.18957  1.0000
  S   S91       1.0  0.35076  0.38545  0.18710  1.0000
  C   C279      1.0  0.52379  0.19587  0.43570  1.0000
  H   H360      1.0  0.48185  0.50099  0.49974  1.0000
  C   C280      1.0  0.31127  0.46326  0.25216  1.0000
  C   C281      1.0  0.44907  0.02121  0.45849  1.0000
  H   H361      1.0  0.39109  0.24454  0.24256  1.0000
  H   H362      1.0  0.35557  0.26921  0.22086  1.0000
  H   H363      1.0  0.37508  0.20734  0.24056  1.0000
  C   C282      1.0  0.49487  0.46697  0.33278  1.0000
  N   N19       1.0  0.35420  0.24591  0.25606  1.0000
  C   C283      1.0  0.50196  0.19215  0.47311  1.0000
  H   H364      1.0  0.33633  0.07123  0.36618  1.0000
  C   C284      1.0  0.48023  0.46753  0.35391  1.0000
  H   H365      1.0  0.30786  0.15228  0.26487  1.0000
  C   C285      1.0  0.30333  0.45894  0.18539  1.0000
  C   C286      1.0  0.46359  0.08862  0.49981  1.0000
  C   C287      1.0  0.27844  0.24592  0.22543  1.0000
  C   C288      1.0  0.46258  0.34664  0.25260  1.0000
  C   C289      1.0  0.46121  0.31475  0.24495  1.0000
  C   C290      1.0  0.44037  0.30382  0.23164  1.0000
  C   C291      1.0  0.42054  0.32443  0.22623  1.0000
  C   C292      1.0  0.42173  0.35608  0.23437  1.0000
  C   C293      1.0  0.44271  0.36714  0.24726  1.0000
  H   H366      1.0  0.47635  0.29866  0.24888  1.0000
  H   H367      1.0  0.43968  0.27932  0.22535  1.0000
  H   H368      1.0  0.40668  0.37226  0.23027  1.0000
  H   H369      1.0  0.44356  0.39189  0.25295  1.0000
  H   H370      1.0  0.33733  0.04936  0.32709  1.0000
  C   C294      1.0  0.28728  0.08885  0.43718  1.0000
  H   H371      1.0  0.31333  0.32934  0.11417  1.0000
  C   C295      1.0  0.31701  0.05179  0.32631  1.0000
  C   C296      1.0  0.49834  0.37472  0.14879  1.0000
  Fe  Fe47      1.0  0.37330  0.11156  0.49594  1.0000
  C   C297      1.0  0.30334  0.11225  0.42848  1.0000
  C   C298      1.0  0.27516  0.26244  0.24726  1.0000
  H   H372      1.0  0.46857  0.49447  0.38519  1.0000
  H   H373      1.0  0.36962  0.27229  0.28654  1.0000
  H   H374      1.0  0.31744  0.12198  0.44053  1.0000
  C   C299      1.0  0.43218  0.11474  0.47473  1.0000
  C   C300      1.0  0.44945  0.11981  0.45650  1.0000
  C   C301      1.0  0.47367  0.10904  0.45980  1.0000
  C   C302      1.0  0.48082  0.09366  0.48155  1.0000
  H   H375      1.0  0.43639  0.04117  0.45328  1.0000
  C   C303      1.0  0.43922  0.09881  0.49630  1.0000
  H   H376      1.0  0.44400  0.13206  0.43977  1.0000
  H   H377      1.0  0.48677  0.11291  0.44558  1.0000
  H   H378      1.0  0.30867  0.43593  0.17683  1.0000
  C   C304      1.0  0.28983  0.44561  0.25588  1.0000
  N   N20       1.0  0.49423  0.43882  0.31647  1.0000
  H   H379      1.0  0.46764  0.41320  0.29410  1.0000
  H   H380      1.0  0.50416  0.46344  0.28334  1.0000
  C   C305      1.0  0.36022  0.27650  0.26858  1.0000
  H   H381      1.0  0.52160  0.41346  0.33789  1.0000
  H   H382      1.0  0.33578  0.18701  0.24262  1.0000
  C   C306      1.0  0.37763  0.22890  0.25211  1.0000
  Fe  Fe48      1.0  0.32109  0.08758  0.49361  1.0000
  H   H383      1.0  0.38623  0.22113  0.26979  1.0000
  C   C307      1.0  0.34303  0.25423  0.23194  1.0000
  C   C308      1.0  0.33728  0.22502  0.26983  1.0000
  C   C309      1.0  0.32980  0.19491  0.26024  1.0000
  C   C310      1.0  0.32783  0.23356  0.29291  1.0000
  C   C311      1.0  0.31401  0.17464  0.27294  1.0000
  C   C312      1.0  0.31223  0.21293  0.30555  1.0000
  C   C313      1.0  0.30538  0.18353  0.29564  1.0000
  H   H384      1.0  0.33834  0.23292  0.22077  1.0000
  H   H385      1.0  0.32592  0.26815  0.23416  1.0000
  C   C314      1.0  0.29992  0.34158  0.10265  1.0000
  H   H386      1.0  0.33189  0.25621  0.30147  1.0000
  H   H387      1.0  0.45908  0.36947  0.15073  1.0000
  C   C315      1.0  0.47987  0.49429  0.36913  1.0000
  H   H388      1.0  0.51126  0.17726  0.42789  1.0000
  H   H389      1.0  0.34340  0.29107  0.27136  1.0000
  S   S92       1.0  0.33703  0.13702  0.49791  1.0000
  H   H390      1.0  0.47457  0.43456  0.49424  1.0000
  C   C316      1.0  0.50486  0.44641  0.47115  1.0000
  H   H391      1.0  0.28121  0.04002  0.26778  1.0000
  H   H392      1.0  0.27664  0.08499  0.17905  1.0000
  H   H393      1.0  0.48627  0.03354  0.41047  1.0000
  C   C317      1.0  0.28751  0.36816  0.11158  1.0000
  H   H394      1.0  0.46121  0.45502  0.29794  1.0000
  H   H395      1.0  0.49067  0.40375  0.34553  1.0000
  H   H396      1.0  0.49954  0.33950  0.21432  1.0000
  H   H397      1.0  0.50893  0.42125  0.28281  1.0000
  H   H398      1.0  0.28231  0.49135  0.13212  1.0000
  C   C318      1.0  0.47743  0.35369  0.18377  1.0000
  H   H399      1.0  0.52178  0.49626  0.31307  1.0000
  C   C319      1.0  0.46871  0.43330  0.30735  1.0000
  H   H400      1.0  0.46376  0.05870  0.42335  1.0000
  H   H401      1.0  0.28912  0.42051  0.25122  1.0000
  S   S93       1.0  0.52332  0.02577  0.37215  1.0000
  C   C320      1.0  0.52100  0.37065  0.16097  1.0000
  C   C321      1.0  0.31249  0.02866  0.36788  1.0000
  H   H402      1.0  0.29817  0.45445  0.13723  1.0000
  C   C322      1.0  0.29520  0.47879  0.14495  1.0000
  H   H403      1.0  0.49756  0.38447  0.13039  1.0000
  C   C323      1.0  0.47662  0.03866  0.42768  1.0000
  H   H404      1.0  0.31830  0.01789  0.24894  1.0000
  Fe  Fe49      1.0  0.52360  0.33904  0.28343  1.0000
  H   H405      1.0  0.28457  0.03283  0.16078  1.0000
  C   C324      1.0  0.50997  0.44258  0.29483  1.0000
  H   H406      1.0  0.50274  0.18780  0.49319  1.0000
  C   C325      1.0  0.28279  0.11109  0.38825  1.0000
  H   H407      1.0  0.31345  0.14163  0.39773  1.0000
  S   S94       1.0  0.28426  0.30276  0.25093  1.0000
  C   C326      1.0  0.50273  0.40996  0.33012  1.0000
  H   H408      1.0  0.30500  0.22001  0.32299  1.0000
  H   H409      1.0  0.32040  0.47310  0.18879  1.0000
  H   H410      1.0  0.37278  0.29173  0.25760  1.0000
  H   H411      1.0  0.46887  0.44733  0.35877  1.0000
  N   N21       1.0  0.30499  0.02716  0.34173  1.0000
  C   C327      1.0  0.30102  0.12336  0.40418  1.0000
  H   H412      1.0  0.49343  0.45912  0.45781  1.0000
  H   H413      1.0  0.34667  0.07251  0.40937  1.0000
  C   C328      1.0  0.47662  0.36629  0.16018  1.0000
  H   H414      1.0  0.43192  0.01617  0.41371  1.0000
  C   C329      1.0  0.49994  0.34945  0.19606  1.0000
  S   S95       1.0  0.35728  0.06274  0.48948  1.0000
  H   H415      1.0  0.28636  0.25807  0.20998  1.0000
  H   H416      1.0  0.49027  0.17267  0.46529  1.0000
  N   N22       1.0  0.28533  0.47695  0.17000  1.0000
  C   C330      1.0  0.28262  0.01458  0.26499  1.0000
  H   H417      1.0  0.30440  0.30991  0.07205  1.0000
  H   H418      1.0  0.49202  0.21495  0.46919  1.0000
  H   H419      1.0  0.50305  0.38848  0.31816  1.0000
  H   H420      1.0  0.31195  0.07650  0.33193  1.0000
  C   C331      1.0  0.32869  0.05252  0.37740  1.0000
  C   C332      1.0  0.27814  0.03209  0.33931  1.0000
  C   C333      1.0  0.33486  0.05359  0.40232  1.0000
  C   C334      1.0  0.29484  0.33065  0.07873  1.0000
  C   C335      1.0  0.27740  0.34617  0.06346  1.0000
  C   C336      1.0  0.31211  0.49566  0.25874  1.0000
  H   H421      1.0  0.46120  0.03050  0.47345  1.0000
  H   H422      1.0  0.29594  0.45251  0.20348  1.0000
  H   H423      1.0  0.49054  0.04764  0.44112  1.0000
  C   C337      1.0  0.32492  0.03146  0.41848  1.0000
  S   S96       1.0  0.51106  0.08017  0.48626  1.0000
  H   H424      1.0  0.51618  0.21979  0.43064  1.0000
  H   H425      1.0  0.31126  0.04965  0.30673  1.0000
  H   H426      1.0  0.51735  0.23958  0.49794  1.0000
  C   C338      1.0  0.50951  0.49453  0.32821  1.0000
  H   H427      1.0  0.31339  0.49098  0.14488  1.0000
  N   N23       1.0  0.46367  0.01024  0.43754  1.0000
  Fe  Fe50      1.0  0.32957  0.44015  0.78190  1.0000
  S   S97       1.0  0.35959  0.45253  0.80866  1.0000
  S   S98       1.0  0.33159  0.38790  0.77233  1.0000
  C   C339      1.0  0.27963  0.34500  0.71469  1.0000
  H   H428      1.0  0.45703  0.03264  0.56719  1.0000
  C   C340      1.0  0.27776  0.45057  0.87309  1.0000
  H   H429      1.0  0.40921  0.16304  0.70850  1.0000
  H   H430      1.0  0.36645  0.10314  0.65668  1.0000
  Fe  Fe51      1.0  0.33031  0.47782  0.82924  1.0000
  H   H431      1.0  0.33335  0.37953  0.83267  1.0000
  H   H432      1.0  0.33286  0.35480  0.85976  1.0000
  C   C341      1.0  0.35381  0.09717  0.61197  1.0000
  C   C342      1.0  0.40057  0.50490  0.53472  1.0000
  Fe  Fe52      1.0  0.35820  0.05835  0.53037  1.0000
  S   S99       1.0  0.37713  0.10525  0.53651  1.0000
  H   H433      1.0  0.39836  0.45325  0.69574  1.0000
  Fe  Fe53      1.0  0.33906  0.12594  0.53835  1.0000
  S   S100      1.0  0.33506  0.15978  0.57062  1.0000
  S   S101      1.0  0.32023  0.07836  0.53440  1.0000
  Fe  Fe54      1.0  0.48113  0.12337  0.72894  1.0000
  S   S102      1.0  0.49440  0.14550  0.69389  1.0000
  S   S103      1.0  0.44141  0.10614  0.72747  1.0000
  H   H434      1.0  0.46345  0.37175  0.67330  1.0000
  H   H435      1.0  0.31876  0.32322  0.76107  1.0000
  H   H436      1.0  0.42597  0.09477  0.51040  1.0000
  H   H437      1.0  0.32281  0.15272  0.73383  1.0000
  S   S104      1.0  0.49988  0.16019  0.75280  1.0000
  H   H438      1.0  0.37199  0.12052  0.80534  1.0000
  Fe  Fe55      1.0  0.47190  0.41904  0.58051  1.0000
  H   H439      1.0  0.47820  0.07265  0.64251  1.0000
  S   S105      1.0  0.45644  0.44201  0.54598  1.0000
  Fe  Fe56      1.0  0.48196  0.36322  0.61598  1.0000
  S   S106      1.0  0.47320  0.31085  0.62268  1.0000
  Fe  Fe57      1.0  0.48137  0.43128  0.63454  1.0000
  S   S107      1.0  0.47021  0.46325  0.66534  1.0000
  C   C343      1.0  0.31669  0.25776  0.57421  1.0000
  S   S108      1.0  0.45313  0.40180  0.61434  1.0000
  H   H440      1.0  0.29981  0.41767  0.73538  1.0000
  C   C344      1.0  0.27868  0.09368  0.77367  1.0000
  C   C345      1.0  0.49282  0.23878  0.66927  1.0000
  C   C346      1.0  0.48259  0.25639  0.64953  1.0000
  C   C347      1.0  0.48488  0.28989  0.64855  1.0000
  C   C348      1.0  0.49705  0.30576  0.66770  1.0000
  N   N24       1.0  0.29955  0.35320  0.83782  1.0000
  H   H441      1.0  0.38474  0.36981  0.71690  1.0000
  C   C349      1.0  0.32148  0.37056  0.84760  1.0000
  H   H442      1.0  0.33195  0.17216  0.69303  1.0000
  H   H443      1.0  0.33342  0.06232  0.71958  1.0000
  C   C350      1.0  0.33383  0.06526  0.69990  1.0000
  C   C351      1.0  0.38860  0.50421  0.55707  1.0000
  C   C352      1.0  0.28232  0.37836  0.71623  1.0000
  C   C353      1.0  0.35182  0.08408  0.68914  1.0000
  C   C354      1.0  0.50950  0.50054  0.65320  1.0000
  C   C355      1.0  0.39741  0.48410  0.57587  1.0000
  C   C356      1.0  0.41820  0.46505  0.57254  1.0000
  C   C357      1.0  0.43013  0.46555  0.55024  1.0000
  C   C358      1.0  0.30836  0.32920  0.82012  1.0000
  H   H444      1.0  0.28616  0.32878  0.61317  1.0000
  C   C359      1.0  0.27880  0.35734  0.87829  1.0000
  H   H445      1.0  0.42482  0.44975  0.58722  1.0000
  H   H446      1.0  0.29056  0.29945  0.72999  1.0000
  H   H447      1.0  0.37241  0.08800  0.61698  1.0000
  C   C360      1.0  0.41442  0.01135  0.53071  1.0000
  C   C361      1.0  0.44639  0.37158  0.68311  1.0000
  H   H448      1.0  0.50032  0.40605  0.52480  1.0000
  C   C362      1.0  0.30900  0.16627  0.58871  1.0000
  C   C363      1.0  0.31196  0.18300  0.61078  1.0000
  C   C364      1.0  0.29171  0.18935  0.62553  1.0000
  Fe  Fe58      1.0  0.36417  0.49767  0.78661  1.0000
  H   H449      1.0  0.49906  0.05706  0.68853  1.0000
  H   H450      1.0  0.33001  0.19129  0.61643  1.0000
  H   H451      1.0  0.29435  0.20207  0.64251  1.0000
  C   C365      1.0  0.31101  0.37206  0.75041  1.0000
  C   C366      1.0  0.30837  0.33871  0.74880  1.0000
  H   H452      1.0  0.45684  0.09197  0.67767  1.0000
  H   H453      1.0  0.29341  0.38738  0.80864  1.0000
  H   H454      1.0  0.38787  0.15203  0.78967  1.0000
  C   C367      1.0  0.29778  0.39194  0.73428  1.0000
  C   C368      1.0  0.29247  0.32520  0.73118  1.0000
  C   C369      1.0  0.49023  0.01397  0.76343  1.0000
  S   S109      1.0  0.33546  0.48358  0.75849  1.0000
  H   H455      1.0  0.40671  0.47690  0.72202  1.0000
  H   H456      1.0  0.32217  0.02720  0.61437  1.0000
  H   H457      1.0  0.47312  0.24394  0.63483  1.0000
  C   C370      1.0  0.44731  0.07636  0.66482  1.0000
  S   S110      1.0  0.32669  0.46927  0.87013  1.0000
  C   C371      1.0  0.40392  0.04570  0.78638  1.0000
  C   C372      1.0  0.42666  0.06046  0.79149  1.0000
  C   C373      1.0  0.43896  0.07787  0.77332  1.0000
  C   C374      1.0  0.42844  0.08094  0.74991  1.0000
  C   C375      1.0  0.40602  0.06545  0.74461  1.0000
  H   H458      1.0  0.36550  0.09587  0.70063  1.0000
  H   H459      1.0  0.37504  0.17769  0.67996  1.0000
  H   H460      1.0  0.45617  0.08972  0.77765  1.0000
  S   S111      1.0  0.31621  0.03549  0.81272  1.0000
  H   H461      1.0  0.33637  0.26128  0.57342  1.0000
  Fe  Fe59      1.0  0.51541  0.17978  0.71791  1.0000
  H   H462      1.0  0.33739  0.04585  0.58959  1.0000
  H   H463      1.0  0.51514  0.48102  0.64190  1.0000
  H   H464      1.0  0.43455  0.05897  0.80978  1.0000
  C   C376      1.0  0.30091  0.45208  0.88465  1.0000
  C   C377      1.0  0.30340  0.44145  0.90900  1.0000
  H   H465      1.0  0.49121  0.21297  0.66970  1.0000
  C   C378      1.0  0.44776  0.04161  0.58369  1.0000
  S   S112      1.0  0.36996  0.01591  0.55370  1.0000
  H   H466      1.0  0.37672  0.03576  0.75841  1.0000
  H   H467      1.0  0.35484  0.03275  0.61593  1.0000
  Fe  Fe60      1.0  0.52289  0.40858  0.60285  1.0000
  H   H468      1.0  0.48909  0.06500  0.60309  1.0000
  C   C379      1.0  0.28558  0.15563  0.58161  1.0000
  H   H469      1.0  0.42835  0.03352  0.58218  1.0000
  C   C380      1.0  0.48647  0.03871  0.60524  1.0000
  H   H470      1.0  0.47093  0.01302  0.76787  1.0000
  H   H471      1.0  0.32119  0.44254  0.91815  1.0000
  C   C381      1.0  0.30524  0.23625  0.55833  1.0000
  C   C382      1.0  0.51900  0.49126  0.53549  1.0000
  H   H472      1.0  0.30995  0.09449  0.59279  1.0000
  H   H473      1.0  0.44993  0.00820  0.51438  1.0000
  C   C383      1.0  0.39396  0.04757  0.76266  1.0000
  C   C384      1.0  0.33445  0.07257  0.64827  1.0000
  H   H474      1.0  0.39780  0.06751  0.72655  1.0000
  C   C385      1.0  0.50840  0.03899  0.67827  1.0000
  C   C386      1.0  0.50532  0.25462  0.68823  1.0000
  S   S113      1.0  0.50877  0.39150  0.63889  1.0000
  C   C387      1.0  0.31616  0.05009  0.68532  1.0000
  H   H475      1.0  0.30650  0.11262  0.62217  1.0000
  H   H476      1.0  0.30232  0.04122  0.64944  1.0000
  H   H477      1.0  0.35319  0.08590  0.75967  1.0000
  S   S114      1.0  0.49798  0.45107  0.60064  1.0000
  C   C388      1.0  0.33723  0.04408  0.60993  1.0000
  N   N25       1.0  0.33414  0.07595  0.62130  1.0000
  C   C389      1.0  0.27662  0.30654  0.85732  1.0000
  C   C390      1.0  0.31645  0.05352  0.65990  1.0000
  S   S115      1.0  0.38787  0.02709  0.81041  1.0000
  H   H478      1.0  0.33677  0.09436  0.78684  1.0000
  C   C391      1.0  0.28369  0.37636  0.82431  1.0000
  H   H479      1.0  0.38816  0.48336  0.59313  1.0000
  C   C392      1.0  0.43028  0.34588  0.68046  1.0000
  H   H480      1.0  0.41422  0.07588  0.68528  1.0000
  H   H481      1.0  0.31939  0.31015  0.82946  1.0000
  S   S116      1.0  0.49817  0.37762  0.58000  1.0000
  H   H482      1.0  0.38934  0.11114  0.77945  1.0000
  N   N26       1.0  0.41244  0.42597  0.72641  1.0000
  C   C393      1.0  0.38841  0.42327  0.73863  1.0000
  C   C394      1.0  0.43168  0.42963  0.74580  1.0000
  C   C395      1.0  0.41184  0.45553  0.71119  1.0000
  C   C396      1.0  0.41822  0.39811  0.71095  1.0000
  C   C397      1.0  0.44763  0.04352  0.62780  1.0000
  C   C398      1.0  0.44059  0.39722  0.69818  1.0000
  H   H483      1.0  0.32463  0.10648  0.75763  1.0000
  H   H484      1.0  0.39223  0.03969  0.65651  1.0000
  H   H485      1.0  0.38774  0.40209  0.75108  1.0000
  H   H486      1.0  0.38475  0.44454  0.75017  1.0000
  H   H487      1.0  0.37285  0.42175  0.72517  1.0000
  H   H488      1.0  0.43355  0.40736  0.75696  1.0000
  H   H489      1.0  0.42740  0.44959  0.75842  1.0000
  H   H490      1.0  0.44995  0.43537  0.73826  1.0000
  H   H491      1.0  0.46901  0.07654  0.51662  1.0000
  H   H492      1.0  0.42997  0.46118  0.70324  1.0000
  H   H493      1.0  0.28304  0.14275  0.56467  1.0000
  C   C399      1.0  0.31028  0.08958  0.61283  1.0000
  H   H494      1.0  0.45374  0.41656  0.69960  1.0000
  H   H495      1.0  0.27546  0.45833  0.85434  1.0000
  H   H496      1.0  0.40130  0.14431  0.74930  1.0000
  H   H497      1.0  0.49871  0.33154  0.66732  1.0000
  S   S117      1.0  0.30001  0.46265  0.80377  1.0000
  H   H498      1.0  0.34832  0.18240  0.78436  1.0000
  C   C400      1.0  0.42128  0.48550  0.53129  1.0000
  N   N27       1.0  0.35514  0.13507  0.77084  1.0000
  C   C401      1.0  0.33931  0.15849  0.78326  1.0000
  C   C402      1.0  0.34183  0.10421  0.76868  1.0000
  C   C403      1.0  0.37707  0.12964  0.78694  1.0000
  C   C404      1.0  0.36103  0.14695  0.74610  1.0000
  C   C405      1.0  0.38548  0.15017  0.73790  1.0000
  C   C406      1.0  0.34190  0.15497  0.72908  1.0000
  C   C407      1.0  0.39032  0.16102  0.71428  1.0000
  C   C408      1.0  0.34694  0.16601  0.70556  1.0000
  C   C409      1.0  0.37113  0.16908  0.69818  1.0000
  H   H499      1.0  0.32132  0.16192  0.77372  1.0000
  H   H500      1.0  0.33500  0.15056  0.80215  1.0000
  C   C410      1.0  0.40824  0.34577  0.69288  1.0000
  H   H501      1.0  0.43494  0.32607  0.66868  1.0000
  N   N28       1.0  0.46008  0.02998  0.60646  1.0000
  H   H502      1.0  0.43036  0.48591  0.51395  1.0000
  C   C411      1.0  0.40214  0.37144  0.70792  1.0000
  C   C412      1.0  0.35216  0.08795  0.66372  1.0000
  H   H503      1.0  0.29296  0.31807  0.80949  1.0000
  H   H504      1.0  0.44772  0.06825  0.58275  1.0000
  C   C413      1.0  0.30301  0.27406  0.59147  1.0000
  H   H505      1.0  0.31283  0.29004  0.60367  1.0000
  H   H506      1.0  0.40870  0.03193  0.51991  1.0000
  C   C414      1.0  0.45944  0.06486  0.64445  1.0000
  H   H507      1.0  0.31602  0.22294  0.54545  1.0000
  H   H508      1.0  0.49542  0.02720  0.58945  1.0000
  H   H509      1.0  0.50053  0.48179  0.53501  1.0000
  H   H510      1.0  0.35311  0.09891  0.59163  1.0000
  Fe  Fe61      1.0  0.30044  0.01142  0.77938  1.0000
  H   H511      1.0  0.39575  0.32567  0.69077  1.0000
  H   H512      1.0  0.32038  0.34028  0.80624  1.0000
  H   H513      1.0  0.35185  0.12218  0.61864  1.0000
  H   H514      1.0  0.31672  0.39231  0.85807  1.0000
  S   S118      1.0  0.51236  0.08892  0.73244  1.0000
  S   S119      1.0  0.51975  0.23352  0.71264  1.0000
  C   C415      1.0  0.50722  0.28817  0.68743  1.0000
  H   H515      1.0  0.49677  0.03050  0.62190  1.0000
  C   C416      1.0  0.48909  0.49723  0.66797  1.0000
  H   H516      1.0  0.29457  0.07331  0.61629  1.0000
  H   H517      1.0  0.30212  0.03562  0.69392  1.0000
  H   H518      1.0  0.28520  0.42213  0.94063  1.0000
  C   C417      1.0  0.28301  0.42986  0.92180  1.0000
  H   H519      1.0  0.51669  0.30058  0.70215  1.0000
  H   H520      1.0  0.27775  0.39630  0.83617  1.0000
  H   H521      1.0  0.29229  0.28182  0.63994  1.0000
  H   H522      1.0  0.28155  0.07918  0.78988  1.0000
  C   C418      1.0  0.28539  0.33871  0.85791  1.0000
  H   H523      1.0  0.27785  0.13814  0.79342  1.0000
  C   C419      1.0  0.27646  0.12706  0.77564  1.0000
  C   C420      1.0  0.41089  0.04702  0.65290  1.0000
  H   H524      1.0  0.50024  0.04228  0.79470  1.0000
  S   S120      1.0  0.28281  0.03799  0.74738  1.0000
  C   C421      1.0  0.42278  0.03551  0.63237  1.0000
  C   C422      1.0  0.50677  0.03031  0.77858  1.0000
  H   H525      1.0  0.28020  0.29061  0.84239  1.0000
  C   C423      1.0  0.27753  0.07925  0.75071  1.0000
  H   H526      1.0  0.41249  0.01987  0.62024  1.0000
  C   C424      1.0  0.42320  0.06731  0.66914  1.0000
  H   H527      1.0  0.28422  0.38210  0.87979  1.0000
  C   C425      1.0  0.28010  0.23084  0.55969  1.0000
  C   C426      1.0  0.27732  0.26916  0.59337  1.0000
  C   C427      1.0  0.49774  0.00861  0.67551  1.0000
  S   S121      1.0  0.40097  0.50728  0.76912  1.0000
  Fe  Fe62      1.0  0.30915  0.50796  0.78323  1.0000
  C   C428      1.0  0.50875  0.41638  0.50877  1.0000
  Fe  Fe63      1.0  0.32313  0.59357  0.49188  1.0000
  C   C429      1.0  0.40245  0.79868  0.25705  1.0000
  S   S122      1.0  0.29702  0.57568  0.46178  1.0000
  H   H528      1.0  0.46094  0.72633  0.29990  1.0000
  C   C430      1.0  0.30288  0.00631  0.38486  1.0000
  H   H529      1.0  0.50460  0.95558  0.25512  1.0000
  S   S123      1.0  0.48669  0.88041  0.27287  1.0000
  C   C431      1.0  0.29154  0.51046  0.26878  1.0000
  S   S124      1.0  0.48019  0.55273  0.42388  1.0000
  Fe  Fe64      1.0  0.31383  0.86860  0.17289  1.0000
  H   H530      1.0  0.30060  0.94379  0.16860  1.0000
  H   H531      1.0  0.49265  0.80959  0.26785  1.0000
  Fe  Fe65      1.0  0.36340  0.85347  0.19931  1.0000
  S   S125      1.0  0.34864  0.86208  0.23657  1.0000
  S   S126      1.0  0.40336  0.83831  0.19551  1.0000
  Fe  Fe66      1.0  0.31570  0.83452  0.22285  1.0000
  H   H532      1.0  0.46678  0.77719  0.32440  1.0000
  Fe  Fe67      1.0  0.33053  0.90494  0.21924  1.0000
  S   S127      1.0  0.28499  0.88147  0.14326  1.0000
  S   S128      1.0  0.33135  0.82249  0.18644  1.0000
  S   S129      1.0  0.34722  0.89845  0.18252  1.0000
  H   H533      1.0  0.37196  0.61190  0.45249  1.0000
  H   H534      1.0  0.40702  0.62355  0.42360  1.0000
  C   C432      1.0  0.51631  0.53978  0.48202  1.0000
  C   C433      1.0  0.43395  0.80304  0.28876  1.0000
  H   H535      1.0  0.30090  0.99116  0.42255  1.0000
  H   H536      1.0  0.50362  0.55413  0.47019  1.0000
  H   H537      1.0  0.49731  0.98197  0.40779  1.0000
  C   C434      1.0  0.48012  0.78501  0.31048  1.0000
  H   H538      1.0  0.51138  0.77535  0.27490  1.0000
  S   S130      1.0  0.35974  0.56864  0.49522  1.0000
  H   H539      1.0  0.48962  0.77379  0.25015  1.0000
  H   H540      1.0  0.29453  0.81048  0.07199  1.0000
  C   C435      1.0  0.51484  0.94890  0.43205  1.0000
  H   H541      1.0  0.30393  0.64085  0.44304  1.0000
  C   C436      1.0  0.28418  0.82977  0.07986  1.0000
  H   H542      1.0  0.29278  0.66576  0.40292  1.0000
  C   C437      1.0  0.46408  0.86812  0.25096  1.0000
  C   C438      1.0  0.46935  0.84769  0.23160  1.0000
  C   C439      1.0  0.45066  0.83894  0.21466  1.0000
  C   C440      1.0  0.42660  0.85067  0.21674  1.0000
  C   C441      1.0  0.42154  0.87159  0.23580  1.0000
  C   C442      1.0  0.44017  0.88024  0.25275  1.0000
  H   H543      1.0  0.48777  0.83876  0.22955  1.0000
  H   H544      1.0  0.45478  0.82292  0.19987  1.0000
  H   H545      1.0  0.40322  0.88104  0.23755  1.0000
  H   H546      1.0  0.43592  0.89636  0.26745  1.0000
  C   C443      1.0  0.28590  0.53810  0.16894  1.0000
  C   C444      1.0  0.44629  0.99812  0.41853  1.0000
  C   C445      1.0  0.29011  0.59429  0.43323  1.0000
  H   H547      1.0  0.39973  0.82902  0.28825  1.0000
  C   C446      1.0  0.50056  0.94680  0.47337  1.0000
  H   H548      1.0  0.49371  0.72859  0.29646  1.0000
  H   H549      1.0  0.27855  0.81134  0.16401  1.0000
  H   H550      1.0  0.45567  0.99226  0.40129  1.0000
  C   C447      1.0  0.29644  0.74524  0.22616  1.0000
  H   H551      1.0  0.31908  0.55463  0.34026  1.0000
  S   S131      1.0  0.40949  0.63823  0.48581  1.0000
  C   C448      1.0  0.42975  0.61332  0.47028  1.0000
  C   C449      1.0  0.45169  0.62635  0.46171  1.0000
  C   C450      1.0  0.46755  0.60776  0.44782  1.0000
  C   C451      1.0  0.46135  0.57613  0.44222  1.0000
  C   C452      1.0  0.43966  0.56285  0.45120  1.0000
  C   C453      1.0  0.42397  0.58132  0.46539  1.0000
  H   H552      1.0  0.45622  0.65113  0.46543  1.0000
  H   H553      1.0  0.48423  0.61819  0.44091  1.0000
  H   H554      1.0  0.43489  0.53827  0.44705  1.0000
  H   H555      1.0  0.40723  0.57098  0.47208  1.0000
  H   H556      1.0  0.49169  0.91906  0.22896  1.0000
  H   H557      1.0  0.30547  0.98544  0.16330  1.0000
  C   C454      1.0  0.28616  0.94874  0.25612  1.0000
  C   C455      1.0  0.28145  0.56757  0.18008  1.0000
  H   H558      1.0  0.27852  0.77052  0.17463  1.0000
  C   C456      1.0  0.48265  0.52558  0.50740  1.0000
  H   H559      1.0  0.41065  0.76833  0.22696  1.0000
  C   C457      1.0  0.48164  0.98485  0.44413  1.0000
  H   H560      1.0  0.49359  0.54189  0.37543  1.0000
  C   C458      1.0  0.41090  0.81159  0.27905  1.0000
  N   N29       1.0  0.36925  0.61432  0.41316  1.0000
  C   C459      1.0  0.36306  0.59921  0.43683  1.0000
  C   C460      1.0  0.39596  0.61069  0.40937  1.0000
  C   C461      1.0  0.36402  0.64911  0.41522  1.0000
  C   C462      1.0  0.35541  0.59849  0.39299  1.0000
  C   C463      1.0  0.34027  0.61561  0.37592  1.0000
  C   C464      1.0  0.35722  0.56487  0.38970  1.0000
  C   C465      1.0  0.32757  0.59981  0.35706  1.0000
  C   C466      1.0  0.34422  0.54930  0.37091  1.0000
  C   C467      1.0  0.32936  0.56674  0.35467  1.0000
  H   H561      1.0  0.36915  0.57391  0.43833  1.0000
  H   H562      1.0  0.34292  0.59945  0.43965  1.0000
  H   H563      1.0  0.40187  0.58523  0.41025  1.0000
  H   H564      1.0  0.40122  0.62046  0.39126  1.0000
  H   H565      1.0  0.34417  0.65342  0.41826  1.0000
  H   H566      1.0  0.37421  0.66002  0.43100  1.0000
  H   H567      1.0  0.36967  0.66258  0.39866  1.0000
  H   H568      1.0  0.33748  0.64115  0.37690  1.0000
  H   H569      1.0  0.36858  0.55032  0.40176  1.0000
  H   H570      1.0  0.31576  0.61327  0.34450  1.0000
  H   H571      1.0  0.51743  0.51539  0.47413  1.0000
  H   H572      1.0  0.49867  0.77713  0.31714  1.0000
  S   S132      1.0  0.29311  0.80449  0.24849  1.0000
  C   C468      1.0  0.44002  0.76838  0.25413  1.0000
  C   C469      1.0  0.50887  0.52116  0.34347  1.0000
  C   C470      1.0  0.30898  0.00786  0.40977  1.0000
  C   C471      1.0  0.44919  0.78086  0.27662  1.0000
  C   C472      1.0  0.49264  0.78299  0.26895  1.0000
  H   H573      1.0  0.28106  0.80286  0.19600  1.0000
  C   C473      1.0  0.41701  0.77724  0.24457  1.0000
  H   H574      1.0  0.49317  0.58654  0.50657  1.0000
  H   H575      1.0  0.43744  0.00163  0.46594  1.0000
  H   H576      1.0  0.47188  0.97794  0.48265  1.0000
  H   H577      1.0  0.28754  0.92327  0.25293  1.0000
  N   N30       1.0  0.47386  0.77153  0.28608  1.0000
  H   H578      1.0  0.52021  0.54193  0.33969  1.0000
  H   H579      1.0  0.32864  0.50945  0.25584  1.0000
  H   H580      1.0  0.43955  0.81464  0.30552  1.0000
  S   S133      1.0  0.33176  0.95443  0.23566  1.0000
  C   C474      1.0  0.30535  0.96912  0.24958  1.0000
  H   H581      1.0  0.45080  0.75225  0.24343  1.0000
  C   C475      1.0  0.49771  0.97282  0.42633  1.0000
  C   C476      1.0  0.47567  0.73613  0.28823  1.0000
  H   H582      1.0  0.30067  0.97553  0.34034  1.0000
  N   N31       1.0  0.50807  0.53862  0.50763  1.0000
  C   C477      1.0  0.28895  0.64065  0.40608  1.0000
  H   H583      1.0  0.29230  0.53552  0.27359  1.0000
  C   C478      1.0  0.28784  0.76296  0.24579  1.0000
  S   S134      1.0  0.29637  0.87842  0.20886  1.0000
  H   H584      1.0  0.48071  0.81171  0.30991  1.0000
  C   C479      1.0  0.27849  0.57626  0.41468  1.0000
  H   H585      1.0  0.51516  0.97612  0.33639  1.0000
  C   C480      1.0  0.29107  0.84141  0.10319  1.0000
  H   H586      1.0  0.43688  0.97597  0.42488  1.0000
  C   C481      1.0  0.29535  0.62659  0.42880  1.0000
  C   C482      1.0  0.29018  0.71260  0.22395  1.0000
  H   H587      1.0  0.34552  0.52352  0.36902  1.0000
  C   C483      1.0  0.27744  0.62254  0.38750  1.0000
  H   H588      1.0  0.29357  0.53910  0.15097  1.0000
  H   H589      1.0  0.47428  0.72411  0.27023  1.0000
  C   C484      1.0  0.27573  0.69744  0.24158  1.0000
  H   H590      1.0  0.49543  0.95493  0.21075  1.0000
  H   H591      1.0  0.30656  0.83106  0.11307  1.0000
  Fe  Fe68      1.0  0.37474  0.61798  0.50153  1.0000
  Fe  Fe69      1.0  0.51815  0.57166  0.41596  1.0000
  H   H592      1.0  0.38490  0.80608  0.24919  1.0000
  H   H593      1.0  0.46992  0.54045  0.49584  1.0000
  C   C485      1.0  0.27791  0.86638  0.11358  1.0000
  H   H594      1.0  0.30461  0.97048  0.19394  1.0000
  S   S135      1.0  0.33870  0.64328  0.49562  1.0000
  C   C486      1.0  0.51629  0.93594  0.45554  1.0000
  C   C487      1.0  0.52420  0.95923  0.25458  1.0000
  C   C488      1.0  0.29607  0.96814  0.17541  1.0000
  H   H595      1.0  0.30783  0.75662  0.21271  1.0000
  C   C489      1.0  0.50121  0.92951  0.21300  1.0000
  H   H596      1.0  0.30648  0.99384  0.31172  1.0000
  C   C490      1.0  0.31107  0.99529  0.33164  1.0000
  H   H597      1.0  0.29014  0.98787  0.37907  1.0000
  H   H598      1.0  0.50131  0.93631  0.49157  1.0000
  C   C491      1.0  0.49402  0.52110  0.36377  1.0000
  C   C492      1.0  0.48349  0.97092  0.46790  1.0000
  H   H599      1.0  0.49384  0.91599  0.19697  1.0000
  C   C493      1.0  0.30357  0.00202  0.25416  1.0000
  H   H600      1.0  0.29670  0.69898  0.20869  1.0000
  H   H601      1.0  0.33099  0.99000  0.33409  1.0000
  H   H602      1.0  0.28573  0.58982  0.17073  1.0000
  H   H603      1.0  0.52328  0.98622  0.28799  1.0000
  C   C494      1.0  0.28078  0.50864  0.18105  1.0000
  Fe  Fe70      1.0  0.31851  0.94585  0.79560  1.0000
  S   S136      1.0  0.33637  0.96522  0.82984  1.0000
  S   S137      1.0  0.32023  0.89219  0.79084  1.0000
  C   C495      1.0  0.43771  0.99775  0.52749  1.0000
  C   C496      1.0  0.42451  0.66942  0.73330  1.0000
  H   H604      1.0  0.50202  0.71547  0.65158  1.0000
  C   C497      1.0  0.29672  0.89511  0.74581  1.0000
  C   C498      1.0  0.40647  0.97206  0.56225  1.0000
  Fe  Fe71      1.0  0.30144  0.99286  0.83345  1.0000
  C   C499      1.0  0.31619  0.88269  0.99029  1.0000
  H   H605      1.0  0.42581  0.77005  0.72938  1.0000
  C   C500      1.0  0.49843  0.99947  0.74231  1.0000
  H   H606      1.0  0.31153  0.57806  0.84369  1.0000
  Fe  Fe72      1.0  0.35337  0.56797  0.53549  1.0000
  S   S138      1.0  0.37126  0.61540  0.54206  1.0000
  H   H607      1.0  0.39439  0.96197  0.57571  1.0000
  Fe  Fe73      1.0  0.33369  0.63638  0.53619  1.0000
  S   S139      1.0  0.32626  0.67668  0.56283  1.0000
  S   S140      1.0  0.31525  0.58844  0.53217  1.0000
  Fe  Fe74      1.0  0.50031  0.63712  0.74375  1.0000
  S   S141      1.0  0.48970  0.64678  0.70460  1.0000
  S   S142      1.0  0.47177  0.62879  0.77258  1.0000
  H   H608      1.0  0.32245  0.80439  0.63588  1.0000
  S   S143      1.0  0.30259  0.68323  0.74173  1.0000
  C   C501      1.0  0.45865  0.99448  0.60730  1.0000
  C   C502      1.0  0.28859  0.85061  0.96611  1.0000
  H   H609      1.0  0.27685  0.64909  0.56484  1.0000
  H   H610      1.0  0.32611  0.61384  0.59836  1.0000
  Fe  Fe75      1.0  0.49268  0.92537  0.56808  1.0000
  C   C503      1.0  0.28270  0.83503  0.62008  1.0000
  S   S144      1.0  0.47519  0.95574  0.53787  1.0000
  H   H611      1.0  0.42765  0.58058  0.52406  1.0000
  H   H612      1.0  0.44103  0.73529  0.70076  1.0000
  C   C504      1.0  0.30926  0.59025  0.76261  1.0000
  H   H613      1.0  0.50188  0.57202  0.53656  1.0000
  H   H614      1.0  0.48036  0.00338  0.68387  1.0000
  S   S145      1.0  0.47507  0.90037  0.59969  1.0000
  C   C505      1.0  0.31921  0.95265  0.93192  1.0000
  Fe  Fe76      1.0  0.50461  0.92424  0.62239  1.0000
  H   H615      1.0  0.34289  0.53345  0.64476  1.0000
  S   S146      1.0  0.28312  0.99858  0.87019  1.0000
  Fe  Fe77      1.0  0.50352  0.86201  0.59475  1.0000
  C   C506      1.0  0.30187  0.75510  0.55465  1.0000
  H   H616      1.0  0.31836  0.82775  0.77405  1.0000
  C   C507      1.0  0.38901  0.77776  0.74003  1.0000
  H   H617      1.0  0.46743  0.51942  0.69564  1.0000
  C   C508      1.0  0.48305  0.52199  0.68392  1.0000
  C   C509      1.0  0.31210  0.79193  0.58726  1.0000
  Fe  Fe78      1.0  0.34957  0.00564  0.80592  1.0000
  S   S147      1.0  0.33467  0.98373  0.77138  1.0000
  H   H618      1.0  0.35128  0.77923  0.75076  1.0000
  C   C510      1.0  0.40747  0.72437  0.73623  1.0000
  N   N32       1.0  0.29610  0.88409  0.97159  1.0000
  N   N33       1.0  0.42885  0.70436  0.73007  1.0000
  C   C511      1.0  0.42975  0.95851  0.55903  1.0000
  C   C512      1.0  0.44550  0.97142  0.54174  1.0000
  C   C513      1.0  0.39874  0.99852  0.54816  1.0000
  S   S148      1.0  0.49677  0.74165  0.70054  1.0000
  C   C514      1.0  0.31754  0.56768  0.65938  1.0000
  H   H619      1.0  0.43545  0.93800  0.56990  1.0000
  H   H620      1.0  0.33556  0.78164  0.55707  1.0000
  C   C515      1.0  0.49763  0.75948  0.67125  1.0000
  C   C516      1.0  0.30423  0.59663  0.65543  1.0000
  H   H621      1.0  0.32392  0.97778  0.93379  1.0000
  C   C517      1.0  0.31161  0.93485  0.95212  1.0000
  C   C518      1.0  0.30293  0.67824  0.58473  1.0000
  C   C519      1.0  0.30685  0.69691  0.60571  1.0000
  H   H622      1.0  0.31360  0.89597  0.88820  1.0000
  H   H623      1.0  0.29152  0.71505  0.63881  1.0000
  H   H624      1.0  0.31610  0.55364  0.67592  1.0000
  H   H625      1.0  0.32440  0.70860  0.60865  1.0000
  H   H626      1.0  0.27576  0.58937  0.81991  1.0000
  C   C520      1.0  0.30823  0.87587  0.76364  1.0000
  C   C521      1.0  0.30941  0.84265  0.76029  1.0000
  C   C522      1.0  0.50696  0.57185  0.51699  1.0000
  C   C523      1.0  0.45031  0.71306  0.74584  1.0000
  H   H627      1.0  0.28215  0.83778  0.98273  1.0000
  C   C524      1.0  0.31448  0.62217  0.75617  1.0000
  C   C525      1.0  0.40905  0.75830  0.73477  1.0000
  H   H628      1.0  0.32534  0.80851  0.59498  1.0000
  H   H629      1.0  0.30002  0.84598  0.61364  1.0000
  H   H630      1.0  0.44103  0.65508  0.72892  1.0000
  H   H631      1.0  0.29578  0.92077  0.74832  1.0000
  H   H632      1.0  0.48947  0.57225  0.62012  1.0000
  H   H633      1.0  0.42031  0.66331  0.75261  1.0000
  H   H634      1.0  0.46646  0.98501  0.62483  1.0000
  C   C526      1.0  0.41935  0.54233  0.76954  1.0000
  C   C527      1.0  0.43930  0.54422  0.75375  1.0000
  C   C528      1.0  0.45513  0.57092  0.75409  1.0000
  C   C529      1.0  0.45137  0.59577  0.77056  1.0000
  C   C530      1.0  0.43127  0.59410  0.78617  1.0000
  C   C531      1.0  0.41520  0.56758  0.78557  1.0000
  C   C532      1.0  0.33317  0.55579  0.64164  1.0000
  H   H635      1.0  0.47056  0.57185  0.74202  1.0000
  H   H636      1.0  0.42826  0.61320  0.79900  1.0000
  H   H637      1.0  0.39999  0.56631  0.79788  1.0000
  C   C533      1.0  0.49686  0.55049  0.68426  1.0000
  S   S149      1.0  0.33806  0.52497  0.81014  1.0000
  H   H638      1.0  0.27818  0.56480  0.69125  1.0000
  C   C534      1.0  0.27950  0.74858  0.56540  1.0000
  H   H639      1.0  0.45083  0.69505  0.69859  1.0000
  H   H640      1.0  0.32410  0.57362  0.76635  1.0000
  H   H641      1.0  0.42880  0.53838  0.62919  1.0000
  N   N34       1.0  0.45506  0.55663  0.60352  1.0000
  C   C535      1.0  0.33617  0.57233  0.61971  1.0000
  C   C536      1.0  0.28705  0.84774  0.72169  1.0000
  C   C537      1.0  0.30059  0.57100  0.85983  1.0000
  H   H642      1.0  0.49191  0.56982  0.69622  1.0000
  C   C538      1.0  0.29864  0.82856  0.73948  1.0000
  H   H643      1.0  0.27851  0.84680  0.63776  1.0000
  H   H644      1.0  0.31379  0.64148  0.68919  1.0000
  H   H645      1.0  0.43957  0.98534  0.60559  1.0000
  S   S150      1.0  0.49807  0.80824  0.59590  1.0000
  H   H646      1.0  0.30406  0.83641  0.95897  1.0000
  H   H647      1.0  0.46854  0.55492  0.64083  1.0000
  H   H648      1.0  0.33336  0.63002  0.75508  1.0000
  C   C539      1.0  0.30805  0.61297  0.63303  1.0000
  H   H649      1.0  0.32539  0.95263  0.89326  1.0000
  C   C540      1.0  0.30550  0.88857  0.92624  1.0000
  H   H650      1.0  0.39065  0.80364  0.73881  1.0000
  C   C541      1.0  0.43516  0.71013  0.70419  1.0000
  H   H651      1.0  0.30235  0.58803  0.70612  1.0000
  H   H652      1.0  0.41928  0.70497  0.69171  1.0000
  H   H653      1.0  0.43023  0.54611  0.56024  1.0000
  H   H654      1.0  0.30695  0.74251  0.53826  1.0000
  C   C542      1.0  0.42949  0.55244  0.61184  1.0000
  H   H655      1.0  0.34805  0.56287  0.60588  1.0000
  C   C543      1.0  0.45519  0.57679  0.58114  1.0000
  H   H656      1.0  0.41773  0.53922  0.59846  1.0000
  C   C544      1.0  0.46886  0.60578  0.57940  1.0000
  C   C545      1.0  0.32374  0.60097  0.61547  1.0000
  C   C546      1.0  0.46738  0.62502  0.55837  1.0000
  C   C547      1.0  0.29487  0.64197  0.68109  1.0000
  H   H657      1.0  0.49352  0.83374  0.64477  1.0000
  C   C548      1.0  0.51643  0.55430  0.66835  1.0000
  H   H658      1.0  0.48047  0.61447  0.59418  1.0000
  H   H659      1.0  0.44270  0.52478  0.74133  1.0000
  C   C549      1.0  0.45255  0.61597  0.53853  1.0000
  C   C550      1.0  0.27809  0.53020  0.83787  1.0000
  H   H660      1.0  0.30082  0.80113  0.65945  1.0000
  C   C551      1.0  0.44094  0.56786  0.56027  1.0000
  H   H661      1.0  0.29462  0.65955  0.66577  1.0000
  C   C552      1.0  0.30436  0.90227  0.94991  1.0000
  H   H662      1.0  0.40940  0.66063  0.72109  1.0000
  S   S151      1.0  0.28274  0.97131  0.80045  1.0000
  H   H663      1.0  0.46627  0.69721  0.74256  1.0000
  H   H664      1.0  0.38142  0.68570  0.74486  1.0000
  H   H665      1.0  0.28738  0.53511  0.82044  1.0000
  C   C553      1.0  0.52287  0.52917  0.65306  1.0000
  C   C554      1.0  0.32016  0.93849  0.90903  1.0000
  C   C555      1.0  0.49749  0.78974  0.62499  1.0000
  C   C556      1.0  0.50915  0.98533  0.66147  1.0000
  H   H666      1.0  0.45699  0.73783  0.74235  1.0000
  C   C557      1.0  0.46958  0.57033  0.62424  1.0000
  H   H667      1.0  0.46270  0.59434  0.62949  1.0000
  S   S152      1.0  0.49495  0.94802  0.65746  1.0000
  H   H668      1.0  0.44591  0.71084  0.76553  1.0000
  H   H669      1.0  0.48543  0.98712  0.73037  1.0000
  C   C558      1.0  0.31345  0.90652  0.90623  1.0000
  H   H670      1.0  0.29978  0.86430  0.92249  1.0000
  H   H671      1.0  0.32141  0.90682  0.99712  1.0000
  H   H672      1.0  0.49317  0.80713  0.68537  1.0000
  C   C559      1.0  0.31806  0.77692  0.56544  1.0000
  H   H673      1.0  0.31107  0.94701  0.96944  1.0000
  C   C560      1.0  0.43952  0.58729  0.53939  1.0000
  H   H674      1.0  0.31077  0.86834  0.00658  1.0000
  C   C561      1.0  0.36683  0.76408  0.74679  1.0000
  H   H675      1.0  0.34723  0.72033  0.75356  1.0000
  H   H676      1.0  0.47736  0.64752  0.55764  1.0000
  H   H677      1.0  0.30844  0.76642  0.64204  1.0000
  C   C562      1.0  0.50017  0.74121  0.65014  1.0000
  H   H678      1.0  0.31152  0.55214  0.86957  1.0000
  C   C563      1.0  0.49517  0.79285  0.66913  1.0000
  C   C564      1.0  0.28981  0.78501  0.59918  1.0000
  C   C565      1.0  0.36461  0.73089  0.74838  1.0000
  C   C566      1.0  0.49985  0.75631  0.62705  1.0000
  C   C567      1.0  0.30494  0.79260  0.64077  1.0000
  C   C568      1.0  0.29542  0.64380  0.75081  1.0000
  H   H679      1.0  0.29960  0.59208  0.87210  1.0000
  C   C569      1.0  0.38455  0.71117  0.74324  1.0000
  H   H680      1.0  0.33292  0.87156  0.98274  1.0000
  H   H681      1.0  0.29870  0.63509  0.62879  1.0000
  H   H682      1.0  0.28929  0.51165  0.84749  1.0000
  N   N35       1.0  0.28684  0.60956  0.67327  1.0000
  S   S153      1.0  0.52002  0.68399  0.74817  1.0000
  H   H683      1.0  0.47494  0.52491  0.52606  1.0000
  H   H684      1.0  0.39384  0.52029  0.52011  1.0000
  H   H685      1.0  0.45083  0.63142  0.52256  1.0000
  C   C570      1.0  0.49538  0.80798  0.64613  1.0000
  C   C571      1.0  0.46540  0.52465  0.59827  1.0000
  Fe  Fe79      1.0  0.51165  0.69207  0.70843  1.0000
  H   H686      1.0  0.42061  0.57603  0.61487  1.0000
  H   H687      1.0  0.29950  0.80290  0.73713  1.0000
  H   H688      1.0  0.51350  0.64911  0.83299  1.0000
  H   H689      1.0  0.45466  0.51175  0.58391  1.0000
  H   H690      1.0  0.46886  0.98328  0.59219  1.0000
  S   S154      1.0  0.51855  0.88471  0.56069  1.0000
  S   S155      1.0  0.36322  0.52887  0.56263  1.0000
  C   C572      1.0  0.28815  0.70094  0.62270  1.0000
  H   H691      1.0  0.50156  0.74209  0.61074  1.0000
  N   N36       1.0  0.28464  0.79979  0.62303  1.0000
  H   H692      1.0  0.46555  0.50884  0.61479  1.0000
  C   C573      1.0  0.28491  0.57987  0.76378  1.0000
  C   C574      1.0  0.28464  0.58946  0.69561  1.0000
  C   C575      1.0  0.28631  0.88105  0.72475  1.0000
  H   H693      1.0  0.28266  0.65196  0.69518  1.0000
  S   S156      1.0  0.27771  0.53980  0.77085  1.0000
  H   H694      1.0  0.27911  0.92467  0.98900  1.0000
  H   H695      1.0  0.48465  0.52660  0.59207  1.0000
  C   C576      1.0  0.28013  0.66337  0.58100  1.0000
  H   H696      1.0  0.28713  0.51688  0.88924  1.0000
  S   S157      1.0  0.52027  0.95186  0.59129  1.0000
  S   S158      1.0  0.28216  0.73627  0.68822  1.0000
  N   N37       1.0  0.27568  0.55969  0.85248  1.0000
  H   H697      1.0  0.27733  0.89597  0.71104  1.0000
  C   C577      1.0  0.52318  0.00134  0.73615  1.0000
  C   C578      1.0  0.27471  0.90027  0.98227  1.0000
  Fe  Fe80      1.0  0.55301  0.28420  0.30727  1.0000
  S   S159      1.0  0.54671  0.29994  0.26809  1.0000
  S   S160      1.0  0.55011  0.23105  0.31577  1.0000
  Fe  Fe81      1.0  0.56131  0.35218  0.32441  1.0000
  S   S161      1.0  0.55551  0.37334  0.28704  1.0000
  H   H698      1.0  0.57259  0.42284  0.31636  1.0000
  H   H699      1.0  0.65536  0.12999  0.32858  1.0000
  Fe  Fe82      1.0  0.57891  0.33291  0.27461  1.0000
  S   S162      1.0  0.60879  0.33723  0.24653  1.0000
  S   S163      1.0  0.58712  0.31383  0.31239  1.0000
  C   C579      1.0  0.77159  0.30365  0.39324  1.0000
  S   S164      1.0  0.57538  0.08920  0.45876  1.0000
  Fe  Fe83      1.0  0.54277  0.05217  0.40241  1.0000
  S   S165      1.0  0.58326  0.06205  0.40305  1.0000
  C   C580      1.0  0.62798  0.39663  0.31637  1.0000
  Fe  Fe84      1.0  0.58290  0.04177  0.44132  1.0000
  C   C581      1.0  0.57870  0.38898  0.48096  1.0000
  Fe  Fe85      1.0  0.57198  0.10871  0.42023  1.0000
  S   S166      1.0  0.58638  0.15874  0.41242  1.0000
  S   S167      1.0  0.54298  0.02915  0.43912  1.0000
  C   C582      1.0  0.77208  0.13478  0.16226  1.0000
  Fe  Fe86      1.0  0.70356  0.47560  0.20950  1.0000
  H   H700      1.0  0.72326  0.50504  0.05761  1.0000
  S   S168      1.0  0.66446  0.46735  0.22219  1.0000
  H   H701      1.0  0.60162  0.43545  0.45737  1.0000
  H   H702      1.0  0.57812  0.46493  0.45883  1.0000
  C   C583      1.0  0.71466  0.41394  0.26295  1.0000
  H   H703      1.0  0.74873  0.32414  0.49029  1.0000
  S   S169      1.0  0.73381  0.44366  0.19652  1.0000
  C   C584      1.0  0.58145  0.43861  0.45908  1.0000
  H   H704      1.0  0.60164  0.24736  0.46629  1.0000
  N   N38       1.0  0.64178  0.17430  0.34312  1.0000
  H   H705      1.0  0.64735  0.16016  0.30579  1.0000
  H   H706      1.0  0.52619  0.14071  0.46225  1.0000
  Fe  Fe87      1.0  0.67918  0.40284  0.47329  1.0000
  S   S170      1.0  0.66289  0.35431  0.46690  1.0000
  S   S171      1.0  0.66851  0.43920  0.44425  1.0000
  H   H707      1.0  0.57249  0.42977  0.39443  1.0000
  Fe  Fe88      1.0  0.70043  0.33530  0.47580  1.0000
  S   S172      1.0  0.71506  0.29379  0.45391  1.0000
  S   S173      1.0  0.71745  0.38401  0.47922  1.0000
  H   H708      1.0  0.68704  0.16581  0.31960  1.0000
  C   C585      1.0  0.53827  0.16087  0.46812  1.0000
  H   H709      1.0  0.77242  0.37051  0.47705  1.0000
  C   C586      1.0  0.73647  0.29846  0.43032  1.0000
  C   C587      1.0  0.74242  0.27182  0.41606  1.0000
  C   C588      1.0  0.71058  0.35731  0.25781  1.0000
  H   H710      1.0  0.53159  0.36123  0.23468  1.0000
  N   N39       1.0  0.57233  0.42349  0.48178  1.0000
  C   C589      1.0  0.62370  0.19901  0.33526  1.0000
  H   H711      1.0  0.57442  0.20574  0.45014  1.0000
  H   H712      1.0  0.74492  0.41834  0.34951  1.0000
  C   C590      1.0  0.75557  0.34753  0.32190  1.0000
  H   H713      1.0  0.72909  0.23183  0.36206  1.0000
  C   C591      1.0  0.66589  0.18973  0.34801  1.0000
  C   C592      1.0  0.58573  0.43833  0.50269  1.0000
  H   H714      1.0  0.70498  0.33383  0.26568  1.0000
  S   S174      1.0  0.53137  0.10011  0.41663  1.0000
  H   H715      1.0  0.71767  0.42524  0.31386  1.0000
  H   H716      1.0  0.73374  0.24897  0.41956  1.0000
  H   H717      1.0  0.67881  0.36253  0.29478  1.0000
  H   H718      1.0  0.62394  0.13820  0.32079  1.0000
  H   H719      1.0  0.64647  0.02842  0.44537  1.0000
  H   H720      1.0  0.68961  0.00907  0.44970  1.0000
  H   H721      1.0  0.58514  0.36072  0.19628  1.0000
  C   C593      1.0  0.54298  0.21824  0.47222  1.0000
  C   C594      1.0  0.68359  0.38478  0.28460  1.0000
  C   C595      1.0  0.62416  0.37352  0.23994  1.0000
  C   C596      1.0  0.61604  0.40280  0.24894  1.0000
  C   C597      1.0  0.62858  0.43126  0.24316  1.0000
  C   C598      1.0  0.64954  0.43072  0.22870  1.0000
  C   C599      1.0  0.65766  0.40146  0.21964  1.0000
  C   C600      1.0  0.64487  0.37300  0.22512  1.0000
  H   H722      1.0  0.59995  0.40361  0.26010  1.0000
  H   H723      1.0  0.62197  0.45390  0.24989  1.0000
  H   H724      1.0  0.67350  0.40083  0.20810  1.0000
  H   H725      1.0  0.65110  0.35046  0.21786  1.0000
  C   C601      1.0  0.57196  0.42221  0.35557  1.0000
  C   C602      1.0  0.57243  0.43708  0.33263  1.0000
  C   C603      1.0  0.57310  0.47062  0.33075  1.0000
  C   C604      1.0  0.64731  0.46903  0.45198  1.0000
  C   C605      1.0  0.57363  0.47454  0.37475  1.0000
  C   C606      1.0  0.68712  0.18287  0.33432  1.0000
  C   C607      1.0  0.56784  0.36446  0.18531  1.0000
  H   H726      1.0  0.74045  0.33152  0.28834  1.0000
  H   H727      1.0  0.57485  0.48876  0.39107  1.0000
  C   C608      1.0  0.55847  0.21245  0.34384  1.0000
  C   C609      1.0  0.55369  0.17960  0.34682  1.0000
  C   C610      1.0  0.56151  0.16316  0.36808  1.0000
  C   C611      1.0  0.57451  0.17939  0.38647  1.0000
  C   C612      1.0  0.57909  0.21236  0.38371  1.0000
  C   C613      1.0  0.57093  0.22894  0.36254  1.0000
  H   H728      1.0  0.63911  0.48156  0.41441  1.0000
  H   H729      1.0  0.73406  0.41449  0.25718  1.0000
  H   H730      1.0  0.58913  0.22508  0.39790  1.0000
  H   H731      1.0  0.57471  0.25424  0.36041  1.0000
  Fe  Fe89      1.0  0.53553  0.07756  0.45376  1.0000
  H   H732      1.0  0.55593  0.15766  0.45866  1.0000
  H   H733      1.0  0.54128  0.39666  0.21890  1.0000
  H   H734      1.0  0.57328  0.48202  0.31296  1.0000
  C   C614      1.0  0.74032  0.35104  0.30117  1.0000
  C   C615      1.0  0.77097  0.10730  0.24793  1.0000
  C   C616      1.0  0.58308  0.24542  0.47290  1.0000
  N   N40       1.0  0.64450  0.38482  0.38422  1.0000
  C   C617      1.0  0.62780  0.39850  0.40242  1.0000
  C   C618      1.0  0.64093  0.34952  0.38461  1.0000
  C   C619      1.0  0.67025  0.39140  0.39208  1.0000
  C   C620      1.0  0.63956  0.39971  0.35996  1.0000
  C   C621      1.0  0.64182  0.43338  0.35679  1.0000
  C   C622      1.0  0.63251  0.38169  0.33896  1.0000
  H   H735      1.0  0.70297  0.41719  0.24619  1.0000
  H   H736      1.0  0.56346  0.36945  0.23213  1.0000
  H   H737      1.0  0.60598  0.43577  0.50113  1.0000
  H   H738      1.0  0.60828  0.39407  0.39705  1.0000
  H   H739      1.0  0.63116  0.38800  0.42094  1.0000
  H   H740      1.0  0.63022  0.42474  0.40455  1.0000
  H   H741      1.0  0.62161  0.34300  0.37957  1.0000
  H   H742      1.0  0.64472  0.33921  0.40315  1.0000
  H   H743      1.0  0.65358  0.33733  0.37202  1.0000
  H   H744      1.0  0.67391  0.41744  0.39434  1.0000
  H   H745      1.0  0.67479  0.38025  0.41018  1.0000
  H   H746      1.0  0.68345  0.38207  0.37867  1.0000
  H   H747      1.0  0.64687  0.44870  0.37194  1.0000
  H   H748      1.0  0.62971  0.35611  0.33961  1.0000
  H   H749      1.0  0.62208  0.38245  0.30076  1.0000
  H   H750      1.0  0.75710  0.12642  0.17432  1.0000
  H   H751      1.0  0.65328  0.21939  0.37793  1.0000
  H   H752      1.0  0.54970  0.30440  0.18691  1.0000
  H   H753      1.0  0.63823  0.47396  0.33244  1.0000
  C   C623      1.0  0.54555  0.42719  0.48488  1.0000
  C   C624      1.0  0.71159  0.22033  0.35816  1.0000
  C   C625      1.0  0.64207  0.47544  0.47634  1.0000
  S   S175      1.0  0.73018  0.02701  0.19248  1.0000
  C   C626      1.0  0.64228  0.14961  0.32372  1.0000
  H   H754      1.0  0.76660  0.32613  0.32444  1.0000
  H   H755      1.0  0.71168  0.43548  0.27422  1.0000
  C   C627      1.0  0.66861  0.21279  0.36686  1.0000
  C   C628      1.0  0.57326  0.48944  0.35181  1.0000
  N   N41       1.0  0.70914  0.38352  0.27595  1.0000
  C   C629      1.0  0.57278  0.44104  0.37662  1.0000
  C   C630      1.0  0.74342  0.39950  0.33604  1.0000
  H   H756      1.0  0.65179  0.46289  0.49087  1.0000
  C   C631      1.0  0.75769  0.10370  0.12770  1.0000
  S   S176      1.0  0.72644  0.49755  0.23957  1.0000
  H   H757      1.0  0.72555  0.19235  0.32886  1.0000
  Fe  Fe90      1.0  0.74522  0.48563  0.17258  1.0000
  H   H758      1.0  0.56677  0.39058  0.18117  1.0000
  C   C632      1.0  0.70954  0.19805  0.33943  1.0000
  N   N42       1.0  0.52687  0.19239  0.46259  1.0000
  C   C633      1.0  0.69118  0.22769  0.37188  1.0000
  H   H759      1.0  0.61544  0.14528  0.36241  1.0000
  H   H760      1.0  0.53706  0.37767  0.15106  1.0000
  H   H761      1.0  0.69296  0.24493  0.38657  1.0000
  C   C634      1.0  0.63712  0.44809  0.33416  1.0000
  C   C635      1.0  0.72610  0.37924  0.29725  1.0000
  C   C636      1.0  0.75718  0.37168  0.33923  1.0000
  H   H762      1.0  0.64675  0.14088  0.37297  1.0000
  H   H763      1.0  0.62928  0.17565  0.38046  1.0000
  H   H764      1.0  0.57409  0.37611  0.49804  1.0000
  H   H765      1.0  0.56879  0.37677  0.46567  1.0000
  H   H766      1.0  0.55791  0.13777  0.36995  1.0000
  H   H767      1.0  0.56705  0.31397  0.21427  1.0000
  H   H768      1.0  0.54406  0.16668  0.33244  1.0000
  H   H769      1.0  0.62983  0.21211  0.31869  1.0000
  C   C637      1.0  0.53543  0.24024  0.49031  1.0000
  C   C638      1.0  0.74801  0.32781  0.42584  1.0000
  C   C639      1.0  0.63497  0.48605  0.43329  1.0000
  H   H770      1.0  0.69822  0.36167  0.24167  1.0000
  H   H771      1.0  0.53717  0.45534  0.45157  1.0000
  H   H772      1.0  0.60540  0.18830  0.33079  1.0000
  S   S177      1.0  0.57023  0.38026  0.35854  1.0000
  H   H773      1.0  0.55750  0.02664  0.49650  1.0000
  C   C640      1.0  0.72801  0.40326  0.31546  1.0000
  C   C641      1.0  0.76540  0.10662  0.29176  1.0000
  C   C642      1.0  0.63028  0.42974  0.31398  1.0000
  C   C643      1.0  0.76687  0.09020  0.26951  1.0000
  C   C644      1.0  0.63304  0.15840  0.36566  1.0000
  H   H774      1.0  0.74359  0.34848  0.43665  1.0000
  H   H775      1.0  0.62063  0.21708  0.34965  1.0000
  H   H776      1.0  0.59878  0.38528  0.47868  1.0000
  C   C645      1.0  0.56731  0.22165  0.46378  1.0000
  H   H777      1.0  0.72949  0.35510  0.25072  1.0000
  H   H778      1.0  0.53458  0.30855  0.21537  1.0000
  H   H779      1.0  0.57273  0.42795  0.44246  1.0000
  Fe  Fe91      1.0  0.76421  0.03675  0.21488  1.0000
  H   H780      1.0  0.67015  0.38735  0.26916  1.0000
  H   H781      1.0  0.54138  0.19319  0.42606  1.0000
  H   H782      1.0  0.58158  0.46438  0.50376  1.0000
  H   H783      1.0  0.62619  0.44131  0.29660  1.0000
  H   H784      1.0  0.68058  0.40543  0.29685  1.0000
  C   C646      1.0  0.53403  0.41367  0.50557  1.0000
  H   H785      1.0  0.76280  0.03662  0.08348  1.0000
  H   H786      1.0  0.76565  0.06433  0.26917  1.0000
  C   C647      1.0  0.62445  0.49863  0.48195  1.0000
  C   C648      1.0  0.75982  0.27442  0.39752  1.0000
  H   H787      1.0  0.74158  0.09416  0.13762  1.0000
  H   H788      1.0  0.58752  0.28478  0.49777  1.0000
  H   H789      1.0  0.77168  0.18298  0.27074  1.0000
  H   H790      1.0  0.76242  0.08554  0.11377  1.0000
  N   N43       1.0  0.54599  0.35317  0.19870  1.0000
  C   C649      1.0  0.57515  0.26651  0.49063  1.0000
  H   H791      1.0  0.76318  0.09332  0.30859  1.0000
  S   S178      1.0  0.52756  0.32123  0.32219  1.0000
  H   H792      1.0  0.57015  0.35107  0.16802  1.0000
  C   C650      1.0  0.54945  0.31858  0.20404  1.0000
  C   C651      1.0  0.75858  0.32437  0.50833  1.0000
  H   H793      1.0  0.76982  0.39775  0.21564  1.0000
  H   H794      1.0  0.75163  0.12564  0.11772  1.0000
  H   H795      1.0  0.76744  0.07263  0.16938  1.0000
  C   C652      1.0  0.76801  0.14005  0.29236  1.0000
  C   C653      1.0  0.55138  0.26397  0.49927  1.0000
  H   H796      1.0  0.77198  0.33843  0.21517  1.0000
  H   H797      1.0  0.54198  0.15777  0.48807  1.0000
  H   H798      1.0  0.76538  0.15711  0.15329  1.0000
  Fe  Fe92      1.0  0.65684  0.35364  0.50720  1.0000
  H   H799      1.0  0.76931  0.36877  0.35508  1.0000
  H   H800      1.0  0.52962  0.44537  0.30031  1.0000
  Fe  Fe93      1.0  0.75719  0.46806  0.22521  1.0000
  C   C654      1.0  0.54552  0.37088  0.22207  1.0000
  C   C655      1.0  0.77050  0.15716  0.27054  1.0000
  H   H801      1.0  0.76458  0.25366  0.38693  1.0000
  H   H802      1.0  0.62056  0.50365  0.50082  1.0000
  S   S179      1.0  0.77140  0.15976  0.32047  1.0000
  C   C656      1.0  0.53017  0.44394  0.46776  1.0000
  H   H803      1.0  0.76819  0.38631  0.50675  1.0000
  S   S180      1.0  0.77159  0.25472  0.31567  1.0000
  C   C657      1.0  0.76561  0.33030  0.40748  1.0000
  S   S181      1.0  0.75742  0.48287  0.13314  1.0000
  C   C658      1.0  0.77237  0.14078  0.24844  1.0000
  S   S182      1.0  0.77069  0.50736  0.20064  1.0000
  S   S183      1.0  0.73498  0.39927  0.54767  1.0000
  H   H804      1.0  0.55957  0.02806  0.64520  1.0000
  C   C659      1.0  0.58287  0.19634  0.78283  1.0000
  N   N44       1.0  0.56670  0.02161  0.74461  1.0000
  Fe  Fe94      1.0  0.70341  0.09882  0.81503  1.0000
  S   S184      1.0  0.71437  0.11969  0.77915  1.0000
  S   S185      1.0  0.66373  0.08912  0.82507  1.0000
  Fe  Fe95      1.0  0.74602  0.08515  0.78185  1.0000
  H   H805      1.0  0.68407  0.22679  0.82696  1.0000
  Fe  Fe96      1.0  0.73818  0.15231  0.80193  1.0000
  S   S186      1.0  0.73576  0.20591  0.79653  1.0000
  S   S187      1.0  0.73352  0.06166  0.81640  1.0000
  S   S188      1.0  0.72564  0.13354  0.83805  1.0000
  H   H806      1.0  0.57366  0.47128  0.56278  1.0000
  S   S189      1.0  0.54949  0.14936  0.72029  1.0000
  S   S190      1.0  0.55334  0.11414  0.78840  1.0000
  H   H807      1.0  0.52592  0.32452  0.62641  1.0000
  S   S191      1.0  0.56309  0.41648  0.59641  1.0000
  C   C660      1.0  0.53057  0.04612  0.66710  1.0000
  S   S192      1.0  0.54377  0.08431  0.66965  1.0000
  H   H808      1.0  0.53588  0.27118  0.64325  1.0000
  H   H809      1.0  0.54821  0.36148  0.56704  1.0000
  H   H810      1.0  0.56473  0.19638  0.77424  1.0000
  C   C661      1.0  0.76013  0.22499  0.78169  1.0000
  C   C662      1.0  0.63381  0.09564  0.81227  1.0000
  C   C663      1.0  0.61418  0.09119  0.82794  1.0000
  C   C664      1.0  0.58999  0.09668  0.81994  1.0000
  C   C665      1.0  0.58469  0.10664  0.79598  1.0000
  C   C666      1.0  0.60417  0.11074  0.77980  1.0000
  C   C667      1.0  0.62876  0.10518  0.78794  1.0000
  H   H811      1.0  0.61770  0.08365  0.84664  1.0000
  H   H812      1.0  0.57522  0.09340  0.83260  1.0000
  H   H813      1.0  0.60035  0.11863  0.76126  1.0000
  H   H814      1.0  0.64369  0.10821  0.77546  1.0000
  C   C668      1.0  0.76782  0.01937  0.75117  1.0000
  H   H815      1.0  0.55052  0.31371  0.66571  1.0000
  H   H816      1.0  0.74055  0.26953  0.77717  1.0000
  Fe  Fe97      1.0  0.75690  0.09869  0.83581  1.0000
  H   H817      1.0  0.55919  0.05932  0.71855  1.0000
  H   H818      1.0  0.54548  0.26221  0.61347  1.0000
  H   H819      1.0  0.54871  0.06640  0.60279  1.0000
  H   H820      1.0  0.56541  0.07283  0.74902  1.0000
  C   C669      1.0  0.74682  0.38039  0.57468  1.0000
  C   C670      1.0  0.74536  0.34725  0.57842  1.0000
  H   H821      1.0  0.60292  0.01584  0.76125  1.0000
  Fe  Fe98      1.0  0.53271  0.12722  0.75322  1.0000
  S   S193      1.0  0.61956  0.33548  0.51838  1.0000
  H   H822      1.0  0.77085  0.18668  0.84150  1.0000
  H   H823      1.0  0.65313  0.24149  0.82968  1.0000
  H   H824      1.0  0.75904  0.29917  0.51497  1.0000
  C   C671      1.0  0.57788  0.39456  0.57381  1.0000
  C   C672      1.0  0.60183  0.40313  0.56770  1.0000
  C   C673      1.0  0.61470  0.38525  0.55062  1.0000
  C   C674      1.0  0.60373  0.35856  0.53965  1.0000
  C   C675      1.0  0.57964  0.35013  0.54556  1.0000
  C   C676      1.0  0.56666  0.36826  0.56246  1.0000
  H   H825      1.0  0.61068  0.42333  0.57657  1.0000
  H   H826      1.0  0.63334  0.39165  0.54656  1.0000
  H   H827      1.0  0.57109  0.32943  0.53718  1.0000
  C   C677      1.0  0.55599  0.01153  0.54541  1.0000
  H   H828      1.0  0.57059  0.17355  0.81556  1.0000
  H   H829      1.0  0.58207  0.03597  0.77985  1.0000
  H   H830      1.0  0.73732  0.18252  0.74391  1.0000
  H   H831      1.0  0.67427  0.18666  0.78173  1.0000
  H   H832      1.0  0.64413  0.31336  0.57526  1.0000
  H   H833      1.0  0.69086  0.17332  0.80809  1.0000
  H   H834      1.0  0.60016  0.21817  0.75213  1.0000
  H   H835      1.0  0.66518  0.15054  0.79709  1.0000
  C   C678      1.0  0.57054  0.05461  0.73536  1.0000
  C   C679      1.0  0.75818  0.14936  0.72306  1.0000
  H   H836      1.0  0.58249  0.30440  0.66320  1.0000
  C   C680      1.0  0.77142  0.46135  0.74859  1.0000
  H   H837      1.0  0.53233  0.04782  0.52772  1.0000
  H   H838      1.0  0.56586  0.25507  0.63969  1.0000
  H   H839      1.0  0.75353  0.26386  0.68900  1.0000
  S   S194      1.0  0.75993  0.06028  0.74827  1.0000
  H   H840      1.0  0.53091  0.45233  0.55902  1.0000
  C   C681      1.0  0.55064  0.05128  0.58690  1.0000
  H   H841      1.0  0.64578  0.19143  0.85388  1.0000
  H   H842      1.0  0.73579  0.33247  0.56518  1.0000
  H   H843      1.0  0.75627  0.30734  0.60147  1.0000
  H   H844      1.0  0.75571  0.46425  0.78423  1.0000
  H   H845      1.0  0.54941  0.35044  0.61523  1.0000
  S   S195      1.0  0.67080  0.40367  0.51313  1.0000
  C   C682      1.0  0.58621  0.18362  0.80622  1.0000
  C   C683      1.0  0.63052  0.19436  0.80494  1.0000
  H   H846      1.0  0.77112  0.14307  0.93901  1.0000
  C   C684      1.0  0.53929  0.05961  0.56470  1.0000
  H   H847      1.0  0.71227  0.49649  0.73728  1.0000
  C   C685      1.0  0.53155  0.03231  0.77263  1.0000
  H   H848      1.0  0.64135  0.21722  0.77084  1.0000
  C   C686      1.0  0.75937  0.39914  0.59222  1.0000
  H   H849      1.0  0.62039  0.26290  0.57551  1.0000
  H   H850      1.0  0.61084  0.17104  0.83493  1.0000
  C   C687      1.0  0.60291  0.20842  0.77038  1.0000
  H   H851      1.0  0.66714  0.23880  0.80038  1.0000
  S   S196      1.0  0.69303  0.32984  0.51600  1.0000
  C   C688      1.0  0.53629  0.47401  0.54951  1.0000
  C   C689      1.0  0.54217  0.02271  0.65337  1.0000
  C   C690      1.0  0.60963  0.18231  0.81715  1.0000
  H   H852      1.0  0.67605  0.17732  0.84800  1.0000
  H   H853      1.0  0.75112  0.22958  0.72207  1.0000
  H   H854      1.0  0.52853  0.08138  0.56326  1.0000
  Fe  Fe99      1.0  0.52694  0.11337  0.69934  1.0000
  H   H855      1.0  0.63072  0.35932  0.59971  1.0000
  N   N45       1.0  0.56234  0.30473  0.62893  1.0000
  C   C691      1.0  0.55214  0.27181  0.63132  1.0000
  C   C692      1.0  0.56682  0.31704  0.65404  1.0000
  C   C693      1.0  0.54351  0.32496  0.61654  1.0000
  C   C694      1.0  0.58514  0.30620  0.61475  1.0000
  C   C695      1.0  0.59342  0.28014  0.60051  1.0000
  C   C696      1.0  0.59911  0.33492  0.61382  1.0000
  C   C697      1.0  0.61455  0.28279  0.58657  1.0000
  C   C698      1.0  0.62045  0.33704  0.60023  1.0000
  C   C699      1.0  0.62805  0.31115  0.58647  1.0000
  C   C700      1.0  0.54062  0.01774  0.75128  1.0000
  H   H856      1.0  0.53949  0.31654  0.59763  1.0000
  H   H857      1.0  0.65046  0.15287  0.83982  1.0000
  H   H858      1.0  0.77260  0.22056  0.87819  1.0000
  H   H859      1.0  0.74731  0.33822  0.52126  1.0000
  H   H860      1.0  0.57324  0.01661  0.60590  1.0000
  H   H861      1.0  0.54452  0.40098  0.51954  1.0000
  C   C701      1.0  0.56447  0.02334  0.58868  1.0000
  C   C702      1.0  0.75747  0.25691  0.77393  1.0000
  H   H862      1.0  0.58376  0.25758  0.59960  1.0000
  H   H863      1.0  0.57066  0.34319  0.65436  1.0000
  C   C703      1.0  0.75695  0.33305  0.59909  1.0000
  H   H864      1.0  0.76066  0.42478  0.58950  1.0000
  C   C704      1.0  0.62639  0.20763  0.78125  1.0000
  N   N46       1.0  0.65562  0.19353  0.81590  1.0000
  C   C705      1.0  0.65689  0.17821  0.84049  1.0000
  C   C706      1.0  0.67207  0.17531  0.79994  1.0000
  C   C707      1.0  0.66533  0.22660  0.81835  1.0000
  H   H865      1.0  0.75667  0.22628  0.65391  1.0000
  H   H866      1.0  0.59330  0.35638  0.62298  1.0000
  H   H867      1.0  0.68017  0.49668  0.74270  1.0000
  C   C708      1.0  0.74981  0.17977  0.72892  1.0000
  C   C709      1.0  0.75789  0.20674  0.71605  1.0000
  C   C710      1.0  0.54176  0.04006  0.54423  1.0000
  H   H868      1.0  0.76062  0.12480  0.89690  1.0000
  C   C711      1.0  0.77056  0.38501  0.61313  1.0000
  C   C712      1.0  0.76347  0.47762  0.76926  1.0000
  H   H869      1.0  0.54328  0.04647  0.78450  1.0000
  Fe  Fe100     1.0  0.70776  0.38008  0.51905  1.0000
  H   H870      1.0  0.59004  0.05912  0.73079  1.0000
  H   H871      1.0  0.58104  0.42721  0.52047  1.0000
  S   S197      1.0  0.76813  0.41939  0.74742  1.0000
  H   H872      1.0  0.75212  0.12856  0.73333  1.0000
  H   H873      1.0  0.69146  0.50393  0.71219  1.0000
  C   C713      1.0  0.77387  0.26291  0.69088  1.0000
  C   C714      1.0  0.56049  0.48454  0.55154  1.0000
  H   H874      1.0  0.54533  0.28044  0.51313  1.0000
  H   H875      1.0  0.75880  0.01529  0.78910  1.0000
  S   S198      1.0  0.77092  0.12015  0.80096  1.0000
  C   C715      1.0  0.76971  0.35180  0.61651  1.0000
  C   C716      1.0  0.58324  0.01637  0.76625  1.0000
  Fe  Fe101     1.0  0.55625  0.80456  0.29803  1.0000
  S   S199      1.0  0.54744  0.82629  0.26108  1.0000
  S   S200      1.0  0.55170  0.75080  0.30214  1.0000
  C   C717      1.0  0.56123  0.92973  0.36045  1.0000
  S   S201      1.0  0.55689  0.89631  0.28621  1.0000
  H   H876      1.0  0.63322  0.53082  0.27037  1.0000
  C   C718      1.0  0.67241  0.60231  0.24443  1.0000
  Fe  Fe102     1.0  0.57979  0.85896  0.26844  1.0000
  S   S202      1.0  0.60535  0.87022  0.23716  1.0000
  S   S203      1.0  0.59062  0.83381  0.30354  1.0000
  H   H877      1.0  0.55283  0.65479  0.35417  1.0000
  H   H878      1.0  0.72903  0.61626  0.01909  1.0000
  Fe  Fe103     1.0  0.56106  0.55740  0.38286  1.0000
  S   S204      1.0  0.58765  0.58704  0.40502  1.0000
  S   S205      1.0  0.57276  0.53142  0.34898  1.0000
  Fe  Fe104     1.0  0.56979  0.56420  0.43733  1.0000
  S   S206      1.0  0.58843  0.54223  0.47054  1.0000
  Fe  Fe105     1.0  0.55691  0.62293  0.40607  1.0000
  S   S207      1.0  0.56488  0.67642  0.40345  1.0000
  S   S208      1.0  0.54558  0.53196  0.41513  1.0000
  C   C719      1.0  0.75827  0.71979  0.43092  1.0000
  Fe  Fe106     1.0  0.72467  0.98394  0.21694  1.0000
  C   C720      1.0  0.54860  0.00336  0.50101  1.0000
  S   S209      1.0  0.69103  0.97471  0.24031  1.0000
  H   H879      1.0  0.69721  0.54854  0.28478  1.0000
  H   H880      1.0  0.56548  0.86487  0.40752  1.0000
  C   C721      1.0  0.74932  0.58737  0.07795  1.0000
  S   S210      1.0  0.73583  0.58771  0.21645  1.0000
  S   S211      1.0  0.74592  0.95101  0.19265  1.0000
  Fe  Fe107     1.0  0.75464  0.99551  0.17032  1.0000
  Fe  Fe108     1.0  0.56545  0.86931  0.32083  1.0000
  C   C722      1.0  0.56002  0.98169  0.27517  1.0000
  C   C723      1.0  0.53885  0.94610  0.23594  1.0000
  H   H881      1.0  0.75969  0.55788  0.25858  1.0000
  Fe  Fe109     1.0  0.71135  0.89732  0.47856  1.0000
  S   S212      1.0  0.68545  0.86263  0.46056  1.0000
  S   S213      1.0  0.71012  0.94998  0.46904  1.0000
  H   H882      1.0  0.72725  0.92539  0.26126  1.0000
  Fe  Fe110     1.0  0.71821  0.83037  0.45768  1.0000
  S   S214      1.0  0.72042  0.80014  0.42332  1.0000
  S   S215      1.0  0.74471  0.86693  0.47260  1.0000
  C   C724      1.0  0.63655  0.60384  0.31357  1.0000
  C   C725      1.0  0.73812  0.56700  0.09476  1.0000
  H   H883      1.0  0.62953  0.87076  0.39326  1.0000
  C   C726      1.0  0.74711  0.79773  0.40549  1.0000
  C   C727      1.0  0.74637  0.77928  0.38414  1.0000
  H   H884      1.0  0.60739  0.52147  0.42432  1.0000
  H   H885      1.0  0.66472  0.86310  0.37057  1.0000
  H   H886      1.0  0.56831  0.74325  0.39096  1.0000
  H   H887      1.0  0.72951  0.76737  0.37867  1.0000
  C   C728      1.0  0.61178  0.51517  0.46323  1.0000
  C   C729      1.0  0.70191  0.86329  0.38322  1.0000
  C   C730      1.0  0.56837  0.94939  0.37996  1.0000
  H   H888      1.0  0.60362  0.53631  0.30265  1.0000
  C   C731      1.0  0.73587  0.83522  0.29515  1.0000
  H   H889      1.0  0.68286  0.54463  0.22871  1.0000
  H   H890      1.0  0.70498  0.85585  0.22937  1.0000
  H   H891      1.0  0.62077  0.93396  0.36378  1.0000
  H   H892      1.0  0.71383  0.90912  0.23438  1.0000
  H   H893      1.0  0.75713  0.60918  0.08523  1.0000
  C   C732      1.0  0.67981  0.96452  0.46715  1.0000
  C   C733      1.0  0.66051  0.94579  0.47571  1.0000
  C   C734      1.0  0.72002  0.87868  0.39715  1.0000
  C   C735      1.0  0.53775  0.98874  0.36766  1.0000
  H   H894      1.0  0.63404  0.72275  0.43411  1.0000
  H   H895      1.0  0.66419  0.92276  0.48417  1.0000
  C   C736      1.0  0.75419  0.63687  0.24370  1.0000
  C   C737      1.0  0.62910  0.89933  0.23831  1.0000
  C   C738      1.0  0.63212  0.92000  0.25813  1.0000
  C   C739      1.0  0.65095  0.94321  0.25818  1.0000
  C   C740      1.0  0.66717  0.94575  0.23863  1.0000
  C   C741      1.0  0.66426  0.92493  0.21887  1.0000
  C   C742      1.0  0.64525  0.90194  0.21871  1.0000
  H   H896      1.0  0.61982  0.91827  0.27332  1.0000
  H   H897      1.0  0.65305  0.95922  0.27354  1.0000
  H   H898      1.0  0.67649  0.92673  0.20364  1.0000
  H   H899      1.0  0.64300  0.88611  0.20325  1.0000
  Fe  Fe111     1.0  0.68148  0.84256  0.49831  1.0000
  H   H900      1.0  0.62151  0.94194  0.47995  1.0000
  H   H901      1.0  0.59469  0.97172  0.25894  1.0000
  C   C743      1.0  0.53891  0.93678  0.19200  1.0000
  C   C744      1.0  0.74112  0.54862  0.04605  1.0000
  C   C745      1.0  0.56464  0.95073  0.23836  1.0000
  H   H902      1.0  0.55864  0.93047  0.19071  1.0000
  S   S216      1.0  0.60010  0.99788  0.45906  1.0000
  H   H903      1.0  0.67039  0.52199  0.25312  1.0000
  C   C746      1.0  0.55547  0.73078  0.33056  1.0000
  H   H904      1.0  0.76804  0.83532  0.20564  1.0000
  C   C747      1.0  0.55513  0.68051  0.35372  1.0000
  C   C748      1.0  0.56098  0.69693  0.37524  1.0000
  C   C749      1.0  0.56404  0.73038  0.37434  1.0000
  C   C750      1.0  0.56129  0.74729  0.35208  1.0000
  C   C751      1.0  0.75287  0.82578  0.31328  1.0000
  C   C752      1.0  0.72700  0.90361  0.24964  1.0000
  H   H905      1.0  0.53711  0.96312  0.18918  1.0000
  N   N47       1.0  0.71982  0.87442  0.26349  1.0000
  C   C753      1.0  0.63907  0.92221  0.36559  1.0000
  H   H906      1.0  0.74532  0.90081  0.24145  1.0000
  H   H907      1.0  0.65389  0.60686  0.23616  1.0000
  H   H908      1.0  0.73421  0.83961  0.23883  1.0000
  C   C754      1.0  0.61773  0.55442  0.30037  1.0000
  H   H909      1.0  0.74654  0.65235  0.22955  1.0000
  C   C755      1.0  0.71459  0.90697  0.40915  1.0000
  H   H910      1.0  0.60509  0.58249  0.33037  1.0000
  S   S217      1.0  0.54126  0.60247  0.44075  1.0000
  C   C756      1.0  0.75780  0.88529  0.29026  1.0000
  C   C757      1.0  0.62995  0.89403  0.40298  1.0000
  C   C758      1.0  0.53474  0.97683  0.27379  1.0000
  H   H911      1.0  0.73819  0.86834  0.39896  1.0000
  H   H912      1.0  0.53590  0.92406  0.33000  1.0000
  C   C759      1.0  0.54191  0.93933  0.34481  1.0000
  H   H913      1.0  0.68149  0.88650  0.26094  1.0000
  H   H914      1.0  0.52704  0.94043  0.41811  1.0000
  Fe  Fe112     1.0  0.73742  0.53427  0.21202  1.0000
  C   C760      1.0  0.75176  0.60359  0.24170  1.0000
  H   H915      1.0  0.72860  0.91862  0.42038  1.0000
  H   H916      1.0  0.65064  0.54617  0.23341  1.0000
  H   H917      1.0  0.65570  0.96749  0.39649  1.0000
  H   H918      1.0  0.65247  0.93751  0.35580  1.0000
  N   N48       1.0  0.67242  0.57286  0.25980  1.0000
  C   C761      1.0  0.76743  0.77561  0.37000  1.0000
  C   C762      1.0  0.55687  0.97891  0.38340  1.0000
  C   C763      1.0  0.53011  0.96877  0.34848  1.0000
  H   H919      1.0  0.63705  0.62404  0.32593  1.0000
  H   H920      1.0  0.58738  0.96709  0.50425  1.0000
  C   C764      1.0  0.53435  0.89263  0.22016  1.0000
  H   H921      1.0  0.76988  0.82738  0.42869  1.0000
  C   C765      1.0  0.74659  0.60542  0.01331  1.0000
  H   H922      1.0  0.57753  0.82463  0.37740  1.0000
  C   C766      1.0  0.67473  0.99450  0.45638  1.0000
  H   H923      1.0  0.74239  0.54004  0.02757  1.0000
  H   H924      1.0  0.70620  0.84086  0.37439  1.0000
  H   H925      1.0  0.66870  0.75959  0.42008  1.0000
  C   C767      1.0  0.77041  0.70235  0.41316  1.0000
  H   H926      1.0  0.54794  0.68444  0.31493  1.0000
  H   H927      1.0  0.63708  0.89925  0.35557  1.0000
  H   H928      1.0  0.53470  0.55100  0.48027  1.0000
  H   H929      1.0  0.64753  0.94625  0.42402  1.0000
  N   N49       1.0  0.63287  0.77452  0.43171  1.0000
  C   C768      1.0  0.65408  0.77733  0.41530  1.0000
  C   C769      1.0  0.64262  0.77628  0.45722  1.0000
  C   C770      1.0  0.62135  0.74247  0.42851  1.0000
  C   C771      1.0  0.61468  0.79978  0.42549  1.0000
  C   C772      1.0  0.60343  0.80094  0.40184  1.0000
  C   C773      1.0  0.60751  0.82363  0.44235  1.0000
  C   C774      1.0  0.58592  0.82418  0.39558  1.0000
  C   C775      1.0  0.58988  0.84669  0.43589  1.0000
  C   C776      1.0  0.57907  0.84690  0.41258  1.0000
  H   H930      1.0  0.66273  0.80151  0.41665  1.0000
  Fe  Fe113     1.0  0.52524  0.86190  0.28152  1.0000
  H   H931      1.0  0.70260  0.59098  0.28219  1.0000
  H   H932      1.0  0.65247  0.79927  0.46067  1.0000
  H   H933      1.0  0.65612  0.75693  0.46144  1.0000
  H   H934      1.0  0.62777  0.77378  0.47076  1.0000
  H   H935      1.0  0.61570  0.73761  0.40925  1.0000
  C   C777      1.0  0.65035  0.00548  0.45389  1.0000
  H   H936      1.0  0.60454  0.74009  0.43962  1.0000
  H   H937      1.0  0.60788  0.78364  0.38803  1.0000
  H   H938      1.0  0.61507  0.82490  0.46075  1.0000
  H   H939      1.0  0.57721  0.93971  0.22595  1.0000
  H   H940      1.0  0.58454  0.86445  0.44911  1.0000
  H   H941      1.0  0.69734  0.90164  0.28752  1.0000
  N   N50       1.0  0.64670  0.91749  0.39156  1.0000
  H   H942      1.0  0.75513  0.64474  0.05128  1.0000
  H   H943      1.0  0.56357  0.77302  0.35156  1.0000
  H   H944      1.0  0.62443  0.95772  0.40241  1.0000
  C   C778      1.0  0.67210  0.90501  0.39322  1.0000
  C   C779      1.0  0.67827  0.87616  0.38125  1.0000
  H   H945      1.0  0.68819  0.94185  0.41737  1.0000
  H   H946      1.0  0.68929  0.85992  0.28553  1.0000
  H   H947      1.0  0.64886  0.77324  0.39586  1.0000
  C   C780      1.0  0.69688  0.56926  0.27188  1.0000
  H   H948      1.0  0.66775  0.61977  0.29425  1.0000
  C   C781      1.0  0.69599  0.88086  0.27493  1.0000
  N   N51       1.0  0.52835  0.92675  0.21565  1.0000
  C   C782      1.0  0.63491  0.55164  0.28189  1.0000
  C   C783      1.0  0.77099  0.63108  0.04436  1.0000
  C   C784      1.0  0.65353  0.57521  0.27872  1.0000
  H   H949      1.0  0.61069  0.90272  0.40269  1.0000
  H   H950      1.0  0.71137  0.56501  0.25833  1.0000
  H   H951      1.0  0.73894  0.71572  0.43402  1.0000
  C   C785      1.0  0.63629  0.95680  0.47340  1.0000
  C   C786      1.0  0.65390  0.60126  0.29527  1.0000
  H   H952      1.0  0.68558  0.60047  0.22921  1.0000
  C   C787      1.0  0.64358  0.94860  0.40412  1.0000
  C   C788      1.0  0.71631  0.84815  0.24554  1.0000
  C   C789      1.0  0.75099  0.57885  0.05293  1.0000
  H   H953      1.0  0.70664  0.82709  0.25326  1.0000
  C   C790      1.0  0.63108  0.98653  0.46238  1.0000
  S   S218      1.0  0.57696  0.89357  0.35588  1.0000
  H   H954      1.0  0.67811  0.62396  0.25478  1.0000
  H   H955      1.0  0.63549  0.88924  0.42237  1.0000
  H   H956      1.0  0.56808  0.99494  0.29031  1.0000
  S   S219      1.0  0.71219  0.80724  0.49427  1.0000
  C   C791      1.0  0.57494  0.96864  0.25750  1.0000
  C   C792      1.0  0.73804  0.86504  0.28272  1.0000
  C   C793      1.0  0.76151  0.58361  0.26006  1.0000
  C   C794      1.0  0.66876  0.54523  0.24315  1.0000
  H   H957      1.0  0.55452  0.88855  0.22167  1.0000
  C   C795      1.0  0.69105  0.92010  0.40729  1.0000
  H   H958      1.0  0.76103  0.90843  0.28197  1.0000
  C   C796      1.0  0.55239  0.69738  0.33150  1.0000
  H   H959      1.0  0.72111  0.81879  0.29080  1.0000
  H   H960      1.0  0.76650  0.76111  0.35380  1.0000
  H   H961      1.0  0.58287  0.94202  0.39242  1.0000
  C   C797      1.0  0.61851  0.58047  0.31611  1.0000
  S   S220      1.0  0.75730  0.99659  0.24107  1.0000
  H   H962      1.0  0.75046  0.98526  0.50136  1.0000
  N   N52       1.0  0.76324  0.59939  0.03467  1.0000
  C   C798      1.0  0.76682  0.65022  0.26375  1.0000
  C   C799      1.0  0.77229  0.84586  0.31989  1.0000
  C   C800      1.0  0.73011  0.52837  0.06308  1.0000
  H   H963      1.0  0.75115  0.80261  0.32211  1.0000
  H   H964      1.0  0.55186  0.98718  0.48533  1.0000
  H   H965      1.0  0.56284  0.99398  0.39832  1.0000
  H   H966      1.0  0.75114  0.92814  0.49950  1.0000
  H   H967      1.0  0.73770  0.57342  0.11391  1.0000
  H   H968      1.0  0.52967  0.92470  0.17622  1.0000
  H   H969      1.0  0.75988  0.68461  0.40318  1.0000
  H   H970      1.0  0.52702  0.87697  0.20533  1.0000
  S   S221      1.0  0.53137  0.59483  0.38137  1.0000
  C   C801      1.0  0.72859  0.53757  0.08737  1.0000
  S   S222      1.0  0.71247  0.51488  0.18271  1.0000
  S   S223      1.0  0.75471  0.00400  0.12919  1.0000
  H   H971      1.0  0.76112  0.75716  0.45766  1.0000
  S   S224      1.0  0.53200  0.83820  0.31804  1.0000
  H   H972      1.0  0.52948  0.91725  0.45987  1.0000
  H   H973      1.0  0.72083  0.52136  0.10073  1.0000
  H   H974      1.0  0.76897  0.67593  0.26499  1.0000
  C   C802      1.0  0.76903  0.81310  0.41230  1.0000
  H   H975      1.0  0.52630  0.88419  0.23754  1.0000
  H   H976      1.0  0.52837  0.00691  0.50151  1.0000
  C   C803      1.0  0.61708  0.50882  0.43888  1.0000
  C   C804      1.0  0.77357  0.59702  0.28046  1.0000
  C   C805      1.0  0.77076  0.74312  0.44434  1.0000
  H   H977      1.0  0.59340  0.96859  0.53603  1.0000
  H   H978      1.0  0.65575  0.88742  0.53200  1.0000
  C   C806      1.0  0.72306  0.80792  0.60916  1.0000
  H   H979      1.0  0.54654  0.94259  0.51371  1.0000
  Fe  Fe114     1.0  0.71427  0.61208  0.81009  1.0000
  S   S225      1.0  0.73124  0.63298  0.77664  1.0000
  S   S226      1.0  0.67463  0.59497  0.80862  1.0000
  S   S227      1.0  0.75662  0.71809  0.79801  1.0000
  H   H980      1.0  0.72190  0.58160  0.72931  1.0000
  Fe  Fe115     1.0  0.75189  0.66466  0.80287  1.0000
  H   H981      1.0  0.54610  0.60337  0.80341  1.0000
  S   S228      1.0  0.74348  0.57452  0.81603  1.0000
  S   S229      1.0  0.73263  0.64648  0.83633  1.0000
  Fe  Fe116     1.0  0.55404  0.65849  0.73696  1.0000
  S   S230      1.0  0.54721  0.67039  0.69735  1.0000
  S   S231      1.0  0.59028  0.67487  0.75412  1.0000
  C   C807      1.0  0.67310  0.56108  0.72982  1.0000
  S   S232      1.0  0.58502  0.91688  0.57999  1.0000
  C   C808      1.0  0.65090  0.61204  0.72547  1.0000
  H   H982      1.0  0.53828  0.53184  0.64108  1.0000
  H   H983      1.0  0.77126  0.95856  0.79291  1.0000
  H   H984      1.0  0.57123  0.85757  0.55526  1.0000
  C   C809      1.0  0.76371  0.92775  0.51578  1.0000
  C   C810      1.0  0.54543  0.95953  0.52923  1.0000
  C   C811      1.0  0.65204  0.61649  0.79160  1.0000
  C   C812      1.0  0.62959  0.60159  0.78547  1.0000
  C   C813      1.0  0.61067  0.61877  0.77331  1.0000
  C   C814      1.0  0.61393  0.65122  0.76764  1.0000
  C   C815      1.0  0.63648  0.66596  0.77355  1.0000
  C   C816      1.0  0.65556  0.64861  0.78520  1.0000
  H   H985      1.0  0.62677  0.57673  0.79033  1.0000
  H   H986      1.0  0.59357  0.60696  0.76862  1.0000
  H   H987      1.0  0.63916  0.69104  0.76926  1.0000
  H   H988      1.0  0.67271  0.66040  0.78993  1.0000
  H   H989      1.0  0.55816  0.82130  0.59214  1.0000
  H   H990      1.0  0.70636  0.82197  0.60895  1.0000
  C   C817      1.0  0.54525  0.68413  0.80992  1.0000
  C   C818      1.0  0.58492  0.98234  0.52059  1.0000
  H   H991      1.0  0.59915  0.80685  0.58451  1.0000
  H   H992      1.0  0.58912  0.85596  0.60930  1.0000
  H   H993      1.0  0.54053  0.97428  0.63988  1.0000
  C   C819      1.0  0.56703  0.00370  0.56837  1.0000
  H   H994      1.0  0.61370  0.60953  0.71170  1.0000
  S   S233      1.0  0.53520  0.61044  0.73593  1.0000
  H   H995      1.0  0.55733  0.55035  0.51539  1.0000
  H   H996      1.0  0.59096  0.69276  0.81730  1.0000
  C   C820      1.0  0.75727  0.87123  0.57625  1.0000
  H   H997      1.0  0.53739  0.65902  0.85499  1.0000
  H   H998      1.0  0.65064  0.51990  0.71810  1.0000
  H   H999      1.0  0.74062  0.87797  0.56650  1.0000
  C   C821      1.0  0.60042  0.89207  0.55949  1.0000
  C   C822      1.0  0.62428  0.90034  0.55278  1.0000
  C   C823      1.0  0.63744  0.88070  0.53705  1.0000
  C   C824      1.0  0.62697  0.85237  0.52817  1.0000
  C   C825      1.0  0.60298  0.84419  0.53472  1.0000
  C   C826      1.0  0.58966  0.86408  0.55026  1.0000
  H   H1000     1.0  0.63268  0.92199  0.55985  1.0000
  S   S234      1.0  0.70523  0.87966  0.51678  1.0000
  C   C827      1.0  0.71682  0.55699  0.72336  1.0000
  H   H1001     1.0  0.61250  0.58641  0.85210  1.0000
  H   H1002     1.0  0.74320  0.77677  0.67919  1.0000
  H   H1003     1.0  0.70398  0.57291  0.76848  1.0000
  C   C828      1.0  0.73604  0.80259  0.63115  1.0000
  C   C829      1.0  0.56771  0.51207  0.53912  1.0000
  C   C830      1.0  0.65166  0.54551  0.72045  1.0000
  H   H1004     1.0  0.53327  0.61859  0.84456  1.0000
  C   C831      1.0  0.76696  0.77371  0.60916  1.0000
  S   S235      1.0  0.76820  0.83409  0.53600  1.0000
  C   C832      1.0  0.61838  0.66362  0.83368  1.0000
  C   C833      1.0  0.57575  0.64568  0.82728  1.0000
  C   C834      1.0  0.63056  0.56294  0.71393  1.0000
  S   S236      1.0  0.53203  0.59084  0.66586  1.0000
  H   H1005     1.0  0.58663  0.52011  0.54046  1.0000
  H   H1006     1.0  0.57752  0.98203  0.57096  1.0000
  H   H1007     1.0  0.59471  0.82238  0.52781  1.0000
  C   C835      1.0  0.53290  0.64412  0.83870  1.0000
  C   C836      1.0  0.62480  0.63384  0.84343  1.0000
  C   C837      1.0  0.75842  0.78507  0.63182  1.0000
  H   H1008     1.0  0.72011  0.95042  0.52328  1.0000
  Fe  Fe117     1.0  0.73649  0.84626  0.50976  1.0000
  C   C838      1.0  0.55068  0.52932  0.52484  1.0000
  H   H1009     1.0  0.73371  0.54246  0.72622  1.0000
  H   H1010     1.0  0.68727  0.60826  0.73995  1.0000
  H   H1011     1.0  0.57891  0.99337  0.77564  1.0000
  C   C839      1.0  0.67196  0.59487  0.73231  1.0000
  C   C840      1.0  0.59430  0.66957  0.82555  1.0000
  H   H1012     1.0  0.68486  0.53917  0.77436  1.0000
  H   H1013     1.0  0.65039  0.63780  0.72779  1.0000
  C   C841      1.0  0.60716  0.60982  0.84516  1.0000
  C   C842      1.0  0.63019  0.59611  0.71643  1.0000
  C   C843      1.0  0.59103  0.84043  0.62589  1.0000
  N   N53       1.0  0.58411  0.80674  0.62067  1.0000
  C   C844      1.0  0.55911  0.80694  0.60935  1.0000
  C   C845      1.0  0.58585  0.78756  0.64355  1.0000
  C   C846      1.0  0.60882  0.78342  0.65592  1.0000
  C   C847      1.0  0.56507  0.77322  0.65452  1.0000
  C   C848      1.0  0.61088  0.76552  0.67759  1.0000
  C   C849      1.0  0.56732  0.75554  0.67623  1.0000
  C   C850      1.0  0.59017  0.75151  0.68768  1.0000
  H   H1014     1.0  0.76892  0.78194  0.78312  1.0000
  H   H1015     1.0  0.55264  0.78236  0.60470  1.0000
  H   H1016     1.0  0.54922  0.70198  0.82448  1.0000
  H   H1017     1.0  0.54556  0.81784  0.62166  1.0000
  H   H1018     1.0  0.57912  0.85075  0.64009  1.0000
  H   H1019     1.0  0.62532  0.79420  0.64902  1.0000
  H   H1020     1.0  0.54676  0.77539  0.64685  1.0000
  H   H1021     1.0  0.62859  0.76258  0.68674  1.0000
  H   H1022     1.0  0.55113  0.74500  0.68430  1.0000
  H   H1023     1.0  0.59174  0.73765  0.70450  1.0000
  H   H1024     1.0  0.76352  0.64506  0.89863  1.0000
  H   H1025     1.0  0.77178  0.66712  0.94007  1.0000
  H   H1026     1.0  0.72222  0.80117  0.57021  1.0000
  H   H1027     1.0  0.59707  0.76801  0.59878  1.0000
  C   C851      1.0  0.69470  0.50868  0.73197  1.0000
  C   C852      1.0  0.76588  0.51103  0.77088  1.0000
  H   H1028     1.0  0.63243  0.68180  0.83152  1.0000
  H   H1029     1.0  0.55308  0.94685  0.54556  1.0000
  C   C853      1.0  0.60099  0.79379  0.60229  1.0000
  S   S237      1.0  0.64357  0.82658  0.50925  1.0000
  H   H1030     1.0  0.61035  0.84278  0.63251  1.0000
  H   H1031     1.0  0.75675  0.81637  0.67702  1.0000
  Fe  Fe118     1.0  0.52604  0.62414  0.69698  1.0000
  H   H1032     1.0  0.52802  0.99021  0.71921  1.0000
  S   S238      1.0  0.53158  0.88415  0.62005  1.0000
  C   C854      1.0  0.58298  0.61555  0.83725  1.0000
  H   H1033     1.0  0.75693  0.00640  0.52901  1.0000
  Fe  Fe119     1.0  0.54468  0.90924  0.58649  1.0000
  Fe  Fe120     1.0  0.76148  0.59750  0.78406  1.0000
  H   H1034     1.0  0.76903  0.69689  0.84495  1.0000
  H   H1035     1.0  0.55698  0.63342  0.78281  1.0000
  H   H1036     1.0  0.62057  0.79599  0.60802  1.0000
  C   C855      1.0  0.54433  0.62901  0.79814  1.0000
  H   H1037     1.0  0.72643  0.97359  0.54973  1.0000
  H   H1038     1.0  0.76107  0.90419  0.52505  1.0000
  H   H1039     1.0  0.75027  0.90119  0.60730  1.0000
  H   H1040     1.0  0.72970  0.93091  0.55131  1.0000
  C   C856      1.0  0.73270  0.95235  0.53955  1.0000
  H   H1041     1.0  0.75508  0.62206  0.99983  1.0000
  C   C857      1.0  0.73189  0.79616  0.58733  1.0000
  N   N54       1.0  0.55864  0.98984  0.52432  1.0000
  C   C858      1.0  0.76209  0.98495  0.51841  1.0000
  N   N55       1.0  0.75877  0.95480  0.53243  1.0000
  C   C859      1.0  0.76066  0.79022  0.67696  1.0000
  N   N56       1.0  0.69582  0.54362  0.73694  1.0000
  N   N57       1.0  0.55008  0.65091  0.81867  1.0000
  H   H1042     1.0  0.71725  0.53407  0.76983  1.0000
  C   C860      1.0  0.70070  0.54754  0.76348  1.0000
  H   H1043     1.0  0.71275  0.55776  0.70337  1.0000
  H   H1044     1.0  0.57029  0.97379  0.73059  1.0000
  H   H1045     1.0  0.75745  0.99629  0.57115  1.0000
  H   H1046     1.0  0.64373  0.62898  0.84880  1.0000
  Fe  Fe121     1.0  0.76366  0.61099  0.83916  1.0000
  C   C861      1.0  0.75377  0.77907  0.58733  1.0000
  H   H1047     1.0  0.72845  0.81306  0.64726  1.0000
  C   C862      1.0  0.52573  0.51961  0.52269  1.0000
  C   C863      1.0  0.57428  0.99905  0.72532  1.0000
  H   H1048     1.0  0.55640  0.69019  0.79370  1.0000
  H   H1049     1.0  0.76104  0.77114  0.57012  1.0000
  C   C864      1.0  0.53144  0.99235  0.65042  1.0000
  H   H1050     1.0  0.52573  0.96411  0.53262  1.0000
  C   C865      1.0  0.76265  0.88404  0.59951  1.0000
  H   H1051     1.0  0.76383  0.73052  0.65729  1.0000
  H   H1052     1.0  0.57012  0.59592  0.83851  1.0000
  C   C866      1.0  0.76569  0.00308  0.77342  1.0000
  H   H1053     1.0  0.76014  0.52311  0.78710  1.0000
  H   H1054     1.0  0.74216  0.58326  0.00300  1.0000
  H   H1055     1.0  0.61429  0.55068  0.70700  1.0000
  H   H1056     1.0  0.59582  0.00460  0.51779  1.0000
  H   H1057     1.0  0.59428  0.00083  0.72177  1.0000
  C   C867      1.0  0.77157  0.97827  0.57297  1.0000
  H   H1058     1.0  0.77254  0.69782  0.87754  1.0000
  H   H1059     1.0  0.77216  0.78559  0.69374  1.0000
  N   N58       1.0  0.77338  0.78045  0.65448  1.0000
  C   C868      1.0  0.77285  0.97087  0.77557  1.0000
  C   C869      1.0  0.77356  0.84987  0.56566  1.0000
  H   H1060     1.0  0.52572  0.68744  0.80400  1.0000
  H   H1061     1.0  0.52519  0.63230  0.79097  1.0000
  H   H1062     1.0  0.52476  0.58469  0.51539  1.0000
  H   H1063     1.0  0.56495  0.00437  0.70743  1.0000
  Fe  Fe122     1.0  0.97493  0.12216  0.23357  1.0000
  S   S239      1.0  0.98485  0.10163  0.19717  1.0000
  S   S240      1.0  0.93425  0.13415  0.23548  1.0000
  Fe  Fe123     1.0  0.00436  0.06336  0.21866  1.0000
  Fe  Fe124     1.0  0.01990  0.12918  0.20179  1.0000
  H   H1064     1.0  0.94465  0.03377  0.05806  1.0000
  S   S241      1.0  0.79434  0.30776  0.37089  1.0000
  S   S242      1.0  0.99236  0.08185  0.25500  1.0000
  C   C870      1.0  0.93194  0.26416  0.24758  1.0000
  C   C871      1.0  0.94169  0.27093  0.22484  1.0000
  H   H1065     1.0  0.83265  0.31269  0.22358  1.0000
  C   C872      1.0  0.97911  0.20681  0.08295  1.0000
  S   S243      1.0  0.98199  0.34645  0.09551  1.0000
  H   H1066     1.0  0.90648  0.03616  0.03821  1.0000
  Fe  Fe125     1.0  0.99204  0.31687  0.06299  1.0000
  S   S244      1.0  0.96837  0.29488  0.03304  1.0000
  H   H1067     1.0  0.98405  0.35645  0.17257  1.0000
  H   H1068     1.0  0.89856  0.08653  0.21971  1.0000
  H   H1069     1.0  0.82545  0.05096  0.22644  1.0000
  C   C873      1.0  0.99152  0.19627  0.01132  1.0000
  H   H1070     1.0  0.99778  0.20620  0.07514  1.0000
  H   H1071     1.0  0.98674  0.01752  0.12164  1.0000
  N   N59       1.0  0.01711  0.38313  0.18114  1.0000
  S   S245      1.0  0.89438  0.10267  0.04638  1.0000
  S   S246      1.0  0.88853  0.19064  0.06168  1.0000
  Fe  Fe126     1.0  0.85681  0.08072  0.04418  1.0000
  S   S247      1.0  0.85279  0.04432  0.07514  1.0000
  S   S248      1.0  0.83889  0.12848  0.03743  1.0000
  Fe  Fe127     1.0  0.84184  0.23593  0.31297  1.0000
  S   S249      1.0  0.81481  0.21781  0.28504  1.0000
  S   S250      1.0  0.88287  0.22655  0.31098  1.0000
  Fe  Fe128     1.0  0.80156  0.27072  0.34167  1.0000
  Fe  Fe129     1.0  0.79087  0.20725  0.31690  1.0000
  H   H1072     1.0  0.97523  0.08002  0.03077  1.0000
  Fe  Fe130     1.0  0.79823  0.26701  0.28641  1.0000
  H   H1073     1.0  0.97320  0.19869  0.01831  1.0000
  S   S251      1.0  0.81910  0.22207  0.34529  1.0000
  S   S252      1.0  0.82712  0.28616  0.31199  1.0000
  C   C874      1.0  0.00924  0.43133  0.20808  1.0000
  N   N60       1.0  0.78341  0.33855  0.50656  1.0000
  H   H1074     1.0  0.94344  0.15613  0.11571  1.0000
  H   H1075     1.0  0.86000  0.33197  0.21379  1.0000
  H   H1076     1.0  0.89393  0.03538  0.27482  1.0000
  C   C875      1.0  0.79379  0.35125  0.27290  1.0000
  C   C876      1.0  0.79256  0.38484  0.27313  1.0000
  H   H1077     1.0  0.80023  0.33850  0.28899  1.0000
  H   H1078     1.0  0.79811  0.39772  0.28942  1.0000
  C   C877      1.0  0.89529  0.03468  0.21540  1.0000
  C   C878      1.0  0.78618  0.33441  0.25210  1.0000
  C   C879      1.0  0.86145  0.07181  0.22333  1.0000
  C   C880      1.0  0.87783  0.00929  0.21609  1.0000
  H   H1079     1.0  0.94935  0.04442  0.18581  1.0000
  H   H1080     1.0  0.96583  0.45433  0.15649  1.0000
  C   C881      1.0  0.88633  0.06608  0.21947  1.0000
  C   C882      1.0  0.80203  0.04096  0.07959  1.0000
  C   C883      1.0  0.82516  0.03330  0.08955  1.0000
  C   C884      1.0  0.83993  0.14190  0.10154  1.0000
  C   C885      1.0  0.99142  0.09901  0.06394  1.0000
  C   C886      1.0  0.84132  0.11262  0.11379  1.0000
  H   H1081     1.0  0.99963  0.47065  0.23120  1.0000
  H   H1082     1.0  0.91258  0.20499  0.01565  1.0000
  H   H1083     1.0  0.89146  0.14040  0.31626  1.0000
  C   C887      1.0  0.94555  0.26677  0.04096  1.0000
  C   C888      1.0  0.93641  0.26527  0.06459  1.0000
  C   C889      1.0  0.91845  0.24237  0.07044  1.0000
  C   C890      1.0  0.90988  0.22032  0.05293  1.0000
  C   C891      1.0  0.91911  0.22174  0.02932  1.0000
  C   C892      1.0  0.93661  0.24519  0.02330  1.0000
  H   H1084     1.0  0.94299  0.28199  0.07826  1.0000
  H   H1085     1.0  0.91129  0.24158  0.08870  1.0000
  H   H1086     1.0  0.98986  0.19408  0.12947  1.0000
  S   S253      1.0  0.99929  0.01051  0.21109  1.0000
  C   C893      1.0  0.92071  0.16100  0.25611  1.0000
  C   C894      1.0  0.89548  0.16744  0.25358  1.0000
  C   C895      1.0  0.88373  0.18782  0.27000  1.0000
  C   C896      1.0  0.89706  0.20166  0.28933  1.0000
  C   C897      1.0  0.92236  0.19554  0.29169  1.0000
  C   C898      1.0  0.93418  0.17536  0.27512  1.0000
  H   H1087     1.0  0.88498  0.15656  0.23883  1.0000
  H   H1088     1.0  0.86436  0.19263  0.26775  1.0000
  H   H1089     1.0  0.93286  0.20624  0.30653  1.0000
  H   H1090     1.0  0.95361  0.17058  0.27726  1.0000
  H   H1091     1.0  0.79871  0.38353  0.49455  1.0000
  H   H1092     1.0  0.85414  0.05970  0.28169  1.0000
  H   H1093     1.0  0.85502  0.14988  0.09042  1.0000
  H   H1094     1.0  0.83625  0.08540  0.33406  1.0000
  H   H1095     1.0  0.85538  0.16596  0.30933  1.0000
  C   C899      1.0  0.98632  0.42574  0.24521  1.0000
  H   H1096     1.0  0.00450  0.07958  0.06610  1.0000
  C   C900      1.0  0.98978  0.44346  0.12678  1.0000
  C   C901      1.0  0.99125  0.17347  0.11680  1.0000
  H   H1097     1.0  0.81777  0.18295  0.09296  1.0000
  S   S254      1.0  0.00862  0.15329  0.23621  1.0000
  N   N61       1.0  0.86615  0.29337  0.23967  1.0000
  S   S255      1.0  0.02376  0.34874  0.05319  1.0000
  H   H1098     1.0  0.96046  0.26436  0.22112  1.0000
  H   H1099     1.0  0.78304  0.16497  0.11711  1.0000
  C   C902      1.0  0.91468  0.07375  0.29130  1.0000
  H   H1100     1.0  0.00110  0.24383  0.02042  1.0000
  C   C903      1.0  0.78206  0.01396  0.11374  1.0000
  H   H1101     1.0  0.00443  0.12226  0.09592  1.0000
  C   C904      1.0  0.83324  0.12488  0.27964  1.0000
  H   H1102     1.0  0.91841  0.04500  0.17368  1.0000
  C   C905      1.0  0.79919  0.15005  0.11701  1.0000
  H   H1103     1.0  0.93493  0.29101  0.18913  1.0000
  C   C906      1.0  0.84519  0.14653  0.31866  1.0000
  C   C907      1.0  0.91355  0.10322  0.30294  1.0000
  H   H1104     1.0  0.82652  0.15628  0.32181  1.0000
  N   N62       1.0  0.84418  0.11678  0.30391  1.0000
  N   N63       1.0  0.92173  0.02936  0.21114  1.0000
  H   H1105     1.0  0.80065  0.05420  0.06256  1.0000
  H   H1106     1.0  0.97408  0.37817  0.25393  1.0000
  H   H1107     1.0  0.85386  0.14224  0.33698  1.0000
  H   H1108     1.0  0.93239  0.06321  0.28776  1.0000
  N   N64       1.0  0.97346  0.17650  0.09597  1.0000
  C   C908      1.0  0.89309  0.05822  0.28403  1.0000
  C   C909      1.0  0.89087  0.11728  0.30753  1.0000
  C   C910      1.0  0.85380  0.26276  0.24579  1.0000
  C   C911      1.0  0.85300  0.01526  0.22019  1.0000
  C   C912      1.0  0.80014  0.12057  0.13011  1.0000
  C   C913      1.0  0.99551  0.48838  0.15479  1.0000
  H   H1109     1.0  0.93416  0.18380  0.09224  1.0000
  H   H1110     1.0  0.81709  0.32799  0.48853  1.0000
  H   H1111     1.0  0.78731  0.05949  0.14658  1.0000
  S   S256      1.0  0.99667  0.29430  0.15254  1.0000
  C   C914      1.0  0.00878  0.25607  0.15810  1.0000
  H   H1112     1.0  0.92921  0.07553  0.19441  1.0000
  C   C915      1.0  0.87033  0.07220  0.28830  1.0000
  H   H1113     1.0  0.83375  0.26600  0.24805  1.0000
  C   C916      1.0  0.99116  0.12381  0.08102  1.0000
  H   H1114     1.0  0.99127  0.35387  0.21774  1.0000
  H   H1115     1.0  0.98206  0.24421  0.18507  1.0000
  H   H1116     1.0  0.98794  0.15147  0.12787  1.0000
  C   C917      1.0  0.82182  0.10196  0.12791  1.0000
  H   H1117     1.0  0.78801  0.14096  0.17444  1.0000
  Fe  Fe131     1.0  0.00790  0.31372  0.11609  1.0000
  C   C918      1.0  0.02400  0.47970  0.12198  1.0000
  H   H1118     1.0  0.95617  0.03481  0.23077  1.0000
  H   H1119     1.0  0.96602  0.21162  0.06756  1.0000
  C   C919      1.0  0.86449  0.31525  0.26080  1.0000
  H   H1120     1.0  0.85738  0.09767  0.11179  1.0000
  Fe  Fe132     1.0  0.87695  0.14955  0.03685  1.0000
  H   H1121     1.0  0.79818  0.29345  0.49409  1.0000
  C   C920      1.0  0.00696  0.20506  0.17956  1.0000
  H   H1122     1.0  0.90949  0.02703  0.08406  1.0000
  C   C921      1.0  0.78364  0.07997  0.15864  1.0000
  H   H1123     1.0  0.82278  0.07285  0.30536  1.0000
  C   C922      1.0  0.97419  0.14955  0.07858  1.0000
  C   C923      1.0  0.90769  0.27225  0.25242  1.0000
  H   H1124     1.0  0.87232  0.30454  0.27792  1.0000
  S   S257      1.0  0.78099  0.44371  0.25398  1.0000
  H   H1125     1.0  0.90098  0.26635  0.27033  1.0000
  H   H1126     1.0  0.94746  0.19864  0.11982  1.0000
  C   C924      1.0  0.99270  0.01528  0.16077  1.0000
  H   H1127     1.0  0.99795  0.18940  0.19233  1.0000
  C   C925      1.0  0.94861  0.17884  0.10636  1.0000
  H   H1128     1.0  0.82780  0.10326  0.26904  1.0000
  H   H1129     1.0  0.94422  0.16742  0.05503  1.0000
  C   C926      1.0  0.82768  0.09405  0.31660  1.0000
  H   H1130     1.0  0.85168  0.29244  0.20264  1.0000
  H   H1131     1.0  0.99343  0.04099  0.16293  1.0000
  C   C927      1.0  0.86850  0.10203  0.30041  1.0000
  H   H1132     1.0  0.81649  0.13960  0.28131  1.0000
  C   C928      1.0  0.95771  0.14879  0.05814  1.0000
  H   H1133     1.0  0.94311  0.25213  0.26149  1.0000
  C   C929      1.0  0.99439  0.37915  0.22058  1.0000
  C   C930      1.0  0.82661  0.01584  0.11157  1.0000
  H   H1134     1.0  0.01058  0.17327  0.11062  1.0000
  H   H1135     1.0  0.93041  0.11560  0.30808  1.0000
  C   C931      1.0  0.85219  0.30826  0.21891  1.0000
  H   H1136     1.0  0.97799  0.43652  0.26094  1.0000
  C   C932      1.0  0.00785  0.22216  0.01231  1.0000
  H   H1137     1.0  0.80987  0.10547  0.32107  1.0000
  H   H1138     1.0  0.84624  0.13893  0.26845  1.0000
  H   H1139     1.0  0.01791  0.44792  0.19574  1.0000
  S   S258      1.0  0.02245  0.42870  0.09061  1.0000
  H   H1140     1.0  0.82403  0.07875  0.13645  1.0000
  H   H1141     1.0  0.93089  0.02376  0.24932  1.0000
  C   C933      1.0  0.77770  0.35132  0.23140  1.0000
  H   H1142     1.0  0.86092  0.25226  0.26325  1.0000
  H   H1143     1.0  0.84505  0.32133  0.26469  1.0000
  C   C934      1.0  0.90280  0.29386  0.21144  1.0000
  C   C935      1.0  0.99599  0.37539  0.16474  1.0000
  C   C936      1.0  0.01630  0.49773  0.14204  1.0000
  C   C937      1.0  0.89222  0.28695  0.23442  1.0000
  C   C938      1.0  0.81889  0.16053  0.10306  1.0000
  H   H1144     1.0  0.98419  0.39668  0.16145  1.0000
  C   C939      1.0  0.92722  0.28591  0.20686  1.0000
  H   H1145     1.0  0.85630  0.24465  0.23124  1.0000
  H   H1146     1.0  0.97934  0.42278  0.12078  1.0000
  H   H1147     1.0  0.89257  0.30507  0.19661  1.0000
  C   C940      1.0  0.98210  0.46146  0.14687  1.0000
  S   S259      1.0  0.78682  0.29229  0.25149  1.0000
  C   C941      1.0  0.92990  0.04947  0.19037  1.0000
  H   H1148     1.0  0.87441  0.33811  0.25735  1.0000
  C   C942      1.0  0.99788  0.23604  0.17535  1.0000
  C   C943      1.0  0.00763  0.39785  0.20356  1.0000
  H   H1149     1.0  0.97823  0.22790  0.09527  1.0000
  Fe  Fe133     1.0  0.01614  0.37503  0.08806  1.0000
  H   H1150     1.0  0.94545  0.12421  0.02571  1.0000
  C   C944      1.0  0.93617  0.03845  0.23328  1.0000
  C   C945      1.0  0.97501  0.09916  0.04405  1.0000
  C   C946      1.0  0.01109  0.45210  0.11462  1.0000
  N   N65       1.0  0.77889  0.10981  0.14447  1.0000
  S   S260      1.0  0.01537  0.28218  0.08428  1.0000
  H   H1151     1.0  0.93388  0.06414  0.23795  1.0000
  H   H1152     1.0  0.85505  0.09608  0.22600  1.0000
  C   C947      1.0  0.77632  0.38491  0.23169  1.0000
  C   C948      1.0  0.84479  0.04646  0.22363  1.0000
  H   H1153     1.0  0.84439  0.00960  0.11934  1.0000
  H   H1154     1.0  0.00200  0.36660  0.14671  1.0000
  H   H1155     1.0  0.79933  0.08281  0.17180  1.0000
  C   C949      1.0  0.78364  0.40175  0.25261  1.0000
  H   H1156     1.0  0.78977  0.32048  0.47032  1.0000
  C   C950      1.0  0.79779  0.31931  0.48923  1.0000
  C   C951      1.0  0.99870  0.44489  0.22860  1.0000
  C   C952      1.0  0.95822  0.12403  0.04119  1.0000
  S   S261      1.0  0.77671  0.08781  0.22039  1.0000
  C   C953      1.0  0.78067  0.37119  0.49584  1.0000
  C   C954      1.0  0.98415  0.39291  0.24122  1.0000
  H   H1157     1.0  0.77471  0.35296  0.40432  1.0000
  H   H1158     1.0  0.78192  0.48930  0.08708  1.0000
  C   C955      1.0  0.78061  0.03089  0.09147  1.0000
  C   C956      1.0  0.90481  0.00966  0.03714  1.0000
  H   H1159     1.0  0.01865  0.33361  0.19363  1.0000
  H   H1160     1.0  0.77528  0.15411  0.23174  1.0000
  H   H1161     1.0  0.84662  0.43281  0.74422  1.0000
  C   C957      1.0  0.79544  0.33835  0.53110  1.0000
  S   S262      1.0  0.81245  0.13244  0.97130  1.0000
  H   H1162     1.0  0.79549  0.16839  0.67666  1.0000
  S   S263      1.0  0.93167  0.07162  0.99468  1.0000
  H   H1163     1.0  0.96291  0.25964  0.84284  1.0000
  H   H1164     1.0  0.91920  0.12561  0.96353  1.0000
  S   S264      1.0  0.98012  0.34538  0.75103  1.0000
  S   S265      1.0  0.99390  0.15575  0.92184  1.0000
  Fe  Fe134     1.0  0.84513  0.38163  0.70727  1.0000
  S   S266      1.0  0.82702  0.36973  0.74251  1.0000
  S   S267      1.0  0.88101  0.40961  0.71047  1.0000
  Fe  Fe135     1.0  0.80167  0.35449  0.67621  1.0000
  H   H1165     1.0  0.82839  0.07268  0.89569  1.0000
  C   C958      1.0  0.88026  0.47041  0.76807  1.0000
  Fe  Fe136     1.0  0.79308  0.38968  0.72420  1.0000
  N   N66       1.0  0.80365  0.19517  0.86361  1.0000
  Fe  Fe137     1.0  0.81659  0.32339  0.72499  1.0000
  S   S268      1.0  0.82319  0.27555  0.74344  1.0000
  S   S269      1.0  0.81140  0.40430  0.68950  1.0000
  S   S270      1.0  0.83726  0.33339  0.69080  1.0000
  H   H1166     1.0  0.82445  0.33571  0.59735  1.0000
  N   N67       1.0  0.85415  0.47762  0.76209  1.0000
  C   C959      1.0  0.79863  0.25653  0.75797  1.0000
  C   C960      1.0  0.80128  0.22464  0.76573  1.0000
  H   H1167     1.0  0.98268  0.06904  0.98213  1.0000
  H   H1168     1.0  0.81937  0.05026  0.82458  1.0000
  H   H1169     1.0  0.81827  0.21211  0.76267  1.0000
  C   C961      1.0  0.79556  0.24391  0.83736  1.0000
  H   H1170     1.0  0.82819  0.00819  0.75461  1.0000
  H   H1171     1.0  0.83403  0.49798  0.73142  1.0000
  C   C962      1.0  0.81187  0.30803  0.56647  1.0000
  C   C963      1.0  0.81696  0.33639  0.57882  1.0000
  H   H1172     1.0  0.97305  0.05423  0.92777  1.0000
  C   C964      1.0  0.77693  0.22852  0.65642  1.0000
  C   C965      1.0  0.95248  0.36419  0.74094  1.0000
  C   C966      1.0  0.93171  0.34504  0.73603  1.0000
  C   C967      1.0  0.90959  0.35872  0.72720  1.0000
  C   C968      1.0  0.90813  0.39170  0.72279  1.0000
  C   C969      1.0  0.92883  0.41094  0.72789  1.0000
  C   C970      1.0  0.95086  0.39730  0.73710  1.0000
  H   H1173     1.0  0.93277  0.31941  0.73882  1.0000
  H   H1174     1.0  0.89383  0.34364  0.72331  1.0000
  H   H1175     1.0  0.92795  0.43644  0.72439  1.0000
  H   H1176     1.0  0.96675  0.41229  0.74065  1.0000
  C   C971      1.0  0.82379  0.17522  0.87435  1.0000
  Fe  Fe138     1.0  0.89612  0.09453  0.00619  1.0000
  C   C972      1.0  0.80567  0.11813  0.94140  1.0000
  C   C973      1.0  0.99844  0.16753  0.00080  1.0000
  H   H1177     1.0  0.89114  0.49282  0.77028  1.0000
  H   H1178     1.0  0.96077  0.24217  0.78137  1.0000
  C   C974      1.0  0.81580  0.08803  0.90509  1.0000
  C   C975      1.0  0.82169  0.09814  0.92904  1.0000
  C   C976      1.0  0.78702  0.17379  0.84946  1.0000
  H   H1179     1.0  0.98552  0.14783  0.99958  1.0000
  H   H1180     1.0  0.85400  0.01846  0.84147  1.0000
  H   H1181     1.0  0.83864  0.09054  0.93793  1.0000
  C   C977      1.0  0.94924  0.09524  0.97484  1.0000
  C   C978      1.0  0.97424  0.08856  0.97196  1.0000
  C   C979      1.0  0.98837  0.10723  0.95602  1.0000
  C   C980      1.0  0.97743  0.13240  0.94274  1.0000
  C   C981      1.0  0.95251  0.13899  0.94572  1.0000
  C   C982      1.0  0.93849  0.12056  0.96175  1.0000
  S   S271      1.0  0.85969  0.06908  0.00423  1.0000
  H   H1182     1.0  0.00764  0.10218  0.95402  1.0000
  H   H1183     1.0  0.94394  0.15840  0.93550  1.0000
  N   N68       1.0  0.98903  0.26811  0.80090  1.0000
  C   C983      1.0  0.99204  0.30004  0.81230  1.0000
  C   C984      1.0  0.80123  0.30888  0.54299  1.0000
  H   H1184     1.0  0.02299  0.28558  0.00421  1.0000
  H   H1185     1.0  0.02310  0.21696  0.80356  1.0000
  H   H1186     1.0  0.83739  0.19005  0.88470  1.0000
  H   H1187     1.0  0.82018  0.21324  0.67613  1.0000
  C   C985      1.0  0.97697  0.24184  0.84041  1.0000
  H   H1188     1.0  0.78990  0.28482  0.81366  1.0000
  H   H1189     1.0  0.82048  0.45118  0.75746  1.0000
  H   H1190     1.0  0.81571  0.28531  0.57542  1.0000
  C   C986      1.0  0.02183  0.16435  0.99146  1.0000
  C   C987      1.0  0.00187  0.01148  0.88409  1.0000
  H   H1191     1.0  0.83295  0.28735  0.80080  1.0000
  C   C988      1.0  0.00692  0.26606  0.78091  1.0000
  H   H1192     1.0  0.81460  0.38764  0.57786  1.0000
  S   S272      1.0  0.88124  0.14340  0.99646  1.0000
  C   C989      1.0  0.80067  0.36685  0.54436  1.0000
  H   H1193     1.0  0.00006  0.17687  0.87086  1.0000
  H   H1194     1.0  0.99064  0.31977  0.79857  1.0000
  H   H1195     1.0  0.81684  0.23292  0.70477  1.0000
  H   H1196     1.0  0.78770  0.46639  0.71333  1.0000
  H   H1197     1.0  0.81679  0.15709  0.88749  1.0000
  H   H1198     1.0  0.83331  0.16121  0.86019  1.0000
  C   C990      1.0  0.99366  0.47603  0.84446  1.0000
  S   S273      1.0  0.78077  0.34177  0.70996  1.0000
  H   H1199     1.0  0.79588  0.39037  0.53749  1.0000
  H   H1200     1.0  0.96835  0.21844  0.87452  1.0000
  C   C991      1.0  0.81094  0.23347  0.68517  1.0000
  C   C992      1.0  0.77460  0.20386  0.69660  1.0000
  H   H1201     1.0  0.79681  0.16270  0.83407  1.0000
  H   H1202     1.0  0.78099  0.28333  0.67987  1.0000
  C   C993      1.0  0.80313  0.26791  0.82127  1.0000
  H   H1203     1.0  0.77625  0.24287  0.84136  1.0000
  C   C994      1.0  0.99222  0.24265  0.81971  1.0000
  C   C995      1.0  0.01001  0.06597  0.89680  1.0000
  H   H1204     1.0  0.84299  0.43135  0.77639  1.0000
  H   H1205     1.0  0.80136  0.22687  0.89428  1.0000
  C   C996      1.0  0.78999  0.20887  0.88423  1.0000
  C   C997      1.0  0.78369  0.12778  0.92953  1.0000
  C   C998      1.0  0.83500  0.01046  0.77320  1.0000
  C   C999      1.0  0.84352  0.49728  0.78162  1.0000
  C   C1000     1.0  0.84267  0.48525  0.80592  1.0000
  H   H1206     1.0  0.00417  0.28564  0.76716  1.0000
  S   S274      1.0  0.78576  0.33231  0.64105  1.0000
  C   C1001     1.0  0.77771  0.11749  0.90564  1.0000
  H   H1207     1.0  0.85103  0.20658  0.84561  1.0000
  C   C1002     1.0  0.82263  0.03162  0.78829  1.0000
  Fe  Fe139     1.0  0.84429  0.11863  0.99723  1.0000
  H   H1208     1.0  0.96137  0.28452  0.77493  1.0000
  C   C1003     1.0  0.01274  0.19458  0.83639  1.0000
  H   H1209     1.0  0.97797  0.30506  0.82607  1.0000
  C   C1004     1.0  0.97982  0.21832  0.85858  1.0000
  C   C1005     1.0  0.82741  0.26940  0.81403  1.0000
  C   C1006     1.0  0.84050  0.44699  0.76005  1.0000
  C   C1007     1.0  0.98584  0.47467  0.88781  1.0000
  Fe  Fe140     1.0  0.01424  0.37018  0.76672  1.0000
  H   H1210     1.0  0.94948  0.27035  0.80306  1.0000
  H   H1211     1.0  0.94344  0.24642  0.00491  1.0000
  C   C1008     1.0  0.82949  0.03444  0.81280  1.0000
  H   H1212     1.0  0.88880  0.45599  0.75342  1.0000
  H   H1213     1.0  0.97951  0.04046  0.85883  1.0000
  H   H1214     1.0  0.78429  0.18429  0.78339  1.0000
  H   H1215     1.0  0.98911  0.48785  0.93806  1.0000
  C   C1009     1.0  0.96407  0.26611  0.78965  1.0000
  C   C1010     1.0  0.99767  0.19476  0.85656  1.0000
  C   C1011     1.0  0.85326  0.49326  0.73762  1.0000
  S   S275      1.0  0.01280  0.39411  0.80325  1.0000
  H   H1216     1.0  0.01026  0.30217  0.82157  1.0000
  H   H1217     1.0  0.88252  0.45610  0.78514  1.0000
  C   C1012     1.0  0.97473  0.03779  0.91200  1.0000
  C   C1013     1.0  0.78265  0.17244  0.69104  1.0000
  H   H1218     1.0  0.83137  0.49312  0.84293  1.0000
  H   H1219     1.0  0.96289  0.04802  0.89713  1.0000
  H   H1220     1.0  0.84979  0.46180  0.81055  1.0000
  H   H1221     1.0  0.80720  0.04541  0.78108  1.0000
  C   C1014     1.0  0.84432  0.24714  0.82314  1.0000
  H   H1222     1.0  0.01426  0.04220  0.94148  1.0000
  C   C1015     1.0  0.79383  0.09764  0.89324  1.0000
  C   C1016     1.0  0.01531  0.02430  0.92655  1.0000
  C   C1017     1.0  0.01026  0.21817  0.81824  1.0000
  H   H1223     1.0  0.81843  0.25596  0.67711  1.0000
  H   H1224     1.0  0.99843  0.07742  0.88229  1.0000
  C   C1018     1.0  0.81234  0.22101  0.84723  1.0000
  H   H1225     1.0  0.86311  0.24816  0.81709  1.0000
  H   H1226     1.0  0.98284  0.45975  0.90363  1.0000
  C   C1019     1.0  0.78166  0.47874  0.72941  1.0000
  S   S276      1.0  0.78815  0.08557  0.86257  1.0000
  C   C1020     1.0  0.98938  0.45873  0.86577  1.0000
  N   N69       1.0  0.00060  0.03428  0.90463  1.0000
  H   H1227     1.0  0.00502  0.24320  0.77072  1.0000
  H   H1228     1.0  0.79702  0.28623  0.53445  1.0000
  C   C1021     1.0  0.83705  0.22326  0.83954  1.0000
  C   C1022     1.0  0.81143  0.36569  0.56777  1.0000
  C   C1023     1.0  0.83217  0.50295  0.82459  1.0000
  H   H1229     1.0  0.01086  0.08338  0.91208  1.0000
  H   H1230     1.0  0.78464  0.19001  0.89765  1.0000
  H   H1231     1.0  0.99686  0.46363  0.82748  1.0000
  H   H1232     1.0  0.98915  0.43276  0.86521  1.0000
  H   H1233     1.0  0.77873  0.01549  0.71375  1.0000
  H   H1234     1.0  0.78108  0.12188  0.69989  1.0000
  C   C1024     1.0  0.78206  0.20886  0.77751  1.0000
  H   H1235     1.0  0.78039  0.39974  0.62627  1.0000
  C   C1025     1.0  0.77664  0.27265  0.76199  1.0000
  C   C1026     1.0  0.98976  0.01855  0.86147  1.0000
  C   C1027     1.0  0.84902  0.01642  0.82226  1.0000
  H   H1236     1.0  0.86141  0.47774  0.72341  1.0000
  H   H1237     1.0  0.96677  0.01427  0.91738  1.0000
  C   C1028     1.0  0.97506  0.50602  0.93263  1.0000
  H   H1238     1.0  0.77984  0.15399  0.86096  1.0000
  N   N70       1.0  0.78379  0.23180  0.68264  1.0000
  H   H1239     1.0  0.77937  0.26784  0.71015  1.0000
  H   H1240     1.0  0.95748  0.49366  0.92793  1.0000
  H   H1241     1.0  0.78544  0.20725  0.64803  1.0000
  H   H1242     1.0  0.78289  0.24984  0.64560  1.0000
  H   H1243     1.0  0.77454  0.29735  0.75622  1.0000
  C   C1029     1.0  0.77455  0.14569  0.70416  1.0000
  Fe  Fe141     1.0  0.98984  0.61079  0.22818  1.0000
  S   S277      1.0  0.97259  0.59622  0.19250  1.0000
  S   S278      1.0  0.96492  0.61975  0.26010  1.0000
  Fe  Fe142     1.0  0.00094  0.55744  0.19200  1.0000
  H   H1244     1.0  0.80341  0.58458  0.13647  1.0000
  H   H1245     1.0  0.81699  0.63959  0.38255  1.0000
  Fe  Fe143     1.0  0.77859  0.96624  0.21556  1.0000
  H   H1246     1.0  0.89015  0.99278  0.08202  1.0000
  H   H1247     1.0  0.95599  0.89225  0.04583  1.0000
  C   C1030     1.0  0.91669  0.89095  0.04545  1.0000
  C   C1031     1.0  0.97736  0.74977  0.13026  1.0000
  H   H1248     1.0  0.99650  0.77900  0.01005  1.0000
  S   S279      1.0  0.96143  0.86223  0.10190  1.0000
  S   S280      1.0  0.97866  0.80456  0.15763  1.0000
  Fe  Fe144     1.0  0.97992  0.84107  0.06956  1.0000
  S   S281      1.0  0.95961  0.81936  0.03735  1.0000
  Fe  Fe145     1.0  0.99161  0.89911  0.10106  1.0000
  S   S282      1.0  0.98369  0.95225  0.10485  1.0000
  H   H1249     1.0  0.95083  0.69534  0.06773  1.0000
  H   H1250     1.0  0.84879  0.57227  0.26205  1.0000
  C   C1032     1.0  0.85328  0.63759  0.26034  1.0000
  S   S283      1.0  0.80800  0.93495  0.23242  1.0000
  Fe  Fe146     1.0  0.87261  0.66954  0.04382  1.0000
  S   S284      1.0  0.88434  0.62138  0.05756  1.0000
  S   S285      1.0  0.88803  0.70758  0.06919  1.0000
  Fe  Fe147     1.0  0.84478  0.60676  0.05520  1.0000
  S   S286      1.0  0.82690  0.59264  0.09099  1.0000
  S   S287      1.0  0.83294  0.65587  0.04320  1.0000
  Fe  Fe148     1.0  0.85128  0.73343  0.28270  1.0000
  S   S288      1.0  0.81835  0.71466  0.26217  1.0000
  S   S289      1.0  0.88578  0.73166  0.26027  1.0000
  Fe  Fe149     1.0  0.81873  0.75823  0.32458  1.0000
  Fe  Fe150     1.0  0.80617  0.69695  0.29860  1.0000
  C   C1033     1.0  0.88864  0.61336  0.22764  1.0000
  Fe  Fe151     1.0  0.80031  0.76089  0.27209  1.0000
  C   C1034     1.0  0.78545  0.87937  0.21703  1.0000
  S   S290      1.0  0.84025  0.71279  0.31887  1.0000
  S   S291      1.0  0.83390  0.78095  0.29066  1.0000
  H   H1251     1.0  0.01385  0.66892  0.04644  1.0000
  C   C1035     1.0  0.80003  0.89436  0.23494  1.0000
  S   S292      1.0  0.81705  0.78435  0.36089  1.0000
  H   H1252     1.0  0.81537  0.65014  0.41432  1.0000
  Fe  Fe152     1.0  0.98837  0.83279  0.12394  1.0000
  C   C1036     1.0  0.80161  0.84459  0.25813  1.0000
  C   C1037     1.0  0.80841  0.87677  0.25527  1.0000
  H   H1253     1.0  0.80702  0.83194  0.27454  1.0000
  H   H1254     1.0  0.81958  0.88832  0.26924  1.0000
  H   H1255     1.0  0.78791  0.64511  0.39597  1.0000
  C   C1038     1.0  0.83398  0.58677  0.25304  1.0000
  H   H1256     1.0  0.83828  0.64510  0.27255  1.0000
  H   H1257     1.0  0.82644  0.73918  0.41900  1.0000
  C   C1039     1.0  0.82417  0.63229  0.22719  1.0000
  H   H1258     1.0  0.83875  0.57811  0.19995  1.0000
  C   C1040     1.0  0.87558  0.57428  0.18827  1.0000
  S   S293      1.0  0.01648  0.56930  0.22932  1.0000
  C   C1041     1.0  0.80801  0.56118  0.10192  1.0000
  H   H1259     1.0  0.87759  0.89664  0.04624  1.0000
  C   C1042     1.0  0.78714  0.82945  0.24028  1.0000
  H   H1260     1.0  0.89970  0.73353  0.02113  1.0000
  H   H1261     1.0  0.87921  0.95448  0.05269  1.0000
  C   C1043     1.0  0.92782  0.99557  0.20542  1.0000
  C   C1044     1.0  0.98485  0.69672  0.14719  1.0000
  C   C1045     1.0  0.93966  0.78823  0.04594  1.0000
  C   C1046     1.0  0.92632  0.77111  0.02810  1.0000
  C   C1047     1.0  0.91026  0.74630  0.03491  1.0000
  C   C1048     1.0  0.90766  0.73849  0.05959  1.0000
  C   C1049     1.0  0.92107  0.75556  0.07736  1.0000
  C   C1050     1.0  0.93702  0.78031  0.07058  1.0000
  H   H1262     1.0  0.94776  0.99254  0.20195  1.0000
  H   H1263     1.0  0.97945  0.70687  0.10891  1.0000
  H   H1264     1.0  0.91914  0.74968  0.09648  1.0000
  H   H1265     1.0  0.94710  0.79351  0.08445  1.0000
  C   C1051     1.0  0.94289  0.65081  0.25970  1.0000
  C   C1052     1.0  0.92645  0.65303  0.27904  1.0000
  C   C1053     1.0  0.90855  0.67731  0.27927  1.0000
  C   C1054     1.0  0.90720  0.69986  0.26030  1.0000
  C   C1055     1.0  0.92356  0.69758  0.24091  1.0000
  C   C1056     1.0  0.94122  0.67302  0.24049  1.0000
  H   H1266     1.0  0.92770  0.63596  0.29396  1.0000
  H   H1267     1.0  0.89623  0.67903  0.29440  1.0000
  H   H1268     1.0  0.92274  0.71505  0.22623  1.0000
  H   H1269     1.0  0.95382  0.67161  0.22556  1.0000
  C   C1057     1.0  0.77669  0.63027  0.28204  1.0000
  N   N71       1.0  0.91982  0.99333  0.05646  1.0000
  H   H1270     1.0  0.92381  0.97911  0.22089  1.0000
  H   H1271     1.0  0.96636  0.72067  0.04647  1.0000
  H   H1272     1.0  0.82083  0.59334  0.26738  1.0000
  C   C1058     1.0  0.98890  0.00195  0.13740  1.0000
  C   C1059     1.0  0.98835  0.96855  0.13431  1.0000
  C   C1060     1.0  0.99117  0.94861  0.15479  1.0000
  C   C1061     1.0  0.99468  0.96190  0.17811  1.0000
  H   H1273     1.0  0.87060  0.55883  0.17309  1.0000
  H   H1274     1.0  0.95900  0.94935  0.05280  1.0000
  H   H1275     1.0  0.96506  0.61966  0.03413  1.0000
  C   C1062     1.0  0.94077  0.93933  0.05099  1.0000
  C   C1063     1.0  0.89636  0.94179  0.05104  1.0000
  H   H1276     1.0  0.84504  0.69404  0.40351  1.0000
  C   C1064     1.0  0.99564  0.99521  0.18121  1.0000
  S   S294      1.0  0.00812  0.88026  0.06651  1.0000
  H   H1277     1.0  0.91427  0.57243  0.18125  1.0000
  H   H1278     1.0  0.77956  0.64623  0.02998  1.0000
  Fe  Fe153     1.0  0.88664  0.60843  0.01813  1.0000
  H   H1279     1.0  0.97381  0.76503  0.11463  1.0000
  H   H1280     1.0  0.86738  0.62597  0.27244  1.0000
  H   H1281     1.0  0.87465  0.54961  0.11592  1.0000
  H   H1282     1.0  0.92576  0.60728  0.21612  1.0000
  H   H1283     1.0  0.81393  0.61626  0.21441  1.0000
  N   N72       1.0  0.91081  0.65017  0.13095  1.0000
  C   C1065     1.0  0.88599  0.66429  0.12720  1.0000
  C   C1066     1.0  0.92024  0.66064  0.15528  1.0000
  C   C1067     1.0  0.92675  0.66370  0.11188  1.0000
  C   C1068     1.0  0.91108  0.61473  0.12949  1.0000
  C   C1069     1.0  0.88992  0.59635  0.12305  1.0000
  C   C1070     1.0  0.93322  0.59753  0.13396  1.0000
  C   C1071     1.0  0.89100  0.56297  0.12130  1.0000
  C   C1072     1.0  0.93405  0.56412  0.13242  1.0000
  C   C1073     1.0  0.91298  0.54688  0.12605  1.0000
  H   H1284     1.0  0.87296  0.65526  0.14101  1.0000
  H   H1285     1.0  0.88640  0.69092  0.12847  1.0000
  H   H1286     1.0  0.87829  0.65903  0.10861  1.0000
  H   H1287     1.0  0.90934  0.64989  0.17021  1.0000
  H   H1288     1.0  0.91968  0.68718  0.15717  1.0000
  H   H1289     1.0  0.93972  0.65385  0.15870  1.0000
  H   H1290     1.0  0.92011  0.65648  0.09336  1.0000
  H   H1291     1.0  0.92708  0.69038  0.11230  1.0000
  H   H1292     1.0  0.94606  0.65558  0.11408  1.0000
  H   H1293     1.0  0.87230  0.60710  0.11887  1.0000
  H   H1294     1.0  0.95019  0.60978  0.13851  1.0000
  H   H1295     1.0  0.80413  0.67949  0.35078  1.0000
  C   C1074     1.0  0.79538  0.74930  0.43992  1.0000
  C   C1075     1.0  0.80188  0.53415  0.08806  1.0000
  H   H1296     1.0  0.98337  0.75259  0.19211  1.0000
  H   H1297     1.0  0.99681  0.94622  0.19383  1.0000
  S   S295      1.0  0.99015  0.65591  0.14229  1.0000
  S   S296      1.0  0.78407  0.74083  0.30632  1.0000
  C   C1076     1.0  0.77918  0.84689  0.21962  1.0000
  C   C1077     1.0  0.89522  0.90866  0.04744  1.0000
  H   H1298     1.0  0.80667  0.99315  0.14068  1.0000
  C   C1078     1.0  0.79886  0.56376  0.12561  1.0000
  H   H1299     1.0  0.83145  0.65283  0.21649  1.0000
  H   H1300     1.0  0.79861  0.57829  0.04167  1.0000
  H   H1301     1.0  0.95120  0.55152  0.13608  1.0000
  H   H1302     1.0  0.98238  0.63592  0.05945  1.0000
  H   H1303     1.0  0.92034  0.98881  0.09558  1.0000
  C   C1079     1.0  0.80699  0.65451  0.39587  1.0000
  C   C1080     1.0  0.93936  0.90626  0.04721  1.0000
  C   C1081     1.0  0.78957  0.79018  0.37715  1.0000
  H   H1304     1.0  0.94962  0.63489  0.06006  1.0000
  H   H1305     1.0  0.80895  0.53161  0.06990  1.0000
  C   C1082     1.0  0.86347  0.60543  0.22396  1.0000
  H   H1306     1.0  0.80480  0.76816  0.44994  1.0000
  C   C1083     1.0  0.97916  0.76289  0.15363  1.0000
  C   C1084     1.0  0.98240  0.74263  0.17392  1.0000
  H   H1307     1.0  0.84294  0.68321  0.37200  1.0000
  S   S297      1.0  0.77898  0.78879  0.24324  1.0000
  H   H1308     1.0  0.98344  0.69403  0.06628  1.0000
  N   N73       1.0  0.84420  0.61554  0.24090  1.0000
  H   H1309     1.0  0.86119  0.65992  0.25245  1.0000
  C   C1085     1.0  0.96640  0.69629  0.05493  1.0000
  C   C1086     1.0  0.80764  0.73230  0.42199  1.0000
  H   H1310     1.0  0.82388  0.57088  0.24002  1.0000
  C   C1087     1.0  0.79016  0.80923  0.39822  1.0000
  H   H1311     1.0  0.91587  0.86524  0.04271  1.0000
  S   S298      1.0  0.01713  0.87131  0.12603  1.0000
  S   S299      1.0  0.79412  0.64645  0.30620  1.0000
  S   S300      1.0  0.00458  0.80902  0.09161  1.0000
  C   C1088     1.0  0.90015  0.58202  0.19274  1.0000
  H   H1312     1.0  0.81019  0.64190  0.23967  1.0000
  C   C1089     1.0  0.85746  0.58561  0.20370  1.0000
  C   C1090     1.0  0.00943  0.67284  0.02732  1.0000
  H   H1313     1.0  0.83996  0.99551  0.22053  1.0000
  N   N74       1.0  0.80794  0.68903  0.38931  1.0000
  C   C1091     1.0  0.98467  0.67442  0.01871  1.0000
  C   C1092     1.0  0.98535  0.70954  0.17070  1.0000
  C   C1093     1.0  0.96547  0.63913  0.04798  1.0000
  H   H1314     1.0  0.80715  0.82068  0.40391  1.0000
  C   C1094     1.0  0.78365  0.53983  0.13537  1.0000
  N   N75       1.0  0.84928  0.79883  0.19904  1.0000
  C   C1095     1.0  0.84983  0.77952  0.22192  1.0000
  C   C1096     1.0  0.85089  0.83320  0.20551  1.0000
  C   C1097     1.0  0.82504  0.79323  0.18680  1.0000
  C   C1098     1.0  0.87032  0.79059  0.18360  1.0000
  C   C1099     1.0  0.86766  0.78450  0.15812  1.0000
  C   C1100     1.0  0.89459  0.79028  0.19363  1.0000
  C   C1101     1.0  0.88806  0.77840  0.14380  1.0000
  C   C1102     1.0  0.91483  0.78420  0.17912  1.0000
  C   C1103     1.0  0.91158  0.77841  0.15426  1.0000
  H   H1315     1.0  0.83299  0.78294  0.23274  1.0000
  H   H1316     1.0  0.85149  0.75348  0.21805  1.0000
  H   H1317     1.0  0.86528  0.78618  0.23448  1.0000
  H   H1318     1.0  0.83530  0.84063  0.21695  1.0000
  H   H1319     1.0  0.85063  0.84871  0.18888  1.0000
  H   H1320     1.0  0.86802  0.83879  0.21608  1.0000
  H   H1321     1.0  0.82191  0.80967  0.17096  1.0000
  H   H1322     1.0  0.82312  0.76796  0.18070  1.0000
  H   H1323     1.0  0.80960  0.79775  0.19929  1.0000
  H   H1324     1.0  0.85007  0.78472  0.14869  1.0000
  H   H1325     1.0  0.89822  0.79526  0.21272  1.0000
  H   H1326     1.0  0.88568  0.77423  0.12434  1.0000
  H   H1327     1.0  0.93327  0.78459  0.18707  1.0000
  H   H1328     1.0  0.92740  0.77448  0.14302  1.0000
  C   C1104     1.0  0.80523  0.00647  0.12372  1.0000
  H   H1329     1.0  0.91783  0.98725  0.18868  1.0000
  C   C1105     1.0  0.90661  0.60161  0.21232  1.0000
  S   S301      1.0  0.84805  0.58851  0.01664  1.0000
  N   N76       1.0  0.96429  0.67111  0.03600  1.0000
  H   H1330     1.0  0.89510  0.62813  0.24251  1.0000
  H   H1331     1.0  0.88277  0.98455  0.21340  1.0000
  C   C1106     1.0  0.91919  0.95823  0.05270  1.0000
  C   C1107     1.0  0.93961  0.67424  0.02420  1.0000
  H   H1332     1.0  0.99048  0.92290  0.15271  1.0000
  Fe  Fe154     1.0  0.00114  0.62741  0.17585  1.0000
  C   C1108     1.0  0.98027  0.71677  0.12705  1.0000
  H   H1333     1.0  0.98834  0.69414  0.18639  1.0000
  H   H1334     1.0  0.77580  0.68623  0.36525  1.0000
  H   H1335     1.0  0.93744  0.69770  0.01469  1.0000
  H   H1336     1.0  0.95691  0.99765  0.07093  1.0000
  H   H1337     1.0  0.83614  0.72332  0.38040  1.0000
  S   S302      1.0  0.01672  0.64535  0.21158  1.0000
  H   H1338     1.0  0.78125  0.55952  0.01752  1.0000
  C   C1109     1.0  0.94493  0.00727  0.05583  1.0000
  C   C1110     1.0  0.83415  0.69783  0.38631  1.0000
  H   H1339     1.0  0.92471  0.67260  0.03774  1.0000
  C   C1111     1.0  0.79551  0.70804  0.40812  1.0000
  C   C1112     1.0  0.77743  0.51280  0.12160  1.0000
  S   S303      1.0  0.98669  0.50806  0.18168  1.0000
  H   H1340     1.0  0.78117  0.58156  0.29464  1.0000
  C   C1113     1.0  0.79535  0.69370  0.36528  1.0000
  H   H1341     1.0  0.95369  0.00252  0.03805  1.0000
  C   C1114     1.0  0.90955  0.00076  0.08059  1.0000
  H   H1342     1.0  0.88486  0.00457  0.03858  1.0000
  H   H1343     1.0  0.02109  0.81680  0.03491  1.0000
  H   H1344     1.0  0.79599  0.71928  0.35959  1.0000
  C   C1115     1.0  0.78549  0.58295  0.02616  1.0000
  H   H1345     1.0  0.77646  0.54254  0.15346  1.0000
  H   H1346     1.0  0.91378  0.52101  0.12458  1.0000
  H   H1347     1.0  0.78991  0.89110  0.31355  1.0000
  C   C1116     1.0  0.78666  0.51008  0.09790  1.0000
  H   H1348     1.0  0.79511  0.59761  0.01223  1.0000
  H   H1349     1.0  0.78565  0.83822  0.33372  1.0000
  H   H1350     1.0  0.91066  0.00269  0.01857  1.0000
  H   H1351     1.0  0.77921  0.89274  0.20109  1.0000
  H   H1352     1.0  0.78508  0.62851  0.05932  1.0000
  H   H1353     1.0  0.93602  0.65478  0.01086  1.0000
  C   C1117     1.0  0.77463  0.87564  0.30854  1.0000
  S   S304      1.0  0.78877  0.00758  0.19163  1.0000
  H   H1354     1.0  0.92820  0.77730  0.00902  1.0000
  H   H1355     1.0  0.78635  0.74886  0.83722  1.0000
  N   N77       1.0  0.80480  0.71151  0.85812  1.0000
  S   S305      1.0  0.80701  0.65169  0.97812  1.0000
  H   H1356     1.0  0.86375  0.51615  0.73754  1.0000
  C   C1118     1.0  0.99160  0.52550  0.86707  1.0000
  H   H1357     1.0  0.85918  0.92543  0.74691  1.0000
  H   H1358     1.0  0.90645  0.62310  0.96698  1.0000
  S   S306      1.0  0.99152  0.84066  0.76761  1.0000
  S   S307      1.0  0.97986  0.64162  0.91932  1.0000
  Fe  Fe155     1.0  0.86173  0.88188  0.70674  1.0000
  S   S308      1.0  0.84325  0.85795  0.73819  1.0000
  S   S309      1.0  0.89956  0.90483  0.71210  1.0000
  Fe  Fe156     1.0  0.81454  0.87889  0.67376  1.0000
  S   S310      1.0  0.79321  0.85529  0.70358  1.0000
  C   C1119     1.0  0.83054  0.67520  0.88507  1.0000
  Fe  Fe157     1.0  0.81149  0.89036  0.72877  1.0000
  H   H1359     1.0  0.83448  0.95333  0.74745  1.0000
  Fe  Fe158     1.0  0.82677  0.82527  0.70989  1.0000
  S   S311      1.0  0.82371  0.77141  0.71362  1.0000
  S   S312      1.0  0.83066  0.91636  0.69891  1.0000
  S   S313      1.0  0.84754  0.84673  0.67846  1.0000
  H   H1360     1.0  0.99426  0.71013  0.91480  1.0000
  H   H1361     1.0  0.02161  0.52260  0.92225  1.0000
  C   C1120     1.0  0.80509  0.75678  0.73716  1.0000
  C   C1121     1.0  0.80209  0.72360  0.74026  1.0000
  C   C1122     1.0  0.01592  0.96137  0.86579  1.0000
  S   S314      1.0  0.77745  0.57075  0.75230  1.0000
  H   H1362     1.0  0.81137  0.70727  0.72834  1.0000
  H   H1363     1.0  0.83261  0.53925  0.75939  1.0000
  C   C1123     1.0  0.98882  0.72632  0.85405  1.0000
  H   H1364     1.0  0.98260  0.00430  0.82418  1.0000
  C   C1124     1.0  0.78033  0.74626  0.65770  1.0000
  S   S315      1.0  0.78855  0.59493  0.87112  1.0000
  H   H1365     1.0  0.95981  0.56359  0.92585  1.0000
  H   H1366     1.0  0.82703  0.65532  0.87291  1.0000
  C   C1125     1.0  0.96575  0.85956  0.75328  1.0000
  C   C1126     1.0  0.94450  0.84132  0.74839  1.0000
  C   C1127     1.0  0.92392  0.85497  0.73624  1.0000
  C   C1128     1.0  0.92452  0.88696  0.72851  1.0000
  C   C1129     1.0  0.94577  0.90523  0.73345  1.0000
  C   C1130     1.0  0.96623  0.89170  0.74591  1.0000
  H   H1367     1.0  0.94394  0.81639  0.75388  1.0000
  H   H1368     1.0  0.90774  0.84058  0.73251  1.0000
  H   H1369     1.0  0.94648  0.92996  0.72747  1.0000
  H   H1370     1.0  0.98248  0.90603  0.74945  1.0000
  H   H1371     1.0  0.81499  0.56903  0.79227  1.0000
  H   H1372     1.0  0.78558  0.75400  0.86935  1.0000
  C   C1131     1.0  0.80194  0.63531  0.94855  1.0000
  C   C1132     1.0  0.98078  0.67893  0.99315  1.0000
  C   C1133     1.0  0.78360  0.51230  0.73085  1.0000
  H   H1373     1.0  0.85135  0.64500  0.90992  1.0000
  C   C1134     1.0  0.81152  0.59789  0.91626  1.0000
  C   C1135     1.0  0.81612  0.61014  0.93987  1.0000
  N   N78       1.0  0.98337  0.52648  0.91207  1.0000
  Fe  Fe159     1.0  0.83832  0.63884  0.00476  1.0000
  H   H1374     1.0  0.82269  0.57852  0.90969  1.0000
  H   H1375     1.0  0.83067  0.60015  0.95129  1.0000
  C   C1136     1.0  0.93793  0.59991  0.98356  1.0000
  C   C1137     1.0  0.96315  0.59408  0.98171  1.0000
  C   C1138     1.0  0.97637  0.60735  0.96237  1.0000
  C   C1139     1.0  0.96429  0.62593  0.94451  1.0000
  C   C1140     1.0  0.93907  0.63160  0.94630  1.0000
  C   C1141     1.0  0.92594  0.61881  0.96586  1.0000
  H   H1376     1.0  0.78155  0.98799  0.51305  1.0000
  H   H1377     1.0  0.99586  0.60322  0.96135  1.0000
  H   H1378     1.0  0.92961  0.64585  0.93247  1.0000
  C   C1142     1.0  0.88950  0.95347  0.77732  1.0000
  H   H1379     1.0  0.81513  0.95502  0.61488  1.0000
  H   H1380     1.0  0.96682  0.75389  0.81350  1.0000
  C   C1143     1.0  0.86179  0.99548  0.80726  1.0000
  C   C1144     1.0  0.78602  0.97832  0.59440  1.0000
  H   H1381     1.0  0.79814  0.91364  0.54586  1.0000
  H   H1382     1.0  0.95708  0.82312  0.65698  1.0000
  C   C1145     1.0  0.83338  0.52822  0.77728  1.0000
  H   H1383     1.0  0.79110  0.52572  0.71577  1.0000
  C   C1146     1.0  0.84431  0.66890  0.90639  1.0000
  H   H1384     1.0  0.79160  0.82583  0.65085  1.0000
  H   H1385     1.0  0.99875  0.52257  0.82856  1.0000
  H   H1386     1.0  0.96270  0.67953  0.98469  1.0000
  C   C1147     1.0  0.96488  0.55229  0.90835  1.0000
  H   H1387     1.0  0.01314  0.76411  0.91431  1.0000
  H   H1388     1.0  0.82132  0.67530  0.83550  1.0000
  C   C1148     1.0  0.87603  0.98622  0.74356  1.0000
  H   H1389     1.0  0.81371  0.76148  0.85304  1.0000
  C   C1149     1.0  0.82501  0.73002  0.89803  1.0000
  C   C1150     1.0  0.77710  0.00310  0.73104  1.0000
  C   C1151     1.0  0.97522  0.82614  0.66520  1.0000
  H   H1390     1.0  0.88644  0.96995  0.73148  1.0000
  H   H1391     1.0  0.84127  0.74164  0.93319  1.0000
  C   C1152     1.0  0.99558  0.72335  0.89779  1.0000
  H   H1392     1.0  0.81692  0.84675  0.61192  1.0000
  H   H1393     1.0  0.97186  0.52035  0.94938  1.0000
  H   H1394     1.0  0.86049  0.99540  0.73207  1.0000
  C   C1153     1.0  0.79602  0.79990  0.65269  1.0000
  H   H1395     1.0  0.81787  0.75402  0.89615  1.0000
  C   C1154     1.0  0.80881  0.93318  0.57988  1.0000
  H   H1396     1.0  0.97448  0.79200  0.80118  1.0000
  H   H1397     1.0  0.98236  0.71436  0.83770  1.0000
  H   H1398     1.0  0.89874  0.93727  0.76425  1.0000
  C   C1155     1.0  0.79277  0.61064  0.90104  1.0000
  C   C1156     1.0  0.79488  0.84077  0.57888  1.0000
  C   C1157     1.0  0.80011  0.85324  0.60228  1.0000
  C   C1158     1.0  0.79306  0.77775  0.75265  1.0000
  H   H1399     1.0  0.78593  0.66604  0.86049  1.0000
  H   H1400     1.0  0.00564  0.55465  0.93689  1.0000
  H   H1401     1.0  0.01647  0.79410  0.87656  1.0000
  C   C1159     1.0  0.82052  0.70602  0.88015  1.0000
  H   H1402     1.0  0.80713  0.79325  0.63675  1.0000
  H   H1403     1.0  0.80757  0.82422  0.57084  1.0000
  H   H1404     1.0  0.00590  0.95394  0.82805  1.0000
  C   C1160     1.0  0.81771  0.70146  0.83584  1.0000
  C   C1161     1.0  0.01565  0.75792  0.81261  1.0000
  C   C1162     1.0  0.98721  0.70951  0.87611  1.0000
  H   H1405     1.0  0.79109  0.95839  0.71751  1.0000
  H   H1406     1.0  0.78436  0.76157  0.60799  1.0000
  H   H1407     1.0  0.99813  0.82303  0.84442  1.0000
  H   H1408     1.0  0.97167  0.57233  0.89681  1.0000
  C   C1163     1.0  0.98663  0.50871  0.88905  1.0000
  C   C1164     1.0  0.01527  0.78429  0.00515  1.0000
  H   H1409     1.0  0.85794  0.68735  0.94063  1.0000
  H   H1410     1.0  0.01397  0.55816  0.90557  1.0000
  C   C1165     1.0  0.02260  0.83397  0.68702  1.0000
  C   C1166     1.0  0.78411  0.87521  0.61263  1.0000
  H   H1411     1.0  0.96225  0.85464  0.69477  1.0000
  N   N79       1.0  0.86769  0.96929  0.76583  1.0000
  C   C1167     1.0  0.78214  0.69221  0.86037  1.0000
  H   H1412     1.0  0.81386  0.54669  0.83411  1.0000
  H   H1413     1.0  0.80661  0.70665  0.81892  1.0000
  N   N80       1.0  0.99965  0.77531  0.82955  1.0000
  C   C1168     1.0  0.78718  0.71141  0.75882  1.0000
  H   H1414     1.0  0.79306  0.73792  0.64357  1.0000
  H   H1415     1.0  0.79525  0.80337  0.75042  1.0000
  C   C1169     1.0  0.00142  0.84784  0.69724  1.0000
  S   S316      1.0  0.79121  0.89471  0.64062  1.0000
  H   H1416     1.0  0.00916  0.82124  0.81410  1.0000
  C   C1170     1.0  0.83854  0.72328  0.91948  1.0000
  C   C1171     1.0  0.99559  0.81225  0.65460  1.0000
  C   C1172     1.0  0.85026  0.94377  0.75837  1.0000
  H   H1417     1.0  0.82285  0.91514  0.58301  1.0000
  H   H1418     1.0  0.97964  0.68545  0.87645  1.0000
  C   C1173     1.0  0.00606  0.75379  0.89747  1.0000
  H   H1419     1.0  0.01760  0.77111  0.79499  1.0000
  C   C1174     1.0  0.97461  0.77764  0.81843  1.0000
  C   C1175     1.0  0.77571  0.52854  0.75159  1.0000
  H   H1420     1.0  0.99715  0.68479  0.95796  1.0000
  C   C1176     1.0  0.00420  0.96937  0.84375  1.0000
  C   C1177     1.0  0.99877  0.75775  0.85310  1.0000
  C   C1178     1.0  0.84806  0.69276  0.92369  1.0000
  H   H1421     1.0  0.00850  0.73367  0.80812  1.0000
  H   H1422     1.0  0.96177  0.78936  0.83109  1.0000
  C   C1179     1.0  0.82231  0.53313  0.81969  1.0000
  Fe  Fe160     1.0  0.02089  0.63577  0.91713  1.0000
  C   C1180     1.0  0.00776  0.77086  0.87551  1.0000
  H   H1423     1.0  0.84250  0.93128  0.77452  1.0000
  C   C1181     1.0  0.97814  0.84391  0.68647  1.0000
  H   H1424     1.0  0.78497  0.68581  0.76109  1.0000
  C   C1182     1.0  0.01500  0.98210  0.88571  1.0000
  C   C1183     1.0  0.00933  0.80843  0.83194  1.0000
  H   H1425     1.0  0.01477  0.75278  0.97438  1.0000
  H   H1426     1.0  0.80809  0.79696  0.66914  1.0000
  C   C1184     1.0  0.82303  0.54574  0.79613  1.0000
  C   C1185     1.0  0.99115  0.99789  0.84158  1.0000
  H   H1427     1.0  0.00870  0.00118  0.93421  1.0000
  H   H1428     1.0  0.97254  0.57962  0.99547  1.0000
  H   H1429     1.0  0.00266  0.86173  0.71382  1.0000
  H   H1430     1.0  0.79023  0.74200  0.67551  1.0000
  C   C1186     1.0  0.79428  0.93260  0.55852  1.0000
  C   C1187     1.0  0.77495  0.95503  0.55454  1.0000
  C   C1188     1.0  0.01901  0.81602  0.66525  1.0000
  H   H1431     1.0  0.99366  0.55126  0.86680  1.0000
  S   S317      1.0  0.78387  0.63139  0.80721  1.0000
  H   H1432     1.0  0.90342  0.97135  0.78349  1.0000
  C   C1189     1.0  0.78297  0.64780  0.93347  1.0000
  H   H1433     1.0  0.94770  0.54282  0.89971  1.0000
  C   C1190     1.0  0.00052  0.68197  0.97742  1.0000
  H   H1434     1.0  0.83557  0.71417  0.83422  1.0000
  H   H1435     1.0  0.88430  0.93802  0.79303  1.0000
  H   H1436     1.0  0.99318  0.79841  0.63804  1.0000
  C   C1191     1.0  0.77818  0.76556  0.77119  1.0000
  S   S318      1.0  0.79169  0.91449  0.75928  1.0000
  S   S319      1.0  0.87724  0.65777  0.00418  1.0000
  C   C1192     1.0  0.78422  0.97080  0.73317  1.0000
  H   H1437     1.0  0.88812  0.00684  0.74838  1.0000
  C   C1193     1.0  0.00710  0.54114  0.91955  1.0000
  C   C1194     1.0  0.80450  0.95569  0.59789  1.0000
  H   H1438     1.0  0.87649  0.98201  0.81588  1.0000
  H   H1439     1.0  0.78263  0.99557  0.60863  1.0000
  C   C1195     1.0  0.79743  0.74551  0.85445  1.0000
  C   C1196     1.0  0.77835  0.63550  0.90986  1.0000
  C   C1197     1.0  0.85515  0.99192  0.78213  1.0000
  C   C1198     1.0  0.78217  0.95462  0.75551  1.0000
  H   H1440     1.0  0.78264  0.92880  0.50864  1.0000
  S   S320      1.0  0.92201  0.58408  0.00849  1.0000
  C   C1199     1.0  0.99470  0.50932  0.84510  1.0000
  C   C1200     1.0  0.77518  0.73241  0.77432  1.0000
