data_image0
_chemical_formula_structural       CSHFeSHC4H5C2HC3HCH3NCH3SCH2CH2C2HCH3CHCH4CHC2SHCHCHFeCFeSHFeSFeS2HFeHSHNSHC2HC7H4SH2CFeS2H3NC9H11C2H2C2FeHC3H2C2H2SCHCHC2HCH2S2FeSCFeSFeSFeS2C3HN2C2H3CHC2H2C3HCH2C3HCH6CHSH2CH4C3H4C2H3SH3CSH3CHC2H2FeCSFeS2Fe2S3C2H2CHC2H4NHSC2HC2SHCH2C4H2C2H2C3H2CH3CH2CH2SNFeHFeSCSCSHFeSC7H4CS2HFeCHC2H4FeHC2HCSCHCHSHSC2HCNH2CH2FeH3SCH2CH6CHCHC4HCH2CSHFeSHC3HC4HFeH2FeC2HC3H2NH2CNH3CH2C2H2CH2C2HSH2CSH6C2HSHC2HCHCH2FeC3S2HC3H2C4HC2HC4HCH3FeHSH4CHCH3C2NC2HCH2CFeNH3C2SNHCH3CHCSH3SCH3CHCSCHSHFeSHFeSFeSCFeSFeS3C8H6CH3C3H2CSHNC8H3SH2CH3NC8H11C2HCHCH2CH5CFeHSFeS2CFeNS2HCHC3HC2HC2FeH3SC2H3C2HCH5CH3C2SH4C2H2C3H2C2HCH7NHFeSC2SFeSFeSH2SCH4CHCH3C3SHFeCSC3H2CHC2H3CH2C2NFeS2FeS2Fe2CS2FeHSH2SNC2H2C6H4CH4NCH2C3H2C2SH2CSH2CHCSCHCHCHC2HCH3C2HC3H2C2HC3H4CSCHC2H4NCH5FeNSC2SH2CSC5H4C2H3NH3CSH2SHC2H3CH2C2H2C2H3C4HC2H2C2FeHCH3CHC4HCH3CH2CH2CNC2HC
_chemical_formula_sum              "C360 S96 H432 Fe48 N24"
_cell_length_a       30.1485
_cell_length_b       55.0232
_cell_length_c       34.1915
_cell_angle_alpha    89.9359
_cell_angle_beta     108.248
_cell_angle_gamma    89.9786

_space_group_name_H-M_alt    "P 1"
_space_group_IT_number       1

loop_
  _space_group_symop_operation_xyz
  'x, y, z'

loop_
  _atom_site_type_symbol
  _atom_site_label
  _atom_site_symmetry_multiplicity
  _atom_site_fract_x
  _atom_site_fract_y
  _atom_site_fract_z
  _atom_site_occupancy
  C   C1        1.0  0.46291  0.01784  0.00800  1.0000
  S   S1        1.0  0.43507  0.23804  0.25338  1.0000
  H   H1        1.0  0.33762  0.21610  0.02970  1.0000
  Fe  Fe1       1.0  0.43464  0.27657  0.23065  1.0000
  S   S2        1.0  0.35733  0.28827  0.20320  1.0000
  H   H2        1.0  0.40831  0.22886  0.33474  1.0000
  C   C2        1.0  0.42983  0.05004  0.40643  1.0000
  C   C3        1.0  0.41688  0.00690  0.39446  1.0000
  C   C4        1.0  0.39947  0.03049  0.39208  1.0000
  C   C5        1.0  0.38303  0.26166  0.40891  1.0000
  H   H3        1.0  0.29264  0.15229  0.00874  1.0000
  H   H4        1.0  0.42851  0.14136  0.06089  1.0000
  H   H5        1.0  0.38417  0.19754  0.02488  1.0000
  H   H6        1.0  0.47058  0.09336  0.39497  1.0000
  H   H7        1.0  0.38585  0.30415  0.28402  1.0000
  C   C6        1.0  0.22416  0.32052  0.04910  1.0000
  C   C7        1.0  0.29590  0.29699  0.28134  1.0000
  H   H8        1.0  0.39326  0.99165  0.38449  1.0000
  C   C8        1.0  0.44643  0.16509  0.11388  1.0000
  C   C9        1.0  0.37351  0.26367  0.32513  1.0000
  C   C10       1.0  0.34945  0.20526  0.00733  1.0000
  H   H9        1.0  0.36215  0.03355  0.37967  1.0000
  C   C11       1.0  0.39953  0.24260  0.39051  1.0000
  H   H10       1.0  0.42616  0.99951  0.04436  1.0000
  H   H11       1.0  0.38734  0.26083  0.44158  1.0000
  H   H12       1.0  0.19913  0.32323  0.15163  1.0000
  N   N1        1.0  0.33549  0.30486  0.31727  1.0000
  C   C12       1.0  0.44638  0.15779  0.07432  1.0000
  H   H13       1.0  0.45982  0.08054  0.06978  1.0000
  H   H14       1.0  0.37146  0.26373  0.29297  1.0000
  H   H15       1.0  0.46889  0.10852  0.04676  1.0000
  S   S3        1.0  0.46955  0.19421  0.18267  1.0000
  C   C13       1.0  0.39452  0.24355  0.34869  1.0000
  H   H16       1.0  0.22635  0.30137  0.06013  1.0000
  H   H17       1.0  0.41464  0.06797  0.40443  1.0000
  C   C14       1.0  0.37130  0.31672  0.30227  1.0000
  H   H18       1.0  0.30706  0.28463  0.26053  1.0000
  H   H19       1.0  0.24766  0.32232  0.02990  1.0000
  C   C15       1.0  0.36172  0.28188  0.38561  1.0000
  C   C16       1.0  0.26917  0.30832  0.17341  1.0000
  H   H20       1.0  0.34777  0.16296  0.04028  1.0000
  C   C17       1.0  0.35646  0.28350  0.34283  1.0000
  H   H21       1.0  0.42919  0.15394  0.13083  1.0000
  H   H22       1.0  0.41700  0.22719  0.40876  1.0000
  H   H23       1.0  0.26901  0.28719  0.29133  1.0000
  C   C18       1.0  0.45594  0.99883  0.03313  1.0000
  H   H24       1.0  0.35011  0.29602  0.40194  1.0000
  C   C19       1.0  0.31754  0.31312  0.18703  1.0000
  H   H25       1.0  0.25719  0.28973  0.17250  1.0000
  H   H26       1.0  0.14957  0.30777  0.06965  1.0000
  H   H27       1.0  0.29554  0.17808  0.04176  1.0000
  H   H28       1.0  0.27867  0.31268  0.26178  1.0000
  C   C20       1.0  0.31253  0.16911  0.02097  1.0000
  H   H29       1.0  0.46029  0.08785  0.46192  1.0000
  C   C21       1.0  0.46470  0.00280  0.41084  1.0000
  C   C22       1.0  0.46859  0.18672  0.13181  1.0000
  S   S4        1.0  0.42171  0.04228  0.99489  1.0000
  H   H30       1.0  0.10281  0.29240  0.00900  1.0000
  C   C23       1.0  0.46951  0.17178  0.05254  1.0000
  H   H31       1.0  0.28966  0.31589  0.35140  1.0000
  C   C24       1.0  0.31722  0.32354  0.33961  1.0000
  H   H32       1.0  0.40139  0.32320  0.32833  1.0000
  Fe  Fe2       1.0  0.43698  0.13155  0.96172  1.0000
  C   C25       1.0  0.10333  0.27989  0.95082  1.0000
  Fe  Fe3       1.0  0.43375  0.10394  0.88259  1.0000
  S   S5        1.0  0.37548  0.08002  0.88869  1.0000
  H   H33       1.0  0.07410  0.26775  0.94778  1.0000
  Fe  Fe4       1.0  0.34365  0.11453  0.90367  1.0000
  S   S6        1.0  0.26458  0.12044  0.87556  1.0000
  Fe  Fe5       1.0  0.41653  0.07700  0.95589  1.0000
  S   S7        1.0  0.99788  0.22933  0.81625  1.0000
  S   S8        1.0  0.39963  0.13855  0.89409  1.0000
  H   H34       1.0  0.45363  0.14277  0.79819  1.0000
  Fe  Fe6       1.0  0.04671  0.22183  0.77895  1.0000
  H   H35       1.0  0.40291  0.09886  0.68660  1.0000
  S   S9        1.0  0.12361  0.20914  0.80488  1.0000
  H   H36       1.0  0.15859  0.17453  0.91104  1.0000
  N   N2        1.0  0.31526  0.18592  0.98779  1.0000
  S   S10       1.0  0.04674  0.26084  0.75872  1.0000
  H   H37       1.0  0.33562  0.18434  0.93293  1.0000
  C   C26       1.0  0.23086  0.17898  0.94729  1.0000
  C   C27       1.0  0.12170  0.28207  0.91836  1.0000
  H   H38       1.0  0.28397  0.23444  0.97122  1.0000
  C   C28       1.0  0.26811  0.19533  0.96520  1.0000
  C   C29       1.0  0.16200  0.18389  0.82256  1.0000
  C   C30       1.0  0.21064  0.18794  0.83569  1.0000
  C   C31       1.0  0.24259  0.16886  0.85177  1.0000
  C   C32       1.0  0.22630  0.14534  0.85486  1.0000
  C   C33       1.0  0.17774  0.14121  0.84118  1.0000
  C   C34       1.0  0.14579  0.16031  0.82516  1.0000
  H   H39       1.0  0.22360  0.20612  0.83402  1.0000
  H   H40       1.0  0.27965  0.17249  0.86214  1.0000
  H   H41       1.0  0.16460  0.12313  0.84330  1.0000
  H   H42       1.0  0.10860  0.15684  0.81528  1.0000
  S   S11       1.0  0.46222  0.09261  0.83044  1.0000
  H   H43       1.0  0.23615  0.15951  0.94909  1.0000
  H   H44       1.0  0.20633  0.24801  0.93155  1.0000
  C   C35       1.0  0.01280  0.31051  0.88382  1.0000
  Fe  Fe7       1.0  0.99663  0.26797  0.79437  1.0000
  S   S12       1.0  0.37913  0.10943  0.97182  1.0000
  S   S13       1.0  0.01436  0.30265  0.83368  1.0000
  H   H45       1.0  0.14334  0.21849  0.90087  1.0000
  H   H46       1.0  0.38506  0.13484  0.64129  1.0000
  H   H47       1.0  0.33031  0.16617  0.65062  1.0000
  N   N3        1.0  0.30798  0.12621  0.76368  1.0000
  C   C36       1.0  0.25618  0.12716  0.74789  1.0000
  C   C37       1.0  0.32114  0.10365  0.78855  1.0000
  C   C38       1.0  0.32501  0.14710  0.79169  1.0000
  C   C39       1.0  0.32777  0.12763  0.72917  1.0000
  C   C40       1.0  0.35886  0.10982  0.72243  1.0000
  C   C41       1.0  0.31763  0.14789  0.70201  1.0000
  C   C42       1.0  0.37841  0.11234  0.69056  1.0000
  C   C43       1.0  0.33780  0.15032  0.67050  1.0000
  C   C44       1.0  0.36836  0.13264  0.66496  1.0000
  H   H48       1.0  0.24200  0.11230  0.72538  1.0000
  H   H49       1.0  0.24046  0.12525  0.77330  1.0000
  H   H50       1.0  0.24285  0.14468  0.73249  1.0000
  H   H51       1.0  0.35962  0.10247  0.80369  1.0000
  H   H52       1.0  0.30926  0.08711  0.76945  1.0000
  H   H53       1.0  0.30496  0.10286  0.81370  1.0000
  H   H54       1.0  0.31224  0.16480  0.77669  1.0000
  H   H55       1.0  0.31295  0.14595  0.81927  1.0000
  H   H56       1.0  0.36392  0.14773  0.80253  1.0000
  H   H57       1.0  0.36987  0.09408  0.74200  1.0000
  H   H58       1.0  0.29475  0.16228  0.70549  1.0000
  C   C45       1.0  0.15858  0.29797  0.92164  1.0000
  C   C46       1.0  0.12035  0.29430  0.98604  1.0000
  H   H59       1.0  0.10649  0.27183  0.89018  1.0000
  H   H60       1.0  0.31203  0.15648  0.94500  1.0000
  C   C47       1.0  0.25795  0.22060  0.95922  1.0000
  C   C48       1.0  0.21328  0.22874  0.93656  1.0000
  Fe  Fe8       1.0  0.98458  0.25203  0.70428  1.0000
  H   H61       1.0  0.45638  0.04108  0.53437  1.0000
  C   C49       1.0  0.33394  0.17247  0.95881  1.0000
  C   C50       1.0  0.17757  0.21217  0.91951  1.0000
  C   C51       1.0  0.99154  0.30276  0.94588  1.0000
  H   H62       1.0  0.47091  0.16041  0.73750  1.0000
  H   H63       1.0  0.97549  0.27881  0.89292  1.0000
  C   C52       1.0  0.46868  0.02373  0.52709  1.0000
  C   C53       1.0  0.18625  0.18736  0.92525  1.0000
  H   H64       1.0  0.36990  0.16556  0.97435  1.0000
  H   H65       1.0  0.45543  0.00823  0.60520  1.0000
  S   S14       1.0  0.98748  0.21215  0.72143  1.0000
  C   C54       1.0  0.99174  0.29568  0.90622  1.0000
  H   H66       1.0  0.17236  0.29974  0.89602  1.0000
  C   C55       1.0  0.43612  0.00594  0.50583  1.0000
  H   H67       1.0  0.39919  0.01007  0.49638  1.0000
  C   C56       1.0  0.17666  0.31207  0.95711  1.0000
  C   C57       1.0  0.46807  0.13143  0.77937  1.0000
  H   H68       1.0  0.35608  0.21763  0.98399  1.0000
  C   C58       1.0  0.15722  0.31119  0.98998  1.0000
  H   H69       1.0  0.20534  0.32407  0.95816  1.0000
  H   H70       1.0  0.97503  0.29117  0.96281  1.0000
  S   S15       1.0  0.97267  0.26011  0.63569  1.0000
  S   S16       1.0  0.99942  0.39667  0.06674  1.0000
  Fe  Fe9       1.0  0.03651  0.39049  0.13461  1.0000
  S   S17       1.0  0.09645  0.41500  0.13520  1.0000
  C   C59       1.0  0.99896  0.51197  0.10719  1.0000
  Fe  Fe10      1.0  0.04169  0.36520  0.05509  1.0000
  S   S18       1.0  0.10042  0.38915  0.05071  1.0000
  Fe  Fe11      1.0  0.13143  0.38186  0.11883  1.0000
  S   S19       1.0  0.21104  0.37634  0.14599  1.0000
  Fe  Fe12      1.0  0.06046  0.42028  0.06723  1.0000
  S   S20       1.0  0.05990  0.45989  0.04451  1.0000
  S   S21       1.0  0.07389  0.35685  0.12302  1.0000
  C   C60       1.0  0.14783  0.32609  0.05545  1.0000
  C   C61       1.0  0.25087  0.35147  0.16208  1.0000
  C   C62       1.0  0.98656  0.44146  0.37897  1.0000
  H   H71       1.0  0.04108  0.43033  0.45686  1.0000
  N   N4        1.0  0.17532  0.32731  0.02622  1.0000
  N   N5        1.0  0.03798  0.44403  0.39713  1.0000
  C   C63       1.0  0.02136  0.46583  0.14687  1.0000
  C   C64       1.0  0.11517  0.49624  0.45257  1.0000
  H   H72       1.0  0.98361  0.48621  0.39583  1.0000
  H   H73       1.0  0.01148  0.62981  0.08268  1.0000
  H   H74       1.0  0.04247  0.35648  0.30917  1.0000
  C   C65       1.0  0.05381  0.42567  0.43049  1.0000
  H   H75       1.0  0.12704  0.45976  0.43801  1.0000
  C   C66       1.0  0.02172  0.37586  0.25124  1.0000
  C   C67       1.0  0.01848  0.36969  0.29040  1.0000
  H   H76       1.0  0.04791  0.36738  0.24018  1.0000
  H   H77       1.0  0.01082  0.63780  0.20663  1.0000
  C   C68       1.0  0.05277  0.46862  0.41381  1.0000
  C   C69       1.0  0.00909  0.63162  0.14483  1.0000
  C   C70       1.0  0.33234  0.33728  0.18826  1.0000
  H   H78       1.0  0.03570  0.47907  0.17221  1.0000
  C   C71       1.0  0.03018  0.50610  0.01643  1.0000
  H   H79       1.0  0.09240  0.42410  0.44268  1.0000
  H   H80       1.0  0.18549  0.36571  0.03937  1.0000
  C   C72       1.0  0.08279  0.51476  0.44954  1.0000
  C   C73       1.0  0.29923  0.35625  0.17573  1.0000
  C   C74       1.0  0.10061  0.47356  0.43466  1.0000
  H   H81       1.0  0.11053  0.33082  0.03992  1.0000
  C   C75       1.0  0.05908  0.43821  0.36447  1.0000
  H   H82       1.0  0.34557  0.33138  0.36578  1.0000
  H   H83       1.0  0.12425  0.65144  0.25567  1.0000
  H   H84       1.0  0.04077  0.40711  0.41961  1.0000
  H   H85       1.0  0.06629  0.51114  0.03085  1.0000
  H   H86       1.0  0.09786  0.43797  0.37632  1.0000
  H   H87       1.0  0.01756  0.54730  0.08989  1.0000
  C   C76       1.0  0.02079  0.48813  0.41047  1.0000
  H   H88       1.0  0.01075  0.52520  0.42635  1.0000
  S   S22       1.0  0.99088  0.40015  0.17554  1.0000
  H   H89       1.0  0.98460  0.61668  0.14049  1.0000
  H   H90       1.0  0.07031  0.64527  0.26579  1.0000
  C   C77       1.0  0.02435  0.63892  0.11222  1.0000
  H   H91       1.0  0.36929  0.34137  0.19854  1.0000
  H   H92       1.0  0.31123  0.37484  0.17649  1.0000
  H   H93       1.0  0.30110  0.33909  0.31913  1.0000
  H   H94       1.0  0.04798  0.41991  0.35086  1.0000
  C   C78       1.0  0.99047  0.39255  0.22621  1.0000
  C   C79       1.0  0.02407  0.64397  0.18243  1.0000
  C   C80       1.0  0.03590  0.51083  0.42797  1.0000
  H   H95       1.0  0.03739  0.64421  0.45537  1.0000
  H   H96       1.0  0.23891  0.33230  0.07666  1.0000
  H   H97       1.0  0.04852  0.45176  0.33903  1.0000
  H   H98       1.0  0.02658  0.44742  0.16122  1.0000
  C   C81       1.0  0.17446  0.35301  0.01264  1.0000
  C   C82       1.0  0.01667  0.48170  0.01830  1.0000
  H   H99       1.0  0.19855  0.35651  0.99452  1.0000
  H   H100      1.0  0.16094  0.33916  0.08137  1.0000
  H   H101      1.0  0.00842  0.54270  0.99542  1.0000
  S   S23       1.0  0.01133  0.33249  0.01408  1.0000
  H   H102      1.0  0.09381  0.53208  0.46467  1.0000
  H   H103      1.0  0.03522  0.50801  0.12303  1.0000
  H   H104      1.0  0.03128  0.65588  0.38358  1.0000
  C   C83       1.0  0.98931  0.53477  0.08825  1.0000
  S   S24       1.0  0.98109  0.37106  0.35438  1.0000
  H   H105      1.0  0.04297  0.46631  0.12568  1.0000
  H   H106      1.0  0.97606  0.45121  0.07146  1.0000
  H   H107      1.0  0.97648  0.42271  0.36744  1.0000
  C   C84       1.0  0.23605  0.32731  0.16134  1.0000
  H   H108      1.0  0.15162  0.49940  0.46957  1.0000
  C   C85       1.0  0.98416  0.38013  0.30517  1.0000
  C   C86       1.0  0.99744  0.52407  0.99616  1.0000
  H   H109      1.0  0.97215  0.45383  0.35224  1.0000
  H   H110      1.0  0.35671  0.33247  0.28175  1.0000
  Fe  Fe13      1.0  0.13886  0.61905  0.62706  1.0000
  C   C87       1.0  0.07942  0.52221  0.91594  1.0000
  S   S25       1.0  0.21840  0.62578  0.64892  1.0000
  Fe  Fe14      1.0  0.06487  0.58261  0.57259  1.0000
  S   S26       1.0  0.00573  0.60752  0.57280  1.0000
  S   S27       1.0  0.05873  0.54305  0.54799  1.0000
  Fe  Fe15      1.0  0.05094  0.63835  0.56317  1.0000
  Fe  Fe16      1.0  0.04292  0.61192  0.64110  1.0000
  S   S28       1.0  0.08294  0.64505  0.63157  1.0000
  S   S29       1.0  0.10781  0.61324  0.55837  1.0000
  S   S30       1.0  0.10115  0.58622  0.64097  1.0000
  C   C88       1.0  0.98582  0.62396  0.80903  1.0000
  C   C89       1.0  0.02523  0.49709  0.52143  1.0000
  H   H111      1.0  0.04915  0.35653  0.95439  1.0000
  H   H112      1.0  0.04973  0.34412  0.88457  1.0000
  C   C90       1.0  0.99264  0.47992  0.49810  1.0000
  H   H113      1.0  0.03170  0.55359  0.65739  1.0000
  C   C91       1.0  0.04106  0.56001  0.84978  1.0000
  C   C92       1.0  0.00870  0.48896  0.91328  1.0000
  H   H114      1.0  0.05603  0.63269  0.74807  1.0000
  H   H115      1.0  0.04995  0.64356  0.81682  1.0000
  H   H116      1.0  0.00072  0.48786  0.67042  1.0000
  H   H117      1.0  0.03349  0.59167  0.90817  1.0000
  N   N6        1.0  0.02153  0.55518  0.88383  1.0000
  H   H118      1.0  0.00153  0.46083  0.49990  1.0000
  S   S31       1.0  0.99574  0.60260  0.68077  1.0000
  C   C93       1.0  0.02342  0.63220  0.79636  1.0000
  C   C94       1.0  0.03352  0.33248  0.90167  1.0000
  H   H119      1.0  0.08139  0.57163  0.92874  1.0000
  C   C95       1.0  0.30356  0.64850  0.68255  1.0000
  C   C96       1.0  0.02701  0.62606  0.75729  1.0000
  S   S32       1.0  0.98404  0.63182  0.85927  1.0000
  H   H120      1.0  0.10803  0.53442  0.91768  1.0000
  C   C97       1.0  0.09056  0.49876  0.93189  1.0000
  H   H121      1.0  0.02657  0.54716  0.82380  1.0000
  H   H122      1.0  0.05911  0.49092  0.54070  1.0000
  C   C98       1.0  0.03230  0.52990  0.89883  1.0000
  C   C99       1.0  0.97861  0.48563  0.63899  1.0000
  C   C100      1.0  0.01227  0.32472  0.96370  1.0000
  C   C101      1.0  0.01470  0.52213  0.51979  1.0000
  H   H123      1.0  0.07971  0.55842  0.85971  1.0000
  H   H124      1.0  0.03967  0.52274  0.67315  1.0000
  C   C102      1.0  0.05524  0.48222  0.93078  1.0000
  C   C103      1.0  0.99306  0.61141  0.73032  1.0000
  H   H125      1.0  0.98304  0.44651  0.64415  1.0000
  H   H126      1.0  0.31422  0.63799  0.66029  1.0000
  C   C104      1.0  0.03338  0.33954  0.94135  1.0000
  C   C105      1.0  0.25763  0.64600  0.68420  1.0000
  C   C106      1.0  0.02270  0.53460  0.64643  1.0000
  H   H127      1.0  0.06386  0.46428  0.94424  1.0000
  H   H128      1.0  0.12673  0.49344  0.94575  1.0000
  C   C107      1.0  0.04267  0.57247  0.91785  1.0000
  H   H129      1.0  0.03022  0.56876  0.94468  1.0000
  H   H130      1.0  0.03272  0.57881  0.83734  1.0000
  H   H131      1.0  0.03953  0.53090  0.62231  1.0000
  C   C108      1.0  0.99710  0.51242  0.89764  1.0000
  H   H132      1.0  0.98131  0.47614  0.91316  1.0000
  H   H133      1.0  0.13863  0.35834  0.99325  1.0000
  C   C109      1.0  0.32070  0.82938  0.27569  1.0000
  H   H134      1.0  0.97560  0.68871  0.02974  1.0000
  H   H135      1.0  0.08494  0.71204  0.20664  1.0000
  S   S33       1.0  0.38709  0.90430  0.38951  1.0000
  N   N7        1.0  0.06952  0.67715  0.22834  1.0000
  Fe  Fe17      1.0  0.41236  0.92044  0.45400  1.0000
  H   H136      1.0  0.30213  0.82798  0.29920  1.0000
  Fe  Fe18      1.0  0.35676  0.87336  0.41712  1.0000
  S   S34       1.0  0.29809  0.84678  0.38219  1.0000
  C   C110      1.0  0.02805  0.68064  0.47403  1.0000
  S   S35       1.0  0.42396  0.85185  0.43417  1.0000
  C   C111      1.0  0.44068  0.84257  0.20277  1.0000
  S   S36       1.0  0.05561  0.75057  0.27400  1.0000
  H   H137      1.0  0.34507  0.87709  0.28066  1.0000
  Fe  Fe19      1.0  0.03433  0.78830  0.28658  1.0000
  S   S37       1.0  0.07807  0.82247  0.31246  1.0000
  C   C112      1.0  0.36376  0.86505  0.30668  1.0000
  C   C113      1.0  0.13956  0.82856  0.33246  1.0000
  C   C114      1.0  0.15464  0.85152  0.34993  1.0000
  C   C115      1.0  0.20271  0.85738  0.36568  1.0000
  C   C116      1.0  0.23665  0.84040  0.36392  1.0000
  C   C117      1.0  0.22156  0.81747  0.34633  1.0000
  C   C118      1.0  0.17351  0.81154  0.33090  1.0000
  H   H138      1.0  0.12896  0.86491  0.35140  1.0000
  H   H139      1.0  0.21346  0.87508  0.37899  1.0000
  H   H140      1.0  0.24727  0.80409  0.34485  1.0000
  H   H141      1.0  0.16279  0.79382  0.31764  1.0000
  C   C119      1.0  0.97561  0.71500  0.12083  1.0000
  S   S38       1.0  0.37598  0.89129  0.48001  1.0000
  S   S39       1.0  0.40775  0.96107  0.46974  1.0000
  H   H142      1.0  0.06486  0.66477  0.09095  1.0000
  Fe  Fe20      1.0  0.99480  0.75189  0.21509  1.0000
  C   C120      1.0  0.98389  0.87791  0.30114  1.0000
  H   H143      1.0  0.01876  0.86899  0.31396  1.0000
  C   C121      1.0  0.43823  0.82957  0.26977  1.0000
  C   C122      1.0  0.02860  0.66974  0.40512  1.0000
  H   H144      1.0  0.11268  0.70692  0.26022  1.0000
  H   H145      1.0  0.01784  0.71880  0.48249  1.0000
  H   H146      1.0  0.10641  0.66940  0.29224  1.0000
  H   H147      1.0  0.38173  0.86301  0.16619  1.0000
  Fe  Fe21      1.0  0.00282  0.73703  0.30350  1.0000
  H   H148      1.0  0.45724  0.82115  0.29869  1.0000
  C   C123      1.0  0.39677  0.85312  0.19473  1.0000
  C   C124      1.0  0.46124  0.83075  0.24009  1.0000
  H   H149      1.0  0.39880  0.87312  0.32163  1.0000
  C   C125      1.0  0.09366  0.66004  0.26183  1.0000
  S   S40       1.0  0.98498  0.77460  0.31979  1.0000
  C   C126      1.0  0.39313  0.83998  0.26243  1.0000
  H   H150      1.0  0.29791  0.84076  0.25054  1.0000
  C   C127      1.0  0.39239  0.82548  0.33103  1.0000
  H   H151      1.0  0.33968  0.86079  0.21663  1.0000
  S   S41       1.0  0.97696  0.79084  0.22522  1.0000
  H   H152      1.0  0.43295  0.90825  0.00169  1.0000
  S   S42       1.0  0.01506  0.70116  0.33957  1.0000
  C   C128      1.0  0.01810  0.71180  0.42038  1.0000
  C   C129      1.0  0.37315  0.85180  0.22394  1.0000
  H   H153      1.0  0.45962  0.84443  0.18067  1.0000
  C   C130      1.0  0.10187  0.69774  0.22965  1.0000
  N   N8        1.0  0.36820  0.83980  0.29351  1.0000
  H   H154      1.0  0.39725  0.80623  0.32341  1.0000
  H   H155      1.0  0.01320  0.73065  0.41115  1.0000
  C   C131      1.0  0.02800  0.68713  0.23717  1.0000
  H   H156      1.0  0.32237  0.81084  0.26325  1.0000
  H   H157      1.0  0.98970  0.89470  0.28534  1.0000
  Fe  Fe22      1.0  0.45438  0.88314  0.40891  1.0000
  H   H158      1.0  0.37215  0.82528  0.35332  1.0000
  H   H159      1.0  0.98333  0.82980  0.30710  1.0000
  H   H160      1.0  0.01102  0.72302  0.07644  1.0000
  S   S43       1.0  0.00403  0.73904  0.15435  1.0000
  C   C132      1.0  0.02123  0.69410  0.39198  1.0000
  H   H161      1.0  0.34410  0.86583  0.32926  1.0000
  H   H162      1.0  0.99998  0.84467  0.24844  1.0000
  C   C133      1.0  0.02118  0.70505  0.46100  1.0000
  H   H163      1.0  0.00325  0.67283  0.24004  1.0000
  H   H164      1.0  0.00860  0.69987  0.21251  1.0000
  H   H165      1.0  0.44446  0.90478  0.30734  1.0000
  H   H166      1.0  0.13442  0.69156  0.22392  1.0000
  H   H167      1.0  0.03802  0.69733  0.26666  1.0000
  H   H168      1.0  0.42707  0.83346  0.34803  1.0000
  C   C134      1.0  0.03225  0.66304  0.44590  1.0000
  H   H169      1.0  0.09101  0.68702  0.15505  1.0000
  C   C135      1.0  0.06921  0.67134  0.15423  1.0000
  H   H170      1.0  0.44522  0.91339  0.23628  1.0000
  C   C136      1.0  0.98651  0.71106  0.08416  1.0000
  C   C137      1.0  0.05464  0.66424  0.18833  1.0000
  C   C138      1.0  0.05442  0.65867  0.11695  1.0000
  C   C139      1.0  0.47136  0.90145  0.25591  1.0000
  H   H171      1.0  0.97208  0.88350  0.32756  1.0000
  C   C140      1.0  0.47056  0.89640  0.29614  1.0000
  H   H172      1.0  0.97368  0.87125  0.22169  1.0000
  H   H173      1.0  0.43485  0.87628  0.99470  1.0000
  C   C141      1.0  0.24456  0.72720  0.61902  1.0000
  S   S44       1.0  0.42091  0.75853  0.76337  1.0000
  H   H174      1.0  0.26747  0.77593  0.63469  1.0000
  Fe  Fe23      1.0  0.42960  0.71789  0.77182  1.0000
  S   S45       1.0  0.36180  0.69898  0.77271  1.0000
  H   H175      1.0  0.25156  0.75032  0.68968  1.0000
  C   C142      1.0  0.32853  0.72321  0.64916  1.0000
  C   C143      1.0  0.19026  0.69261  0.60108  1.0000
  C   C144      1.0  0.27714  0.67536  0.74055  1.0000
  H   H176      1.0  0.25120  0.69321  0.65312  1.0000
  C   C145      1.0  0.16225  0.70493  0.56660  1.0000
  C   C146      1.0  0.24460  0.65964  0.71341  1.0000
  C   C147      1.0  0.23073  0.70352  0.62684  1.0000
  C   C148      1.0  0.43921  0.79357  0.62678  1.0000
  H   H177      1.0  0.36130  0.73106  0.67037  1.0000
  Fe  Fe24      1.0  0.45745  0.75378  0.71597  1.0000
  H   H178      1.0  0.38678  0.89378  0.96227  1.0000
  H   H179      1.0  0.15311  0.73753  0.53050  1.0000
  Fe  Fe25      1.0  0.44432  0.87129  0.49455  1.0000
  C   C149      1.0  0.42409  0.81957  0.56575  1.0000
  C   C150      1.0  0.28292  0.73970  0.68957  1.0000
  H   H180      1.0  0.18060  0.67444  0.60798  1.0000
  C   C151      1.0  0.40347  0.94412  0.86119  1.0000
  C   C152      1.0  0.32287  0.67811  0.73848  1.0000
  C   C153      1.0  0.29663  0.76333  0.63564  1.0000
  H   H181      1.0  0.45237  0.85863  0.93859  1.0000
  H   H182      1.0  0.33305  0.72157  0.61819  1.0000
  N   N9        1.0  0.28725  0.73833  0.64755  1.0000
  H   H183      1.0  0.42610  0.92629  0.58397  1.0000
  H   H184      1.0  0.40449  0.87370  0.90277  1.0000
  C   C154      1.0  0.17497  0.72813  0.55758  1.0000
  N   N10       1.0  0.45082  0.89745  0.94751  1.0000
  H   H185      1.0  0.41241  0.90598  0.86194  1.0000
  H   H186      1.0  0.22334  0.75713  0.57436  1.0000
  H   H187      1.0  0.31422  0.74820  0.71191  1.0000
  C   C155      1.0  0.40849  0.96560  0.88372  1.0000
  H   H188      1.0  0.32596  0.70457  0.66060  1.0000
  H   H189      1.0  0.40245  0.82431  0.53496  1.0000
  C   C156      1.0  0.45076  0.98286  0.49681  1.0000
  C   C157      1.0  0.33584  0.66450  0.70924  1.0000
  H   H190      1.0  0.32869  0.77114  0.65810  1.0000
  H   H191      1.0  0.37955  0.79016  0.57219  1.0000
  C   C158      1.0  0.21554  0.73921  0.58323  1.0000
  H   H192      1.0  0.30307  0.76352  0.60529  1.0000
  H   H193      1.0  0.45009  0.90317  0.56046  1.0000
  C   C159      1.0  0.41702  0.92187  0.88130  1.0000
  C   C160      1.0  0.41120  0.80021  0.58696  1.0000
  H   H194      1.0  0.27990  0.72150  0.70251  1.0000
  S   S46       1.0  0.42275  0.76806  0.65080  1.0000
  H   H195      1.0  0.38908  0.94476  0.82790  1.0000
  H   H196      1.0  0.26663  0.68560  0.76317  1.0000
  C   C161      1.0  0.45462  0.92244  0.57066  1.0000
  S   S47       1.0  0.02750  0.67303  0.52457  1.0000
  H   H197      1.0  0.13065  0.69641  0.54686  1.0000
  H   H198      1.0  0.44908  0.93361  0.54239  1.0000
  H   H199      1.0  0.37089  0.66612  0.70740  1.0000
  H   H200      1.0  0.46299  0.87619  0.89869  1.0000
  H   H201      1.0  0.39809  0.98285  0.86813  1.0000
  H   H202      1.0  0.43930  0.96685  0.58143  1.0000
  C   C162      1.0  0.44217  0.87569  0.92044  1.0000
  C   C163      1.0  0.42521  0.89384  0.97776  1.0000
  H   H203      1.0  0.45823  0.79446  0.97075  1.0000
  S   S48       1.0  0.46377  0.71311  0.72256  1.0000
  H   H204      1.0  0.47133  0.77853  0.53885  1.0000
  C   C164      1.0  0.46551  0.83231  0.58405  1.0000
  C   C165      1.0  0.43602  0.92058  0.92497  1.0000
  H   H205      1.0  0.45591  0.94341  0.97996  1.0000
  C   C166      1.0  0.44096  0.94286  0.94681  1.0000
  H   H206      1.0  0.46437  0.77839  0.90466  1.0000
  C   C167      1.0  0.42721  0.96496  0.92642  1.0000
  H   H207      1.0  0.43132  0.98173  0.94388  1.0000
  H   H208      1.0  0.20961  0.65791  0.71534  1.0000
  Fe  Fe26      1.0  0.54288  0.27646  0.25378  1.0000
  C   C168      1.0  0.58731  0.01847  0.10134  1.0000
  C   C169      1.0  0.53253  0.99656  0.00427  1.0000
  C   C170      1.0  0.53107  0.04826  0.10798  1.0000
  S   S49       1.0  0.51427  0.24212  0.37671  1.0000
  S   S50       1.0  0.54746  0.23736  0.27467  1.0000
  H   H209      1.0  0.59762  0.30160  0.39708  1.0000
  C   C171      1.0  0.68999  0.31783  0.41133  1.0000
  C   C172      1.0  0.66202  0.25897  0.36790  1.0000
  C   C173      1.0  0.69275  0.29209  0.41551  1.0000
  H   H210      1.0  0.74193  0.26279  0.44184  1.0000
  H   H211      1.0  0.61172  0.29956  0.34938  1.0000
  C   C174      1.0  0.55982  0.06063  0.45830  1.0000
  C   C175      1.0  0.64297  0.26141  0.43125  1.0000
  C   C176      1.0  0.49708  0.19273  0.38217  1.0000
  C   C177      1.0  0.60956  0.03628  0.08532  1.0000
  H   H212      1.0  0.61130  0.07292  0.06728  1.0000
  C   C178      1.0  0.51500  0.21418  0.40303  1.0000
  C   C179      1.0  0.77589  0.29709  0.45494  1.0000
  H   H213      1.0  0.67042  0.26915  0.34296  1.0000
  C   C180      1.0  0.48405  0.09024  0.05641  1.0000
  C   C181      1.0  0.53315  0.19210  0.46859  1.0000
  C   C182      1.0  0.53296  0.21375  0.44632  1.0000
  C   C183      1.0  0.55851  0.10898  0.06706  1.0000
  H   H214      1.0  0.54658  0.23027  0.46279  1.0000
  C   C184      1.0  0.51472  0.17071  0.44775  1.0000
  H   H215      1.0  0.48304  0.19278  0.34891  1.0000
  H   H216      1.0  0.63636  0.27346  0.45497  1.0000
  H   H217      1.0  0.69175  0.24662  0.38234  1.0000
  Fe  Fe27      1.0  0.49674  0.24813  0.30730  1.0000
  H   H218      1.0  0.57864  0.27638  0.36324  1.0000
  S   S51       1.0  0.49307  0.28752  0.28805  1.0000
  H   H219      1.0  0.67236  0.24912  0.44691  1.0000
  H   H220      1.0  0.52985  0.10131  0.41889  1.0000
  H   H221      1.0  0.59509  0.11138  0.08740  1.0000
  H   H222      1.0  0.53030  0.01036  0.12413  1.0000
  C   C185      1.0  0.70284  0.31101  0.30699  1.0000
  H   H223      1.0  0.50915  0.20454  0.05369  1.0000
  C   C186      1.0  0.54823  0.02446  0.11274  1.0000
  H   H224      1.0  0.55870  0.10299  0.03600  1.0000
  H   H225      1.0  0.61172  0.24951  0.41914  1.0000
  H   H226      1.0  0.49979  0.05179  0.11609  1.0000
  C   C187      1.0  0.60833  0.28910  0.37612  1.0000
  C   C188      1.0  0.59279  0.06019  0.08050  1.0000
  N   N11       1.0  0.50978  0.06742  0.44047  1.0000
  C   C189      1.0  0.50621  0.08549  0.40735  1.0000
  C   C190      1.0  0.77189  0.32223  0.45042  1.0000
  H   H227      1.0  0.56537  0.04801  0.48494  1.0000
  C   C191      1.0  0.53109  0.10198  0.12477  1.0000
  H   H228      1.0  0.54222  0.12744  0.06260  1.0000
  H   H229      1.0  0.57349  0.05207  0.43494  1.0000
  C   C192      1.0  0.73703  0.28218  0.43776  1.0000
  Fe  Fe28      1.0  0.48557  0.23015  0.21847  1.0000
  N   N12       1.0  0.65210  0.27588  0.39791  1.0000
  H   H230      1.0  0.63944  0.03133  0.07579  1.0000
  H   H231      1.0  0.58216  0.07680  0.47040  1.0000
  H   H232      1.0  0.71717  0.29364  0.30224  1.0000
  C   C193      1.0  0.47872  0.04648  0.42398  1.0000
  C   C194      1.0  0.49535  0.07927  0.47344  1.0000
  S   S52       1.0  0.61772  0.29073  0.26381  1.0000
  N   N13       1.0  0.53237  0.09165  0.08506  1.0000
  H   H233      1.0  0.48343  0.08015  0.02815  1.0000
  C   C195      1.0  0.55273  0.06688  0.09160  1.0000
  H   H234      1.0  0.56668  0.10245  0.14769  1.0000
  H   H235      1.0  0.63138  0.24719  0.35279  1.0000
  H   H236      1.0  0.48218  0.15478  0.38801  1.0000
  C   C196      1.0  0.65410  0.31459  0.29211  1.0000
  H   H237      1.0  0.53171  0.01747  0.43931  1.0000
  C   C197      1.0  0.49536  0.02217  0.42569  1.0000
  S   S53       1.0  0.48415  0.26829  0.19427  1.0000
  H   H238      1.0  0.80946  0.28920  0.47169  1.0000
  H   H239      1.0  0.51720  0.12094  0.12100  1.0000
  H   H240      1.0  0.51978  0.09398  0.48848  1.0000
  S   S54       1.0  0.51181  0.14312  0.47400  1.0000
  C   C198      1.0  0.49668  0.17118  0.40446  1.0000
  H   H241      1.0  0.59961  0.99980  0.10390  1.0000
  H   H242      1.0  0.50831  0.09137  0.13850  1.0000
  H   H243      1.0  0.51540  0.07719  0.38123  1.0000
  C   C199      1.0  0.49130  0.19350  0.07028  1.0000
  H   H244      1.0  0.50789  0.21768  0.12292  1.0000
  C   C200      1.0  0.49055  0.20106  0.10951  1.0000
  S   S55       1.0  0.47227  0.16302  0.00328  1.0000
  C   C201      1.0  0.50162  0.01660  0.99375  1.0000
  H   H245      1.0  0.64469  0.17399  0.70673  1.0000
  S   S56       1.0  0.93412  0.26209  0.73786  1.0000
  H   H246      1.0  0.95388  0.27228  0.55030  1.0000
  Fe  Fe29      1.0  0.93825  0.22258  0.75671  1.0000
  S   S57       1.0  0.86553  0.20642  0.75160  1.0000
  H   H247      1.0  0.60438  0.11619  0.74216  1.0000
  Fe  Fe30      1.0  0.54508  0.13180  0.54151  1.0000
  S   S58       1.0  0.60494  0.10545  0.55334  1.0000
  Fe  Fe31      1.0  0.54114  0.12490  0.63001  1.0000
  S   S59       1.0  0.60028  0.09784  0.64594  1.0000
  C   C202      1.0  0.53134  0.99573  0.53057  1.0000
  Fe  Fe32      1.0  0.63567  0.12436  0.61450  1.0000
  S   S60       1.0  0.71504  0.13243  0.63729  1.0000
  Fe  Fe33      1.0  0.56392  0.08145  0.58303  1.0000
  S   S61       1.0  0.55998  0.04026  0.56785  1.0000
  S   S62       1.0  0.57791  0.15212  0.60077  1.0000
  S   S63       1.0  0.50288  0.10710  0.56930  1.0000
  C   C203      1.0  0.51673  0.01879  0.53975  1.0000
  C   C204      1.0  0.47803  0.14139  0.74493  1.0000
  C   C205      1.0  0.82416  0.18740  0.71550  1.0000
  C   C206      1.0  0.77600  0.19142  0.70799  1.0000
  C   C207      1.0  0.74208  0.17562  0.68251  1.0000
  C   C208      1.0  0.75575  0.15494  0.66531  1.0000
  C   C209      1.0  0.80386  0.15135  0.67184  1.0000
  C   C210      1.0  0.83776  0.16751  0.69639  1.0000
  H   H248      1.0  0.76486  0.20667  0.72256  1.0000
  H   H249      1.0  0.70546  0.17916  0.67706  1.0000
  H   H250      1.0  0.81512  0.13555  0.65866  1.0000
  H   H251      1.0  0.87452  0.16393  0.70203  1.0000
  H   H252      1.0  0.60019  0.15119  0.69390  1.0000
  H   H253      1.0  0.58467  0.15491  0.75896  1.0000
  C   C211      1.0  0.49489  0.09234  0.76381  1.0000
  H   H254      1.0  0.88860  0.23683  0.57628  1.0000
  H   H255      1.0  0.53355  0.02025  0.65025  1.0000
  H   H256      1.0  0.54685  0.19206  0.50186  1.0000
  C   C212      1.0  0.81879  0.27664  0.67994  1.0000
  C   C213      1.0  0.47613  0.10675  0.78884  1.0000
  C   C214      1.0  0.49628  0.12689  0.71965  1.0000
  H   H257      1.0  0.72547  0.12529  0.73345  1.0000
  H   H258      1.0  0.93415  0.31102  0.51088  1.0000
  C   C215      1.0  0.93998  0.31086  0.54374  1.0000
  S   S64       1.0  0.47663  0.09913  0.94940  1.0000
  H   H259      1.0  0.82689  0.23806  0.54757  1.0000
  N   N14       1.0  0.65236  0.14646  0.75304  1.0000
  C   C216      1.0  0.62234  0.15953  0.77333  1.0000
  C   C217      1.0  0.64253  0.12010  0.75472  1.0000
  C   C218      1.0  0.70294  0.15127  0.77186  1.0000
  C   C219      1.0  0.72055  0.16948  0.80230  1.0000
  C   C220      1.0  0.73617  0.13860  0.75787  1.0000
  C   C221      1.0  0.76836  0.17472  0.81719  1.0000
  C   C222      1.0  0.78386  0.14383  0.77327  1.0000
  C   C223      1.0  0.79988  0.16202  0.80256  1.0000
  H   H260      1.0  0.63164  0.15466  0.80654  1.0000
  H   H261      1.0  0.62460  0.17958  0.77022  1.0000
  H   H262      1.0  0.65509  0.11323  0.78696  1.0000
  S   S65       1.0  0.50642  0.14026  0.67576  1.0000
  H   H263      1.0  0.65914  0.10898  0.73605  1.0000
  H   H264      1.0  0.69813  0.18028  0.81456  1.0000
  C   C224      1.0  0.84338  0.29617  0.62706  1.0000
  H   H265      1.0  0.78112  0.18909  0.83957  1.0000
  H   H266      1.0  0.80833  0.13451  0.76100  1.0000
  H   H267      1.0  0.83669  0.16674  0.81304  1.0000
  N   N15       1.0  0.84247  0.22724  0.61106  1.0000
  C   C225      1.0  0.79864  0.21308  0.60348  1.0000
  C   C226      1.0  0.85399  0.22804  0.57188  1.0000
  C   C227      1.0  0.88074  0.21403  0.64157  1.0000
  C   C228      1.0  0.83714  0.25161  0.62749  1.0000
  C   C229      1.0  0.82274  0.25392  0.66309  1.0000
  C   C230      1.0  0.84743  0.27353  0.60993  1.0000
  C   C231      1.0  0.50508  0.10232  0.72954  1.0000
  C   C232      1.0  0.63802  0.15427  0.70940  1.0000
  H   H268      1.0  0.65701  0.14424  0.69130  1.0000
  H   H269      1.0  0.79067  0.20890  0.63236  1.0000
  H   H270      1.0  0.76828  0.22315  0.58283  1.0000
  H   H271      1.0  0.80075  0.19508  0.58928  1.0000
  H   H272      1.0  0.85684  0.20947  0.55997  1.0000
  H   H273      1.0  0.87507  0.21260  0.67198  1.0000
  H   H274      1.0  0.88510  0.19522  0.63144  1.0000
  H   H275      1.0  0.91446  0.22366  0.64689  1.0000
  H   H276      1.0  0.81605  0.23810  0.67917  1.0000
  H   H277      1.0  0.86025  0.27373  0.58380  1.0000
  H   H278      1.0  0.80914  0.27780  0.70789  1.0000
  C   C233      1.0  0.48245  0.99455  0.61596  1.0000
  C   C234      1.0  0.82924  0.29772  0.66204  1.0000
  H   H279      1.0  0.51892  0.09089  0.71039  1.0000
  C   C235      1.0  0.95603  0.31005  0.62928  1.0000
  H   H280      1.0  0.50759  0.03096  0.97437  1.0000
  C   C236      1.0  0.95117  0.28892  0.56621  1.0000
  H   H281      1.0  0.96214  0.30995  0.66221  1.0000
  H   H282      1.0  0.85273  0.31257  0.61382  1.0000
  C   C237      1.0  0.95944  0.28838  0.60912  1.0000
  H   H283      1.0  0.50122  0.07322  0.77080  1.0000
  H   H284      1.0  0.56217  0.99582  0.99287  1.0000
  H   H285      1.0  0.49503  0.06611  0.49791  1.0000
  H   H286      1.0  0.82744  0.31527  0.67584  1.0000
  H   H287      1.0  0.56826  0.99156  0.54005  1.0000
  C   C238      1.0  0.52645  0.00136  0.64146  1.0000
  Fe  Fe34      1.0  0.90067  0.42530  0.43172  1.0000
  H   H288      1.0  0.77047  0.32635  0.33955  1.0000
  S   S66       1.0  0.90673  0.46698  0.44049  1.0000
  Fe  Fe35      1.0  0.83020  0.38366  0.39041  1.0000
  S   S67       1.0  0.88568  0.35476  0.41017  1.0000
  S   S68       1.0  0.75235  0.37784  0.35470  1.0000
  C   C239      1.0  0.95662  0.40332  0.24131  1.0000
  Fe  Fe36      1.0  0.93121  0.38186  0.39020  1.0000
  N   N16       1.0  0.81797  0.36214  0.25773  1.0000
  S   S69       1.0  0.85083  0.40195  0.45251  1.0000
  S   S70       1.0  0.87460  0.40966  0.36728  1.0000
  H   H289      1.0  0.65259  0.37373  0.32171  1.0000
  C   C240      1.0  0.84593  0.35916  0.22929  1.0000
  H   H290      1.0  0.79608  0.37780  0.17753  1.0000
  C   C241      1.0  0.73330  0.32965  0.32793  1.0000
  C   C242      1.0  0.96988  0.47548  0.99896  1.0000
  C   C243      1.0  0.91668  0.50197  0.08106  1.0000
  H   H291      1.0  0.65829  0.32712  0.39420  1.0000
  C   C244      1.0  0.94898  0.48757  0.47220  1.0000
  C   C245      1.0  0.95354  0.39725  0.28055  1.0000
  H   H292      1.0  0.92712  0.40554  0.29144  1.0000
  C   C246      1.0  0.77297  0.34906  0.24116  1.0000
  C   C247      1.0  0.71559  0.35261  0.33273  1.0000
  Fe  Fe37      1.0  0.90881  0.37421  0.47139  1.0000
  H   H293      1.0  0.94923  0.33590  0.22270  1.0000
  H   H294      1.0  0.78951  0.39125  0.28509  1.0000
  H   H295      1.0  0.82040  0.35581  0.32070  1.0000
  S   S71       1.0  0.95959  0.39861  0.45352  1.0000
  C   C248      1.0  0.80805  0.38829  0.26186  1.0000
  C   C249      1.0  0.93831  0.51258  0.47080  1.0000
  H   H296      1.0  0.75196  0.35579  0.21028  1.0000
  H   H297      1.0  0.90671  0.46931  0.13923  1.0000
  H   H298      1.0  0.88735  0.48990  0.07706  1.0000
  C   C250      1.0  0.66685  0.35611  0.31817  1.0000
  C   C251      1.0  0.82935  0.36860  0.18859  1.0000
  H   H299      1.0  0.90472  0.51880  0.45100  1.0000
  C   C252      1.0  0.94381  0.54104  0.06538  1.0000
  H   H300      1.0  0.93204  0.41614  0.22219  1.0000
  H   H301      1.0  0.91794  0.45299  0.07453  1.0000
  H   H302      1.0  0.95892  0.45677  0.99888  1.0000
  H   H303      1.0  0.91932  0.35357  0.15298  1.0000
  H   H304      1.0  0.84261  0.37415  0.13070  1.0000
  C   C253      1.0  0.63625  0.33719  0.29854  1.0000
  H   H305      1.0  0.59900  0.34040  0.28703  1.0000
  H   H306      1.0  0.78516  0.39630  0.23271  1.0000
  H   H307      1.0  0.87253  0.52934  0.04260  1.0000
  C   C254      1.0  0.90761  0.52464  0.06167  1.0000
  C   C255      1.0  0.85551  0.36649  0.16142  1.0000
  S   S72       1.0  0.91136  0.64973  0.03710  1.0000
  H   H308      1.0  0.87586  0.36184  0.31413  1.0000
  H   H309      1.0  0.93672  0.55827  0.04914  1.0000
  H   H310      1.0  0.90571  0.33930  0.27096  1.0000
  H   H311      1.0  0.80211  0.33379  0.46350  1.0000
  C   C256      1.0  0.95522  0.45122  0.09312  1.0000
  C   C257      1.0  0.88974  0.34692  0.24066  1.0000
  H   H312      1.0  0.75063  0.35133  0.26142  1.0000
  H   H313      1.0  0.72639  0.35213  0.42459  1.0000
  C   C258      1.0  0.94510  0.46857  0.15440  1.0000
  C   C259      1.0  0.72907  0.33254  0.42871  1.0000
  C   C260      1.0  0.96272  0.49482  0.10422  1.0000
  H   H314      1.0  0.84756  0.33270  0.29974  1.0000
  H   H315      1.0  0.84094  0.39903  0.27181  1.0000
  C   C261      1.0  0.84167  0.35266  0.29980  1.0000
  C   C262      1.0  0.89854  0.35470  0.17373  1.0000
  H   H316      1.0  0.77865  0.32922  0.23833  1.0000
  C   C263      1.0  0.91536  0.34475  0.21308  1.0000
  H   H317      1.0  0.91214  0.65035  0.40581  1.0000
  H   H318      1.0  0.95911  0.43292  0.10766  1.0000
  H   H319      1.0  0.95477  0.48346  0.17752  1.0000
  H   H320      1.0  0.96858  0.44519  0.40225  1.0000
  H   H321      1.0  0.95239  0.45093  0.17139  1.0000
  H   H322      1.0  0.74311  0.65076  0.00095  1.0000
  H   H323      1.0  0.96199  0.54885  0.49243  1.0000
  N   N17       1.0  0.97133  0.47064  0.12437  1.0000
  H   H324      1.0  0.91581  0.51544  0.55107  1.0000
  Fe  Fe38      1.0  0.93171  0.62282  0.89369  1.0000
  S   S73       1.0  0.87458  0.59484  0.87329  1.0000
  C   C264      1.0  0.93103  0.50121  0.57289  1.0000
  C   C265      1.0  0.95191  0.60925  0.78209  1.0000
  S   S74       1.0  0.85530  0.60483  0.95946  1.0000
  Fe  Fe39      1.0  0.90363  0.58082  0.93856  1.0000
  S   S75       1.0  0.90713  0.53964  0.95150  1.0000
  Fe  Fe40      1.0  0.83113  0.62148  0.89628  1.0000
  S   S76       1.0  0.75161  0.62703  0.87555  1.0000
  H   H325      1.0  0.92902  0.59175  0.72259  1.0000
  H   H326      1.0  0.96181  0.56887  0.61213  1.0000
  S   S77       1.0  0.92303  0.36094  0.53773  1.0000
  C   C266      1.0  0.71227  0.65010  0.84840  1.0000
  H   H327      1.0  0.91268  0.53197  0.65299  1.0000
  H   H328      1.0  0.89839  0.47403  0.52751  1.0000
  H   H329      1.0  0.92255  0.60288  0.79103  1.0000
  H   H330      1.0  0.65544  0.63620  0.86754  1.0000
  C   C267      1.0  0.97069  0.52971  0.49451  1.0000
  H   H331      1.0  0.90111  0.48836  0.96410  1.0000
  C   C268      1.0  0.93966  0.45775  0.58429  1.0000
  H   H332      1.0  0.96024  0.51654  0.88598  1.0000
  H   H333      1.0  0.91382  0.54991  0.58652  1.0000
  H   H334      1.0  0.93201  0.43932  0.57288  1.0000
  C   C269      1.0  0.93714  0.49346  0.97885  1.0000
  C   C270      1.0  0.95567  0.60297  0.74316  1.0000
  C   C271      1.0  0.92071  0.47736  0.55878  1.0000
  S   S78       1.0  0.88632  0.65059  0.91248  1.0000
  H   H335      1.0  0.79684  0.64353  0.99215  1.0000
  Fe  Fe41      1.0  0.91169  0.63322  0.97539  1.0000
  C   C272      1.0  0.95054  0.51788  0.97734  1.0000
  S   S79       1.0  0.96210  0.60785  0.95860  1.0000
  C   C273      1.0  0.76329  0.65361  0.97922  1.0000
  C   C274      1.0  0.93693  0.33259  0.56401  1.0000
  C   C275      1.0  0.94483  0.33197  0.60684  1.0000
  H   H336      1.0  0.94258  0.34864  0.62289  1.0000
  H   H337      1.0  0.95395  0.55784  0.89270  1.0000
  C   C276      1.0  0.96056  0.50609  0.61357  1.0000
  H   H338      1.0  0.74369  0.64461  0.94970  1.0000
  C   C277      1.0  0.95116  0.53485  0.66390  1.0000
  C   C278      1.0  0.95259  0.55038  0.59880  1.0000
  H   H339      1.0  0.95768  0.55368  0.67649  1.0000
  H   H340      1.0  0.95248  0.54891  0.84133  1.0000
  H   H341      1.0  0.96384  0.57966  0.85767  1.0000
  C   C279      1.0  0.66601  0.65000  0.84971  1.0000
  H   H342      1.0  0.96740  0.54891  0.57286  1.0000
  H   H343      1.0  0.96636  0.52231  0.69017  1.0000
  C   C280      1.0  0.96848  0.46187  0.62437  1.0000
  C   C281      1.0  0.97071  0.56048  0.86822  1.0000
  N   N18       1.0  0.97138  0.53106  0.63002  1.0000
  Fe  Fe42      1.0  0.57008  0.91741  0.07884  1.0000
  S   S80       1.0  0.50810  0.89586  0.08152  1.0000
  S   S81       1.0  0.56584  0.95267  0.04138  1.0000
  Fe  Fe43      1.0  0.63876  0.87730  0.12807  1.0000
  S   S82       1.0  0.57981  0.85402  0.13462  1.0000
  S   S83       1.0  0.71602  0.86595  0.14283  1.0000
  Fe  Fe44      1.0  0.54450  0.86286  0.06761  1.0000
  Fe  Fe45      1.0  0.54872  0.88918  0.14836  1.0000
  C   C282      1.0  0.89822  0.89493  0.23303  1.0000
  S   S84       1.0  0.60403  0.88464  0.06029  1.0000
  S   S85       1.0  0.61010  0.91223  0.14619  1.0000
  Fe  Fe46      1.0  0.92921  0.77500  0.25759  1.0000
  H   H344      1.0  0.78150  0.90521  0.21073  1.0000
  S   S86       1.0  0.85480  0.78637  0.25477  1.0000
  H   H345      1.0  0.72203  0.79940  0.08816  1.0000
  H   H346      1.0  0.84214  0.75616  0.38530  1.0000
  S   S87       1.0  0.94360  0.73626  0.24360  1.0000
  N   N19       1.0  0.87186  0.72901  0.35528  1.0000
  C   C283      1.0  0.53806  0.87054  0.30663  1.0000
  C   C284      1.0  0.53931  0.87591  0.26657  1.0000
  H   H347      1.0  0.56390  0.85840  0.32609  1.0000
  H   H348      1.0  0.56580  0.86789  0.25542  1.0000
  C   C285      1.0  0.75242  0.84242  0.17219  1.0000
  C   C286      1.0  0.73929  0.82812  0.20061  1.0000
  C   C287      1.0  0.77077  0.81088  0.22510  1.0000
  C   C288      1.0  0.81560  0.80746  0.22133  1.0000
  C   C289      1.0  0.82825  0.82132  0.19214  1.0000
  C   C290      1.0  0.79696  0.83871  0.16794  1.0000
  H   H349      1.0  0.70542  0.83083  0.20459  1.0000
  H   H350      1.0  0.76050  0.80036  0.24759  1.0000
  H   H351      1.0  0.86241  0.81895  0.18865  1.0000
  H   H352      1.0  0.80770  0.84973  0.14627  1.0000
  C   C291      1.0  0.52554  0.97754  0.02937  1.0000
  H   H353      1.0  0.88728  0.68000  0.35006  1.0000
  H   H354      1.0  0.69626  0.79631  0.12784  1.0000
  H   H355      1.0  0.94046  0.84363  0.21507  1.0000
  H   H356      1.0  0.85852  0.76733  0.34268  1.0000
  N   N20       1.0  0.64630  0.79847  0.06677  1.0000
  C   C292      1.0  0.64405  0.82535  0.06632  1.0000
  H   H357      1.0  0.92760  0.90285  0.22595  1.0000
  H   H358      1.0  0.90320  0.76076  0.38991  1.0000
  C   C293      1.0  0.82534  0.72233  0.32672  1.0000
  C   C294      1.0  0.94365  0.69942  0.13021  1.0000
  C   C295      1.0  0.81550  0.89688  0.22447  1.0000
  H   H359      1.0  0.79884  0.72148  0.34321  1.0000
  H   H360      1.0  0.93427  0.70232  0.15787  1.0000
  C   C296      1.0  0.89467  0.71762  0.43142  1.0000
  C   C297      1.0  0.96640  0.69162  0.05753  1.0000
  S   S88       1.0  0.50261  0.89720  0.18884  1.0000
  H   H361      1.0  0.86296  0.84866  0.28364  1.0000
  H   H362      1.0  0.90021  0.66760  0.11200  1.0000
  C   C298      1.0  0.50351  0.88059  0.32157  1.0000
  S   S89       1.0  0.50244  0.87214  0.37160  1.0000
  H   H363      1.0  0.48105  0.96451  0.06326  1.0000
  H   H364      1.0  0.61050  0.83183  0.04438  1.0000
  C   C299      1.0  0.92407  0.67981  0.10390  1.0000
  H   H365      1.0  0.61465  0.79644  0.11541  1.0000
  C   C300      1.0  0.89233  0.68628  0.38106  1.0000
  S   S90       1.0  0.48112  0.90100  0.47126  1.0000
  C   C301      1.0  0.79314  0.69136  0.01310  1.0000
  H   H366      1.0  0.64674  0.83272  0.09723  1.0000
  C   C302      1.0  0.93553  0.67564  0.06758  1.0000
  H   H367      1.0  0.79903  0.71109  0.00945  1.0000
  C   C303      1.0  0.69221  0.79082  0.09552  1.0000
  H   H368      1.0  0.89174  0.73604  0.44109  1.0000
  C   C304      1.0  0.90597  0.72896  0.33211  1.0000
  C   C305      1.0  0.50554  0.89120  0.24077  1.0000
  H   H369      1.0  0.81298  0.73578  0.30112  1.0000
  C   C306      1.0  0.86881  0.75437  0.36916  1.0000
  H   H370      1.0  0.94172  0.73302  0.35284  1.0000
  H   H371      1.0  0.82777  0.68303  0.02952  1.0000
  H   H372      1.0  0.82574  0.70435  0.31205  1.0000
  C   C307      1.0  0.88626  0.71114  0.38942  1.0000
  C   C308      1.0  0.67402  0.79620  0.00469  1.0000
  H   H373      1.0  0.57413  0.79593  0.06484  1.0000
  C   C309      1.0  0.60948  0.78951  0.08367  1.0000
  C   C310      1.0  0.90619  0.66908  0.41268  1.0000
  C   C311      1.0  0.48700  0.97886  0.04385  1.0000
  H   H374      1.0  0.89689  0.74276  0.30702  1.0000
  H   H375      1.0  0.90797  0.71122  0.31728  1.0000
  C   C312      1.0  0.81972  0.87649  0.24950  1.0000
  C   C313      1.0  0.94838  0.83862  0.29611  1.0000
  H   H376      1.0  0.85119  0.92210  0.19698  1.0000
  C   C314      1.0  0.60256  0.77505  0.00174  1.0000
  C   C315      1.0  0.86286  0.86486  0.26575  1.0000
  C   C316      1.0  0.90350  0.87361  0.25756  1.0000
  H   H377      1.0  0.70365  0.80755  0.01989  1.0000
  H   H378      1.0  0.78886  0.86916  0.25513  1.0000
  H   H379      1.0  0.60930  0.76932  0.08532  1.0000
  H   H380      1.0  0.69659  0.77076  0.09500  1.0000
  C   C317      1.0  0.85474  0.90621  0.21651  1.0000
  S   S91       1.0  0.50443  0.83308  0.02433  1.0000
  C   C318      1.0  0.90845  0.70020  0.46277  1.0000
  H   H381      1.0  0.67294  0.83392  0.05750  1.0000
  C   C319      1.0  0.64094  0.78959  0.02464  1.0000
  C   C320      1.0  0.91409  0.67602  0.45341  1.0000
  H   H382      1.0  0.92407  0.82508  0.27638  1.0000
  H   H383      1.0  0.77155  0.68950  0.03393  1.0000
  H   H384      1.0  0.57478  0.76969  0.01360  1.0000
  H   H385      1.0  0.92631  0.66279  0.47804  1.0000
  N   N21       1.0  0.94953  0.86139  0.27307  1.0000
  C   C321      1.0  0.96649  0.85501  0.23803  1.0000
  H   H386      1.0  0.93799  0.84207  0.32409  1.0000
  H   H387      1.0  0.49622  0.82343  0.24679  1.0000
  H   H388      1.0  0.47782  0.98430  0.41346  1.0000
  H   H389      1.0  0.69344  0.68246  0.99789  1.0000
  H   H390      1.0  0.51064  0.91304  0.99355  1.0000
  Fe  Fe47      1.0  0.53235  0.71961  0.77294  1.0000
  N   N22       1.0  0.77119  0.67971  0.97253  1.0000
  S   S92       1.0  0.60534  0.70680  0.77373  1.0000
  C   C322      1.0  0.66871  0.78898  0.96426  1.0000
  C   C323      1.0  0.51868  0.76187  0.59302  1.0000
  S   S93       1.0  0.52770  0.76002  0.76196  1.0000
  H   H391      1.0  0.49034  0.75124  0.59714  1.0000
  H   H392      1.0  0.49999  0.89120  0.62679  1.0000
  C   C324      1.0  0.51792  0.80360  0.90220  1.0000
  S   S94       1.0  0.49903  0.72142  0.82357  1.0000
  C   C325      1.0  0.61451  0.72762  0.65598  1.0000
  C   C326      1.0  0.59790  0.76776  0.96147  1.0000
  C   C327      1.0  0.54303  0.83209  0.96016  1.0000
  C   C328      1.0  0.54615  0.82304  0.92254  1.0000
  C   C329      1.0  0.67381  0.71477  0.89325  1.0000
  H   H393      1.0  0.52541  0.83559  0.63846  1.0000
  H   H394      1.0  0.70240  0.69859  0.78396  1.0000
  H   H395      1.0  0.57089  0.83102  0.90919  1.0000
  H   H396      1.0  0.63438  0.77648  0.63215  1.0000
  C   C330      1.0  0.80534  0.68097  0.94934  1.0000
  C   C331      1.0  0.50707  0.77759  0.55915  1.0000
  H   H397      1.0  0.60180  0.71611  0.62792  1.0000
  H   H398      1.0  0.53079  0.80580  0.52695  1.0000
  H   H399      1.0  0.59591  0.98949  0.67426  1.0000
  N   N23       1.0  0.57821  0.74528  0.65823  1.0000
  H   H400      1.0  0.79187  0.67161  0.91902  1.0000
  H   H401      1.0  0.60428  0.72149  0.89502  1.0000
  H   H402      1.0  0.57286  0.91964  0.60247  1.0000
  C   C332      1.0  0.53675  0.91982  0.58077  1.0000
  S   S95       1.0  0.52481  0.79262  0.85557  1.0000
  H   H403      1.0  0.54201  0.91132  0.65927  1.0000
  H   H404      1.0  0.54961  0.71964  0.69189  1.0000
  S   S96       1.0  0.48489  0.85576  0.55769  1.0000
  H   H405      1.0  0.52325  0.71859  0.63748  1.0000
  C   C333      1.0  0.59852  0.77631  0.61244  1.0000
  C   C334      1.0  0.69208  0.68515  0.80253  1.0000
  H   H406      1.0  0.60551  0.74951  0.72428  1.0000
  H   H407      1.0  0.53039  0.90120  0.56746  1.0000
  H   H408      1.0  0.83880  0.67183  0.96638  1.0000
  C   C335      1.0  0.72606  0.69172  0.95115  1.0000
  H   H409      1.0  0.76055  0.66829  0.82346  1.0000
  H   H410      1.0  0.62541  0.77013  0.91072  1.0000
  C   C336      1.0  0.56488  0.76094  0.62107  1.0000
  C   C337      1.0  0.71706  0.70386  0.91266  1.0000
  H   H411      1.0  0.63036  0.76974  0.69640  1.0000
  H   H412      1.0  0.53598  0.93248  0.55522  1.0000
  C   C338      1.0  0.50902  0.95239  0.61495  1.0000
  C   C339      1.0  0.63301  0.66736  0.82772  1.0000
  H   H413      1.0  0.51422  0.88110  0.98659  1.0000
  H   H414      1.0  0.81445  0.70004  0.94428  1.0000
  H   H415      1.0  0.51059  0.74339  0.66708  1.0000
  C   C340      1.0  0.58632  0.79219  0.57874  1.0000
  C   C341      1.0  0.49877  0.97799  0.50908  1.0000
  C   C342      1.0  0.49327  0.82587  0.62409  1.0000
  C   C343      1.0  0.53856  0.73117  0.66368  1.0000
  H   H416      1.0  0.51083  0.96070  0.50141  1.0000
  C   C344      1.0  0.54058  0.79295  0.55233  1.0000
  C   C345      1.0  0.68923  0.69141  0.96882  1.0000
  H   H417      1.0  0.57185  0.77483  0.69720  1.0000
  H   H418      1.0  0.64717  0.73667  0.65528  1.0000
  C   C346      1.0  0.59733  0.76053  0.69551  1.0000
  C   C347      1.0  0.64569  0.68490  0.80353  1.0000
  Fe  Fe48      1.0  0.49212  0.76171  0.81080  1.0000
  H   H419      1.0  0.56497  0.84706  0.97517  1.0000
  C   C348      1.0  0.63054  0.77492  0.94261  1.0000
  H   H420      1.0  0.59758  0.66686  0.82889  1.0000
  H   H421      1.0  0.50174  0.80187  0.67619  1.0000
  H   H422      1.0  0.91634  0.70549  0.49479  1.0000
  C   C349      1.0  0.48631  0.79334  0.91992  1.0000
  H   H423      1.0  0.62444  0.71523  0.68329  1.0000
  C   C350      1.0  0.55305  0.95983  0.64203  1.0000
  C   C351      1.0  0.51140  0.82182  0.97787  1.0000
  C   C352      1.0  0.48008  0.80669  0.64549  1.0000
  C   C353      1.0  0.72528  0.66802  0.82506  1.0000
  H   H424      1.0  0.58145  0.94706  0.65310  1.0000
  C   C354      1.0  0.50644  0.91058  0.63656  1.0000
  H   H425      1.0  0.61221  0.80426  0.57333  1.0000
  H   H426      1.0  0.74231  0.70464  0.89621  1.0000
  H   H427      1.0  0.56750  0.75744  0.94392  1.0000
  C   C355      1.0  0.50158  0.89841  0.96997  1.0000
  H   H428      1.0  0.66726  0.72340  0.86340  1.0000
  H   H429      1.0  0.52216  0.90185  0.94859  1.0000
  C   C356      1.0  0.48307  0.80245  0.95750  1.0000
  H   H430      1.0  0.69370  0.79476  0.94922  1.0000
  H   H431      1.0  0.48105  0.91554  0.65288  1.0000
  C   C357      1.0  0.63817  0.71367  0.91102  1.0000
  N   N24       1.0  0.50149  0.92684  0.60081  1.0000
  C   C358      1.0  0.64592  0.70215  0.94886  1.0000
  C   C359      1.0  0.56162  0.98402  0.65468  1.0000
  H   H432      1.0  0.61791  0.70120  0.96240  1.0000
  C   C360      1.0  0.47368  0.97052  0.60251  1.0000
