data_image0
_chemical_formula_structural       HS2FeH3C2SC2FeCHFeNH2C2H2CHC4H3C3SC7H4CH2CHCH4CH2CHCSHSCH3SFeSHFeS2Fe2S3H3C6H6CHCHCHNHC5HCH3CHSH4SHSHCHCFeHC2SC2HC2H2CH2NC2H2C3HCH2NC2HC2HC4H2CH2CH2CH2CHC3H3CHC3H2CH3SFeSFeSCFeS2FeHFeS3HFeSHC6HNH2C6H4CH2S2H4SCH3CHC2FeH2CHCNC2H2CH2CHCH2C3H2C2HCSC2HCHCHFeHNHC3H2NCHCHCHCH3SCH2CH2CH4CHCHSC3FeCH3CHC2HCHC3H2C2H2CHCHCH4SH3C2H2CHSHC2NHC3HCH2CHSHSH5SFeSH3FeS4FeSH6C6H4CNC6HC2H7FeCHSCHFeCHFeS2NHFeCSCFeSHSFeSFeSHC6H4NH2CHNCH3CH3CHCHC4H2C2SNH7CFeH2C3H5SHCHSHC2H2CHC2H3C3H4C3H5C3NH3SHCHC2HSC3H5CHCFeSH2SCH3SCH3C4HFeH4C2HCH2C2H2CSHCSHCH2C3H2CH2CHSH2CHNFeSHSFeS2FeSFeSCHC6H4C2HC4SH2CHC5H2C2SCH2CFeC2NS2H6SH2C2H2CHC2HCHCHSH2FeH4SHCHNC3HFeH2SNC2HSHFeS2FeS2C2HC4HCH3NSCHCHC8H5CHCHCH2FeSHC5HCHNHC2H10CHCH8SCFeS2H2SCH2SFeSH2SCSFeHC7H2C4H2C6H4NCHCFeCHCHC3HCH3CHCHC6HCH3CHCH3C3HC2H4NCHFeH2FeC2H3CFeH3CHNCHC2SH4SFeCSCHSHSCH2
_chemical_formula_sum              "H432 S96 Fe48 C360 N24"
_cell_length_a       29.101
_cell_length_b       41.6387
_cell_length_c       25.7914
_cell_angle_alpha    90.0987
_cell_angle_beta     103.06
_cell_angle_gamma    90.1514

_space_group_name_H-M_alt    "P 1"
_space_group_IT_number       1

loop_
  _space_group_symop_operation_xyz
  'x, y, z'

loop_
  _atom_site_type_symbol
  _atom_site_label
  _atom_site_symmetry_multiplicity
  _atom_site_fract_x
  _atom_site_fract_y
  _atom_site_fract_z
  _atom_site_occupancy
  H   H1        1.0  0.06128  0.18413  0.04502  1.0000
  S   S1        1.0  0.19884  0.32141  0.46054  1.0000
  S   S2        1.0  0.15593  0.29642  0.30490  1.0000
  Fe  Fe1       1.0  0.48369  0.08763  0.28111  1.0000
  H   H2        1.0  0.46996  0.18378  0.10445  1.0000
  H   H3        1.0  0.39057  0.14927  0.12848  1.0000
  H   H4        1.0  0.22129  0.19647  0.09339  1.0000
  C   C1        1.0  0.43695  0.08301  0.45249  1.0000
  C   C2        1.0  0.19113  0.21207  0.07479  1.0000
  S   S3        1.0  0.40685  0.08871  0.07780  1.0000
  C   C3        1.0  0.09991  0.11027  0.08630  1.0000
  C   C4        1.0  0.16217  0.14914  0.11672  1.0000
  Fe  Fe2       1.0  0.45903  0.08643  0.15838  1.0000
  C   C5        1.0  0.16503  0.21624  0.15717  1.0000
  H   H5        1.0  0.46529  0.02877  0.36627  1.0000
  Fe  Fe3       1.0  0.17311  0.33218  0.37336  1.0000
  N   N1        1.0  0.15010  0.20835  0.09959  1.0000
  H   H6        1.0  0.16865  0.09831  0.13272  1.0000
  H   H7        1.0  0.13611  0.21117  0.17796  1.0000
  C   C6        1.0  0.13270  0.17478  0.09306  1.0000
  C   C7        1.0  0.08642  0.16649  0.06446  1.0000
  H   H8        1.0  0.20497  0.23715  0.07818  1.0000
  H   H9        1.0  0.26848  0.05828  0.05787  1.0000
  C   C8        1.0  0.37168  0.12282  0.05491  1.0000
  H   H10       1.0  0.12804  0.25739  0.08104  1.0000
  C   C9        1.0  0.24087  0.10563  0.03955  1.0000
  C   C10       1.0  0.44997  0.07130  0.40658  1.0000
  C   C11       1.0  0.34113  0.17577  0.06866  1.0000
  C   C12       1.0  0.37001  0.14930  0.08791  1.0000
  H   H11       1.0  0.02654  0.31844  0.21185  1.0000
  H   H12       1.0  0.08667  0.08586  0.08522  1.0000
  H   H13       1.0  0.34012  0.19612  0.09453  1.0000
  C   C13       1.0  0.14581  0.11741  0.11349  1.0000
  C   C14       1.0  0.43447  0.02878  0.48715  1.0000
  C   C15       1.0  0.44771  0.01709  0.44137  1.0000
  S   S4        1.0  0.45682  0.04885  0.22081  1.0000
  C   C16       1.0  0.07053  0.13468  0.06137  1.0000
  C   C17       1.0  0.03035  0.22629  0.28345  1.0000
  C   C18       1.0  0.04759  0.24157  0.33273  1.0000
  C   C19       1.0  0.08538  0.26357  0.33960  1.0000
  C   C20       1.0  0.10696  0.27004  0.29746  1.0000
  C   C21       1.0  0.08995  0.25466  0.24829  1.0000
  C   C22       1.0  0.05173  0.23300  0.24119  1.0000
  H   H14       1.0  0.03195  0.23623  0.36591  1.0000
  H   H15       1.0  0.09833  0.27513  0.37771  1.0000
  H   H16       1.0  0.10608  0.25991  0.21542  1.0000
  H   H17       1.0  0.03872  0.22164  0.20301  1.0000
  C   C23       1.0  0.00202  0.31218  0.23625  1.0000
  H   H18       1.0  0.19629  0.20224  0.17773  1.0000
  H   H19       1.0  0.03464  0.12904  0.04075  1.0000
  C   C24       1.0  0.45555  0.03816  0.40141  1.0000
  H   H20       1.0  0.19797  0.15350  0.13851  1.0000
  C   C25       1.0  0.11413  0.23238  0.07486  1.0000
  H   H21       1.0  0.08242  0.23125  0.09232  1.0000
  H   H22       1.0  0.27177  0.11737  0.06352  1.0000
  H   H23       1.0  0.99977  0.01450  0.05159  1.0000
  H   H24       1.0  0.47205  0.14099  0.09948  1.0000
  C   C26       1.0  0.49325  0.16330  0.10043  1.0000
  H   H25       1.0  0.43246  0.10858  0.45688  1.0000
  H   H26       1.0  0.17500  0.24202  0.16408  1.0000
  C   C27       1.0  0.42938  0.06193  0.49265  1.0000
  H   H27       1.0  0.46342  0.02124  0.05096  1.0000
  C   C28       1.0  0.23877  0.07228  0.03655  1.0000
  S   S5        1.0  0.48034  0.12605  0.21830  1.0000
  H   H28       1.0  0.03439  0.34367  0.29984  1.0000
  S   S6        1.0  0.45830  0.09890  0.35674  1.0000
  C   C29       1.0  0.00650  0.32630  0.28610  1.0000
  H   H29       1.0  0.10284  0.22883  0.03101  1.0000
  H   H30       1.0  0.18145  0.20599  0.03161  1.0000
  H   H31       1.0  0.10904  0.25644  0.62339  1.0000
  S   S7        1.0  0.39154  0.07276  0.78163  1.0000
  Fe  Fe4       1.0  0.12297  0.19123  0.86896  1.0000
  S   S8        1.0  0.15393  0.23595  0.91143  1.0000
  H   H32       1.0  0.04697  0.06639  0.89951  1.0000
  Fe  Fe5       1.0  0.19496  0.18820  0.80065  1.0000
  S   S9        1.0  0.23213  0.23260  0.83785  1.0000
  S   S10       1.0  0.21252  0.16307  0.73031  1.0000
  Fe  Fe6       1.0  0.22342  0.21087  0.91524  1.0000
  Fe  Fe7       1.0  0.15893  0.25298  0.82987  1.0000
  S   S11       1.0  0.13985  0.30015  0.78544  1.0000
  S   S12       1.0  0.19143  0.16502  0.87795  1.0000
  S   S13       1.0  0.12284  0.20963  0.78760  1.0000
  H   H33       1.0  0.01856  0.10004  0.80044  1.0000
  H   H34       1.0  0.00506  0.25377  0.97488  1.0000
  H   H35       1.0  0.12533  0.01428  0.99232  1.0000
  C   C30       1.0  0.34072  0.09686  0.76721  1.0000
  C   C31       1.0  0.31447  0.10029  0.71499  1.0000
  C   C32       1.0  0.27542  0.12093  0.70398  1.0000
  C   C33       1.0  0.26218  0.13796  0.74518  1.0000
  C   C34       1.0  0.28783  0.13407  0.79759  1.0000
  C   C35       1.0  0.32707  0.11357  0.80852  1.0000
  H   H36       1.0  0.32516  0.08787  0.68283  1.0000
  H   H37       1.0  0.25586  0.12399  0.66333  1.0000
  H   H38       1.0  0.27767  0.14697  0.82965  1.0000
  H   H39       1.0  0.34679  0.11055  0.84907  1.0000
  H   H40       1.0  0.05697  0.22892  0.92149  1.0000
  H   H41       1.0  0.17584  0.10144  0.68498  1.0000
  C   C36       1.0  0.28767  0.33713  0.69420  1.0000
  H   H42       1.0  0.21516  0.08209  0.77396  1.0000
  C   C37       1.0  0.13149  0.04106  0.90032  1.0000
  H   H43       1.0  0.08185  0.31644  0.86025  1.0000
  C   C38       1.0  0.02644  0.18174  0.92187  1.0000
  H   H44       1.0  0.14888  0.24127  0.55582  1.0000
  N   N2        1.0  0.16165  0.05562  0.71821  1.0000
  H   H45       1.0  0.04138  0.33710  0.60081  1.0000
  C   C39       1.0  0.16637  0.07626  0.67279  1.0000
  C   C40       1.0  0.20626  0.05716  0.75954  1.0000
  C   C41       1.0  0.12227  0.06706  0.74114  1.0000
  C   C42       1.0  0.08465  0.04678  0.74821  1.0000
  C   C43       1.0  0.12125  0.09942  0.75828  1.0000
  H   H46       1.0  0.20640  0.14985  0.01187  1.0000
  C   C44       1.0  0.08405  0.11111  0.77884  1.0000
  H   H47       1.0  0.10092  0.02815  0.87485  1.0000
  H   H48       1.0  0.23656  0.30458  0.57535  1.0000
  H   H49       1.0  0.07633  0.32613  0.69349  1.0000
  C   C45       1.0  0.06453  0.32523  0.82129  1.0000
  H   H50       1.0  0.13285  0.07689  0.64180  1.0000
  S   S14       1.0  0.34247  0.02194  0.64623  1.0000
  H   H51       1.0  0.01299  0.22917  0.73694  1.0000
  H   H52       1.0  0.13874  0.27490  0.68398  1.0000
  H   H53       1.0  0.43221  0.12640  0.88495  1.0000
  H   H54       1.0  0.23688  0.04837  0.74423  1.0000
  S   S15       1.0  0.45817  0.01966  0.69216  1.0000
  H   H55       1.0  0.14926  0.11603  0.75587  1.0000
  S   S16       1.0  0.06227  0.16287  0.88490  1.0000
  H   H56       1.0  0.29388  0.14936  0.94308  1.0000
  C   C46       1.0  0.31326  0.17598  0.01648  1.0000
  H   H57       1.0  0.12275  0.01937  0.66610  1.0000
  C   C47       1.0  0.31489  0.14950  0.98343  1.0000
  Fe  Fe8       1.0  0.39439  0.03261  0.72360  1.0000
  H   H58       1.0  0.16207  0.28262  0.54860  1.0000
  C   C48       1.0  0.03110  0.21444  0.93487  1.0000
  C   C49       1.0  0.19833  0.23368  0.65491  1.0000
  S   S17       1.0  0.27712  0.20978  0.99446  1.0000
  C   C50       1.0  0.08404  0.31886  0.77756  1.0000
  C   C51       1.0  0.44386  0.03429  0.96992  1.0000
  H   H59       1.0  0.27314  0.32461  0.76983  1.0000
  C   C52       1.0  0.24292  0.30797  0.61787  1.0000
  C   C53       1.0  0.20374  0.12388  0.01086  1.0000
  H   H60       1.0  0.23398  0.22675  0.64975  1.0000
  H   H61       1.0  0.34520  0.10282  0.97661  1.0000
  C   C54       1.0  0.13731  0.27399  0.64062  1.0000
  H   H62       1.0  0.13580  0.12459  0.95993  1.0000
  H   H63       1.0  0.01928  0.04298  0.77444  1.0000
  N   N3        1.0  0.18329  0.26496  0.62913  1.0000
  C   C55       1.0  0.06175  0.33118  0.72752  1.0000
  C   C56       1.0  0.04726  0.09087  0.78415  1.0000
  H   H64       1.0  0.08802  0.09716  0.89432  1.0000
  H   H65       1.0  0.08383  0.13607  0.79084  1.0000
  C   C57       1.0  0.17560  0.26031  0.57063  1.0000
  C   C58       1.0  0.07818  0.07977  0.92257  1.0000
  C   C59       1.0  0.21900  0.28990  0.65054  1.0000
  H   H66       1.0  0.17355  0.21385  0.63831  1.0000
  C   C60       1.0  0.40048  0.16824  0.91074  1.0000
  H   H67       1.0  0.20860  0.25279  0.55905  1.0000
  H   H68       1.0  0.12574  0.29802  0.62381  1.0000
  N   N4        1.0  0.11794  0.05797  0.94525  1.0000
  C   C61       1.0  0.15968  0.07481  0.97745  1.0000
  C   C62       1.0  0.04780  0.05871  0.76941  1.0000
  H   H69       1.0  0.42351  0.05472  0.97834  1.0000
  C   C63       1.0  0.16342  0.10889  0.98058  1.0000
  C   C64       1.0  0.34414  0.12313  0.00253  1.0000
  H   H70       1.0  0.08274  0.02160  0.73776  1.0000
  C   C65       1.0  0.26459  0.32008  0.72728  1.0000
  C   C66       1.0  0.40279  0.19097  0.95089  1.0000
  C   C67       1.0  0.23090  0.29675  0.70593  1.0000
  C   C68       1.0  0.43913  0.18984  0.99673  1.0000
  H   H71       1.0  0.21428  0.28398  0.73331  1.0000
  H   H72       1.0  0.37566  0.20925  0.94691  1.0000
  C   C69       1.0  0.46711  0.01461  0.01154  1.0000
  H   H73       1.0  0.19484  0.06762  0.65372  1.0000
  H   H74       1.0  0.06605  0.09338  0.95422  1.0000
  C   C70       1.0  0.27680  0.33106  0.63968  1.0000
  H   H75       1.0  0.37210  0.16917  0.87537  1.0000
  H   H76       1.0  0.14540  0.05820  0.87449  1.0000
  C   C71       1.0  0.00140  0.22855  0.96456  1.0000
  H   H77       1.0  0.19996  0.23396  0.69841  1.0000
  H   H78       1.0  0.06763  0.02195  0.95533  1.0000
  C   C72       1.0  0.09996  0.03398  0.97833  1.0000
  H   H79       1.0  0.20393  0.04230  0.79467  1.0000
  C   C73       1.0  0.47440  0.16570  0.00387  1.0000
  C   C74       1.0  0.43436  0.14415  0.91637  1.0000
  C   C75       1.0  0.44661  0.02784  0.91767  1.0000
  H   H80       1.0  0.18553  0.01411  0.68100  1.0000
  H   H81       1.0  0.15903  0.02256  0.91410  1.0000
  H   H82       1.0  0.09079  0.04546  0.01366  1.0000
  C   C76       1.0  0.47082  0.14270  0.96221  1.0000
  H   H83       1.0  0.42848  0.04316  0.88552  1.0000
  C   C77       1.0  0.02395  0.34450  0.81522  1.0000
  C   C78       1.0  0.15542  0.02210  0.69799  1.0000
  C   C79       1.0  0.19903  0.05700  0.00562  1.0000
  H   H84       1.0  0.49556  0.12327  0.96394  1.0000
  H   H85       1.0  0.29528  0.34397  0.61405  1.0000
  C   C80       1.0  0.02247  0.34466  0.56182  1.0000
  H   H86       1.0  0.19952  0.03108  0.00362  1.0000
  H   H87       1.0  0.43906  0.20797  0.02674  1.0000
  H   H88       1.0  0.41917  0.07134  0.52750  1.0000
  S   S18       1.0  0.19327  0.39962  0.48057  1.0000
  Fe  Fe9       1.0  0.17228  0.40422  0.39212  1.0000
  S   S19       1.0  0.16564  0.45346  0.35477  1.0000
  Fe  Fe10      1.0  0.39467  0.57693  0.19334  1.0000
  S   S20       1.0  0.44331  0.54853  0.25720  1.0000
  C   C81       1.0  0.45978  0.38015  0.41872  1.0000
  Fe  Fe11      1.0  0.34872  0.61059  0.27437  1.0000
  S   S21       1.0  0.39419  0.58574  0.34426  1.0000
  S   S22       1.0  0.29470  0.64772  0.28471  1.0000
  Fe  Fe12      1.0  0.45408  0.59451  0.30480  1.0000
  H   H89       1.0  0.28863  0.56012  0.37712  1.0000
  Fe  Fe13      1.0  0.38046  0.54178  0.29317  1.0000
  S   S23       1.0  0.37020  0.49690  0.33779  1.0000
  S   S24       1.0  0.40999  0.62375  0.23841  1.0000
  S   S25       1.0  0.33028  0.56577  0.22583  1.0000
  H   H90       1.0  0.42856  0.37247  0.38747  1.0000
  Fe  Fe14      1.0  0.03650  0.63668  0.33847  1.0000
  S   S26       1.0  0.09965  0.60500  0.33543  1.0000
  H   H91       1.0  0.41287  0.43198  0.37119  1.0000
  C   C82       1.0  0.24039  0.63563  0.29826  1.0000
  C   C83       1.0  0.20785  0.65905  0.30585  1.0000
  C   C84       1.0  0.16443  0.65012  0.31715  1.0000
  C   C85       1.0  0.15356  0.61765  0.32146  1.0000
  C   C86       1.0  0.18634  0.59424  0.31436  1.0000
  C   C87       1.0  0.22932  0.60317  0.30212  1.0000
  H   H92       1.0  0.32067  0.62655  0.46998  1.0000
  N   N5        1.0  0.45075  0.41062  0.44477  1.0000
  H   H93       1.0  0.17798  0.56904  0.31708  1.0000
  H   H94       1.0  0.25357  0.58497  0.29492  1.0000
  C   C88       1.0  0.31266  0.48661  0.34248  1.0000
  C   C89       1.0  0.30711  0.46298  0.37904  1.0000
  C   C90       1.0  0.26206  0.45351  0.38373  1.0000
  C   C91       1.0  0.22203  0.46749  0.35159  1.0000
  C   C92       1.0  0.22737  0.49220  0.31644  1.0000
  C   C93       1.0  0.27274  0.50169  0.31169  1.0000
  H   H95       1.0  0.33771  0.45177  0.40362  1.0000
  H   H96       1.0  0.25840  0.43517  0.41213  1.0000
  H   H97       1.0  0.19649  0.50328  0.29174  1.0000
  H   H98       1.0  0.27672  0.52015  0.28360  1.0000
  C   C94       1.0  0.04656  0.34960  0.52133  1.0000
  H   H99       1.0  0.47482  0.43995  0.38680  1.0000
  H   H100      1.0  0.28629  0.52108  0.51037  1.0000
  S   S27       1.0  0.22796  0.37098  0.37637  1.0000
  S   S28       1.0  0.38357  0.57748  0.10231  1.0000
  H   H101      1.0  0.23376  0.59259  0.42188  1.0000
  H   H102      1.0  0.13948  0.66833  0.32265  1.0000
  H   H103      1.0  0.02726  0.55258  0.43299  1.0000
  H   H104      1.0  0.39449  0.42863  0.47923  1.0000
  S   S29       1.0  0.32145  0.36798  0.51655  1.0000
  C   C95       1.0  0.48939  0.55031  0.48019  1.0000
  H   H105      1.0  0.16219  0.53847  0.17612  1.0000
  H   H106      1.0  0.08995  0.41317  0.48398  1.0000
  H   H107      1.0  0.04004  0.36307  0.43940  1.0000
  C   C96       1.0  0.44917  0.53102  0.46537  1.0000
  H   H108      1.0  0.11105  0.53477  0.45090  1.0000
  C   C97       1.0  0.32958  0.56420  0.51165  1.0000
  C   C98       1.0  0.04405  0.49675  0.34329  1.0000
  Fe  Fe15      1.0  0.24664  0.36451  0.46537  1.0000
  H   H109      1.0  0.25099  0.59910  0.49244  1.0000
  H   H110      1.0  0.10070  0.45426  0.42044  1.0000
  C   C99       1.0  0.32331  0.60641  0.44238  1.0000
  H   H111      1.0  0.42860  0.53161  0.42472  1.0000
  C   C100      1.0  0.27743  0.64039  0.14447  1.0000
  N   N6        1.0  0.05337  0.51145  0.39713  1.0000
  C   C101      1.0  0.25374  0.58203  0.46000  1.0000
  C   C102      1.0  0.10253  0.52375  0.41053  1.0000
  H   H112      1.0  0.28652  0.52902  0.42341  1.0000
  H   H113      1.0  0.28659  0.58035  0.11351  1.0000
  C   C103      1.0  0.46126  0.54547  0.08018  1.0000
  H   H114      1.0  0.29559  0.62535  0.17838  1.0000
  H   H115      1.0  0.12192  0.63511  0.20073  1.0000
  C   C104      1.0  0.40585  0.40625  0.46221  1.0000
  H   H116      1.0  0.06961  0.47745  0.34014  1.0000
  C   C105      1.0  0.44382  0.43670  0.40475  1.0000
  H   H117      1.0  0.37608  0.39917  0.42870  1.0000
  H   H118      1.0  0.10833  0.54236  0.38167  1.0000
  C   C106      1.0  0.43556  0.51099  0.50244  1.0000
  C   C107      1.0  0.17746  0.62997  0.15826  1.0000
  C   C108      1.0  0.00812  0.46628  0.50509  1.0000
  H   H119      1.0  0.26262  0.66126  0.16210  1.0000
  H   H120      1.0  0.40396  0.49640  0.49088  1.0000
  C   C109      1.0  0.13735  0.58556  0.18958  1.0000
  C   C110      1.0  0.06900  0.43488  0.48007  1.0000
  H   H121      1.0  0.47445  0.54352  0.12277  1.0000
  C   C111      1.0  0.30545  0.55150  0.41772  1.0000
  S   S30       1.0  0.11599  0.36614  0.38352  1.0000
  C   C112      1.0  0.26500  0.59627  0.08290  1.0000
  C   C113      1.0  0.21665  0.64305  0.06373  1.0000
  H   H122      1.0  0.30509  0.64970  0.12477  1.0000
  C   C114      1.0  0.02167  0.35910  0.47078  1.0000
  H   H123      1.0  0.43745  0.46010  0.42270  1.0000
  C   C115      1.0  0.41804  0.56057  0.06006  1.0000
  H   H124      1.0  0.36078  0.60359  0.44004  1.0000
  Fe  Fe16      1.0  0.14448  0.35735  0.47072  1.0000
  H   H125      1.0  0.30384  0.61428  0.40204  1.0000
  N   N7        1.0  0.30379  0.57605  0.45897  1.0000
  H   H126      1.0  0.12880  0.50460  0.40941  1.0000
  C   C116      1.0  0.14322  0.61845  0.18385  1.0000
  C   C117      1.0  0.20003  0.57527  0.14393  1.0000
  C   C118      1.0  0.16604  0.56404  0.17024  1.0000
  H   H127      1.0  0.04690  0.51477  0.31225  1.0000
  H   H128      1.0  0.34243  0.54493  0.41747  1.0000
  N   N8        1.0  0.24078  0.62161  0.10734  1.0000
  C   C119      1.0  0.02142  0.53955  0.39433  1.0000
  H   H129      1.0  0.40894  0.38675  0.49227  1.0000
  C   C120      1.0  0.07476  0.45856  0.44364  1.0000
  H   H130      1.0  0.23474  0.55966  0.46607  1.0000
  C   C121      1.0  0.04715  0.48698  0.43672  1.0000
  H   H131      1.0  0.48066  0.66334  0.36569  1.0000
  C   C122      1.0  0.20621  0.60874  0.13633  1.0000
  H   H132      1.0  0.29033  0.60660  0.06077  1.0000
  H   H133      1.0  0.11145  0.57687  0.21062  1.0000
  H   H134      1.0  0.18165  0.65570  0.15650  1.0000
  S   S31       1.0  0.00766  0.63023  0.41166  1.0000
  C   C123      1.0  0.48759  0.53287  0.04510  1.0000
  H   H135      1.0  0.22122  0.55724  0.13036  1.0000
  H   H136      1.0  0.20229  0.66497  0.07886  1.0000
  C   C124      1.0  0.01384  0.49025  0.46904  1.0000
  H   H137      1.0  0.46805  0.36032  0.44833  1.0000
  H   H138      1.0  0.18681  0.63032  0.03680  1.0000
  C   C125      1.0  0.49143  0.41854  0.48902  1.0000
  H   H139      1.0  0.00800  0.48609  0.33256  1.0000
  H   H140      1.0  0.23953  0.58122  0.05422  1.0000
  H   H141      1.0  0.48947  0.38215  0.39838  1.0000
  H   H142      1.0  0.02722  0.55753  0.36440  1.0000
  C   C126      1.0  0.03550  0.43865  0.51051  1.0000
  H   H143      1.0  0.24121  0.65163  0.03923  1.0000
  C   C127      1.0  0.02076  0.35010  0.72126  1.0000
  H   H144      1.0  0.28366  0.44970  0.63869  1.0000
  S   S32       1.0  0.10805  0.34543  0.53621  1.0000
  C   C128      1.0  0.36860  0.58086  0.54384  1.0000
  C   C129      1.0  0.46250  0.50990  0.55442  1.0000
  C   C130      1.0  0.39153  0.56913  0.59381  1.0000
  Fe  Fe17      1.0  0.44253  0.48639  0.74987  1.0000
  C   C131      1.0  0.33518  0.39585  0.57009  1.0000
  H   H145      1.0  0.26391  0.41098  0.56469  1.0000
  H   H146      1.0  0.14372  0.40638  0.58667  1.0000
  H   H147      1.0  0.00872  0.46938  0.70282  1.0000
  C   C132      1.0  0.40164  0.56285  0.00442  1.0000
  H   H148      1.0  0.32734  0.50156  0.59795  1.0000
  C   C133      1.0  0.30000  0.41400  0.58511  1.0000
  C   C134      1.0  0.00190  0.35713  0.76529  1.0000
  H   H149      1.0  0.17922  0.35470  0.66073  1.0000
  C   C135      1.0  0.09898  0.44797  0.64596  1.0000
  H   H150      1.0  0.15082  0.36025  0.71403  1.0000
  C   C136      1.0  0.42790  0.55012  0.96930  1.0000
  C   C137      1.0  0.05969  0.46470  0.65453  1.0000
  C   C138      1.0  0.37655  0.54069  0.61317  1.0000
  H   H151      1.0  0.36829  0.57446  0.98831  1.0000
  H   H152      1.0  0.41475  0.55206  0.92672  1.0000
  C   C139      1.0  0.35825  0.44041  0.65505  1.0000
  C   C140      1.0  0.31135  0.43591  0.62746  1.0000
  H   H153      1.0  0.18604  0.43639  0.61898  1.0000
  H   H154      1.0  0.04417  0.48389  0.62784  1.0000
  C   C141      1.0  0.39378  0.42216  0.64068  1.0000
  H   H155      1.0  0.11734  0.36292  0.64634  1.0000
  C   C142      1.0  0.03966  0.45665  0.69697  1.0000
  H   H156      1.0  0.04256  0.42530  0.76367  1.0000
  C   C143      1.0  0.09837  0.41518  0.72336  1.0000
  H   H157      1.0  0.23443  0.39926  0.71132  1.0000
  H   H158      1.0  0.19595  0.40562  0.75565  1.0000
  H   H159      1.0  0.00410  0.35954  0.68255  1.0000
  H   H160      1.0  0.20353  0.39575  0.61488  1.0000
  S   S33       1.0  0.44382  0.53489  0.78939  1.0000
  H   H161      1.0  0.39418  0.53180  0.65214  1.0000
  H   H162      1.0  0.11248  0.45545  0.61222  1.0000
  H   H163      1.0  0.20997  0.43840  0.71684  1.0000
  C   C144      1.0  0.17392  0.41116  0.62096  1.0000
  C   C145      1.0  0.38207  0.39956  0.59886  1.0000
  H   H164      1.0  0.11207  0.39635  0.75140  1.0000
  H   H165      1.0  0.42105  0.58222  0.61798  1.0000
  C   C146      1.0  0.33880  0.52366  0.58247  1.0000
  H   H166      1.0  0.42999  0.42498  0.66247  1.0000
  S   S34       1.0  0.36979  0.46892  0.70719  1.0000
  H   H167      1.0  0.31438  0.35487  0.71078  1.0000
  C   C147      1.0  0.05885  0.43188  0.73121  1.0000
  C   C148      1.0  0.47108  0.53497  0.98949  1.0000
  N   N9        1.0  0.16096  0.40415  0.67234  1.0000
  H   H168      1.0  0.40939  0.38470  0.58918  1.0000
  C   C149      1.0  0.20209  0.41217  0.71592  1.0000
  C   C150      1.0  0.15165  0.36909  0.67358  1.0000
  C   C151      1.0  0.11930  0.42238  0.68001  1.0000
  H   H169      1.0  0.45165  0.49445  0.58338  1.0000
  C   C152      1.0  0.48671  0.42465  0.54190  1.0000
  H   H170      1.0  0.45297  0.42506  0.55250  1.0000
  H   H171      1.0  0.03032  0.42000  0.53799  1.0000
  C   C153      1.0  0.31557  0.53512  0.53248  1.0000
  H   H172      1.0  0.01017  0.35016  0.84970  1.0000
  S   S35       1.0  0.49203  0.46421  0.82044  1.0000
  H   H173      1.0  0.38205  0.60309  0.53160  1.0000
  S   S36       1.0  0.01947  0.68967  0.33203  1.0000
  H   H174      1.0  0.45143  0.99151  0.43640  1.0000
  H   H175      1.0  0.21621  0.68422  0.30289  1.0000
  H   H176      1.0  0.47292  0.97368  0.09886  1.0000
  H   H177      1.0  0.46292  0.93068  0.02756  1.0000
  H   H178      1.0  0.30570  0.85123  0.70794  1.0000
  S   S37       1.0  0.03965  0.89724  0.82825  1.0000
  Fe  Fe18      1.0  0.44838  0.97034  0.72286  1.0000
  S   S38       1.0  0.39956  0.95455  0.64722  1.0000
  H   H179      1.0  0.36926  0.82102  0.80067  1.0000
  H   H180      1.0  0.36747  0.93248  0.95742  1.0000
  H   H181      1.0  0.32941  0.93023  0.78790  1.0000
  Fe  Fe19      1.0  0.34092  0.97306  0.68236  1.0000
  S   S39       1.0  0.27378  0.94418  0.67574  1.0000
  S   S40       1.0  0.01476  0.96844  0.77344  1.0000
  S   S41       1.0  0.38945  0.98437  0.76087  1.0000
  S   S42       1.0  0.04328  0.96026  0.90379  1.0000
  Fe  Fe20      1.0  0.07346  0.94624  0.83434  1.0000
  S   S43       1.0  0.14925  0.96344  0.84612  1.0000
  H   H182      1.0  0.29290  0.84913  0.77316  1.0000
  H   H183      1.0  0.39738  0.84823  0.87718  1.0000
  H   H184      1.0  0.33317  0.95862  0.87136  1.0000
  H   H185      1.0  0.23846  0.98923  0.83875  1.0000
  H   H186      1.0  0.39880  0.87713  0.95903  1.0000
  H   H187      1.0  0.45745  0.92528  0.83117  1.0000
  C   C154      1.0  0.23884  0.95028  0.72263  1.0000
  C   C155      1.0  0.19609  0.93346  0.71697  1.0000
  C   C156      1.0  0.16822  0.93709  0.75465  1.0000
  C   C157      1.0  0.18354  0.95707  0.79883  1.0000
  C   C158      1.0  0.22648  0.97368  0.80469  1.0000
  C   C159      1.0  0.25359  0.97081  0.76623  1.0000
  H   H188      1.0  0.18437  0.91765  0.68319  1.0000
  H   H189      1.0  0.13505  0.92433  0.74965  1.0000
  H   H190      1.0  0.28973  0.88652  0.73864  1.0000
  H   H191      1.0  0.28620  0.98414  0.77073  1.0000
  C   C160      1.0  0.38402  0.88861  0.92124  1.0000
  N   N10       1.0  0.36056  0.86983  0.77195  1.0000
  C   C161      1.0  0.38130  0.88988  0.73538  1.0000
  C   C162      1.0  0.38547  0.83849  0.77742  1.0000
  C   C163      1.0  0.31017  0.86382  0.74690  1.0000
  C   C164      1.0  0.36387  0.88666  0.82336  1.0000
  C   C165      1.0  0.38290  0.87216  0.87354  1.0000
  C   C166      1.0  0.34567  0.91814  0.82432  1.0000
  H   H192      1.0  0.47745  0.89373  0.91500  1.0000
  C   C167      1.0  0.34738  0.93450  0.87206  1.0000
  C   C168      1.0  0.36657  0.91978  0.92048  1.0000
  H   H193      1.0  0.41858  0.89644  0.75349  1.0000
  H   H194      1.0  0.38074  0.87739  0.69704  1.0000
  H   H195      1.0  0.36147  0.91246  0.72401  1.0000
  H   H196      1.0  0.42355  0.84155  0.79690  1.0000
  H   H197      1.0  0.38384  0.82703  0.73797  1.0000
  H   H198      1.0  0.47533  0.99705  0.86607  1.0000
  H   H199      1.0  0.47602  0.94562  0.58416  1.0000
  Fe  Fe21      1.0  0.40621  0.00475  0.61724  1.0000
  C   C169      1.0  0.49284  0.91630  0.84560  1.0000
  H   H200      1.0  0.01081  0.77775  0.79044  1.0000
  S   S44       1.0  0.42504  0.00073  0.53584  1.0000
  C   C170      1.0  0.49389  0.98758  0.00174  1.0000
  H   H201      1.0  0.15371  0.00494  0.73030  1.0000
  Fe  Fe22      1.0  0.00302  0.91406  0.89102  1.0000
  C   C171      1.0  0.47293  0.00181  0.90679  1.0000
  H   H202      1.0  0.01603  0.78408  0.85981  1.0000
  Fe  Fe23      1.0  0.55485  0.11193  0.21757  1.0000
  S   S45       1.0  0.53358  0.07478  0.15382  1.0000
  S   S46       1.0  0.61095  0.14936  0.21430  1.0000
  N   N11       1.0  0.81871  0.03262  0.04085  1.0000
  H   H203      1.0  0.83294  0.28311  0.33196  1.0000
  Fe  Fe24      1.0  0.53346  0.04124  0.22144  1.0000
  C   C172      1.0  0.77462  0.07967  0.27356  1.0000
  S   S47       1.0  0.56015  0.07743  0.28547  1.0000
  C   C173      1.0  0.80798  0.04361  0.21840  1.0000
  Fe  Fe25      1.0  0.95364  0.12211  0.11550  1.0000
  S   S48       1.0  0.88918  0.13980  0.05871  1.0000
  H   H204      1.0  0.83310  0.03911  0.19402  1.0000
  S   S49       1.0  0.88312  0.19674  0.14509  1.0000
  Fe  Fe26      1.0  0.85841  0.14528  0.13067  1.0000
  S   S50       1.0  0.79022  0.11683  0.12168  1.0000
  Fe  Fe27      1.0  0.92039  0.18882  0.07862  1.0000
  S   S51       1.0  0.92200  0.12521  0.18711  1.0000
  H   H205      1.0  0.84812  0.27448  0.27020  1.0000
  C   C174      1.0  0.66063  0.14013  0.18829  1.0000
  C   C175      1.0  0.66358  0.11118  0.16167  1.0000
  C   C176      1.0  0.70368  0.10442  0.14182  1.0000
  C   C177      1.0  0.74117  0.12649  0.14833  1.0000
  C   C178      1.0  0.73845  0.15534  0.17524  1.0000
  C   C179      1.0  0.69817  0.16216  0.19497  1.0000
  H   H206      1.0  0.63506  0.09396  0.15638  1.0000
  H   H207      1.0  0.70571  0.08194  0.12136  1.0000
  H   H208      1.0  0.76713  0.17249  0.18037  1.0000
  H   H209      1.0  0.69613  0.18460  0.21555  1.0000
  N   N12       1.0  0.90787  0.28362  0.33577  1.0000
  H   H210      1.0  0.65714  0.09736  0.32593  1.0000
  H   H211      1.0  0.85634  0.06536  0.10097  1.0000
  C   C180      1.0  0.93677  0.28013  0.25103  1.0000
  H   H212      1.0  0.88249  0.02611  0.10130  1.0000
  N   N13       1.0  0.71006  0.06246  0.31817  1.0000
  C   C181      1.0  0.54078  0.19571  0.05547  1.0000
  H   H213      1.0  0.89047  0.29275  0.41190  1.0000
  H   H214      1.0  0.52783  0.11480  0.05329  1.0000
  H   H215      1.0  0.62001  0.02998  0.16938  1.0000
  C   C182      1.0  0.91431  0.24883  0.34743  1.0000
  H   H216      1.0  0.83052  0.09242  0.23489  1.0000
  H   H217      1.0  0.71521  0.07323  0.40121  1.0000
  H   H218      1.0  0.65759  0.08617  0.25887  1.0000
  C   C183      1.0  0.85834  0.28924  0.30699  1.0000
  H   H219      1.0  0.77805  0.04622  0.09798  1.0000
  C   C184      1.0  0.94032  0.29398  0.30217  1.0000
  H   H220      1.0  0.57440  0.13857  0.09201  1.0000
  C   C185      1.0  0.78608  0.02472  0.07581  1.0000
  C   C186      1.0  0.54640  0.13831  0.05447  1.0000
  C   C187      1.0  0.91536  0.30091  0.38751  1.0000
  C   C188      1.0  0.80677  0.07359  0.24191  1.0000
  H   H221      1.0  0.57118  0.19590  0.09074  1.0000
  H   H222      1.0  0.89184  0.24023  0.37423  1.0000
  C   C189      1.0  0.68054  0.09087  0.29887  1.0000
  C   C190      1.0  0.73819  0.06932  0.37258  1.0000
  S   S52       1.0  0.98752  0.07579  0.09753  1.0000
  N   N14       1.0  0.51310  0.16553  0.05243  1.0000
  H   H223      1.0  0.91146  0.26135  0.23623  1.0000
  H   H224      1.0  0.88744  0.05494  0.05159  1.0000
  H   H225      1.0  0.76013  0.09134  0.37391  1.0000
  H   H226      1.0  0.85280  0.31492  0.29519  1.0000
  H   H227      1.0  0.70141  0.11282  0.29560  1.0000
  H   H228      1.0  0.77530  0.10337  0.29083  1.0000
  H   H229      1.0  0.65473  0.02932  0.28229  1.0000
  C   C191      1.0  0.74238  0.05576  0.28256  1.0000
  Fe  Fe28      1.0  0.94974  0.17609  0.19602  1.0000
  H   H230      1.0  0.51926  0.21723  0.05930  1.0000
  H   H231      1.0  0.96450  0.27759  0.18041  1.0000
  C   C192      1.0  0.86304  0.04521  0.07517  1.0000
  C   C193      1.0  0.74433  0.02542  0.25763  1.0000
  C   C194      1.0  0.67746  0.03544  0.32195  1.0000
  H   H232      1.0  0.65284  0.04151  0.34790  1.0000
  H   H233      1.0  0.52151  0.16296  0.13766  1.0000
  H   H234      1.0  0.90537  0.23376  0.31085  1.0000
  H   H235      1.0  0.69684  0.01351  0.33900  1.0000
  H   H236      1.0  0.95153  0.29696  0.41231  1.0000
  S   S53       1.0  0.98159  0.19954  0.27599  1.0000
  H   H237      1.0  0.95166  0.24342  0.36678  1.0000
  C   C195      1.0  0.97663  0.06283  0.03071  1.0000
  H   H238      1.0  0.76240  0.04904  0.38768  1.0000
  S   S54       1.0  0.98790  0.17068  0.13012  1.0000
  H   H239      1.0  0.90935  0.32718  0.38163  1.0000
  C   C196      1.0  0.97621  0.31752  0.31882  1.0000
  C   C197      1.0  0.77675  0.01962  0.22606  1.0000
  H   H240      1.0  0.68446  0.01423  0.12546  1.0000
  H   H241      1.0  0.75164  0.01546  0.05248  1.0000
  C   C198      1.0  0.96708  0.28925  0.21862  1.0000
  H   H242      1.0  0.98221  0.32917  0.35717  1.0000
  C   C199      1.0  0.96225  0.04149  0.92433  1.0000
  C   C200      1.0  0.95140  0.07311  0.93577  1.0000
  H   H243      1.0  0.93628  0.22603  0.85911  1.0000
  H   H244      1.0  0.93805  0.08958  0.90350  1.0000
  H   H245      1.0  0.83320  0.27488  0.78467  1.0000
  C   C201      1.0  0.96738  0.20984  0.98137  1.0000
  C   C202      1.0  0.97867  0.02025  0.96638  1.0000
  C   C203      1.0  0.94477  0.23960  0.82685  1.0000
  H   H246      1.0  0.93568  0.16315  0.97939  1.0000
  H   H247      1.0  0.86597  0.24622  0.87187  1.0000
  H   H248      1.0  0.76434  0.04960  0.97583  1.0000
  H   H249      1.0  0.95034  0.10814  0.99720  1.0000
  C   C204      1.0  0.88453  0.26900  0.88653  1.0000
  C   C205      1.0  0.91972  0.31805  0.86590  1.0000
  C   C206      1.0  0.85089  0.29662  0.80533  1.0000
  H   H250      1.0  0.95521  0.31283  0.89143  1.0000
  H   H251      1.0  0.89889  0.33087  0.89075  1.0000
  H   H252      1.0  0.82596  0.30835  0.82645  1.0000
  H   H253      1.0  0.92477  0.33545  0.83496  1.0000
  H   H254      1.0  0.86109  0.28234  0.90769  1.0000
  C   C207      1.0  0.94067  0.28604  0.76961  1.0000
  C   C208      1.0  0.92692  0.27099  0.81310  1.0000
  C   C209      1.0  0.95832  0.08369  0.98879  1.0000
  N   N15       1.0  0.89603  0.28809  0.84244  1.0000
  H   H255      1.0  0.92858  0.30989  0.75680  1.0000
  H   H256      1.0  0.87435  0.03190  0.96772  1.0000
  H   H257      1.0  0.91681  0.26313  0.91737  1.0000
  S   S55       1.0  0.95641  0.02959  0.85738  1.0000
  H   H258      1.0  0.98189  0.28340  0.71010  1.0000
  C   C210      1.0  0.96264  0.17738  0.96774  1.0000
  H   H259      1.0  0.85594  0.31391  0.77420  1.0000
  C   C211      1.0  0.97123  0.27104  0.74247  1.0000
  C   C212      1.0  0.97523  0.22478  0.79927  1.0000
  H   H260      1.0  0.82076  0.06857  0.98070  1.0000
  S   S56       1.0  0.93097  0.22656  0.01986  1.0000
  C   C213      1.0  0.79649  0.05854  0.00426  1.0000
  C   C214      1.0  0.98874  0.24055  0.75751  1.0000
  C   C215      1.0  0.98646  0.03100  0.01934  1.0000
  H   H261      1.0  0.55505  0.19891  0.01921  1.0000
  H   H262      1.0  0.56489  0.13934  0.02116  1.0000
  H   H263      1.0  0.98784  0.13830  0.92716  1.0000
  H   H264      1.0  0.98893  0.20100  0.81083  1.0000
  H   H265      1.0  0.78600  0.07927  0.02639  1.0000
  C   C216      1.0  0.99190  0.16342  0.93787  1.0000
  H   H266      1.0  0.95410  0.37361  0.42312  1.0000
  C   C217      1.0  0.90231  0.51375  0.49169  1.0000
  Fe  Fe29      1.0  0.93931  0.61895  0.35526  1.0000
  S   S57       1.0  0.89604  0.57620  0.36989  1.0000
  H   H267      1.0  0.52795  0.61103  0.50071  1.0000
  H   H268      1.0  0.80565  0.56933  0.50849  1.0000
  S   S58       1.0  0.96863  0.62241  0.28205  1.0000
  C   C218      1.0  0.87734  0.66104  0.50599  1.0000
  H   H269      1.0  0.93337  0.65451  0.46526  1.0000
  H   H270      1.0  0.77820  0.65673  0.43562  1.0000
  H   H271      1.0  0.62524  0.57877  0.52222  1.0000
  S   S59       1.0  0.91294  0.66971  0.34796  1.0000
  C   C219      1.0  0.58851  0.63719  0.43204  1.0000
  H   H272      1.0  0.95147  0.59841  0.47265  1.0000
  H   H273      1.0  0.61167  0.61674  0.43430  1.0000
  H   H274      1.0  0.76644  0.66050  0.24097  1.0000
  C   C220      1.0  0.93793  0.57477  0.47750  1.0000
  C   C221      1.0  0.90930  0.55896  0.43402  1.0000
  C   C222      1.0  0.89131  0.52848  0.44144  1.0000
  C   C223      1.0  0.80388  0.63952  0.37061  1.0000
  H   H275      1.0  0.74895  0.56239  0.52352  1.0000
  Fe  Fe30      1.0  0.94907  0.67484  0.28062  1.0000
  H   H276      1.0  0.99145  0.51098  0.46685  1.0000
  H   H277      1.0  0.86939  0.51595  0.40797  1.0000
  H   H278      1.0  0.98360  0.53232  0.38225  1.0000
  H   H279      1.0  0.88920  0.48995  0.49626  1.0000
  C   C224      1.0  0.80089  0.64004  0.31598  1.0000
  C   C225      1.0  0.77352  0.65829  0.39296  1.0000
  H   H280      1.0  0.82462  0.62532  0.29908  1.0000
  C   C226      1.0  0.59237  0.56413  0.51128  1.0000
  H   H281      1.0  0.86583  0.63628  0.50059  1.0000
  H   H282      1.0  0.83021  0.62450  0.39581  1.0000
  C   C227      1.0  0.54416  0.63664  0.39656  1.0000
  C   C228      1.0  0.76801  0.65976  0.28340  1.0000
  H   H283      1.0  0.59381  0.60233  0.03418  1.0000
  H   H284      1.0  0.57608  0.57011  0.46912  1.0000
  C   C229      1.0  0.51486  0.66347  0.39307  1.0000
  S   S60       1.0  0.52731  0.60190  0.35763  1.0000
  H   H285      1.0  0.54402  0.41706  0.44053  1.0000
  C   C230      1.0  0.57702  0.42563  0.52171  1.0000
  S   S61       1.0  0.88915  0.36988  0.49247  1.0000
  H   H286      1.0  0.60263  0.53834  0.51247  1.0000
  C   C231      1.0  0.53775  0.42026  0.47994  1.0000
  H   H287      1.0  0.63738  0.66415  0.49145  1.0000
  H   H288      1.0  0.70692  0.66934  0.45323  1.0000
  C   C232      1.0  0.60333  0.66417  0.46427  1.0000
  C   C233      1.0  0.94911  0.36047  0.50240  1.0000
  C   C234      1.0  0.97294  0.36473  0.46140  1.0000
  H   H289      1.0  0.52100  0.52130  0.06124  1.0000
  H   H290      1.0  0.61230  0.42603  0.51428  1.0000
  C   C235      1.0  0.91572  0.67133  0.48594  1.0000
  H   H291      1.0  0.65102  0.66090  0.36443  1.0000
  H   H292      1.0  0.49790  0.56580  0.44996  1.0000
  C   C236      1.0  0.73871  0.67812  0.36067  1.0000
  H   H293      1.0  0.84021  0.51660  0.62189  1.0000
  S   S62       1.0  0.55889  0.52808  0.82223  1.0000
  H   H294      1.0  0.60060  0.54031  0.60936  1.0000
  H   H295      1.0  0.87683  0.57521  0.58375  1.0000
  C   C237      1.0  0.56425  0.60247  0.99826  1.0000
  H   H296      1.0  0.52045  0.61003  0.56792  1.0000
  N   N16       1.0  0.80727  0.56133  0.59164  1.0000
  Fe  Fe31      1.0  0.54969  0.48034  0.78061  1.0000
  S   S63       1.0  0.61310  0.44869  0.78113  1.0000
  H   H297      1.0  0.69662  0.58102  0.73102  1.0000
  S   S64       1.0  0.84720  0.38409  0.63018  1.0000
  Fe  Fe32      1.0  0.91057  0.46439  0.61089  1.0000
  S   S65       1.0  0.84647  0.44668  0.55332  1.0000
  S   S66       1.0  0.94443  0.51211  0.59933  1.0000
  Fe  Fe33      1.0  0.81810  0.43463  0.62508  1.0000
  S   S67       1.0  0.74427  0.45563  0.61488  1.0000
  Fe  Fe34      1.0  0.88146  0.39869  0.56390  1.0000
  S   S68       1.0  0.88110  0.45504  0.68282  1.0000
  C   C238      1.0  0.71845  0.57693  0.70281  1.0000
  H   H298      1.0  0.60187  0.43298  0.60592  1.0000
  C   C239      1.0  0.65078  0.45270  0.73643  1.0000
  C   C240      1.0  0.64090  0.47404  0.69350  1.0000
  C   C241      1.0  0.67043  0.47506  0.65709  1.0000
  C   C242      1.0  0.71028  0.45512  0.66371  1.0000
  C   C243      1.0  0.72091  0.43455  0.70747  1.0000
  C   C244      1.0  0.69106  0.43322  0.74344  1.0000
  H   H299      1.0  0.61000  0.48914  0.68780  1.0000
  H   H300      1.0  0.66208  0.49103  0.62328  1.0000
  H   H301      1.0  0.75142  0.41908  0.71290  1.0000
  H   H302      1.0  0.69893  0.41671  0.77661  1.0000
  C   C245      1.0  0.55780  0.61296  0.71474  1.0000
  C   C246      1.0  0.56093  0.63924  0.68177  1.0000
  H   H303      1.0  0.52206  0.43368  0.62379  1.0000
  C   C247      1.0  0.65503  0.66765  0.89609  1.0000
  C   C248      1.0  0.63712  0.62435  0.76521  1.0000
  C   C249      1.0  0.59624  0.60527  0.75602  1.0000
  C   C250      1.0  0.57128  0.42991  0.57341  1.0000
  S   S69       1.0  0.94839  0.41725  0.61657  1.0000
  H   H304      1.0  0.66680  0.61847  0.79734  1.0000
  H   H305      1.0  0.59445  0.58479  0.78104  1.0000
  C   C251      1.0  0.75966  0.59727  0.63794  1.0000
  H   H306      1.0  0.87097  0.57028  0.65096  1.0000
  C   C252      1.0  0.78401  0.57391  0.53834  1.0000
  C   C253      1.0  0.62840  0.64015  0.90021  1.0000
  C   C254      1.0  0.77665  0.56618  0.62971  1.0000
  C   C255      1.0  0.81848  0.52703  0.58465  1.0000
  C   C256      1.0  0.60893  0.63464  0.94511  1.0000
  H   H307      1.0  0.59316  0.55357  0.95095  1.0000
  H   H308      1.0  0.53120  0.64538  0.64988  1.0000
  C   C257      1.0  0.73504  0.54622  0.69635  1.0000
  C   C258      1.0  0.64010  0.65069  0.73251  1.0000
  S   S70       1.0  0.69098  0.67476  0.74611  1.0000
  C   C259      1.0  0.61179  0.57643  0.94615  1.0000
  H   H309      1.0  0.51761  0.58201  0.90540  1.0000
  H   H310      1.0  0.61969  0.58137  0.61255  1.0000
  C   C260      1.0  0.60224  0.65788  0.69022  1.0000
  Fe  Fe35      1.0  0.91291  0.40550  0.68284  1.0000
  C   C261      1.0  0.54561  0.60463  0.54231  1.0000
  C   C262      1.0  0.73089  0.60242  0.67385  1.0000
  N   N17       1.0  0.58167  0.60490  0.94848  1.0000
  S   S71       1.0  0.95065  0.38107  0.75983  1.0000
  S   S72       1.0  0.50581  0.58986  0.70260  1.0000
  H   H311      1.0  0.52192  0.52716  0.61067  1.0000
  H   H312      1.0  0.97065  0.57267  0.56130  1.0000
  H   H313      1.0  0.71888  0.62645  0.68001  1.0000
  H   H314      1.0  0.84720  0.60521  0.61327  1.0000
  H   H315      1.0  0.62332  0.62296  0.86810  1.0000
  H   H316      1.0  0.95550  0.34665  0.58409  1.0000
  S   S73       1.0  0.80529  0.66838  0.55581  1.0000
  H   H317      1.0  0.77621  0.51649  0.65863  1.0000
  H   H318      1.0  0.72597  0.52642  0.71959  1.0000
  C   C263      1.0  0.58797  0.56552  0.60279  1.0000
  C   C264      1.0  0.54002  0.60347  0.90301  1.0000
  H   H319      1.0  0.76924  0.61798  0.61737  1.0000
  H   H320      1.0  0.62232  0.57427  0.90749  1.0000
  C   C265      1.0  0.76395  0.54080  0.66070  1.0000
  H   H321      1.0  0.51738  0.62504  0.90205  1.0000
  C   C266      1.0  0.85239  0.57881  0.61080  1.0000
  C   C267      1.0  0.61725  0.65866  0.98553  1.0000
  H   H322      1.0  0.54994  0.60174  0.86392  1.0000
  C   C268      1.0  0.97387  0.35013  0.55241  1.0000
  H   H323      1.0  0.56685  0.57141  0.63246  1.0000
  C   C269      1.0  0.52622  0.42998  0.58338  1.0000
  H   H324      1.0  0.60389  0.65672  0.02120  1.0000
  S   S74       1.0  0.50741  0.52006  0.94766  1.0000
  H   H325      1.0  0.53937  0.62220  0.00161  1.0000
  H   H326      1.0  0.78595  0.51225  0.57151  1.0000
  Fe  Fe36      1.0  0.50461  0.54502  0.75147  1.0000
  H   H327      1.0  0.64457  0.57729  0.97824  1.0000
  H   H328      1.0  0.77892  0.60034  0.53848  1.0000
  H   H329      1.0  0.66996  0.67106  0.86147  1.0000
  H   H330      1.0  0.54445  0.57970  0.99972  1.0000
  S   S75       1.0  0.49950  0.49823  0.70721  1.0000
  H   H331      1.0  0.83942  0.52386  0.55402  1.0000
  C   C270      1.0  0.93081  0.52960  0.53527  1.0000
  H   H332      1.0  0.57623  0.62130  0.55432  1.0000
  N   N18       1.0  0.56030  0.57048  0.54743  1.0000
  C   C271      1.0  0.50306  0.52893  0.56964  1.0000
  C   C272      1.0  0.51791  0.54969  0.53275  1.0000
  C   C273      1.0  0.94864  0.56015  0.52789  1.0000
  H   H333      1.0  0.98186  0.46894  0.52866  1.0000
  Fe  Fe37      1.0  0.49740  0.51365  0.85730  1.0000
  H   H334      1.0  0.60430  0.67827  0.66486  1.0000
  H   H335      1.0  0.93558  0.87310  0.03689  1.0000
  S   S76       1.0  0.97879  0.71570  0.46577  1.0000
  N   N19       1.0  0.90318  0.77834  0.35379  1.0000
  C   C274      1.0  0.53032  0.69088  0.42436  1.0000
  C   C275      1.0  0.80986  0.84012  0.29468  1.0000
  H   H336      1.0  0.74676  0.74033  0.38650  1.0000
  S   S77       1.0  0.59415  0.72663  0.49677  1.0000
  H   H337      1.0  0.71207  0.69315  0.27816  1.0000
  Fe  Fe38      1.0  0.71939  0.82931  0.09897  1.0000
  S   S78       1.0  0.77493  0.86458  0.08705  1.0000
  S   S79       1.0  0.73346  0.78989  0.16189  1.0000
  Fe  Fe39      1.0  0.71886  0.90220  0.08458  1.0000
  S   S80       1.0  0.72891  0.95304  0.11664  1.0000
  S   S81       1.0  0.66550  0.86768  0.10306  1.0000
  C   C276      1.0  0.81727  0.84407  0.24360  1.0000
  C   C277      1.0  0.68454  0.96456  0.14919  1.0000
  H   H338      1.0  0.89240  0.73518  0.39587  1.0000
  C   C278      1.0  0.63231  0.00543  0.17165  1.0000
  C   C279      1.0  0.61205  0.98247  0.19934  1.0000
  C   C280      1.0  0.62855  0.95085  0.20248  1.0000
  C   C281      1.0  0.66461  0.94192  0.17749  1.0000
  H   H339      1.0  0.92201  0.74565  0.29696  1.0000
  C   C282      1.0  0.87187  0.75414  0.37048  1.0000
  H   H340      1.0  0.61323  0.93307  0.22416  1.0000
  H   H341      1.0  0.67750  0.91755  0.18096  1.0000
  H   H342      1.0  0.90467  0.80785  0.42346  1.0000
  N   N20       1.0  0.70476  0.69748  0.38248  1.0000
  S   S82       1.0  0.91931  0.70364  0.20548  1.0000
  C   C283      1.0  0.87450  0.80098  0.31554  1.0000
  H   H343      1.0  0.84029  0.70736  0.25809  1.0000
  C   C284      1.0  0.66879  0.99649  0.14685  1.0000
  H   H344      1.0  0.74677  0.70327  0.46247  1.0000
  C   C285      1.0  0.93885  0.76069  0.33178  1.0000
  C   C286      1.0  0.71127  0.69460  0.44109  1.0000
  C   C287      1.0  0.86675  0.72673  0.19335  1.0000
  C   C288      1.0  0.85776  0.74829  0.15037  1.0000
  C   C289      1.0  0.81698  0.76758  0.14005  1.0000
  C   C290      1.0  0.78468  0.76548  0.17270  1.0000
  C   C291      1.0  0.79338  0.74364  0.21536  1.0000
  C   C292      1.0  0.83416  0.72430  0.22559  1.0000
  H   H345      1.0  0.88266  0.75023  0.12507  1.0000
  H   H346      1.0  0.81068  0.78420  0.10702  1.0000
  H   H347      1.0  0.76848  0.74174  0.24062  1.0000
  H   H348      1.0  0.95995  0.74404  0.36155  1.0000
  H   H349      1.0  0.78163  0.85319  0.30632  1.0000
  C   C293      1.0  0.70992  0.73196  0.37036  1.0000
  H   H350      1.0  0.64633  0.69117  0.31417  1.0000
  C   C294      1.0  0.50184  0.93241  0.03286  1.0000
  H   H351      1.0  0.90725  0.79263  0.24762  1.0000
  C   C295      1.0  0.90847  0.72469  0.52038  1.0000
  H   H352      1.0  0.62927  0.70019  0.37473  1.0000
  H   H353      1.0  0.83101  0.81678  0.36948  1.0000
  Fe  Fe40      1.0  0.98372  0.68133  0.39977  1.0000
  S   S83       1.0  0.56542  0.99186  0.22970  1.0000
  H   H354      1.0  0.96459  0.77727  0.31972  1.0000
  C   C296      1.0  0.85312  0.82715  0.22807  1.0000
  C   C297      1.0  0.73724  0.67849  0.30522  1.0000
  C   C298      1.0  0.88126  0.80571  0.26314  1.0000
  C   C299      1.0  0.83813  0.81906  0.33034  1.0000
  C   C300      1.0  0.57462  0.69134  0.46006  1.0000
  H   H355      1.0  0.84937  0.74195  0.33535  1.0000
  C   C301      1.0  0.57009  0.96696  0.04757  1.0000
  H   H356      1.0  0.85809  0.82984  0.18787  1.0000
  N   N21       1.0  0.51858  0.96590  0.04452  1.0000
  H   H357      1.0  0.52899  0.95714  0.12900  1.0000
  C   C302      1.0  0.93164  0.70304  0.49326  1.0000
  C   C303      1.0  0.92884  0.79617  0.40151  1.0000
  H   H358      1.0  0.79461  0.85982  0.21556  1.0000
  H   H359      1.0  0.84838  0.76479  0.39428  1.0000
  H   H360      1.0  0.78925  0.96771  0.04132  1.0000
  H   H361      1.0  0.70103  0.73692  0.32690  1.0000
  H   H362      1.0  0.51853  0.91562  0.06528  1.0000
  H   H363      1.0  0.68605  0.74730  0.38808  1.0000
  H   H364      1.0  0.72113  0.00573  0.26158  1.0000
  H   H365      1.0  0.95190  0.77995  0.43053  1.0000
  H   H366      1.0  0.68480  0.70906  0.45615  1.0000
  H   H367      1.0  0.58411  0.99186  0.05499  1.0000
  C   C304      1.0  0.51096  0.97430  0.09794  1.0000
  H   H368      1.0  0.50790  0.71184  0.42075  1.0000
  C   C305      1.0  0.65588  0.68702  0.35783  1.0000
  H   H369      1.0  0.58990  0.95152  0.08029  1.0000
  H   H370      1.0  0.77746  0.99633  0.20723  1.0000
  H   H371      1.0  0.95176  0.81519  0.39037  1.0000
  H   H372      1.0  0.52546  0.99849  0.11115  1.0000
  H   H373      1.0  0.54533  0.94291  0.51522  1.0000
  H   H374      1.0  0.80145  0.00640  0.10614  1.0000
  H   H375      1.0  0.92060  0.74930  0.52604  1.0000
  H   H376      1.0  0.73740  0.80119  0.85496  1.0000
  S   S84       1.0  0.66431  0.74639  0.64354  1.0000
  C   C306      1.0  0.66282  0.69060  0.93649  1.0000
  Fe  Fe41      1.0  0.73596  0.76523  0.63905  1.0000
  S   S85       1.0  0.75185  0.81409  0.67871  1.0000
  S   S86       1.0  0.77465  0.72108  0.67525  1.0000
  H   H377      1.0  0.98034  0.83440  0.77703  1.0000
  H   H378      1.0  0.63464  0.85766  0.81832  1.0000
  S   S87       1.0  0.94472  0.89082  0.69920  1.0000
  C   C307      1.0  0.86925  0.71453  0.53972  1.0000
  H   H379      1.0  0.66395  0.80210  0.71823  1.0000
  H   H380      1.0  0.88764  0.80049  0.74463  1.0000
  S   S88       1.0  0.99190  0.88389  0.95934  1.0000
  Fe  Fe42      1.0  0.70269  0.70156  0.67463  1.0000
  S   S89       1.0  0.93998  0.93510  0.83527  1.0000
  H   H381      1.0  0.98263  0.83857  0.84671  1.0000
  H   H382      1.0  0.68365  0.71185  0.93333  1.0000
  S   S90       1.0  0.56381  0.86591  0.97352  1.0000
  C   C308      1.0  0.66801  0.92394  0.68717  1.0000
  S   S91       1.0  0.77552  0.85144  0.93086  1.0000
  Fe  Fe43      1.0  0.98315  0.98019  0.84322  1.0000
  H   H383      1.0  0.69216  0.93031  0.72435  1.0000
  C   C309      1.0  0.93164  0.87548  0.95256  1.0000
  C   C310      1.0  0.91290  0.87096  0.99753  1.0000
  C   C311      1.0  0.86468  0.86394  0.99156  1.0000
  C   C312      1.0  0.83553  0.86090  0.94056  1.0000
  C   C313      1.0  0.85446  0.86498  0.89581  1.0000
  C   C314      1.0  0.90222  0.87255  0.90189  1.0000
  C   C315      1.0  0.67122  0.84813  0.82817  1.0000
  H   H384      1.0  0.83220  0.86237  0.85630  1.0000
  H   H385      1.0  0.91649  0.87538  0.86727  1.0000
  C   C316      1.0  0.92036  0.78602  0.75671  1.0000
  C   C317      1.0  0.57343  0.91093  0.83673  1.0000
  C   C318      1.0  0.58504  0.89419  0.88515  1.0000
  C   C319      1.0  0.55040  0.88769  0.91334  1.0000
  H   H386      1.0  0.60034  0.91549  0.81475  1.0000
  H   H387      1.0  0.62065  0.88589  0.90023  1.0000
  C   C320      1.0  0.80582  0.83481  0.68394  1.0000
  C   C321      1.0  0.81782  0.85944  0.72192  1.0000
  C   C322      1.0  0.86022  0.87676  0.72705  1.0000
  C   C323      1.0  0.89081  0.86982  0.69378  1.0000
  C   C324      1.0  0.87858  0.84535  0.65547  1.0000
  C   C325      1.0  0.83641  0.82772  0.65078  1.0000
  H   H388      1.0  0.79434  0.86519  0.74766  1.0000
  H   H389      1.0  0.86901  0.89566  0.75644  1.0000
  H   H390      1.0  0.90195  0.83994  0.62942  1.0000
  H   H391      1.0  0.82737  0.80895  0.62114  1.0000
  N   N22       1.0  0.94737  0.79537  0.81065  1.0000
  C   C326      1.0  0.85388  0.68258  0.53264  1.0000
  H   H392      1.0  0.51499  0.99634  0.61270  1.0000
  C   C327      1.0  0.92080  0.79068  0.85280  1.0000
  Fe  Fe44      1.0  0.66061  0.72552  0.56228  1.0000
  C   C328      1.0  0.54726  0.98233  0.63062  1.0000
  H   H393      1.0  0.81314  0.76724  0.87407  1.0000
  C   C329      1.0  0.54936  0.96331  0.54365  1.0000
  H   H394      1.0  0.93497  0.80003  0.98794  1.0000
  C   C330      1.0  0.84939  0.77553  0.88300  1.0000
  C   C331      1.0  0.91812  0.79358  0.94729  1.0000
  C   C332      1.0  0.52736  0.92200  0.81674  1.0000
  H   H395      1.0  0.74807  0.82745  0.80388  1.0000
  C   C333      1.0  0.96043  0.82969  0.80845  1.0000
  H   H396      1.0  0.68282  0.84549  0.87212  1.0000
  H   H397      1.0  0.94083  0.79043  0.72572  1.0000
  H   H398      1.0  0.58283  0.89956  0.55480  1.0000
  C   C334      1.0  0.50958  0.93242  0.59954  1.0000
  H   H399      1.0  0.67874  0.84322  0.72945  1.0000
  C   C335      1.0  0.85888  0.00885  0.97299  1.0000
  H   H400      1.0  0.61848  0.71167  0.78866  1.0000
  C   C336      1.0  0.64588  0.79114  0.81636  1.0000
  C   C337      1.0  0.61799  0.79546  0.85466  1.0000
  C   C338      1.0  0.64537  0.76010  0.79330  1.0000
  C   C339      1.0  0.59146  0.77017  0.86863  1.0000
  C   C340      1.0  0.61835  0.73510  0.80718  1.0000
  C   C341      1.0  0.59147  0.74011  0.84479  1.0000
  H   H401      1.0  0.57083  0.77402  0.89828  1.0000
  C   C342      1.0  0.59480  0.93428  0.62013  1.0000
  H   H402      1.0  0.57935  0.95808  0.01053  1.0000
  H   H403      1.0  0.69448  0.86694  0.81698  1.0000
  H   H404      1.0  0.85999  0.93277  0.92520  1.0000
  C   C343      1.0  0.67863  0.89823  0.65728  1.0000
  H   H405      1.0  0.66599  0.75484  0.76430  1.0000
  C   C344      1.0  0.85134  0.95267  0.94835  1.0000
  H   H406      1.0  0.65560  0.86934  0.58724  1.0000
  H   H407      1.0  0.61610  0.81809  0.87471  1.0000
  H   H408      1.0  0.89179  0.98679  0.91484  1.0000
  C   C345      1.0  0.87330  0.77944  0.84204  1.0000
  C   C346      1.0  0.87166  0.78270  0.93543  1.0000
  C   C347      1.0  0.81160  0.97337  0.01436  1.0000
  H   H409      1.0  0.85128  0.73124  0.56045  1.0000
  C   C348      1.0  0.86932  0.98314  0.94269  1.0000
  C   C349      1.0  0.82252  0.94779  0.98401  1.0000
  H   H410      1.0  0.50835  0.91071  0.57417  1.0000
  H   H411      1.0  0.71103  0.88477  0.67087  1.0000
  H   H412      1.0  0.57085  0.72057  0.85567  1.0000
  H   H413      1.0  0.73149  0.78692  0.78772  1.0000
  N   N23       1.0  0.67452  0.81723  0.80043  1.0000
  C   C350      1.0  0.64387  0.68618  0.98100  1.0000
  H   H414      1.0  0.97780  0.80730  0.91802  1.0000
  Fe  Fe45      1.0  0.74168  0.85777  0.00022  1.0000
  H   H415      1.0  0.80867  0.92395  0.98829  1.0000
  H   H416      1.0  0.62042  0.82946  0.73158  1.0000
  Fe  Fe46      1.0  0.76133  0.70281  0.59112  1.0000
  C   C351      1.0  0.72491  0.80767  0.81222  1.0000
  C   C352      1.0  0.65855  0.82323  0.74250  1.0000
  H   H417      1.0  0.98301  0.75017  0.82771  1.0000
  H   H418      1.0  0.85357  0.77379  0.80235  1.0000
  H   H419      1.0  0.54417  0.97648  0.67177  1.0000
  C   C353      1.0  0.99116  0.77597  0.82274  1.0000
  Fe  Fe47      1.0  0.97788  0.92043  0.77237  1.0000
  H   H420      1.0  0.92847  0.84496  0.79898  1.0000
  H   H421      1.0  0.62033  0.96101  0.69477  1.0000
  H   H422      1.0  0.51683  0.96237  0.93767  1.0000
  C   C354      1.0  0.62662  0.94166  0.66931  1.0000
  H   H423      1.0  0.65022  0.70410  0.01247  1.0000
  N   N24       1.0  0.55122  0.95291  0.59920  1.0000
  C   C355      1.0  0.64744  0.88969  0.60992  1.0000
  H   H424      1.0  0.57783  0.99873  0.63252  1.0000
  C   C356      1.0  0.60605  0.90729  0.59158  1.0000
  C   C357      1.0  0.94239  0.79763  0.90676  1.0000
  S   S92       1.0  0.69151  0.89878  0.99642  1.0000
  H   H425      1.0  0.91064  0.76010  0.75469  1.0000
  H   H426      1.0  0.98551  0.99549  0.95833  1.0000
  H   H427      1.0  0.85257  0.78054  0.96684  1.0000
  H   H428      1.0  0.51109  0.92283  0.99644  1.0000
  S   S93       1.0  0.68938  0.82022  0.01171  1.0000
  Fe  Fe48      1.0  0.64134  0.86209  0.01443  1.0000
  C   C358      1.0  0.82947  0.00484  0.00962  1.0000
  S   S94       1.0  0.51438  0.94126  0.75433  1.0000
  C   C359      1.0  0.50422  0.89860  0.89320  1.0000
  H   H429      1.0  0.51850  0.97921  0.52820  1.0000
  S   S95       1.0  0.72862  0.74864  0.55409  1.0000
  H   H430      1.0  0.58165  0.97700  0.54105  1.0000
  S   S96       1.0  0.69285  0.67903  0.59431  1.0000
  C   C360      1.0  0.49641  0.98202  0.94809  1.0000
  H   H431      1.0  0.50946  0.92431  0.64067  1.0000
  H   H432      1.0  0.85035  0.86049  0.02629  1.0000
