data_image0
_chemical_formula_structural       HCH2C2HSC3H3C2NH3CH2C3HSC2HCNH3CHC2HCH3SHC3S2C2H3SCSCFeH2NHC3HSH2CS2CH2CHC3HCH2SCH2C2H3C3H2SH2NC2H5SHCH2CH2CH2CHNHCSCH5CHC3SHCHC2H2CHSHCSHCHCH3CH2C3NC3HCHC4SH3C2HCHCHC3H2CHCH2C2HCH4CHCH3CH3C2H5CHFeHSHSCFeS3FeS2FeSH3FeHS2Fe2C6H5NCHSCHCHCH3CHC3SH2CFeHCH5NFe2C2NC4HC3H2C2H8CH4C2H3CSCHC2NCH2CFeCH3C2FeSCSCFeHSHSCFeSH3FeS2FeS2FeHFeHFeHS3H6C6H4CSCH2CH2C3HSCNH2FeH2C2HSH2SNC2HC3HCH6CHC4FeCFeHCHCSHCFeC2H6CHCH3FeCFeSHS2FeHSFeS2FeSCFeHFeS2FeS2FeSCFeSFeHSH5C6H4CHC8HCH3CSC2HSH3SHC2NC6H7CH3NC4H6CHCFeS2HC2H2CHCHCHCSHCH3CH2C3HCH3C3H3C2HFeCFeHCH2CSFeHSFeC3SFeSCHSFeSFeCH2SHC3HCH5C6H4CFeCHCHCHC2NCSH2C2NC6H2CH10SH2C2H3NS2C3H2CHSHCHFeCHCNHSC2HFeC2SHCSHSHFe2HSC2SHC5H2CH2C2H9C2H2CH4C4HCHCH2CH3CHC5NSHC2H2CHC2H5NH3CHCNH4C3H4CH2C2HC2H3C2HCH5SHCSCHSC3HCHCHC2HC3H2NCSH2C3H4C2S2C2HCHC3H2C3HSHC3H2CH2CH2NH2C2H2SCH2CH2CHNC2HC5H6SCH4C
_chemical_formula_sum              "H432 C360 S96 N24 Fe48"
_cell_length_a       38.9463
_cell_length_b       38.5758
_cell_length_c       44.3456
_cell_angle_alpha    88.2476
_cell_angle_beta     89.0849
_cell_angle_gamma    120.022

_space_group_name_H-M_alt    "P 1"
_space_group_IT_number       1

loop_
  _space_group_symop_operation_xyz
  'x, y, z'

loop_
  _atom_site_type_symbol
  _atom_site_label
  _atom_site_symmetry_multiplicity
  _atom_site_fract_x
  _atom_site_fract_y
  _atom_site_fract_z
  _atom_site_occupancy
  H   H1        1.0  0.45138  0.21989  0.10711  1.0000
  C   C1        1.0  0.46622  0.43553  0.24440  1.0000
  H   H2        1.0  0.04440  0.42264  0.01584  1.0000
  H   H3        1.0  0.40814  0.41589  0.26468  1.0000
  C   C2        1.0  0.41271  0.27171  0.22778  1.0000
  C   C3        1.0  0.42683  0.32627  0.25958  1.0000
  H   H4        1.0  0.42152  0.30794  0.28085  1.0000
  S   S1        1.0  0.47238  0.02813  0.07108  1.0000
  C   C4        1.0  0.45397  0.45478  0.29402  1.0000
  C   C5        1.0  0.43981  0.43362  0.26748  1.0000
  C   C6        1.0  0.46507  0.44271  0.04083  1.0000
  H   H5        1.0  0.38508  0.27064  0.22016  1.0000
  H   H6        1.0  0.05781  0.49341  0.15153  1.0000
  H   H7        1.0  0.42313  0.26040  0.20886  1.0000
  C   C7        1.0  0.47509  0.25828  0.14464  1.0000
  C   C8        1.0  0.00833  0.43528  0.11900  1.0000
  N   N1        1.0  0.44346  0.31296  0.23513  1.0000
  H   H8        1.0  0.47260  0.37103  0.21117  1.0000
  H   H9        1.0  0.99749  0.43448  0.14261  1.0000
  H   H10       1.0  0.45699  0.41936  0.05821  1.0000
  C   C9        1.0  0.45095  0.33903  0.20767  1.0000
  H   H11       1.0  0.46285  0.32948  0.18870  1.0000
  H   H12       1.0  0.47114  0.17095  0.12568  1.0000
  C   C10       1.0  0.04989  0.47967  0.07564  1.0000
  C   C11       1.0  0.05371  0.44912  0.02877  1.0000
  C   C12       1.0  0.47801  0.19698  0.13845  1.0000
  H   H13       1.0  0.40408  0.25045  0.24772  1.0000
  S   S2        1.0  0.45820  0.29112  0.13262  1.0000
  C   C13       1.0  0.46681  0.22468  0.12800  1.0000
  C   C14       1.0  0.03918  0.44536  0.05848  1.0000
  H   H14       1.0  0.01872  0.41529  0.06712  1.0000
  C   C15       1.0  0.43729  0.43913  0.01928  1.0000
  N   N2        1.0  0.03485  0.47704  0.10703  1.0000
  H   H15       1.0  0.39822  0.32407  0.25339  1.0000
  H   H16       1.0  0.46381  0.25241  0.24294  1.0000
  H   H17       1.0  0.42338  0.33793  0.19989  1.0000
  C   C16       1.0  0.44719  0.46909  0.99642  1.0000
  H   H18       1.0  0.45474  0.41980  0.22394  1.0000
  C   C17       1.0  0.47920  0.99977  0.04298  1.0000
  C   C18       1.0  0.00589  0.47986  0.29675  1.0000
  H   H19       1.0  0.08730  0.48202  0.12640  1.0000
  C   C19       1.0  0.07862  0.48683  0.01513  1.0000
  H   H20       1.0  0.02380  0.41765  0.11946  1.0000
  H   H21       1.0  0.40800  0.41280  0.02022  1.0000
  H   H22       1.0  0.44699  0.35809  0.26485  1.0000
  S   S3        1.0  0.48601  0.40668  0.14318  1.0000
  H   H23       1.0  0.47174  0.00468  0.22340  1.0000
  C   C20       1.0  0.02859  0.49494  0.24389  1.0000
  C   C21       1.0  0.48113  0.31606  0.24475  1.0000
  C   C22       1.0  0.03692  0.49715  0.27491  1.0000
  S   S4        1.0  0.41940  0.44954  0.32315  1.0000
  S   S5        1.0  0.48727  0.05715  0.15728  1.0000
  C   C23       1.0  0.48670  0.28237  0.24777  1.0000
  C   C24       1.0  0.06849  0.49619  0.12755  1.0000
  H   H24       1.0  0.00028  0.49693  0.13177  1.0000
  H   H25       1.0  0.43415  0.40195  0.58963  1.0000
  H   H26       1.0  0.33383  0.46310  0.53716  1.0000
  S   S6        1.0  0.40999  0.47191  0.41063  1.0000
  C   C25       1.0  0.41210  0.49545  0.48751  1.0000
  S   S7        1.0  0.07369  0.47423  0.40347  1.0000
  C   C26       1.0  0.27756  0.47420  0.39901  1.0000
  Fe  Fe1       1.0  0.43107  0.49177  0.36177  1.0000
  H   H27       1.0  0.02303  0.44885  0.59487  1.0000
  H   H28       1.0  0.02845  0.45087  0.48013  1.0000
  N   N3        1.0  0.37816  0.46493  0.50658  1.0000
  H   H29       1.0  0.46739  0.39801  0.51404  1.0000
  C   C27       1.0  0.37915  0.40508  0.53178  1.0000
  C   C28       1.0  0.21673  0.47806  0.40110  1.0000
  C   C29       1.0  0.42198  0.41420  0.57343  1.0000
  H   H30       1.0  0.35782  0.38404  0.51684  1.0000
  S   S8        1.0  0.48443  0.01754  0.56145  1.0000
  H   H31       1.0  0.29430  0.46122  0.38988  1.0000
  H   H32       1.0  0.38398  0.35748  0.55456  1.0000
  C   C30       1.0  0.23882  0.46141  0.38950  1.0000
  S   S9        1.0  0.48639  0.05474  0.64408  1.0000
  S   S10       1.0  0.16890  0.46239  0.38754  1.0000
  C   C31       1.0  0.35875  0.48473  0.52176  1.0000
  H   H33       1.0  0.22608  0.43885  0.37279  1.0000
  H   H34       1.0  0.46538  0.44181  0.47260  1.0000
  C   C32       1.0  0.43572  0.45519  0.57176  1.0000
  H   H35       1.0  0.45855  0.47455  0.58677  1.0000
  C   C33       1.0  0.39379  0.38923  0.55351  1.0000
  C   C34       1.0  0.48521  0.45496  0.49095  1.0000
  C   C35       1.0  0.39256  0.44686  0.52946  1.0000
  H   H36       1.0  0.33913  0.45017  0.46900  1.0000
  C   C36       1.0  0.01580  0.46157  0.49680  1.0000
  H   H37       1.0  0.47540  0.22416  0.63277  1.0000
  H   H38       1.0  0.36224  0.42052  0.47298  1.0000
  S   S11       1.0  0.01435  0.48174  0.33629  1.0000
  C   C37       1.0  0.34905  0.43548  0.48606  1.0000
  H   H39       1.0  0.32177  0.41238  0.49863  1.0000
  H   H40       1.0  0.42793  0.48192  0.47612  1.0000
  C   C38       1.0  0.99582  0.46841  0.63953  1.0000
  C   C39       1.0  0.06950  0.48325  0.56288  1.0000
  H   H41       1.0  0.00589  0.44655  0.64456  1.0000
  H   H42       1.0  0.06257  0.45735  0.54982  1.0000
  H   H43       1.0  0.00334  0.47006  0.43630  1.0000
  C   C40       1.0  0.42122  0.47138  0.55023  1.0000
  C   C41       1.0  0.48657  0.43014  0.51444  1.0000
  C   C42       1.0  0.04690  0.47885  0.58905  1.0000
  H   H44       1.0  0.34648  0.49754  0.50502  1.0000
  H   H45       1.0  0.99242  0.45679  0.39781  1.0000
  S   S12       1.0  0.49114  0.15943  0.64013  1.0000
  H   H46       1.0  0.47207  0.22291  0.70609  1.0000
  H   H47       1.0  0.46732  0.07296  0.89033  1.0000
  N   N4        1.0  0.11028  0.40794  0.83175  1.0000
  C   C43       1.0  0.23123  0.47914  0.91138  1.0000
  C   C44       1.0  0.26699  0.48478  0.89839  1.0000
  H   H48       1.0  0.06159  0.34708  0.83188  1.0000
  H   H49       1.0  0.00302  0.45659  0.96335  1.0000
  H   H50       1.0  0.22182  0.46553  0.93391  1.0000
  H   H51       1.0  0.09512  0.36264  0.79933  1.0000
  H   H52       1.0  0.48559  0.47786  0.93570  1.0000
  S   S13       1.0  0.40409  0.47911  0.88177  1.0000
  H   H53       1.0  0.08683  0.44850  0.79296  1.0000
  C   C45       1.0  0.17667  0.45569  0.80472  1.0000
  H   H54       1.0  0.46878  0.10130  0.99026  1.0000
  H   H55       1.0  0.11060  0.44934  0.86297  1.0000
  C   C46       1.0  0.19938  0.48723  0.78371  1.0000
  H   H56       1.0  0.19252  0.44415  0.81743  1.0000
  H   H57       1.0  0.46718  0.15800  0.70620  1.0000
  C   C47       1.0  0.08917  0.42117  0.85242  1.0000
  H   H58       1.0  0.45944  0.01286  0.72838  1.0000
  H   H59       1.0  0.45712  0.10011  0.77030  1.0000
  C   C48       1.0  0.08047  0.37276  0.81581  1.0000
  H   H60       1.0  0.06723  0.42685  0.84084  1.0000
  N   N5        1.0  0.47381  0.02559  0.91171  1.0000
  H   H61       1.0  0.08867  0.48961  0.99176  1.0000
  C   C49       1.0  0.13529  0.44076  0.80935  1.0000
  S   S14       1.0  0.02734  0.46687  0.81166  1.0000
  C   C50       1.0  0.47120  0.06788  0.95286  1.0000
  H   H62       1.0  0.07238  0.39859  0.87107  1.0000
  H   H63       1.0  0.05995  0.37958  0.80311  1.0000
  H   H64       1.0  0.14817  0.38221  0.83703  1.0000
  H   H65       1.0  0.42408  0.41342  0.89670  1.0000
  H   H66       1.0  0.45736  0.09587  0.71592  1.0000
  C   C51       1.0  0.48845  0.10678  0.76930  1.0000
  H   H67       1.0  0.48043  0.48460  0.89666  1.0000
  C   C52       1.0  0.99350  0.46694  0.98241  1.0000
  C   C53       1.0  0.13320  0.39483  0.85074  1.0000
  C   C54       1.0  0.20737  0.49050  0.89530  1.0000
  S   S15       1.0  0.41230  0.46133  0.96821  1.0000
  H   H68       1.0  0.44645  0.47531  0.74149  1.0000
  C   C55       1.0  0.44108  0.40590  0.91302  1.0000
  H   H69       1.0  0.44778  0.07000  0.94179  1.0000
  C   C56       1.0  0.47179  0.49565  0.78484  1.0000
  C   C57       1.0  0.47043  0.00307  0.74705  1.0000
  H   H70       1.0  0.47875  0.42868  0.96971  1.0000
  H   H71       1.0  0.48601  0.39922  0.86985  1.0000
  C   C58       1.0  0.47100  0.48146  0.75574  1.0000
  H   H72       1.0  0.15594  0.42015  0.86352  1.0000
  S   S16       1.0  0.16126  0.48010  0.91155  1.0000
  H   H73       1.0  0.41334  0.01394  0.91690  1.0000
  C   C59       1.0  0.14120  0.49038  0.77043  1.0000
  S   S17       1.0  0.06038  0.47746  0.89567  1.0000
  H   H74       1.0  0.11384  0.37109  0.86799  1.0000
  C   C60       1.0  0.48327  0.08634  0.98041  1.0000
  H   H75       1.0  0.43065  0.40890  0.93577  1.0000
  C   C61       1.0  0.48251  0.05548  0.88666  1.0000
  H   H76       1.0  0.47727  0.43942  0.86027  1.0000
  H   H77       1.0  0.48792  0.07758  0.77017  1.0000
  H   H78       1.0  0.47247  0.04070  0.86471  1.0000
  C   C62       1.0  0.48985  0.10717  0.71517  1.0000
  H   H79       1.0  0.28490  0.47548  0.91087  1.0000
  H   H80       1.0  0.43206  0.37383  0.91086  1.0000
  C   C63       1.0  0.11818  0.45860  0.79109  1.0000
  C   C64       1.0  0.00359  0.47644  0.78091  1.0000
  C   C65       1.0  0.48835  0.04635  0.94027  1.0000
  N   N6        1.0  0.48458  0.43223  0.90789  1.0000
  C   C66       1.0  0.48908  0.21617  0.72197  1.0000
  C   C67       1.0  0.48673  0.17878  0.72221  1.0000
  C   C68       1.0  0.38609  0.62012  0.32293  1.0000
  H   H81       1.0  0.02988  0.53041  0.10140  1.0000
  C   C69       1.0  0.48525  0.50288  0.99545  1.0000
  H   H82       1.0  0.24271  0.72220  0.29043  1.0000
  C   C70       1.0  0.47479  0.91505  0.20311  1.0000
  C   C71       1.0  0.47289  0.89335  0.22955  1.0000
  C   C72       1.0  0.29540  0.77434  0.27213  1.0000
  C   C73       1.0  0.26423  0.77083  0.32070  1.0000
  S   S18       1.0  0.43225  0.92324  0.31876  1.0000
  H   H83       1.0  0.43824  0.83109  0.27382  1.0000
  H   H84       1.0  0.44949  0.88760  0.24580  1.0000
  H   H85       1.0  0.47105  0.80186  0.24251  1.0000
  C   C74       1.0  0.07565  0.51764  0.06108  1.0000
  C   C75       1.0  0.08948  0.52103  0.03122  1.0000
  H   H86       1.0  0.34785  0.83045  0.25976  1.0000
  C   C76       1.0  0.46738  0.84971  0.28419  1.0000
  H   H87       1.0  0.26325  0.59689  0.29872  1.0000
  C   C77       1.0  0.45519  0.96999  0.26587  1.0000
  H   H88       1.0  0.45353  0.92508  0.19988  1.0000
  C   C78       1.0  0.32378  0.83184  0.30348  1.0000
  C   C79       1.0  0.25645  0.59998  0.32261  1.0000
  C   C80       1.0  0.44971  0.98082  0.02163  1.0000
  H   H89       1.0  0.46888  0.87739  0.29238  1.0000
  H   H90       1.0  0.29599  0.76035  0.25144  1.0000
  C   C81       1.0  0.26534  0.75298  0.29400  1.0000
  H   H91       1.0  0.46759  0.83246  0.30463  1.0000
  C   C82       1.0  0.32457  0.81371  0.27685  1.0000
  H   H92       1.0  0.42322  0.98321  0.02304  1.0000
  H   H93       1.0  0.40415  0.60686  0.31733  1.0000
  C   C83       1.0  0.46737  0.95415  0.28969  1.0000
  C   C84       1.0  0.45422  0.95897  0.99842  1.0000
  H   H94       1.0  0.34699  0.86255  0.30597  1.0000
  C   C85       1.0  0.99297  0.52043  0.00893  1.0000
  H   H95       1.0  0.08462  0.54505  0.07250  1.0000
  H   H96       1.0  0.10805  0.55030  0.02020  1.0000
  H   H97       1.0  0.42502  0.96431  0.26601  1.0000
  H   H98       1.0  0.43537  0.68031  0.31881  1.0000
  C   C86       1.0  0.48167  0.99298  0.24166  1.0000
  H   H99       1.0  0.08775  0.52877  0.12212  1.0000
  C   C87       1.0  0.40387  0.66157  0.32402  1.0000
  H   H100      1.0  0.26397  0.63150  0.32524  1.0000
  H   H101      1.0  0.22367  0.58158  0.32666  1.0000
  H   H102      1.0  0.26711  0.53731  0.31704  1.0000
  C   C88       1.0  0.48847  0.95593  0.99615  1.0000
  H   H103      1.0  0.05286  0.50846  0.22727  1.0000
  H   H104      1.0  0.00209  0.55180  0.01030  1.0000
  H   H105      1.0  0.06731  0.51221  0.28191  1.0000
  C   C89       1.0  0.29364  0.81093  0.32632  1.0000
  C   C90       1.0  0.01196  0.49820  0.10843  1.0000
  H   H106      1.0  0.33378  0.56375  0.32836  1.0000
  H   H107      1.0  0.27604  0.53236  0.35643  1.0000
  H   H108      1.0  0.38457  0.77420  0.48483  1.0000
  H   H109      1.0  0.42327  0.88203  0.48555  1.0000
  H   H110      1.0  0.13134  0.58380  0.56056  1.0000
  C   C91       1.0  0.38646  0.87014  0.59501  1.0000
  H   H111      1.0  0.28377  0.54051  0.45038  1.0000
  Fe  Fe2       1.0  0.46734  0.58034  0.37426  1.0000
  H   H112      1.0  0.45233  0.81853  0.52929  1.0000
  S   S19       1.0  0.45039  0.56822  0.42324  1.0000
  H   H113      1.0  0.00751  0.53414  0.42381  1.0000
  S   S20       1.0  0.13550  0.52925  0.34814  1.0000
  C   C92       1.0  0.47778  0.72712  0.37109  1.0000
  Fe  Fe3       1.0  0.09344  0.53090  0.42806  1.0000
  S   S21       1.0  0.08949  0.56498  0.38725  1.0000
  S   S22       1.0  0.06636  0.53863  0.47194  1.0000
  S   S23       1.0  0.34085  0.51697  0.43577  1.0000
  Fe  Fe4       1.0  0.15295  0.58242  0.37669  1.0000
  S   S24       1.0  0.20219  0.64104  0.35526  1.0000
  S   S25       1.0  0.15897  0.55350  0.41942  1.0000
  Fe  Fe5       1.0  0.39811  0.82123  0.40392  1.0000
  S   S26       1.0  0.33940  0.77825  0.42787  1.0000
  H   H114      1.0  0.43445  0.52062  0.50044  1.0000
  H   H115      1.0  0.37092  0.84669  0.48697  1.0000
  H   H116      1.0  0.22953  0.52617  0.34542  1.0000
  Fe  Fe6       1.0  0.47886  0.89041  0.41915  1.0000
  H   H117      1.0  0.21644  0.51968  0.43216  1.0000
  S   S27       1.0  0.42242  0.88777  0.40533  1.0000
  S   S28       1.0  0.45326  0.82342  0.42062  1.0000
  Fe  Fe7       1.0  0.46993  0.52236  0.42291  1.0000
  Fe  Fe8       1.0  0.07231  0.50912  0.36203  1.0000
  C   C93       1.0  0.24109  0.67650  0.37655  1.0000
  C   C94       1.0  0.27670  0.70455  0.36145  1.0000
  C   C95       1.0  0.30766  0.73481  0.37719  1.0000
  C   C96       1.0  0.30294  0.73777  0.40815  1.0000
  C   C97       1.0  0.26757  0.70927  0.42341  1.0000
  C   C98       1.0  0.23685  0.67842  0.40771  1.0000
  H   H118      1.0  0.46967  0.86601  0.50965  1.0000
  H   H119      1.0  0.33471  0.75628  0.36515  1.0000
  H   H120      1.0  0.26366  0.71128  0.44737  1.0000
  H   H121      1.0  0.20948  0.65689  0.41956  1.0000
  H   H122      1.0  0.02314  0.54754  0.52113  1.0000
  N   N7        1.0  0.27792  0.58756  0.34369  1.0000
  C   C99       1.0  0.33154  0.84617  0.36923  1.0000
  H   H123      1.0  0.45886  0.73140  0.38681  1.0000
  S   S29       1.0  0.40741  0.53460  0.35887  1.0000
  C   C100      1.0  0.47932  0.96205  0.48354  1.0000
  H   H124      1.0  0.09363  0.57727  0.60710  1.0000
  C   C101      1.0  0.47299  0.98298  0.50649  1.0000
  H   H125      1.0  0.07916  0.55311  0.65765  1.0000
  C   C102      1.0  0.42302  0.88140  0.54774  1.0000
  H   H126      1.0  0.38090  0.76430  0.52476  1.0000
  H   H127      1.0  0.26382  0.77796  0.38361  1.0000
  H   H128      1.0  0.43586  0.92709  0.57964  1.0000
  C   C103      1.0  0.47839  0.69059  0.37204  1.0000
  H   H129      1.0  0.40423  0.83880  0.46375  1.0000
  C   C104      1.0  0.27151  0.51879  0.43306  1.0000
  C   C105      1.0  0.01297  0.51588  0.52014  1.0000
  C   C106      1.0  0.26115  0.80444  0.37645  1.0000
  S   S30       1.0  0.41466  0.82354  0.35500  1.0000
  H   H130      1.0  0.46207  0.95491  0.46344  1.0000
  H   H131      1.0  0.27515  0.62421  0.37868  1.0000
  C   C107      1.0  0.10805  0.55447  0.56886  1.0000
  Fe  Fe9       1.0  0.44428  0.89055  0.35726  1.0000
  H   H132      1.0  0.34762  0.78419  0.55779  1.0000
  C   C108      1.0  0.26843  0.59310  0.37509  1.0000
  H   H133      1.0  0.33829  0.81028  0.60443  1.0000
  H   H134      1.0  0.23627  0.57337  0.38118  1.0000
  H   H135      1.0  0.34685  0.77659  0.50610  1.0000
  H   H136      1.0  0.99660  0.51955  0.38576  1.0000
  H   H137      1.0  0.28550  0.58587  0.39154  1.0000
  N   N8        1.0  0.29323  0.83108  0.35412  1.0000
  Fe  Fe10      1.0  0.39159  0.51888  0.40834  1.0000
  Fe  Fe11      1.0  0.47184  0.83070  0.37174  1.0000
  C   C109      1.0  0.08603  0.55040  0.59531  1.0000
  C   C110      1.0  0.28774  0.86555  0.34606  1.0000
  N   N9        1.0  0.40576  0.82682  0.51132  1.0000
  C   C111      1.0  0.37824  0.78356  0.50684  1.0000
  C   C112      1.0  0.40086  0.84965  0.48590  1.0000
  C   C113      1.0  0.44683  0.83368  0.50975  1.0000
  C   C114      1.0  0.39869  0.84084  0.54025  1.0000
  H   H138      1.0  0.32445  0.66929  0.34570  1.0000
  C   C115      1.0  0.36777  0.81543  0.56149  1.0000
  C   C116      1.0  0.41690  0.89578  0.57465  1.0000
  C   C117      1.0  0.01318  0.53652  0.62848  1.0000
  H   H139      1.0  0.39572  0.71105  0.33423  1.0000
  H   H140      1.0  0.38187  0.88146  0.61589  1.0000
  C   C118      1.0  0.26217  0.54404  0.34040  1.0000
  C   C119      1.0  0.05415  0.51255  0.60589  1.0000
  H   H141      1.0  0.23118  0.79365  0.36730  1.0000
  H   H142      1.0  0.44700  0.90247  0.53274  1.0000
  H   H143      1.0  0.45294  0.82239  0.48869  1.0000
  H   H144      1.0  0.45993  0.66686  0.38849  1.0000
  H   H145      1.0  0.33800  0.82156  0.37370  1.0000
  H   H146      1.0  0.28025  0.70311  0.33737  1.0000
  H   H147      1.0  0.03637  0.56868  0.62754  1.0000
  H   H148      1.0  0.43325  0.50343  0.54960  1.0000
  C   C120      1.0  0.36197  0.83007  0.58847  1.0000
  H   H149      1.0  0.26225  0.82006  0.39743  1.0000
  H   H150      1.0  0.33143  0.85907  0.39133  1.0000
  H   H151      1.0  0.45050  0.99141  0.50398  1.0000
  H   H152      1.0  0.28617  0.88092  0.36646  1.0000
  C   C121      1.0  0.32125  0.61231  0.33730  1.0000
  C   C122      1.0  0.38136  0.67882  0.33244  1.0000
  H   H153      1.0  0.99688  0.53043  0.60713  1.0000
  H   H154      1.0  0.35703  0.87023  0.35560  1.0000
  H   H155      1.0  0.24021  0.75222  0.33668  1.0000
  C   C123      1.0  0.02906  0.50259  0.49766  1.0000
  S   S31       1.0  0.49183  0.53843  0.37439  1.0000
  C   C124      1.0  0.29390  0.50272  0.42105  1.0000
  H   H156      1.0  0.11574  0.52433  0.53149  1.0000
  C   C125      1.0  0.09957  0.52099  0.55255  1.0000
  C   C126      1.0  0.34066  0.65465  0.33902  1.0000
  N   N10       1.0  0.02972  0.50948  0.63291  1.0000
  C   C127      1.0  0.23333  0.50701  0.42281  1.0000
  H   H157      1.0  0.37976  0.51006  0.53526  1.0000
  H   H158      1.0  0.40214  0.50918  0.46981  1.0000
  C   C128      1.0  0.05454  0.52152  0.65985  1.0000
  Fe  Fe12      1.0  0.13864  0.49941  0.39150  1.0000
  C   C129      1.0  0.34540  0.59564  0.32943  1.0000
  H   H159      1.0  0.31269  0.88870  0.33140  1.0000
  H   H160      1.0  0.25991  0.85568  0.33366  1.0000
  H   H161      1.0  0.99211  0.53275  0.64731  1.0000
  C   C130      1.0  0.34652  0.59495  0.88873  1.0000
  C   C131      1.0  0.38043  0.73377  0.84685  1.0000
  Fe  Fe13      1.0  0.37673  0.51834  0.87606  1.0000
  S   S32       1.0  0.43309  0.57137  0.85651  1.0000
  C   C132      1.0  0.27862  0.50087  0.86887  1.0000
  S   S33       1.0  0.47918  0.80581  0.85870  1.0000
  C   C133      1.0  0.00594  0.50769  0.98399  1.0000
  Fe  Fe14      1.0  0.44457  0.58890  0.90471  1.0000
  H   H162      1.0  0.33365  0.56671  0.90296  1.0000
  S   S34       1.0  0.38715  0.53747  0.92379  1.0000
  H   H163      1.0  0.32350  0.68726  0.90960  1.0000
  S   S35       1.0  0.13200  0.53408  0.84578  1.0000
  C   C134      1.0  0.45918  0.97061  0.79761  1.0000
  Fe  Fe15      1.0  0.06786  0.53412  0.91460  1.0000
  S   S36       1.0  0.06841  0.56149  0.86852  1.0000
  H   H164      1.0  0.35180  0.75047  0.88040  1.0000
  H   H165      1.0  0.33241  0.64760  0.94241  1.0000
  H   H166      1.0  0.12742  0.50417  0.75748  1.0000
  Fe  Fe16      1.0  0.13467  0.58677  0.86834  1.0000
  S   S37       1.0  0.17803  0.64974  0.84988  1.0000
  S   S38       1.0  0.13444  0.56372  0.91532  1.0000
  Fe  Fe17      1.0  0.37567  0.83128  0.90556  1.0000
  S   S39       1.0  0.39854  0.83833  0.85769  1.0000
  S   S40       1.0  0.31569  0.78316  0.92505  1.0000
  Fe  Fe18      1.0  0.45607  0.89671  0.92804  1.0000
  H   H167      1.0  0.38210  0.64734  0.84644  1.0000
  Fe  Fe19      1.0  0.43008  0.90486  0.86441  1.0000
  H   H168      1.0  0.08845  0.69270  0.86987  1.0000
  Fe  Fe20      1.0  0.45163  0.84019  0.87867  1.0000
  H   H169      1.0  0.44064  0.70728  0.94362  1.0000
  S   S41       1.0  0.40246  0.89767  0.91119  1.0000
  S   S42       1.0  0.42718  0.82972  0.92615  1.0000
  S   S43       1.0  0.48518  0.90740  0.88161  1.0000
  H   H170      1.0  0.33726  0.58578  0.86534  1.0000
  H   H171      1.0  0.07779  0.70767  0.92329  1.0000
  H   H172      1.0  0.05033  0.65394  0.92973  1.0000
  H   H173      1.0  0.08476  0.61482  0.92125  1.0000
  H   H174      1.0  0.08862  0.68392  0.95427  1.0000
  H   H175      1.0  0.03670  0.51894  0.68066  1.0000
  C   C135      1.0  0.21878  0.68444  0.87047  1.0000
  C   C136      1.0  0.24782  0.72036  0.85583  1.0000
  C   C137      1.0  0.27882  0.75016  0.87201  1.0000
  C   C138      1.0  0.28049  0.74454  0.90315  1.0000
  C   C139      1.0  0.25201  0.70827  0.91766  1.0000
  C   C140      1.0  0.22164  0.67808  0.90134  1.0000
  H   H176      1.0  0.24594  0.72548  0.83194  1.0000
  H   H177      1.0  0.30050  0.77804  0.86060  1.0000
  H   H178      1.0  0.25314  0.70375  0.94174  1.0000
  H   H179      1.0  0.19997  0.65042  0.91288  1.0000
  C   C141      1.0  0.47352  0.69846  0.87444  1.0000
  S   S44       1.0  0.47867  0.55664  0.91267  1.0000
  C   C142      1.0  0.44625  0.98521  0.77344  1.0000
  H   H180      1.0  0.11183  0.66281  0.86403  1.0000
  H   H181      1.0  0.37682  0.64620  0.93329  1.0000
  C   C143      1.0  0.35005  0.66058  0.88143  1.0000
  H   H182      1.0  0.27958  0.59571  0.87432  1.0000
  H   H183      1.0  0.27619  0.61854  0.90796  1.0000
  C   C144      1.0  0.11343  0.64350  0.92155  1.0000
  C   C145      1.0  0.20603  0.77284  0.88486  1.0000
  C   C146      1.0  0.45046  0.71418  0.92015  1.0000
  H   H184      1.0  0.41710  0.98215  0.77498  1.0000
  S   S45       1.0  0.03742  0.54381  0.95548  1.0000
  C   C147      1.0  0.38842  0.70432  0.83759  1.0000
  N   N11       1.0  0.33290  0.62229  0.89949  1.0000
  H   H185      1.0  0.13526  0.64032  0.90723  1.0000
  H   H186      1.0  0.42226  0.97679  0.93435  1.0000
  Fe  Fe21      1.0  0.12730  0.50926  0.89303  1.0000
  H   H187      1.0  0.44633  0.76779  0.91784  1.0000
  H   H188      1.0  0.33224  0.60134  0.94533  1.0000
  C   C148      1.0  0.37384  0.66832  0.85462  1.0000
  C   C149      1.0  0.21975  0.50798  0.86619  1.0000
  H   H189      1.0  0.15501  0.71211  0.95920  1.0000
  S   S46       1.0  0.42894  0.95095  0.83128  1.0000
  H   H190      1.0  0.37941  0.60900  0.88948  1.0000
  H   H191      1.0  0.15746  0.72932  0.86156  1.0000
  S   S47       1.0  0.32153  0.50543  0.85070  1.0000
  N   N12       1.0  0.10946  0.67779  0.91026  1.0000
  C   C150      1.0  0.08039  0.68112  0.93023  1.0000
  C   C151      1.0  0.28903  0.60117  0.89811  1.0000
  H   H192      1.0  0.22161  0.78929  0.86415  1.0000
  C   C152      1.0  0.16890  0.73809  0.88375  1.0000
  C   C153      1.0  0.45414  0.74884  0.90570  1.0000
  C   C154      1.0  0.14858  0.71501  0.91048  1.0000
  H   H193      1.0  0.02458  0.53831  0.78951  1.0000
  C   C155      1.0  0.34198  0.69107  0.88991  1.0000
  H   H194      1.0  0.40718  0.71005  0.81760  1.0000
  H   H195      1.0  0.19964  0.52969  0.75098  1.0000
  H   H196      1.0  0.20171  0.51696  0.85360  1.0000
  H   H197      1.0  0.27484  0.57150  0.91064  1.0000
  H   H198      1.0  0.26412  0.52561  0.83023  1.0000
  H   H199      1.0  0.39285  0.76207  0.83402  1.0000
  C   C156      1.0  0.09257  0.66825  0.87979  1.0000
  H   H200      1.0  0.25375  0.81130  0.91290  1.0000
  C   C157      1.0  0.35748  0.72726  0.87304  1.0000
  C   C158      1.0  0.45997  0.68875  0.90461  1.0000
  C   C159      1.0  0.34400  0.62984  0.93148  1.0000
  C   C160      1.0  0.22420  0.78533  0.91232  1.0000
  Fe  Fe22      1.0  0.46133  0.53341  0.86578  1.0000
  C   C161      1.0  0.16804  0.72866  0.93808  1.0000
  Fe  Fe23      1.0  0.42040  0.50385  0.92819  1.0000
  H   H201      1.0  0.06303  0.64030  0.88047  1.0000
  C   C162      1.0  0.47903  0.73429  0.86042  1.0000
  H   H202      1.0  0.12329  0.64647  0.94516  1.0000
  C   C163      1.0  0.25501  0.51268  0.85294  1.0000
  S   S48       1.0  0.45849  0.64779  0.92481  1.0000
  H   H203      1.0  0.22036  0.77240  0.95998  1.0000
  C   C164      1.0  0.46946  0.75968  0.87605  1.0000
  Fe  Fe24      1.0  0.06544  0.50668  0.84934  1.0000
  C   C165      1.0  0.20533  0.76324  0.93886  1.0000
  C   C166      1.0  0.00709  0.51396  0.77501  1.0000
  H   H204      1.0  0.48007  0.98547  0.88200  1.0000
  H   H205      1.0  0.43118  0.94453  0.98235  1.0000
  H   H206      1.0  0.41874  0.98000  0.89394  1.0000
  H   H207      1.0  0.44813  0.50049  0.79268  1.0000
  H   H208      1.0  0.06790  0.50219  0.66374  1.0000
  H   H209      1.0  0.48636  0.97800  0.92105  1.0000
  C   C167      1.0  0.18177  0.50477  0.76680  1.0000
  H   H210      1.0  0.48141  0.67934  0.86237  1.0000
  C   C168      1.0  0.43023  0.99800  0.91439  1.0000
  H   H211      1.0  0.47419  0.80351  0.96292  1.0000
  H   H212      1.0  0.49090  0.74245  0.83745  1.0000
  H   H213      1.0  0.23100  0.49849  0.78088  1.0000
  Fe  Fe25      1.0  0.53295  0.44052  0.10616  1.0000
  C   C169      1.0  0.75159  0.42686  0.12343  1.0000
  Fe  Fe26      1.0  0.58964  0.41384  0.13222  1.0000
  S   S49       1.0  0.54812  0.37879  0.17130  1.0000
  H   H214      1.0  0.78400  0.20840  0.13152  1.0000
  S   S50       1.0  0.82178  0.48778  0.14382  1.0000
  S   S51       1.0  0.55407  0.02558  0.20952  1.0000
  Fe  Fe27      1.0  0.53667  0.43052  0.17520  1.0000
  H   H215      1.0  0.80094  0.48975  0.06716  1.0000
  S   S52       1.0  0.54255  0.38911  0.09795  1.0000
  Fe  Fe28      1.0  0.89934  0.42237  0.10433  1.0000
  S   S53       1.0  0.90575  0.38932  0.14473  1.0000
  S   S54       1.0  0.92589  0.41608  0.05969  1.0000
  Fe  Fe29      1.0  0.85298  0.45136  0.14219  1.0000
  S   S55       1.0  0.85831  0.42246  0.18531  1.0000
  C   C170      1.0  0.71126  0.40905  0.11697  1.0000
  Fe  Fe30      1.0  0.92166  0.44469  0.17020  1.0000
  H   H216      1.0  0.82435  0.24366  0.17462  1.0000
  Fe  Fe31      1.0  0.84205  0.36961  0.15654  1.0000
  S   S56       1.0  0.79608  0.30895  0.17752  1.0000
  S   S57       1.0  0.83378  0.39748  0.11415  1.0000
  Fe  Fe32      1.0  0.52117  0.12484  0.15631  1.0000
  S   S58       1.0  0.54116  0.13143  0.10771  1.0000
  S   S59       1.0  0.98065  0.47362  0.19468  1.0000
  Fe  Fe33      1.0  0.54415  0.06116  0.17174  1.0000
  S   S60       1.0  0.56706  0.06363  0.12399  1.0000
  C   C171      1.0  0.63359  0.46439  0.04613  1.0000
  Fe  Fe34      1.0  0.59435  0.13069  0.12565  1.0000
  S   S61       1.0  0.65471  0.17590  0.10482  1.0000
  Fe  Fe35      1.0  0.51215  0.06385  0.10939  1.0000
  H   H217      1.0  0.69735  0.38138  0.10525  1.0000
  S   S62       1.0  0.57642  0.12820  0.17404  1.0000
  H   H218      1.0  0.65199  0.12447  0.15632  1.0000
  H   H219      1.0  0.65733  0.26298  0.10977  1.0000
  H   H220      1.0  0.76838  0.41292  0.11658  1.0000
  H   H221      1.0  0.79917  0.21863  0.22676  1.0000
  H   H222      1.0  0.74070  0.43347  0.04716  1.0000
  C   C172      1.0  0.75578  0.27435  0.15675  1.0000
  C   C173      1.0  0.72109  0.24497  0.17230  1.0000
  C   C174      1.0  0.68921  0.21571  0.15649  1.0000
  C   C175      1.0  0.69241  0.21459  0.12515  1.0000
  C   C176      1.0  0.72682  0.24429  0.10958  1.0000
  C   C177      1.0  0.75820  0.27441  0.12526  1.0000
  H   H223      1.0  0.71898  0.24491  0.19666  1.0000
  H   H224      1.0  0.66252  0.19363  0.16854  1.0000
  H   H225      1.0  0.72946  0.24381  0.08528  1.0000
  H   H226      1.0  0.78481  0.29686  0.11307  1.0000
  C   C178      1.0  0.78137  0.20257  0.20801  1.0000
  H   H227      1.0  0.58279  0.32765  0.26883  1.0000
  C   C179      1.0  0.95822  0.45818  0.25605  1.0000
  C   C180      1.0  0.52140  0.47911  0.27443  1.0000
  C   C181      1.0  0.55461  0.32438  0.26243  1.0000
  C   C182      1.0  0.95605  0.45219  0.03070  1.0000
  C   C183      1.0  0.68892  0.42673  0.12556  1.0000
  C   C184      1.0  0.70721  0.46258  0.14068  1.0000
  C   C185      1.0  0.96871  0.43943  0.00561  1.0000
  C   C186      1.0  0.77029  0.46314  0.13789  1.0000
  H   H228      1.0  0.50631  0.49426  0.31747  1.0000
  C   C187      1.0  0.52298  0.28671  0.25651  1.0000
  H   H229      1.0  0.73393  0.15920  0.23647  1.0000
  H   H230      1.0  0.50123  0.28972  0.18467  1.0000
  H   H231      1.0  0.51368  0.41011  0.00584  1.0000
  C   C188      1.0  0.77483  0.49246  0.06372  1.0000
  S   S63       1.0  0.53999  0.48190  0.06553  1.0000
  C   C189      1.0  0.96654  0.46042  0.28707  1.0000
  C   C190      1.0  0.67278  0.36771  0.18747  1.0000
  H   H232      1.0  0.65569  0.30593  0.09441  1.0000
  S   S64       1.0  0.54224  0.45870  0.22101  1.0000
  H   H233      1.0  0.62584  0.43849  0.06213  1.0000
  H   H234      1.0  0.69025  0.47642  0.14747  1.0000
  H   H235      1.0  0.66811  0.08843  0.15131  1.0000
  S   S65       1.0  0.63880  0.40332  0.11555  1.0000
  H   H236      1.0  0.65655  0.15261  0.20919  1.0000
  C   C191      1.0  0.50726  0.45773  0.24799  1.0000
  C   C192      1.0  0.71899  0.14873  0.18908  1.0000
  N   N13       1.0  0.62031  0.27990  0.13540  1.0000
  C   C193      1.0  0.60284  0.24117  0.15287  1.0000
  C   C194      1.0  0.58769  0.28758  0.12748  1.0000
  C   C195      1.0  0.63794  0.27619  0.10652  1.0000
  C   C196      1.0  0.65082  0.31153  0.15371  1.0000
  C   C197      1.0  0.64346  0.33841  0.17016  1.0000
  C   C198      1.0  0.68854  0.31484  0.15690  1.0000
  H   H237      1.0  0.62562  0.23291  0.15846  1.0000
  H   H238      1.0  0.58868  0.24227  0.17457  1.0000
  H   H239      1.0  0.57957  0.21622  0.14017  1.0000
  H   H240      1.0  0.56998  0.28644  0.14767  1.0000
  H   H241      1.0  0.56589  0.26446  0.11271  1.0000
  H   H242      1.0  0.59943  0.31736  0.11552  1.0000
  H   H243      1.0  0.62427  0.07495  0.17319  1.0000
  C   C199      1.0  0.79584  0.21657  0.17861  1.0000
  H   H244      1.0  0.61484  0.25565  0.09116  1.0000
  H   H245      1.0  0.61580  0.33841  0.16928  1.0000
  H   H246      1.0  0.69616  0.29500  0.14587  1.0000
  N   N14       1.0  0.67858  0.11410  0.19528  1.0000
  C   C200      1.0  0.68154  0.08010  0.20874  1.0000
  C   C201      1.0  0.65613  0.12474  0.21693  1.0000
  C   C202      1.0  0.73513  0.16322  0.15930  1.0000
  C   C203      1.0  0.77298  0.19667  0.15434  1.0000
  H   H247      1.0  0.69701  0.08765  0.23046  1.0000
  H   H248      1.0  0.65154  0.05335  0.21349  1.0000
  H   H249      1.0  0.69834  0.07125  0.19326  1.0000
  H   H250      1.0  0.66803  0.12938  0.23993  1.0000
  H   H251      1.0  0.62442  0.10070  0.21976  1.0000
  H   H252      1.0  0.71865  0.15039  0.13935  1.0000
  C   C204      1.0  0.65490  0.10004  0.16778  1.0000
  H   H253      1.0  0.73298  0.39432  0.20191  1.0000
  C   C205      1.0  0.71761  0.34419  0.17424  1.0000
  Fe  Fe36      1.0  0.50068  0.35729  0.13727  1.0000
  S   S66       1.0  0.91787  0.47865  0.12910  1.0000
  S   S67       1.0  0.58285  0.46763  0.13862  1.0000
  H   H254      1.0  0.52178  0.09793  0.01770  1.0000
  C   C206      1.0  0.50436  0.23554  0.18276  1.0000
  C   C207      1.0  0.70988  0.37081  0.18929  1.0000
  H   H255      1.0  0.66714  0.38904  0.19867  1.0000
  H   H256      1.0  0.74658  0.34672  0.17566  1.0000
  C   C208      1.0  0.74373  0.16887  0.21327  1.0000
  H   H257      1.0  0.68047  0.43666  0.04228  1.0000
  C   C209      1.0  0.54995  0.35787  0.26006  1.0000
  H   H258      1.0  0.57454  0.38729  0.26456  1.0000
  C   C210      1.0  0.51375  0.35381  0.25164  1.0000
  H   H259      1.0  0.92782  0.44311  0.24904  1.0000
  C   C211      1.0  0.49501  0.47798  0.29718  1.0000
  S   S68       1.0  0.50713  0.16631  0.18224  1.0000
  H   H260      1.0  0.94225  0.44689  0.30365  1.0000
  C   C212      1.0  0.74797  0.48097  0.14650  1.0000
  H   H261      1.0  0.51169  0.38073  0.25030  1.0000
  H   H262      1.0  0.98618  0.48433  0.09351  1.0000
  H   H263      1.0  0.52671  0.26068  0.25834  1.0000
  C   C213      1.0  0.96812  0.49290  0.03212  1.0000
  H   H264      1.0  0.60673  0.46774  0.04556  1.0000
  H   H265      1.0  0.98131  0.41956  0.10541  1.0000
  C   C214      1.0  0.74076  0.46074  0.05251  1.0000
  C   C215      1.0  0.70620  0.46307  0.04982  1.0000
  C   C216      1.0  0.49615  0.20198  0.16621  1.0000
  H   H266      1.0  0.53626  0.01078  0.05703  1.0000
  C   C217      1.0  0.49462  0.26397  0.17176  1.0000
  H   H267      1.0  0.95944  0.40802  0.00419  1.0000
  H   H268      1.0  0.51851  0.23959  0.20414  1.0000
  H   H269      1.0  0.63826  0.45662  0.02308  1.0000
  C   C218      1.0  0.50321  0.47635  0.03970  1.0000
  C   C219      1.0  0.52055  0.99988  0.24076  1.0000
  C   C220      1.0  0.98923  0.47546  0.23421  1.0000
  H   H270      1.0  0.65471  0.48723  0.10316  1.0000
  H   H271      1.0  0.55303  0.49650  0.27737  1.0000
  H   H272      1.0  0.55481  0.06361  0.99597  1.0000
  C   C221      1.0  0.70508  0.49788  0.05799  1.0000
  C   C222      1.0  0.51336  0.08479  0.99583  1.0000
  H   H273      1.0  0.87467  0.40115  0.50296  1.0000
  Fe  Fe37      1.0  0.54604  0.42705  0.61166  1.0000
  C   C223      1.0  0.51920  0.21028  0.64903  1.0000
  Fe  Fe38      1.0  0.62071  0.47402  0.64778  1.0000
  H   H274      1.0  0.70375  0.35551  0.55164  1.0000
  C   C224      1.0  0.68082  0.21681  0.64968  1.0000
  H   H275      1.0  0.67583  0.38013  0.55877  1.0000
  H   H276      1.0  0.70368  0.40330  0.62544  1.0000
  C   C225      1.0  0.61400  0.23872  0.59531  1.0000
  S   S69       1.0  0.60001  0.42082  0.61915  1.0000
  Fe  Fe39      1.0  0.89900  0.42180  0.60379  1.0000
  H   H277      1.0  0.93752  0.46017  0.37363  1.0000
  S   S70       1.0  0.93527  0.41203  0.56752  1.0000
  Fe  Fe40      1.0  0.84189  0.45285  0.61628  1.0000
  C   C226      1.0  0.91082  0.43458  0.46356  1.0000
  C   C227      1.0  0.92424  0.45696  0.39679  1.0000
  C   C228      1.0  0.51254  0.44645  0.53840  1.0000
  S   S71       1.0  0.83294  0.39447  0.60016  1.0000
  Fe  Fe41      1.0  0.52074  0.12196  0.63738  1.0000
  S   S72       1.0  0.54849  0.12076  0.59332  1.0000
  C   C229      1.0  0.61284  0.31009  0.58671  1.0000
  H   H278      1.0  0.97774  0.46717  0.65970  1.0000
  S   S73       1.0  0.57020  0.05725  0.62629  1.0000
  Fe  Fe42      1.0  0.59784  0.12442  0.62083  1.0000
  S   S74       1.0  0.65972  0.16739  0.60127  1.0000
  Fe  Fe43      1.0  0.51875  0.05405  0.60143  1.0000
  C   C230      1.0  0.74296  0.28043  0.65128  1.0000
  H   H279      1.0  0.55175  0.20904  0.58623  1.0000
  H   H280      1.0  0.61078  0.33684  0.58318  1.0000
  S   S75       1.0  0.51258  0.38688  0.65257  1.0000
  H   H281      1.0  0.97549  0.45776  0.62030  1.0000
  C   C231      1.0  0.75322  0.27496  0.62215  1.0000
  C   C232      1.0  0.72755  0.24011  0.60706  1.0000
  C   C233      1.0  0.69133  0.21080  0.62082  1.0000
  H   H282      1.0  0.88621  0.46118  0.52941  1.0000
  C   C234      1.0  0.64872  0.27541  0.59850  1.0000
  H   H283      1.0  0.78126  0.29712  0.61151  1.0000
  H   H284      1.0  0.73595  0.23574  0.58474  1.0000
  H   H285      1.0  0.51223  0.29523  0.64703  1.0000
  H   H286      1.0  0.66019  0.35805  0.63985  1.0000
  H   H287      1.0  0.71075  0.33145  0.63229  1.0000
  C   C235      1.0  0.97884  0.45562  0.42036  1.0000
  C   C236      1.0  0.52455  0.27596  0.65131  1.0000
  C   C237      1.0  0.89301  0.43059  0.49207  1.0000
  C   C238      1.0  0.67630  0.37594  0.61896  1.0000
  C   C239      1.0  0.98673  0.43430  0.51808  1.0000
  C   C240      1.0  0.64907  0.31232  0.59462  1.0000
  H   H288      1.0  0.72641  0.40259  0.56964  1.0000
  H   H289      1.0  0.90467  0.40739  0.45285  1.0000
  H   H290      1.0  0.60805  0.00828  0.45641  1.0000
  H   H291      1.0  0.65741  0.38692  0.60875  1.0000
  C   C241      1.0  0.55554  0.05652  0.45225  1.0000
  Fe  Fe44      1.0  0.82826  0.37682  0.64915  1.0000
  C   C242      1.0  0.50373  0.23570  0.64330  1.0000
  H   H292      1.0  0.90503  0.47071  0.39592  1.0000
  C   C243      1.0  0.77059  0.48389  0.60967  1.0000
  H   H293      1.0  0.74520  0.37882  0.61387  1.0000
  C   C244      1.0  0.97059  0.44760  0.54050  1.0000
  H   H294      1.0  0.61427  0.21095  0.59904  1.0000
  C   C245      1.0  0.57827  0.27322  0.58365  1.0000
  C   C246      1.0  0.89957  0.46442  0.50708  1.0000
  N   N15       1.0  0.95533  0.47619  0.41933  1.0000
  C   C247      1.0  0.69826  0.37342  0.56825  1.0000
  S   S76       1.0  0.51304  0.41349  0.56731  1.0000
  H   H295      1.0  0.65319  0.19452  0.66058  1.0000
  H   H296      1.0  0.72978  0.33413  0.59442  1.0000
  C   C248      1.0  0.93660  0.47285  0.44945  1.0000
  C   C249      1.0  0.71899  0.34873  0.61027  1.0000
  N   N16       1.0  0.61695  0.10577  0.52104  1.0000
  C   C250      1.0  0.60331  0.13521  0.52460  1.0000
  C   C251      1.0  0.60445  0.07942  0.54878  1.0000
  C   C252      1.0  0.66101  0.12874  0.51870  1.0000
  C   C253      1.0  0.60071  0.08079  0.49451  1.0000
  C   C254      1.0  0.61387  0.05390  0.48635  1.0000
  C   C255      1.0  0.57064  0.08106  0.47684  1.0000
  H   H297      1.0  0.73196  0.46806  0.57201  1.0000
  H   H298      1.0  0.58088  0.48910  0.33154  1.0000
  C   C256      1.0  0.71029  0.48832  0.60846  1.0000
  H   H299      1.0  0.61689  0.15422  0.54427  1.0000
  H   H300      1.0  0.61143  0.15579  0.50429  1.0000
  H   H301      1.0  0.57061  0.12000  0.52899  1.0000
  H   H302      1.0  0.57160  0.06314  0.55220  1.0000
  H   H303      1.0  0.61732  0.09685  0.56918  1.0000
  H   H304      1.0  0.61385  0.05659  0.54819  1.0000
  H   H305      1.0  0.67426  0.10912  0.52022  1.0000
  H   H306      1.0  0.67170  0.14686  0.49705  1.0000
  H   H307      1.0  0.67381  0.14965  0.53751  1.0000
  H   H308      1.0  0.63533  0.05068  0.49944  1.0000
  S   S77       1.0  0.89366  0.39818  0.65211  1.0000
  H   H309      1.0  0.55769  0.09935  0.48182  1.0000
  H   H310      1.0  0.97697  0.40270  0.51735  1.0000
  C   C257      1.0  0.51035  0.49653  0.49088  1.0000
  C   C258      1.0  0.57885  0.23760  0.58794  1.0000
  H   H311      1.0  0.55063  0.27217  0.57853  1.0000
  H   H312      1.0  0.90486  0.42429  0.40183  1.0000
  H   H313      1.0  0.67477  0.27394  0.60426  1.0000
  N   N17       1.0  0.68516  0.35174  0.59811  1.0000
  S   S78       1.0  0.56982  0.48390  0.63670  1.0000
  S   S79       1.0  0.90852  0.48180  0.61626  1.0000
  C   C259      1.0  0.59856  0.02954  0.46171  1.0000
  C   C260      1.0  0.56956  0.03094  0.44465  1.0000
  C   C261      1.0  0.73712  0.47895  0.59461  1.0000
  H   H314      1.0  0.55688  0.01100  0.42620  1.0000
  H   H315      1.0  0.96093  0.42341  0.42734  1.0000
  C   C262      1.0  0.53718  0.48806  0.53858  1.0000
  H   H316      1.0  0.68467  0.48445  0.59655  1.0000
  S   S80       1.0  0.80310  0.47136  0.59115  1.0000
  H   H317      1.0  0.53209  0.05656  0.43943  1.0000
  C   C263      1.0  0.98382  0.48860  0.54137  1.0000
  H   H318      1.0  0.56679  0.46873  0.38585  1.0000
  Fe  Fe45      1.0  0.56878  0.38558  0.66184  1.0000
  C   C264      1.0  0.54603  0.39799  0.97191  1.0000
  H   H319      1.0  0.76445  0.36894  0.74132  1.0000
  C   C265      1.0  0.49937  0.42022  0.96091  1.0000
  N   N18       1.0  0.71707  0.39429  0.71431  1.0000
  H   H320      1.0  0.56808  0.20616  0.66710  1.0000
  S   S81       1.0  0.54216  0.03354  0.71370  1.0000
  C   C266      1.0  0.69112  0.37512  0.74164  1.0000
  C   C267      1.0  0.81862  0.42368  0.74481  1.0000
  H   H321      1.0  0.56108  0.38932  0.98823  1.0000
  Fe  Fe46      1.0  0.53895  0.44396  0.67811  1.0000
  C   C268      1.0  0.50587  0.42016  0.92934  1.0000
  C   C269      1.0  0.53398  0.19952  0.76205  1.0000
  S   S82       1.0  0.58610  0.34011  0.67814  1.0000
  H   H322      1.0  0.94357  0.42678  0.72266  1.0000
  C   C270      1.0  0.53184  0.06525  0.98358  1.0000
  S   S83       1.0  0.49982  0.45966  0.70721  1.0000
  H   H323      1.0  0.69845  0.25538  0.68738  1.0000
  S   S84       1.0  0.83430  0.43418  0.66516  1.0000
  H   H324      1.0  0.83380  0.40903  0.75439  1.0000
  Fe  Fe47      1.0  0.90017  0.45717  0.66461  1.0000
  Fe  Fe48      1.0  0.53986  0.06265  0.66855  1.0000
  H   H325      1.0  0.51684  0.27476  0.74003  1.0000
  S   S85       1.0  0.59174  0.43890  0.69089  1.0000
  C   C271      1.0  0.78056  0.46162  0.71864  1.0000
  C   C272      1.0  0.96128  0.45124  0.73701  1.0000
  S   S86       1.0  0.77438  0.32310  0.67150  1.0000
  H   H326      1.0  0.71982  0.34043  0.70629  1.0000
  C   C273      1.0  0.77891  0.40100  0.73704  1.0000
  C   C274      1.0  0.75877  0.41918  0.72323  1.0000
  C   C275      1.0  0.83934  0.46506  0.73940  1.0000
  C   C276      1.0  0.96462  0.48871  0.73125  1.0000
  C   C277      1.0  0.55097  0.13816  0.74109  1.0000
  H   H327      1.0  0.55548  0.25966  0.77658  1.0000
  H   H328      1.0  0.55135  0.19426  0.77834  1.0000
  C   C278      1.0  0.55322  0.39754  0.94105  1.0000
  H   H329      1.0  0.69903  0.35484  0.75421  1.0000
  H   H330      1.0  0.55676  0.47856  0.75585  1.0000
  C   C279      1.0  0.55586  0.22542  0.66264  1.0000
  C   C280      1.0  0.50856  0.00800  0.74502  1.0000
  H   H331      1.0  0.52479  0.02030  0.89894  1.0000
  H   H332      1.0  0.73514  0.37562  0.67490  1.0000
  H   H333      1.0  0.57410  0.38856  0.93345  1.0000
  H   H334      1.0  0.53413  0.03004  0.94898  1.0000
  H   H335      1.0  0.52594  0.45116  0.86961  1.0000
  H   H336      1.0  0.69350  0.39810  0.75739  1.0000
  H   H337      1.0  0.97759  0.41604  0.76592  1.0000
  H   H338      1.0  0.56952  0.16068  0.72288  1.0000
  H   H339      1.0  0.50263  0.12235  0.79010  1.0000
  C   C281      1.0  0.51427  0.24541  0.74114  1.0000
  C   C282      1.0  0.53315  0.48342  0.76364  1.0000
  H   H340      1.0  0.52765  0.49502  0.91003  1.0000
  H   H341      1.0  0.70090  0.44045  0.71159  1.0000
  C   C283      1.0  0.71360  0.36244  0.69450  1.0000
  H   H342      1.0  0.71965  0.43223  0.67659  1.0000
  H   H343      1.0  0.50267  0.12516  0.69372  1.0000
  H   H344      1.0  0.56589  0.14887  0.76272  1.0000
  H   H345      1.0  0.68315  0.34448  0.68594  1.0000
  C   C284      1.0  0.70157  0.41731  0.69760  1.0000
  C   C285      1.0  0.98066  0.44523  0.76163  1.0000
  C   C286      1.0  0.51014  0.16974  0.74170  1.0000
  C   C287      1.0  0.50173  0.47551  0.74482  1.0000
  H   H346      1.0  0.67043  0.39770  0.69071  1.0000
  C   C288      1.0  0.51953  0.04601  0.95634  1.0000
  H   H347      1.0  0.60433  0.27679  0.68209  1.0000
  C   C289      1.0  0.82028  0.48400  0.72654  1.0000
  H   H348      1.0  0.76792  0.47826  0.70848  1.0000
  H   H349      1.0  0.87050  0.48238  0.74464  1.0000
  C   C290      1.0  0.53628  0.23693  0.76145  1.0000
  H   H350      1.0  0.55193  0.11020  0.73710  1.0000
  H   H351      1.0  0.65933  0.35673  0.73579  1.0000
  H   H352      1.0  0.51496  0.07710  0.88418  1.0000
  C   C291      1.0  0.51925  0.40949  0.98181  1.0000
  H   H353      1.0  0.54067  0.40776  0.89641  1.0000
  C   C292      1.0  0.53362  0.40856  0.91992  1.0000
  C   C293      1.0  0.56068  0.29078  0.66559  1.0000
  C   C294      1.0  0.57638  0.26549  0.67108  1.0000
  C   C295      1.0  0.49510  0.47416  0.91289  1.0000
  C   C296      1.0  0.70658  0.25138  0.66486  1.0000
  N   N19       1.0  0.50974  0.13111  0.74162  1.0000
  S   S87       1.0  0.57210  0.13023  0.66454  1.0000
  H   H354      1.0  0.49334  0.08034  0.71373  1.0000
  C   C297      1.0  0.49403  0.43018  0.87560  1.0000
  C   C298      1.0  0.49219  0.00139  0.90319  1.0000
  H   H355      1.0  0.56292  0.98989  0.26445  1.0000
  H   H356      1.0  0.54448  0.77514  0.31266  1.0000
  C   C299      1.0  0.77480  0.52703  0.07177  1.0000
  H   H357      1.0  0.53821  0.86867  0.30102  1.0000
  C   C300      1.0  0.67651  0.53439  0.03390  1.0000
  C   C301      1.0  0.65856  0.51047  0.08576  1.0000
  H   H358      1.0  0.68541  0.52918  0.01127  1.0000
  H   H359      1.0  0.70053  0.56391  0.04099  1.0000
  H   H360      1.0  0.53586  0.78697  0.99656  1.0000
  H   H361      1.0  0.51664  0.95104  0.30780  1.0000
  H   H362      1.0  0.58043  0.60151  0.30073  1.0000
  N   N20       1.0  0.66897  0.50138  0.05587  1.0000
  H   H363      1.0  0.54566  0.71201  0.31442  1.0000
  H   H364      1.0  0.49653  0.80259  0.27625  1.0000
  H   H365      1.0  0.55699  0.92287  0.16902  1.0000
  C   C302      1.0  0.53287  0.98450  0.26480  1.0000
  H   H366      1.0  0.52414  0.82462  0.24180  1.0000
  C   C303      1.0  0.74068  0.53001  0.06867  1.0000
  N   N21       1.0  0.50102  0.85908  0.26288  1.0000
  H   H367      1.0  0.74220  0.55740  0.07537  1.0000
  H   H368      1.0  0.57603  0.64207  0.31429  1.0000
  H   H369      1.0  0.76233  0.50911  0.15765  1.0000
  H   H370      1.0  0.64956  0.53726  0.03134  1.0000
  C   C304      1.0  0.51788  0.97465  0.01758  1.0000
  C   C305      1.0  0.51308  0.50634  0.01688  1.0000
  C   C306      1.0  0.50661  0.96218  0.28928  1.0000
  H   H371      1.0  0.56491  0.88782  0.26582  1.0000
  H   H372      1.0  0.59674  0.55605  0.31379  1.0000
  H   H373      1.0  0.68147  0.53991  0.09371  1.0000
  H   H374      1.0  0.80115  0.55113  0.08124  1.0000
  C   C307      1.0  0.57340  0.61281  0.32128  1.0000
  H   H375      1.0  0.63044  0.51148  0.08528  1.0000
  H   H376      1.0  0.55439  0.88432  0.21467  1.0000
  C   C308      1.0  0.51328  0.99635  0.04088  1.0000
  C   C309      1.0  0.53832  0.88327  0.27890  1.0000
  H   H377      1.0  0.54276  0.91337  0.28350  1.0000
  C   C310      1.0  0.53328  0.91412  0.18585  1.0000
  C   C311      1.0  0.53154  0.89214  0.21210  1.0000
  H   H378      1.0  0.95812  0.50317  0.05094  1.0000
  H   H379      1.0  0.54242  0.53255  0.01583  1.0000
  H   H380      1.0  0.54454  0.97260  0.01606  1.0000
  C   C312      1.0  0.49808  0.82044  0.25543  1.0000
  C   C313      1.0  0.50139  0.88124  0.23488  1.0000
  H   H381      1.0  0.64787  0.62624  0.31712  1.0000
  C   C314      1.0  0.50504  0.92568  0.18144  1.0000
  H   H382      1.0  0.50705  0.94371  0.16151  1.0000
  H   H383      1.0  0.50076  0.81829  0.99715  1.0000
  H   H384      1.0  0.57267  0.85896  0.99541  1.0000
  H   H385      1.0  0.54156  0.59219  0.32754  1.0000
  H   H386      1.0  0.64872  0.67110  0.32778  1.0000
  S   S88       1.0  0.68540  0.51880  0.65366  1.0000
  H   H387      1.0  0.56910  0.51658  0.42275  1.0000
  C   C315      1.0  0.50164  0.75776  0.34952  1.0000
  S   S89       1.0  0.50261  0.80404  0.34538  1.0000
  C   C316      1.0  0.59223  0.63935  0.37031  1.0000
  H   H388      1.0  0.96678  0.53529  0.40533  1.0000
  S   S90       1.0  0.50598  0.64083  0.35022  1.0000
  C   C317      1.0  0.71779  0.50475  0.63689  1.0000
  C   C318      1.0  0.75186  0.51082  0.65170  1.0000
  C   C319      1.0  0.98262  0.51822  0.40825  1.0000
  H   H389      1.0  0.66153  0.64360  0.35448  1.0000
  C   C320      1.0  0.77772  0.49945  0.63847  1.0000
  H   H390      1.0  0.55261  0.95186  0.51549  1.0000
  C   C321      1.0  0.59113  0.57650  0.35808  1.0000
  H   H391      1.0  0.59567  0.66810  0.36092  1.0000
  C   C322      1.0  0.53042  0.96066  0.51282  1.0000
  C   C323      1.0  0.92429  0.50241  0.49378  1.0000
  H   H392      1.0  0.61338  0.64723  0.38890  1.0000
  C   C324      1.0  0.50792  0.95050  0.48668  1.0000
  C   C325      1.0  0.58434  0.56421  0.38926  1.0000
  C   C326      1.0  0.53625  0.51284  0.51486  1.0000
  H   H393      1.0  0.97162  0.49928  0.55835  1.0000
  H   H394      1.0  0.58403  0.58307  0.40666  1.0000
  N   N22       1.0  0.59917  0.61656  0.34685  1.0000
  C   C327      1.0  0.50289  0.68502  0.35145  1.0000
  S   S91       1.0  0.51664  0.92330  0.45885  1.0000
  H   H395      1.0  0.55738  0.50110  0.55673  1.0000
  H   H396      1.0  0.80387  0.50407  0.65000  1.0000
  C   C328      1.0  0.64117  0.64045  0.33606  1.0000
  C   C329      1.0  0.58213  0.51026  0.34767  1.0000
  C   C330      1.0  0.52418  0.98170  0.53573  1.0000
  H   H397      1.0  0.56140  0.62205  0.38017  1.0000
  H   H398      1.0  0.96253  0.53714  0.45701  1.0000
  H   H399      1.0  0.55597  0.54491  0.51501  1.0000
  H   H400      1.0  0.59458  0.56618  0.65107  1.0000
  C   C331      1.0  0.52662  0.71591  0.33032  1.0000
  C   C332      1.0  0.59080  0.54864  0.33769  1.0000
  S   S92       1.0  0.50277  0.89822  0.37109  1.0000
  S   S93       1.0  0.51188  0.52941  0.46102  1.0000
  C   C333      1.0  0.57567  0.52574  0.39896  1.0000
  C   C334      1.0  0.49541  0.99305  0.53267  1.0000
  H   H401      1.0  0.92993  0.52866  0.50587  1.0000
  C   C335      1.0  0.94287  0.50681  0.46551  1.0000
  H   H402      1.0  0.54099  0.98830  0.55602  1.0000
  C   C336      1.0  0.57425  0.49874  0.37821  1.0000
  C   C337      1.0  0.52588  0.75176  0.32929  1.0000
  C   C338      1.0  0.52137  0.99331  0.76919  1.0000
  H   H403      1.0  0.59932  0.88356  0.96071  1.0000
  H   H404      1.0  0.63602  0.54771  0.72058  1.0000
  C   C339      1.0  0.55548  0.58050  0.73009  1.0000
  C   C340      1.0  0.61827  0.59765  0.75211  1.0000
  C   C341      1.0  0.54408  0.74846  0.96783  1.0000
  H   H405      1.0  0.56326  0.87836  0.91436  1.0000
  S   S94       1.0  0.50810  0.52598  0.83908  1.0000
  H   H406      1.0  0.51269  0.58338  0.75986  1.0000
  C   C342      1.0  0.58177  0.56969  0.67260  1.0000
  C   C343      1.0  0.59415  0.58563  0.72649  1.0000
  C   C344      1.0  0.60494  0.60513  0.77929  1.0000
  H   H407      1.0  0.83675  0.51619  0.72206  1.0000
  H   H408      1.0  0.62351  0.61365  0.79874  1.0000
  C   C345      1.0  0.56728  0.60074  0.78180  1.0000
  H   H409      1.0  0.64740  0.60073  0.75147  1.0000
  H   H410      1.0  0.55654  0.60547  0.80314  1.0000
  C   C346      1.0  0.64775  0.61381  0.68820  1.0000
  H   H411      1.0  0.58645  0.51574  0.70876  1.0000
  H   H412      1.0  0.55220  0.81822  0.90011  1.0000
  N   N23       1.0  0.60913  0.57824  0.69788  1.0000
  H   H413      1.0  0.99069  0.54914  0.74618  1.0000
  H   H414      1.0  0.55834  0.76000  0.89176  1.0000
  C   C347      1.0  0.49953  0.82875  0.97382  1.0000
  C   C348      1.0  0.98780  0.51999  0.75035  1.0000
  H   H415      1.0  0.52943  0.88912  0.93351  1.0000
  H   H416      1.0  0.53410  0.56942  0.71255  1.0000
  S   S95       1.0  0.94109  0.49836  0.70042  1.0000
  C   C349      1.0  0.55047  0.74059  0.93848  1.0000
  H   H417      1.0  0.54076  0.72770  0.98621  1.0000
  H   H418      1.0  0.62736  0.53754  0.68166  1.0000
  C   C350      1.0  0.57053  0.87224  0.97341  1.0000
  H   H419      1.0  0.75820  0.52431  0.67342  1.0000
  H   H420      1.0  0.55064  0.99663  0.76782  1.0000
  C   C351      1.0  0.49676  0.97437  0.79516  1.0000
  H   H421      1.0  0.49335  0.52625  0.97810  1.0000
  N   N24       1.0  0.53709  0.84290  0.95585  1.0000
  C   C352      1.0  0.55428  0.76676  0.91466  1.0000
  C   C353      1.0  0.54081  0.78220  0.97341  1.0000
  H   H422      1.0  0.67163  0.61952  0.70405  1.0000
  C   C354      1.0  0.54261  0.58837  0.75731  1.0000
  C   C355      1.0  0.54286  0.80862  0.94950  1.0000
  C   C356      1.0  0.53504  0.86434  0.92814  1.0000
  C   C357      1.0  0.55054  0.80031  0.91989  1.0000
  C   C358      1.0  0.61504  0.54340  0.70248  1.0000
  H   H423      1.0  0.65869  0.60984  0.66589  1.0000
  H   H424      1.0  0.56713  0.89856  0.97849  1.0000
  H   H425      1.0  0.50723  0.96339  0.81350  1.0000
  H   H426      1.0  0.51054  0.84373  0.91382  1.0000
  H   H427      1.0  0.64517  0.64126  0.68625  1.0000
  H   H428      1.0  0.55914  0.50513  0.80661  1.0000
  S   S96       1.0  0.49657  0.93013  0.96663  1.0000
  C   C359      1.0  0.50374  0.50464  0.80329  1.0000
  H   H429      1.0  0.55320  0.54107  0.67705  1.0000
  H   H430      1.0  0.55142  0.71357  0.93406  1.0000
  H   H431      1.0  0.57527  0.59439  0.66843  1.0000
  H   H432      1.0  0.49211  0.85296  0.97634  1.0000
  C   C360      1.0  0.53423  0.49816  0.79258  1.0000
