data_image0
_chemical_formula_structural       H3FeSC2HCHCFeHSH2C2H2C2HSCFeSFeCSFeS3C2H3CH2SCH2FeS2FeSFeSFeS3FeS2FeS2FeSFeHS2HSNHCNH2CHC4HCHFeHCHFeC9H4C6H4C4HC6H4C6NSH2C6H3NS2H3SHSCSHSC2H3CH2C2H3C2H5C2H6C2H5CSCH6C2H4FeHCH2CH2CNC2HCH3CSCHC3NH2C2HCH3CHCHCH12CHNC2FeCFeHC2HSCHC2H4C4H2CH6C5H2C2SHC2HC2HCHCH3C3H3CHCNH2SHCH3CH3CHC2FeHFeC3H3CHSC2HSCHSH2SH2SH2CH2CHSCHCH2CNCH2C2HCH4CHC5H4CHC3SC2HC2HNC2H4C3H2CHC5H3CSFeC2HSHC2H3C5SC4FeSCHCH2C2H2FeCS3FeSH5NSH2SH2CH6CFe2SFeNHCH2CHSHCH2CHFeH4CSCH4C6HCNHC2HC2H3CSHFeH2SH2C2H4CH3FeS2FeS2FeHFeS3HC2HSHCSHC2H2NH4C5H4SCH2SC3FeH2C3HCH4SH3CHCH5NCH2C2H3SNC2HS2HC7H4C6H4C4H3FeCH3C6HC2HCH4CHSH2FeHCHFe2SFeS2CHS3CH2FeS2FeSFeS2HSCHC2FeCH5C6H4C2H2C2FeC3H5C6H7CH2CHSHSHSCHSHFeHNFeH2SH4NC2HCFeSHC2HFeHFeH2CSHCH3CHCH5CFeHCHC2H2CHCNC7H9CNC4H10C3HSH4CSC2HFeHCSH2FeC3S3C6NC9H13FeSH3CFeNCHCFeH3S2CHNCHSC2HC2HCFeHCSH2SCH2SHC2HSHNC5H2SHCH3CSC6H6CH2SC3NHC4H3CH3SC3H2C2H3C3HCHCHCNC4H2SHCH3CHC2H2CHFeHC3H5FeS2HSCFeS2FeS2FeSFeS3HCHFeS2FeS2FeCFeS3C6H4CNSHC4H3C5HC8H4CH2C3H3C6H3CH7C2HNC4H10SCSFeHC2HCH2NC9H2CHSH9CH2C3HC3H3CH3NH5CH3CHNCH2CH2CHCH2CSH4CHC2HC2FeHCHC3HSCSH3C2SFeHCSFeCHC2FeCH3CHCNC2HCHC2H5CHSCSHCH4C2H3NCHCHS2HFeCH3FeHSC2HCHSCHCFeHCHCHC2HCHCH2SH3CH2SHCHCNHFeHSHCNCHC7HC2H4CHCH7CSCHCH2SH2CHFeSHFeS2FeSFeS3C2HCH3FeC2HCH2C6H2NHC6H4CH2CHCH4CHNC9H16C2S2HC3SCHCH2CHCH2CSH5FeHCHSHC2NC7HCH4S2C2FeCSFeSH2C2HC2FeH2CHC4H2CH2CHCFeHC2NCHC3H2C6H2CH3C2HCH2C2H2C3H2CNH3SHS2H2CHCSH3C3FeSHC3H5SCSCH3CH2CSH2S2H2C3SHC2HFeSHCFeHCHNCSHC4H2N2H3CH3CHC3HCHSCFeHSH5SCHSHSHCHCHCH2CHFeC2H2CHC2HFeH2C2HC6H2C2HSHCH2CHC2S2C3H3C2HFeHNH2FeSCNHC2H2CSH2C2H3SCHC2H2CHNH2C2HFeCHSFeH3CHNFeHC2H3CH3C2H3CHSH3C3H2NHCH2C3HCHCH5CH
_chemical_formula_sum              "H864 Fe96 S192 C720 N48"
_cell_length_a       67.4677
_cell_length_b       73.8635
_cell_length_c       33.9063
_cell_angle_alpha    84.945
_cell_angle_beta     78.6851
_cell_angle_gamma    110.839

_space_group_name_H-M_alt    "P 1"
_space_group_IT_number       1

loop_
  _space_group_symop_operation_xyz
  'x, y, z'

loop_
  _atom_site_type_symbol
  _atom_site_label
  _atom_site_symmetry_multiplicity
  _atom_site_fract_x
  _atom_site_fract_y
  _atom_site_fract_z
  _atom_site_occupancy
  H   H1        1.0  0.00251  0.44901  0.46630  1.0000
  H   H2        1.0  0.00575  0.44397  0.53088  1.0000
  H   H3        1.0  0.00116  0.44742  0.39592  1.0000
  Fe  Fe1       1.0  0.01232  0.47318  0.81106  1.0000
  S   S1        1.0  0.00476  0.45478  0.76235  1.0000
  C   C1        1.0  0.98987  0.43636  0.46059  1.0000
  C   C2        1.0  0.98930  0.43564  0.41971  1.0000
  H   H4        1.0  0.99584  0.40800  0.53674  1.0000
  C   C3        1.0  0.99454  0.47932  0.63799  1.0000
  H   H5        1.0  0.07830  0.46213  0.81387  1.0000
  C   C4        1.0  0.09320  0.47515  0.80851  1.0000
  Fe  Fe2       1.0  0.00155  0.48112  0.73065  1.0000
  H   H6        1.0  0.10547  0.46359  0.85433  1.0000
  S   S2        1.0  0.03821  0.47507  0.84578  1.0000
  H   H7        1.0  0.98486  0.45392  0.53022  1.0000
  H   H8        1.0  0.98652  0.44197  0.57688  1.0000
  C   C5        1.0  0.99583  0.47083  0.26672  1.0000
  C   C6        1.0  0.10843  0.47608  0.83146  1.0000
  H   H9        1.0  0.99220  0.46413  0.24046  1.0000
  H   H10       1.0  0.14122  0.48085  0.25004  1.0000
  C   C7        1.0  0.98532  0.47198  0.33830  1.0000
  C   C8        1.0  0.98830  0.44139  0.54364  1.0000
  H   H11       1.0  0.13482  0.53279  0.14640  1.0000
  S   S3        1.0  0.27251  0.66539  0.94491  1.0000
  C   C9        1.0  0.03062  0.53118  0.92265  1.0000
  Fe  Fe3       1.0  0.12019  0.59984  0.20828  1.0000
  S   S4        1.0  0.11864  0.61128  0.14630  1.0000
  Fe  Fe4       1.0  0.12065  0.56459  0.26047  1.0000
  C   C10       1.0  0.02420  0.54360  0.41047  1.0000
  S   S5        1.0  0.11165  0.53193  0.26531  1.0000
  Fe  Fe5       1.0  0.10277  0.59252  0.30007  1.0000
  S   S6        1.0  0.07456  0.59292  0.34702  1.0000
  S   S7        1.0  0.09379  0.57451  0.25203  1.0000
  S   S8        1.0  0.14640  0.58839  0.21196  1.0000
  C   C11       1.0  0.01546  0.48694  0.26251  1.0000
  C   C12       1.0  0.15988  0.69123  0.14956  1.0000
  H   H12       1.0  0.06863  0.52132  0.32011  1.0000
  H   H13       1.0  0.16688  0.70545  0.12793  1.0000
  H   H14       1.0  0.01070  0.51038  0.97848  1.0000
  C   C13       1.0  0.29877  0.59734  0.99459  1.0000
  H   H15       1.0  0.11645  0.64786  0.16650  1.0000
  H   H16       1.0  0.19883  0.66472  0.95422  1.0000
  S   S9        1.0  0.26742  0.71038  0.00223  1.0000
  C   C14       1.0  0.98466  0.52270  0.65944  1.0000
  H   H17       1.0  0.05836  0.49625  0.31244  1.0000
  H   H18       1.0  0.18220  0.69117  0.07988  1.0000
  Fe  Fe6       1.0  0.12890  0.56500  0.88818  1.0000
  S   S10       1.0  0.13032  0.54034  0.92952  1.0000
  S   S11       1.0  0.11021  0.55965  0.83887  1.0000
  Fe  Fe7       1.0  0.15947  0.59664  0.92572  1.0000
  S   S12       1.0  0.16316  0.57417  0.96937  1.0000
  Fe  Fe8       1.0  0.16606  0.55865  0.91607  1.0000
  S   S13       1.0  0.18913  0.54371  0.89719  1.0000
  Fe  Fe9       1.0  0.12716  0.55821  0.97832  1.0000
  S   S14       1.0  0.10694  0.54364  0.04150  1.0000
  S   S15       1.0  0.16522  0.58237  0.87110  1.0000
  S   S16       1.0  0.12287  0.58170  0.93841  1.0000
  Fe  Fe10      1.0  0.21653  0.52366  0.16841  1.0000
  S   S17       1.0  0.24343  0.51830  0.12722  1.0000
  S   S18       1.0  0.18645  0.50034  0.20954  1.0000
  Fe  Fe11      1.0  0.23731  0.56711  0.14271  1.0000
  S   S19       1.0  0.26614  0.56660  0.09755  1.0000
  S   S20       1.0  0.22967  0.59267  0.16048  1.0000
  Fe  Fe12      1.0  0.24168  0.54075  0.08052  1.0000
  S   S21       1.0  0.24716  0.53449  0.01660  1.0000
  Fe  Fe13      1.0  0.26607  0.54432  0.14697  1.0000
  H   H19       1.0  0.14587  0.55000  0.07908  1.0000
  S   S22       1.0  0.21268  0.54388  0.11991  1.0000
  S   S23       1.0  0.23934  0.54713  0.19369  1.0000
  H   H20       1.0  0.14363  0.65072  0.16810  1.0000
  S   S24       1.0  0.01492  0.49056  0.66306  1.0000
  N   N1        1.0  0.14689  0.52133  0.09424  1.0000
  H   H21       1.0  0.98882  0.51375  0.68225  1.0000
  C   C15       1.0  0.13110  0.51002  0.79691  1.0000
  N   N2        1.0  0.14131  0.67652  0.13781  1.0000
  H   H22       1.0  0.03500  0.53254  0.83952  1.0000
  H   H23       1.0  0.12913  0.66198  0.20106  1.0000
  C   C16       1.0  0.22536  0.67133  0.17164  1.0000
  H   H24       1.0  0.13635  0.53704  0.84488  1.0000
  C   C17       1.0  0.16891  0.68043  0.07105  1.0000
  C   C18       1.0  0.25286  0.61414  0.15318  1.0000
  C   C19       1.0  0.27386  0.61383  0.14332  1.0000
  C   C20       1.0  0.27527  0.60005  0.93650  1.0000
  H   H25       1.0  0.27590  0.59999  0.14290  1.0000
  C   C21       1.0  0.17393  0.67564  0.03229  1.0000
  H   H26       1.0  0.98964  0.51827  0.62987  1.0000
  Fe  Fe14      1.0  0.29463  0.68617  0.06978  1.0000
  H   H27       1.0  0.16959  0.50496  0.13876  1.0000
  C   C22       1.0  0.00557  0.50407  0.89918  1.0000
  H   H28       1.0  0.99521  0.53841  0.65750  1.0000
  Fe  Fe15      1.0  0.27762  0.68495  0.99262  1.0000
  C   C23       1.0  0.14549  0.52456  0.13717  1.0000
  C   C24       1.0  0.14745  0.67144  0.09705  1.0000
  C   C25       1.0  0.99666  0.48721  0.59767  1.0000
  C   C26       1.0  0.20474  0.54135  0.93164  1.0000
  C   C27       1.0  0.20119  0.54651  0.97045  1.0000
  C   C28       1.0  0.21398  0.54434  0.99729  1.0000
  C   C29       1.0  0.23033  0.53708  0.98509  1.0000
  C   C30       1.0  0.23373  0.53185  0.94643  1.0000
  C   C31       1.0  0.22096  0.53394  0.91983  1.0000
  H   H29       1.0  0.18849  0.55192  0.97998  1.0000
  H   H30       1.0  0.21108  0.54806  0.02744  1.0000
  H   H31       1.0  0.24635  0.52620  0.93697  1.0000
  H   H32       1.0  0.22375  0.52989  0.88995  1.0000
  C   C32       1.0  0.05822  0.49862  0.84352  1.0000
  C   C33       1.0  0.06330  0.51391  0.81114  1.0000
  C   C34       1.0  0.07933  0.53251  0.80998  1.0000
  C   C35       1.0  0.09039  0.53599  0.84120  1.0000
  C   C36       1.0  0.08535  0.52069  0.87355  1.0000
  C   C37       1.0  0.06941  0.50206  0.87458  1.0000
  H   H33       1.0  0.05531  0.51131  0.78639  1.0000
  H   H34       1.0  0.08322  0.54422  0.78471  1.0000
  H   H35       1.0  0.09345  0.52320  0.89810  1.0000
  H   H36       1.0  0.11810  0.49472  0.10822  1.0000
  C   C38       1.0  0.13227  0.65859  0.16963  1.0000
  C   C39       1.0  0.19034  0.65744  0.15520  1.0000
  C   C40       1.0  0.04228  0.52701  0.98604  1.0000
  C   C41       1.0  0.29223  0.63157  0.13251  1.0000
  H   H37       1.0  0.12410  0.64261  0.03125  1.0000
  C   C42       1.0  0.11437  0.59217  0.11797  1.0000
  C   C43       1.0  0.11669  0.59635  0.07601  1.0000
  C   C44       1.0  0.11438  0.58140  0.05262  1.0000
  C   C45       1.0  0.10896  0.56208  0.07131  1.0000
  C   C46       1.0  0.10610  0.55774  0.11354  1.0000
  C   C47       1.0  0.10919  0.57287  0.13678  1.0000
  H   H38       1.0  0.12066  0.61118  0.06139  1.0000
  H   H39       1.0  0.11657  0.58490  0.02018  1.0000
  H   H40       1.0  0.10188  0.54282  0.12823  1.0000
  H   H41       1.0  0.10746  0.56952  0.16918  1.0000
  C   C48       1.0  0.13285  0.52372  0.24952  1.0000
  C   C49       1.0  0.12825  0.50352  0.25651  1.0000
  C   C50       1.0  0.14485  0.49648  0.24449  1.0000
  C   C51       1.0  0.16611  0.50960  0.22528  1.0000
  C   C52       1.0  0.17075  0.52984  0.21817  1.0000
  C   C53       1.0  0.15406  0.53688  0.23012  1.0000
  N   N3        1.0  0.01345  0.52553  0.89961  1.0000
  S   S25       1.0  0.18538  0.62584  0.26245  1.0000
  H   H42       1.0  0.18720  0.54007  0.20376  1.0000
  H   H43       1.0  0.15754  0.55243  0.22436  1.0000
  C   C54       1.0  0.03430  0.53010  0.41327  1.0000
  C   C55       1.0  0.23116  0.66507  0.95053  1.0000
  C   C56       1.0  0.03673  0.56316  0.39128  1.0000
  C   C57       1.0  0.05919  0.56905  0.37423  1.0000
  C   C58       1.0  0.06919  0.55553  0.37752  1.0000
  C   C59       1.0  0.05684  0.53619  0.39755  1.0000
  H   H44       1.0  0.02895  0.57359  0.38875  1.0000
  H   H45       1.0  0.08650  0.56000  0.36497  1.0000
  H   H46       1.0  0.06472  0.52583  0.40005  1.0000
  N   N4        1.0  0.15085  0.52810  0.79209  1.0000
  S   S26       1.0  0.17412  0.62875  0.93114  1.0000
  S   S27       1.0  0.01886  0.50516  0.43249  1.0000
  H   H47       1.0  0.26750  0.72260  0.23511  1.0000
  H   H48       1.0  0.12370  0.50887  0.05847  1.0000
  H   H49       1.0  0.15390  0.53995  0.03614  1.0000
  S   S28       1.0  0.12810  0.58101  0.31190  1.0000
  H   H50       1.0  0.17983  0.65732  0.13491  1.0000
  S   S29       1.0  0.01201  0.50029  0.77652  1.0000
  C   C60       1.0  0.18265  0.64320  0.19041  1.0000
  S   S30       1.0  0.22028  0.68960  0.10199  1.0000
  H   H51       1.0  0.18328  0.49706  0.99361  1.0000
  S   S31       1.0  0.26245  0.66915  0.05680  1.0000
  C   C61       1.0  0.17972  0.49854  0.02550  1.0000
  C   C62       1.0  0.18644  0.49479  0.09239  1.0000
  H   H52       1.0  0.13727  0.54879  0.77295  1.0000
  H   H53       1.0  0.24185  0.68224  0.16431  1.0000
  H   H54       1.0  0.16568  0.54874  0.82932  1.0000
  C   C63       1.0  0.28938  0.64946  0.13087  1.0000
  H   H55       1.0  0.24901  0.63052  0.91536  1.0000
  H   H56       1.0  0.28177  0.62951  0.94568  1.0000
  C   C64       1.0  0.29675  0.61556  0.98388  1.0000
  C   C65       1.0  0.03531  0.53017  0.30552  1.0000
  H   H57       1.0  0.17324  0.68587  0.15069  1.0000
  H   H58       1.0  0.27029  0.56977  0.93392  1.0000
  H   H59       1.0  0.98698  0.52200  0.95117  1.0000
  C   C66       1.0  0.21744  0.65726  0.20769  1.0000
  C   C67       1.0  0.21160  0.67159  0.14580  1.0000
  H   H60       1.0  0.02584  0.53438  0.28555  1.0000
  H   H61       1.0  0.11497  0.64970  0.09992  1.0000
  H   H62       1.0  0.19049  0.68256  0.01324  1.0000
  H   H63       1.0  0.06561  0.49031  0.89970  1.0000
  H   H64       1.0  0.00675  0.53895  0.42258  1.0000
  C   C68       1.0  0.28449  0.61633  0.95458  1.0000
  C   C69       1.0  0.28327  0.72386  0.21723  1.0000
  H   H65       1.0  0.00733  0.49432  0.36147  1.0000
  H   H66       1.0  0.11186  0.49329  0.27151  1.0000
  H   H67       1.0  0.11288  0.51694  0.10247  1.0000
  H   H68       1.0  0.20300  0.59879  0.23416  1.0000
  H   H69       1.0  0.20413  0.58546  0.34342  1.0000
  H   H70       1.0  0.20260  0.48644  0.04012  1.0000
  C   C70       1.0  0.02105  0.53572  0.85641  1.0000
  C   C71       1.0  0.20962  0.65707  0.94623  1.0000
  H   H71       1.0  0.01164  0.49912  0.58093  1.0000
  H   H72       1.0  0.23447  0.59879  0.25614  1.0000
  H   H73       1.0  0.16790  0.61996  0.12434  1.0000
  H   H74       1.0  0.19458  0.65183  0.07151  1.0000
  H   H75       1.0  0.20967  0.60601  0.30416  1.0000
  C   C72       1.0  0.16125  0.51072  0.08066  1.0000
  S   S32       1.0  0.12654  0.61914  0.25532  1.0000
  C   C73       1.0  0.20194  0.63918  0.93207  1.0000
  H   H76       1.0  0.15330  0.52406  0.85497  1.0000
  H   H77       1.0  0.18590  0.53737  0.77261  1.0000
  H   H78       1.0  0.13844  0.51043  0.15910  1.0000
  H   H79       1.0  0.06122  0.50856  0.24104  1.0000
  H   H80       1.0  0.16639  0.55834  0.76105  1.0000
  H   H81       1.0  0.16180  0.62728  0.06162  1.0000
  C   C74       1.0  0.19305  0.58341  0.25015  1.0000
  C   C75       1.0  0.19936  0.59015  0.31586  1.0000
  H   H82       1.0  0.22850  0.57542  0.24160  1.0000
  H   H83       1.0  0.17600  0.58241  0.26069  1.0000
  H   H84       1.0  0.18243  0.58966  0.32554  1.0000
  H   H85       1.0  0.30376  0.58576  0.13839  1.0000
  Fe  Fe16      1.0  0.25453  0.69541  0.06783  1.0000
  H   H86       1.0  0.19326  0.57373  0.22691  1.0000
  C   C76       1.0  0.25020  0.63197  0.15468  1.0000
  H   H87       1.0  0.15251  0.54143  0.73154  1.0000
  H   H88       1.0  0.17058  0.51837  0.74788  1.0000
  C   C77       1.0  0.15173  0.54480  0.76300  1.0000
  H   H89       1.0  0.11658  0.52051  0.75154  1.0000
  H   H90       1.0  0.17279  0.54934  0.06713  1.0000
  C   C78       1.0  0.17072  0.52395  0.77732  1.0000
  N   N5        1.0  0.20166  0.57785  0.28422  1.0000
  C   C79       1.0  0.22542  0.58275  0.26810  1.0000
  C   C80       1.0  0.99481  0.53036  0.91963  1.0000
  H   H91       1.0  0.17222  0.51278  0.79954  1.0000
  C   C81       1.0  0.15154  0.53470  0.83200  1.0000
  H   H92       1.0  0.01939  0.49968  0.88684  1.0000
  H   H93       1.0  0.23396  0.63219  0.16262  1.0000
  H   H94       1.0  0.15813  0.56019  0.32377  1.0000
  C   C82       1.0  0.05555  0.52014  0.25159  1.0000
  S   S33       1.0  0.28525  0.71105  0.08726  1.0000
  C   C83       1.0  0.17961  0.61324  0.11155  1.0000
  H   H95       1.0  0.23290  0.57859  0.29204  1.0000
  C   C84       1.0  0.18898  0.55675  0.30121  1.0000
  C   C85       1.0  0.16636  0.55007  0.32050  1.0000
  C   C86       1.0  0.12445  0.50993  0.09072  1.0000
  N   N6        1.0  0.04085  0.51340  0.29333  1.0000
  H   H96       1.0  0.29518  0.65105  0.04042  1.0000
  H   H97       1.0  0.07511  0.54574  0.98602  1.0000
  C   C87       1.0  0.26847  0.64963  0.14336  1.0000
  C   C88       1.0  0.20443  0.64275  0.06437  1.0000
  H   H98       1.0  0.08317  0.56287  0.91508  1.0000
  C   C89       1.0  0.17298  0.62053  0.04649  1.0000
  H   H99       1.0  0.16269  0.60500  0.04605  1.0000
  H   H100      1.0  0.17020  0.59713  0.11550  1.0000
  H   H101      1.0  0.21490  0.64897  0.03287  1.0000
  C   C90       1.0  0.19804  0.54214  0.29648  1.0000
  H   H102      1.0  0.21490  0.54566  0.28129  1.0000
  C   C91       1.0  0.15361  0.53008  0.33409  1.0000
  H   H103      1.0  0.13619  0.52533  0.34734  1.0000
  C   C92       1.0  0.13661  0.65312  0.04255  1.0000
  H   H104      1.0  0.10899  0.67413  0.13297  1.0000
  H   H105      1.0  0.27755  0.64016  0.00870  1.0000
  H   H106      1.0  0.30845  0.63144  0.12319  1.0000
  H   H107      1.0  0.99702  0.49506  0.92989  1.0000
  H   H108      1.0  0.17977  0.62861  0.01461  1.0000
  H   H109      1.0  0.19131  0.61563  0.13138  1.0000
  H   H110      1.0  0.21548  0.64501  0.08545  1.0000
  H   H111      1.0  0.15483  0.69455  0.18048  1.0000
  H   H112      1.0  0.02599  0.55191  0.85410  1.0000
  H   H113      1.0  0.23683  0.67879  0.96182  1.0000
  H   H114      1.0  0.27828  0.62540  0.05284  1.0000
  H   H115      1.0  0.11961  0.68938  0.16791  1.0000
  C   C93       1.0  0.19596  0.64325  0.21720  1.0000
  H   H116      1.0  0.26593  0.60098  0.91429  1.0000
  N   N7        1.0  0.19052  0.62173  0.06787  1.0000
  C   C94       1.0  0.18510  0.52216  0.31001  1.0000
  C   C95       1.0  0.16295  0.51615  0.32872  1.0000
  Fe  Fe17      1.0  0.29914  0.72391  0.02066  1.0000
  C   C96       1.0  0.19062  0.49254  0.05163  1.0000
  Fe  Fe18      1.0  0.15124  0.60606  0.26235  1.0000
  H   H117      1.0  0.05022  0.54341  0.30406  1.0000
  C   C97       1.0  0.28521  0.70830  0.19861  1.0000
  C   C98       1.0  0.05341  0.50849  0.32100  1.0000
  H   H118      1.0  0.19211  0.51121  0.30442  1.0000
  S   S34       1.0  0.29809  0.54520  0.15787  1.0000
  C   C99       1.0  0.15779  0.66210  0.01796  1.0000
  H   H119      1.0  0.02635  0.49197  0.23240  1.0000
  C   C100      1.0  0.02636  0.52182  0.96358  1.0000
  C   C101      1.0  0.21625  0.62966  0.92074  1.0000
  H   H120      1.0  0.26627  0.66345  0.14263  1.0000
  H   H121      1.0  0.16632  0.63222  0.19679  1.0000
  H   H122      1.0  0.27091  0.69494  0.20205  1.0000
  H   H123      1.0  0.02536  0.52681  0.33742  1.0000
  C   C102      1.0  0.24542  0.65550  0.93959  1.0000
  C   C103      1.0  0.05161  0.54627  0.90597  1.0000
  C   C104      1.0  0.06273  0.54179  0.96867  1.0000
  C   C105      1.0  0.06726  0.55145  0.92886  1.0000
  H   H124      1.0  0.21052  0.61592  0.90952  1.0000
  H   H125      1.0  0.05664  0.55415  0.87504  1.0000
  C   C106      1.0  0.20452  0.61132  0.05104  1.0000
  H   H126      1.0  0.24149  0.58306  0.00984  1.0000
  H   H127      1.0  0.22299  0.61571  0.09764  1.0000
  H   H128      1.0  0.19287  0.60569  0.99578  1.0000
  H   H129      1.0  0.22791  0.65724  0.22810  1.0000
  H   H130      1.0  0.15756  0.51230  0.01798  1.0000
  H   H131      1.0  0.13016  0.69803  0.11368  1.0000
  C   C107      1.0  0.12429  0.68488  0.13809  1.0000
  C   C108      1.0  0.27770  0.58248  0.94747  1.0000
  C   C109      1.0  0.23801  0.63791  0.92417  1.0000
  C   C110      1.0  0.22045  0.60929  0.07078  1.0000
  C   C111      1.0  0.20354  0.60376  0.01411  1.0000
  H   H132      1.0  0.04758  0.52490  0.22918  1.0000
  H   H133      1.0  0.07068  0.53301  0.25067  1.0000
  C   C112      1.0  0.28855  0.63759  0.02706  1.0000
  C   C113      1.0  0.13152  0.65747  0.08168  1.0000
  S   S35       1.0  0.31072  0.69987  0.00457  1.0000
  H   H134      1.0  0.99372  0.49957  0.87981  1.0000
  C   C114      1.0  0.23335  0.59894  0.05631  1.0000
  C   C115      1.0  0.21691  0.59385  0.99926  1.0000
  H   H135      1.0  0.21603  0.58837  0.97075  1.0000
  C   C116      1.0  0.16517  0.50743  0.03973  1.0000
  C   C117      1.0  0.17183  0.50355  0.10696  1.0000
  H   H136      1.0  0.29076  0.56725  0.98557  1.0000
  C   C118      1.0  0.23149  0.59113  0.02078  1.0000
  H   H137      1.0  0.24482  0.59692  0.07285  1.0000
  C   C119      1.0  0.15528  0.54097  0.06804  1.0000
  H   H138      1.0  0.16164  0.65844  0.98782  1.0000
  H   H139      1.0  0.03883  0.51954  0.01707  1.0000
  H   H140      1.0  0.04402  0.50410  0.35341  1.0000
  C   C120      1.0  0.00478  0.48808  0.33441  1.0000
  C   C121      1.0  0.02048  0.49614  0.29643  1.0000
  C   C122      1.0  0.12721  0.49316  0.82559  1.0000
  H   H141      1.0  0.16188  0.53339  0.14154  1.0000
  H   H142      1.0  0.15287  0.50062  0.33787  1.0000
  H   H143      1.0  0.13853  0.49317  0.84416  1.0000
  C   C123      1.0  0.28931  0.58112  0.97655  1.0000
  H   H144      1.0  0.19494  0.49012  0.11278  1.0000
  C   C124      1.0  0.11533  0.50847  0.77364  1.0000
  N   N8        1.0  0.30635  0.63304  0.00249  1.0000
  H   H145      1.0  0.31035  0.61838  0.05637  1.0000
  H   H146      1.0  0.30749  0.59512  0.01694  1.0000
  S   S36       1.0  0.31088  0.67131  0.10573  1.0000
  H   H147      1.0  0.31057  0.65509  0.95146  1.0000
  C   C125      1.0  0.30543  0.70998  0.17495  1.0000
  H   H148      1.0  0.00796  0.53083  0.83962  1.0000
  H   H149      1.0  0.00019  0.54631  0.92138  1.0000
  H   H150      1.0  0.30593  0.69766  0.16042  1.0000
  C   C126      1.0  0.09679  0.49119  0.77935  1.0000
  H   H151      1.0  0.08460  0.49047  0.76222  1.0000
  H   H152      1.0  0.29790  0.75435  0.08039  1.0000
  H   H153      1.0  0.30818  0.77146  0.13745  1.0000
  C   C127      1.0  0.31463  0.76420  0.07727  1.0000
  H   H154      1.0  0.30004  0.75332  0.22654  1.0000
  C   C128      1.0  0.30159  0.74110  0.21247  1.0000
  C   C129      1.0  0.62506  0.17119  0.37511  1.0000
  Fe  Fe19      1.0  0.61577  0.08305  0.37633  1.0000
  H   H155      1.0  0.62300  0.10980  0.53258  1.0000
  Fe  Fe20      1.0  0.57201  0.11357  0.69546  1.0000
  C   C130      1.0  0.52182  0.01431  0.17824  1.0000
  C   C131      1.0  0.58076  0.06282  0.21812  1.0000
  C   C132      1.0  0.58649  0.03245  0.21639  1.0000
  H   H156      1.0  0.56635  0.17300  0.61877  1.0000
  H   H157      1.0  0.52074  0.01826  0.11508  1.0000
  H   H158      1.0  0.60436  0.18678  0.36545  1.0000
  C   C133      1.0  0.59891  0.02646  0.07794  1.0000
  H   H159      1.0  0.54920  0.13913  0.43944  1.0000
  S   S37       1.0  0.62479  0.18101  0.68902  1.0000
  C   C134      1.0  0.57896  0.00757  0.32245  1.0000
  C   C135      1.0  0.62084  0.20876  0.63621  1.0000
  H   H160      1.0  0.60807  0.04345  0.60616  1.0000
  S   S38       1.0  0.55859  0.07211  0.50423  1.0000
  C   C136      1.0  0.54680  0.09612  0.62188  1.0000
  H   H161      1.0  0.58097  0.05609  0.80818  1.0000
  S   S39       1.0  0.56688  0.00388  0.93143  1.0000
  H   H162      1.0  0.63625  0.21864  0.64045  1.0000
  H   H163      1.0  0.56822  0.07336  0.91122  1.0000
  S   S40       1.0  0.61740  0.06267  0.33099  1.0000
  H   H164      1.0  0.52671  0.01282  0.23789  1.0000
  H   H165      1.0  0.59725  0.15396  0.45095  1.0000
  S   S41       1.0  0.58265  0.20815  0.55847  1.0000
  H   H166      1.0  0.57898  0.01608  0.22203  1.0000
  H   H167      1.0  0.58990  0.06745  0.24202  1.0000
  C   C137      1.0  0.57869  0.17618  0.48226  1.0000
  H   H168      1.0  0.59652  0.03707  0.18435  1.0000
  H   H169      1.0  0.51086  0.09814  0.55972  1.0000
  C   C138      1.0  0.63245  0.12169  0.54602  1.0000
  H   H170      1.0  0.58685  0.17791  0.50794  1.0000
  S   S42       1.0  0.51954  0.00044  0.98727  1.0000
  C   C139      1.0  0.59835  0.06519  0.79330  1.0000
  H   H171      1.0  0.62080  0.98768  0.94546  1.0000
  C   C140      1.0  0.55095  0.03796  0.12477  1.0000
  H   H172      1.0  0.63766  0.08957  0.79298  1.0000
  H   H173      1.0  0.57543  0.13061  0.46703  1.0000
  C   C141      1.0  0.61579  0.16536  0.81769  1.0000
  N   N9        1.0  0.56962  0.04106  0.22387  1.0000
  C   C142      1.0  0.61922  0.18759  0.37405  1.0000
  H   H174      1.0  0.62084  0.05921  0.87234  1.0000
  H   H175      1.0  0.57026  0.16219  0.41612  1.0000
  C   C143      1.0  0.58845  0.00044  0.13578  1.0000
  C   C144      1.0  0.55743  0.04597  0.69290  1.0000
  H   H176      1.0  0.54839  0.05353  0.68018  1.0000
  C   C145      1.0  0.55558  0.03528  0.19489  1.0000
  H   H177      1.0  0.61956  0.02483  0.11809  1.0000
  H   H178      1.0  0.59177  0.18371  0.45380  1.0000
  H   H179      1.0  0.50515  0.11446  0.61914  1.0000
  H   H180      1.0  0.55715  0.05353  0.61249  1.0000
  C   C146      1.0  0.53015  0.02317  0.13736  1.0000
  H   H181      1.0  0.57599  0.08174  0.64488  1.0000
  C   C147      1.0  0.56372  0.04363  0.15278  1.0000
  C   C148      1.0  0.60935  0.06261  0.85638  1.0000
  C   C149      1.0  0.55950  0.00386  0.35149  1.0000
  C   C150      1.0  0.54784  0.03491  0.73215  1.0000
  C   C151      1.0  0.53413  0.02039  0.20683  1.0000
  H   H182      1.0  0.59258  0.05288  0.87393  1.0000
  H   H183      1.0  0.56774  0.18454  0.48550  1.0000
  H   H184      1.0  0.61509  0.16842  0.58919  1.0000
  H   H185      1.0  0.52193  0.05984  0.57202  1.0000
  C   C152      1.0  0.55829  0.01790  0.37618  1.0000
  H   H186      1.0  0.54333  0.01511  0.39881  1.0000
  C   C153      1.0  0.59186  0.20192  0.60041  1.0000
  C   C154      1.0  0.52015  0.11372  0.55747  1.0000
  C   C155      1.0  0.59695  0.02533  0.31769  1.0000
  S   S43       1.0  0.58795  0.09310  0.39121  1.0000
  C   C156      1.0  0.51683  0.12290  0.59090  1.0000
  C   C157      1.0  0.58237  0.14537  0.47568  1.0000
  H   H187      1.0  0.58753  0.14325  0.50431  1.0000
  C   C158      1.0  0.58136  0.18310  0.62396  1.0000
  C   C159      1.0  0.55725  0.15441  0.44461  1.0000
  H   H188      1.0  0.61194  0.02812  0.29511  1.0000
  N   N10       1.0  0.56648  0.15514  0.48099  1.0000
  C   C160      1.0  0.55399  0.08249  0.54790  1.0000
  C   C161      1.0  0.53428  0.07286  0.57737  1.0000
  H   H189      1.0  0.58325  0.16205  0.66954  1.0000
  H   H190      1.0  0.62124  0.18985  0.55199  1.0000
  H   H191      1.0  0.53855  0.11628  0.49731  1.0000
  H   H192      1.0  0.50592  0.00234  0.18765  1.0000
  C   C162      1.0  0.57625  0.03577  0.37113  1.0000
  C   C163      1.0  0.59553  0.03963  0.34144  1.0000
  C   C164      1.0  0.61122  0.21493  0.60745  1.0000
  H   H193      1.0  0.54494  0.16132  0.44764  1.0000
  H   H194      1.0  0.55329  0.16907  0.55271  1.0000
  C   C165      1.0  0.53067  0.07969  0.61424  1.0000
  H   H195      1.0  0.51555  0.07194  0.63728  1.0000
  C   C166      1.0  0.54457  0.15369  0.55246  1.0000
  C   C167      1.0  0.54883  0.14461  0.51820  1.0000
  C   C168      1.0  0.64556  0.11828  0.57026  1.0000
  C   C169      1.0  0.56989  0.09935  0.55489  1.0000
  C   C170      1.0  0.52890  0.14285  0.58829  1.0000
  H   H196      1.0  0.52632  0.14992  0.61449  1.0000
  H   H197      1.0  0.58507  0.10682  0.53227  1.0000
  H   H198      1.0  0.57504  0.04669  0.38973  1.0000
  C   C171      1.0  0.56630  0.10622  0.59193  1.0000
  S   S44       1.0  0.57308  0.13357  0.74179  1.0000
  Fe  Fe21      1.0  0.58986  0.08761  0.45602  1.0000
  C   C172      1.0  0.53600  0.12430  0.52174  1.0000
  C   C173      1.0  0.59097  0.17690  0.65274  1.0000
  H   H199      1.0  0.57865  0.11911  0.59760  1.0000
  S   S45       1.0  0.54248  0.10295  0.66991  1.0000
  H   H200      1.0  0.54949  0.03711  0.92068  1.0000
  C   C174      1.0  0.53724  0.03774  0.86665  1.0000
  C   C175      1.0  0.57896  0.01711  0.06815  1.0000
  H   H201      1.0  0.52614  0.04319  0.81323  1.0000
  H   H202      1.0  0.64353  0.17355  0.48081  1.0000
  H   H203      1.0  0.62799  0.21769  0.38334  1.0000
  C   C176      1.0  0.53544  0.04973  0.83441  1.0000
  C   C177      1.0  0.54839  0.04629  0.89522  1.0000
  C   C178      1.0  0.61098  0.18956  0.65808  1.0000
  C   C179      1.0  0.59135  0.07996  0.63094  1.0000
  C   C180      1.0  0.60945  0.05870  0.60923  1.0000
  S   S46       1.0  0.57396  0.02720  0.02440  1.0000
  C   C181      1.0  0.60381  0.01794  0.11133  1.0000
  C   C182      1.0  0.57292  0.05173  0.60233  1.0000
  C   C183      1.0  0.54607  0.07020  0.82900  1.0000
  C   C184      1.0  0.55893  0.06680  0.88994  1.0000
  Fe  Fe22      1.0  0.53306  0.99747  0.92344  1.0000
  S   S47       1.0  0.61541  0.07483  0.44179  1.0000
  C   C185      1.0  0.58902  0.03730  0.69060  1.0000
  H   H204      1.0  0.55756  0.04448  0.09269  1.0000
  C   C186      1.0  0.55850  0.07869  0.85589  1.0000
  H   H205      1.0  0.54479  0.07940  0.80381  1.0000
  H   H206      1.0  0.55095  0.01795  0.27605  1.0000
  C   C187      1.0  0.55725  0.03423  0.26735  1.0000
  C   C188      1.0  0.56802  0.99163  0.12738  1.0000
  H   H207      1.0  0.59782  0.08919  0.60011  1.0000
  H   H208      1.0  0.61601  0.06750  0.57777  1.0000
  Fe  Fe23      1.0  0.58465  0.11376  0.77654  1.0000
  C   C189      1.0  0.63253  0.20505  0.38434  1.0000
  S   S48       1.0  0.52750  0.01224  0.86849  1.0000
  S   S49       1.0  0.58037  0.09222  0.73331  1.0000
  S   S50       1.0  0.57567  0.10364  0.84427  1.0000
  Fe  Fe24      1.0  0.60820  0.14844  0.70761  1.0000
  S   S51       1.0  0.60653  0.12979  0.65872  1.0000
  H   H209      1.0  0.57994  0.05977  0.57023  1.0000
  H   H210      1.0  0.60015  0.08069  0.79476  1.0000
  H   H211      1.0  0.53185  0.03397  0.74829  1.0000
  H   H212      1.0  0.59795  0.03689  0.23655  1.0000
  H   H213      1.0  0.62729  0.01126  0.03428  1.0000
  N   N11       1.0  0.58797  0.05916  0.62904  1.0000
  S   S52       1.0  0.61369  0.11791  0.45441  1.0000
  H   H214      1.0  0.54764  0.99291  0.08638  1.0000
  H   H215      1.0  0.57579  0.02718  0.84329  1.0000
  S   S53       1.0  0.60741  0.14905  0.36523  1.0000
  H   H216      1.0  0.55108  0.01651  0.78120  1.0000
  H   H217      1.0  0.64039  0.07291  0.75946  1.0000
  C   C190      1.0  0.57828  0.04742  0.67072  1.0000
  H   H218      1.0  0.60310  0.08627  0.64960  1.0000
  H   H219      1.0  0.62198  0.06515  0.62654  1.0000
  H   H220      1.0  0.61074  0.07794  0.85900  1.0000
  H   H221      1.0  0.61133  0.16611  0.53887  1.0000
  H   H222      1.0  0.64627  0.10388  0.57564  1.0000
  H   H223      1.0  0.58024  0.05421  0.14078  1.0000
  C   C191      1.0  0.62218  0.17511  0.55638  1.0000
  Fe  Fe25      1.0  0.63946  0.10584  0.43471  1.0000
  Fe  Fe26      1.0  0.61517  0.11060  0.70179  1.0000
  S   S54       1.0  0.62012  0.13082  0.74728  1.0000
  Fe  Fe27      1.0  0.61384  0.12270  0.38837  1.0000
  N   N12       1.0  0.61370  0.05987  0.81316  1.0000
  H   H224      1.0  0.62243  0.14255  0.51745  1.0000
  C   C192      1.0  0.56339  0.99979  0.09308  1.0000
  H   H225      1.0  0.59911  0.16461  0.82264  1.0000
  H   H226      1.0  0.64393  0.04354  0.77963  1.0000
  C   C193      1.0  0.64546  0.15656  0.55301  1.0000
  H   H227      1.0  0.61081  0.04000  0.05897  1.0000
  S   S55       1.0  0.63839  0.09528  0.68690  1.0000
  H   H228      1.0  0.54338  0.03918  0.27415  1.0000
  C   C194      1.0  0.55867  0.02506  0.75067  1.0000
  H   H229      1.0  0.56876  0.07004  0.21962  1.0000
  H   H230      1.0  0.59327  0.06909  0.18869  1.0000
  C   C195      1.0  0.57919  0.02622  0.72989  1.0000
  H   H231      1.0  0.56775  0.04009  0.28850  1.0000
  Fe  Fe28      1.0  0.55253  0.00382  0.99660  1.0000
  H   H232      1.0  0.56909  0.03584  0.60156  1.0000
  H   H233      1.0  0.60500  0.03772  0.67647  1.0000
  H   H234      1.0  0.60696  0.13918  0.86140  1.0000
  H   H235      1.0  0.60120  0.06357  0.76056  1.0000
  C   C196      1.0  0.63242  0.14053  0.53728  1.0000
  S   S56       1.0  0.64202  0.11340  0.36768  1.0000
  C   C197      1.0  0.63210  0.00608  0.00554  1.0000
  H   H236      1.0  0.62082  0.98933  0.08883  1.0000
  H   H237      1.0  0.57008  0.99279  0.84314  1.0000
  H   H238      1.0  0.63723  0.00893  0.78079  1.0000
  H   H239      1.0  0.64908  0.15978  0.38634  1.0000
  C   C198      1.0  0.58961  0.02388  0.82897  1.0000
  C   C199      1.0  0.46878  0.00579  0.26864  1.0000
  C   C200      1.0  0.61043  0.03905  0.81153  1.0000
  C   C201      1.0  0.58615  0.00406  0.82906  1.0000
  C   C202      1.0  0.63613  0.07406  0.79233  1.0000
  C   C203      1.0  0.60331  0.99871  0.81197  1.0000
  H   H240      1.0  0.62791  0.19074  0.77231  1.0000
  C   C204      1.0  0.62756  0.03311  0.79374  1.0000
  N   N13       1.0  0.64497  0.17633  0.54345  1.0000
  H   H241      1.0  0.61902  0.22967  0.59019  1.0000
  C   C205      1.0  0.63263  0.18040  0.78883  1.0000
  C   C206      1.0  0.64445  0.17238  0.38564  1.0000
  H   H242      1.0  0.58751  0.01842  0.74430  1.0000
  C   C207      1.0  0.62017  0.15092  0.83941  1.0000
  C   C208      1.0  0.62393  0.01320  0.79411  1.0000
  H   H243      1.0  0.64448  0.13962  0.84803  1.0000
  H   H244      1.0  0.62717  0.01396  0.98206  1.0000
  H   H245      1.0  0.58014  0.99685  0.30335  1.0000
  C   C209      1.0  0.64134  0.15122  0.83181  1.0000
  S   S57       1.0  0.59556  0.98919  0.17519  1.0000
  H   H246      1.0  0.47364  0.99857  0.32718  1.0000
  Fe  Fe29      1.0  0.61062  0.23296  0.51597  1.0000
  H   H247      1.0  0.47326  0.02126  0.27063  1.0000
  H   H248      1.0  0.59128  0.98594  0.00125  1.0000
  S   S58       1.0  0.64453  0.23407  0.51137  1.0000
  H   H249      1.0  0.64862  0.07189  0.80715  1.0000
  H   H250      1.0  0.46279  0.00926  0.20888  1.0000
  C   C210      1.0  0.46896  0.99268  0.30084  1.0000
  C   C211      1.0  0.46285  0.99907  0.23390  1.0000
  H   H251      1.0  0.55128  0.36257  0.39627  1.0000
  H   H252      1.0  0.56007  0.25223  0.62288  1.0000
  H   H253      1.0  0.63761  0.37891  0.36068  1.0000
  H   H254      1.0  0.53327  0.42198  0.39666  1.0000
  C   C212      1.0  0.60910  0.29151  0.60538  1.0000
  H   H255      1.0  0.49728  0.41130  0.43312  1.0000
  H   H256      1.0  0.64026  0.34806  0.36575  1.0000
  H   H257      1.0  0.56937  0.44332  0.71076  1.0000
  Fe  Fe30      1.0  0.58103  0.37149  0.49654  1.0000
  S   S59       1.0  0.54556  0.35252  0.52030  1.0000
  S   S60       1.0  0.59684  0.38321  0.43025  1.0000
  Fe  Fe31      1.0  0.59057  0.36987  0.57980  1.0000
  S   S61       1.0  0.55607  0.35044  0.61168  1.0000
  S   S62       1.0  0.61734  0.38103  0.61194  1.0000
  Fe  Fe32      1.0  0.55736  0.33436  0.55878  1.0000
  H   H258      1.0  0.58311  0.26382  0.49227  1.0000
  Fe  Fe33      1.0  0.54724  0.37036  0.57071  1.0000
  S   S63       1.0  0.51842  0.37790  0.59631  1.0000
  S   S64       1.0  0.59283  0.35182  0.53091  1.0000
  S   S65       1.0  0.58186  0.39124  0.54307  1.0000
  H   H259      1.0  0.58740  0.38972  0.68120  1.0000
  C   C213      1.0  0.52650  0.39332  0.43207  1.0000
  C   C214      1.0  0.62339  0.45901  0.70529  1.0000
  H   H260      1.0  0.64409  0.32073  0.62162  1.0000
  S   S66       1.0  0.61850  0.45826  0.57247  1.0000
  H   H261      1.0  0.48382  0.38500  0.44158  1.0000
  C   C215      1.0  0.62827  0.44428  0.68770  1.0000
  S   S67       1.0  0.59607  0.46750  0.38739  1.0000
  H   H262      1.0  0.62489  0.46207  0.44059  1.0000
  C   C216      1.0  0.55059  0.41149  0.68606  1.0000
  C   C217      1.0  0.57210  0.39213  0.69304  1.0000
  H   H263      1.0  0.60555  0.32036  0.64442  1.0000
  H   H264      1.0  0.62058  0.35816  0.42068  1.0000
  N   N14       1.0  0.61903  0.31280  0.58822  1.0000
  H   H265      1.0  0.53730  0.41175  0.49424  1.0000
  H   H266      1.0  0.49298  0.36452  0.49252  1.0000
  H   H267      1.0  0.48033  0.39852  0.48228  1.0000
  H   H268      1.0  0.62507  0.34354  0.45949  1.0000
  C   C218      1.0  0.61814  0.31560  0.54487  1.0000
  C   C219      1.0  0.56649  0.47038  0.18852  1.0000
  C   C220      1.0  0.58742  0.47390  0.16557  1.0000
  C   C221      1.0  0.58991  0.42763  0.68559  1.0000
  C   C222      1.0  0.57208  0.31186  0.48585  1.0000
  H   H269      1.0  0.61449  0.33952  0.60079  1.0000
  H   H270      1.0  0.62643  0.30727  0.52684  1.0000
  H   H271      1.0  0.56946  0.39102  0.72675  1.0000
  H   H272      1.0  0.62812  0.38563  0.52419  1.0000
  S   S68       1.0  0.52714  0.46629  0.57362  1.0000
  C   C223      1.0  0.61188  0.42890  0.67760  1.0000
  H   H273      1.0  0.56032  0.46113  0.21835  1.0000
  H   H274      1.0  0.64502  0.44518  0.68027  1.0000
  S   S69       1.0  0.57165  0.46975  0.63207  1.0000
  C   C224      1.0  0.57847  0.41270  0.62908  1.0000
  C   C225      1.0  0.53192  0.37642  0.43025  1.0000
  C   C226      1.0  0.55122  0.40730  0.36378  1.0000
  Fe  Fe34      1.0  0.62592  0.27003  0.45476  1.0000
  H   H275      1.0  0.53797  0.47743  0.19273  1.0000
  H   H276      1.0  0.55572  0.26771  0.54762  1.0000
  C   C227      1.0  0.58025  0.27732  0.49061  1.0000
  C   C228      1.0  0.56450  0.27940  0.52162  1.0000
  C   C229      1.0  0.58770  0.30970  0.45469  1.0000
  H   H277      1.0  0.64489  0.33170  0.40112  1.0000
  C   C230      1.0  0.49242  0.39767  0.45563  1.0000
  H   H278      1.0  0.56605  0.40062  0.61938  1.0000
  H   H279      1.0  0.52529  0.36400  0.45485  1.0000
  H   H280      1.0  0.59653  0.32136  0.42872  1.0000
  H   H281      1.0  0.61671  0.41831  0.66235  1.0000
  S   S70       1.0  0.61432  0.23816  0.44838  1.0000
  H   H282      1.0  0.62202  0.43075  0.46276  1.0000
  H   H283      1.0  0.56834  0.38990  0.33762  1.0000
  H   H284      1.0  0.63848  0.28777  0.61736  1.0000
  C   C231      1.0  0.56117  0.29705  0.52019  1.0000
  H   H285      1.0  0.64912  0.33838  0.57753  1.0000
  C   C232      1.0  0.58669  0.28056  0.60783  1.0000
  H   H286      1.0  0.55919  0.41947  0.33839  1.0000
  H   H287      1.0  0.59465  0.41185  0.61717  1.0000
  H   H288      1.0  0.62103  0.25287  0.64310  1.0000
  H   H289      1.0  0.55871  0.37957  0.68655  1.0000
  H   H290      1.0  0.59839  0.47004  0.72619  1.0000
  N   N15       1.0  0.51143  0.39540  0.46796  1.0000
  C   C233      1.0  0.62124  0.28093  0.61879  1.0000
  H   H291      1.0  0.58968  0.31886  0.60716  1.0000
  H   H292      1.0  0.53826  0.39896  0.67699  1.0000
  C   C234      1.0  0.58544  0.44278  0.70404  1.0000
  C   C235      1.0  0.54674  0.37526  0.39635  1.0000
  H   H293      1.0  0.57646  0.28751  0.59782  1.0000
  H   H294      1.0  0.52908  0.42688  0.46205  1.0000
  H   H295      1.0  0.56884  0.32517  0.48369  1.0000
  S   S71       1.0  0.61557  0.29223  0.42466  1.0000
  N   N16       1.0  0.57294  0.41134  0.67394  1.0000
  C   C236      1.0  0.59255  0.29283  0.45813  1.0000
  C   C237      1.0  0.52298  0.41306  0.48448  1.0000
  H   H296      1.0  0.63338  0.36969  0.45828  1.0000
  S   S72       1.0  0.54620  0.30176  0.56364  1.0000
  S   S73       1.0  0.61931  0.26442  0.52301  1.0000
  H   H297      1.0  0.64919  0.43941  0.56045  1.0000
  C   C238      1.0  0.60666  0.32328  0.61112  1.0000
  C   C239      1.0  0.52134  0.40257  0.58899  1.0000
  C   C240      1.0  0.50268  0.40701  0.59960  1.0000
  C   C241      1.0  0.50438  0.42658  0.59372  1.0000
  C   C242      1.0  0.52485  0.44179  0.57831  1.0000
  C   C243      1.0  0.54354  0.43736  0.56756  1.0000
  C   C244      1.0  0.54173  0.41774  0.57231  1.0000
  H   H298      1.0  0.48686  0.39530  0.61246  1.0000
  H   H299      1.0  0.48994  0.42997  0.60229  1.0000
  H   H300      1.0  0.55941  0.44905  0.55529  1.0000
  H   H301      1.0  0.55611  0.41447  0.56293  1.0000
  C   C245      1.0  0.59471  0.40572  0.41679  1.0000
  C   C246      1.0  0.58146  0.41238  0.44395  1.0000
  C   C247      1.0  0.58153  0.43126  0.43440  1.0000
  C   C248      1.0  0.59442  0.44327  0.39728  1.0000
  C   C249      1.0  0.60678  0.43618  0.36937  1.0000
  C   C250      1.0  0.60706  0.41749  0.37919  1.0000
  H   H302      1.0  0.57130  0.40308  0.47240  1.0000
  H   H303      1.0  0.57215  0.43681  0.45622  1.0000
  H   H304      1.0  0.61647  0.44517  0.34046  1.0000
  H   H305      1.0  0.61713  0.41230  0.35793  1.0000
  C   C251      1.0  0.50284  0.37832  0.50183  1.0000
  C   C252      1.0  0.57710  0.26031  0.62226  1.0000
  C   C253      1.0  0.55389  0.47953  0.17394  1.0000
  C   C254      1.0  0.64342  0.46324  0.58627  1.0000
  H   H306      1.0  0.57917  0.42691  0.61349  1.0000
  H   H307      1.0  0.49213  0.38054  0.52893  1.0000
  H   H308      1.0  0.51634  0.37600  0.51307  1.0000
  Fe  Fe35      1.0  0.64928  0.24224  0.44427  1.0000
  C   C255      1.0  0.60205  0.45829  0.71335  1.0000
  H   H309      1.0  0.54518  0.41035  0.71967  1.0000
  H   H310      1.0  0.51217  0.41510  0.51160  1.0000
  H   H311      1.0  0.54972  0.42503  0.67051  1.0000
  C   C256      1.0  0.55639  0.39066  0.36325  1.0000
  C   C257      1.0  0.53644  0.40863  0.39752  1.0000
  C   C258      1.0  0.61140  0.26069  0.63360  1.0000
  C   C259      1.0  0.64245  0.39155  0.57534  1.0000
  C   C260      1.0  0.64306  0.39114  0.53397  1.0000
  C   C261      1.0  0.58942  0.25038  0.63508  1.0000
  H   H312      1.0  0.60106  0.31034  0.54149  1.0000
  C   C262      1.0  0.63745  0.43008  0.46816  1.0000
  C   C263      1.0  0.63661  0.47063  0.45597  1.0000
  H   H313      1.0  0.62599  0.33137  0.53046  1.0000
  C   C264      1.0  0.63250  0.35810  0.43907  1.0000
  H   H314      1.0  0.55434  0.47133  0.42424  1.0000
  H   H315      1.0  0.58200  0.23461  0.64560  1.0000
  H   H316      1.0  0.63553  0.42813  0.50185  1.0000
  H   H317      1.0  0.63862  0.41657  0.45756  1.0000
  C   C265      1.0  0.64228  0.32230  0.58970  1.0000
  H   H318      1.0  0.59753  0.46741  0.17784  1.0000
  S   S74       1.0  0.64156  0.47827  0.28469  1.0000
  H   H319      1.0  0.64379  0.45094  0.39447  1.0000
  H   H320      1.0  0.63628  0.47126  0.71180  1.0000
  Fe  Fe36      1.0  0.60310  0.48039  0.58431  1.0000
  H   H321      1.0  0.53562  0.48021  0.40658  1.0000
  C   C266      1.0  0.55302  0.48444  0.40777  1.0000
  H   H322      1.0  0.54643  0.48261  0.48693  1.0000
  Fe  Fe37      1.0  0.55938  0.48337  0.58583  1.0000
  Fe  Fe38      1.0  0.50668  0.53896  0.18092  1.0000
  S   S75       1.0  0.53031  0.56991  0.15809  1.0000
  Fe  Fe39      1.0  0.53261  0.57027  0.22288  1.0000
  S   S76       1.0  0.53544  0.59837  0.24595  1.0000
  S   S77       1.0  0.50656  0.54010  0.24692  1.0000
  C   C267      1.0  0.47121  0.58795  0.92598  1.0000
  H   H323      1.0  0.56974  0.59784  0.18123  1.0000
  S   S78       1.0  0.63374  0.63926  0.89015  1.0000
  S   S79       1.0  0.53998  0.62304  0.84786  1.0000
  S   S80       1.0  0.57209  0.60311  0.90936  1.0000
  C   C268      1.0  0.33526  0.60006  0.09574  1.0000
  H   H324      1.0  0.33958  0.69776  0.15405  1.0000
  H   H325      1.0  0.33927  0.54814  0.23870  1.0000
  Fe  Fe40      1.0  0.60644  0.68949  0.09867  1.0000
  S   S81       1.0  0.58103  0.68172  0.06256  1.0000
  S   S82       1.0  0.61602  0.66575  0.12402  1.0000
  Fe  Fe41      1.0  0.60437  0.70858  0.01835  1.0000
  S   S83       1.0  0.61054  0.70924  0.95093  1.0000
  Fe  Fe42      1.0  0.56937  0.70275  0.09448  1.0000
  S   S84       1.0  0.53402  0.69723  0.11873  1.0000
  S   S85       1.0  0.63109  0.71473  0.05151  1.0000
  H   H326      1.0  0.55559  0.56755  0.35432  1.0000
  S   S86       1.0  0.48746  0.66482  0.98136  1.0000
  C   C269      1.0  0.58938  0.57649  0.01588  1.0000
  H   H327      1.0  0.33044  0.57213  0.21176  1.0000
  C   C270      1.0  0.32015  0.63036  0.02988  1.0000
  C   C271      1.0  0.63353  0.48679  0.47012  1.0000
  Fe  Fe43      1.0  0.58424  0.49980  0.64825  1.0000
  C   C272      1.0  0.35381  0.59774  0.07385  1.0000
  H   H328      1.0  0.57227  0.53851  0.44982  1.0000
  H   H329      1.0  0.60326  0.48892  0.26896  1.0000
  H   H330      1.0  0.52695  0.57163  0.05334  1.0000
  H   H331      1.0  0.64112  0.69927  0.81763  1.0000
  H   H332      1.0  0.60933  0.53164  0.16825  1.0000
  C   C273      1.0  0.52086  0.68929  0.08021  1.0000
  C   C274      1.0  0.49803  0.68078  0.08889  1.0000
  C   C275      1.0  0.48764  0.67338  0.05844  1.0000
  C   C276      1.0  0.50005  0.67489  0.01917  1.0000
  C   C277      1.0  0.52282  0.68397  0.01027  1.0000
  C   C278      1.0  0.53324  0.69099  0.04082  1.0000
  H   H333      1.0  0.48842  0.67955  0.11928  1.0000
  H   H334      1.0  0.47003  0.66673  0.06529  1.0000
  H   H335      1.0  0.53247  0.68509  0.98015  1.0000
  H   H336      1.0  0.55085  0.69777  0.03372  1.0000
  C   C279      1.0  0.50036  0.61910  0.89317  1.0000
  C   C280      1.0  0.55853  0.54814  0.05581  1.0000
  H   H337      1.0  0.50623  0.63494  0.88602  1.0000
  H   H338      1.0  0.46913  0.61623  0.92910  1.0000
  C   C281      1.0  0.62700  0.65824  0.90890  1.0000
  C   C282      1.0  0.58326  0.49582  0.11164  1.0000
  Fe  Fe44      1.0  0.64746  0.50873  0.25615  1.0000
  C   C283      1.0  0.61710  0.68928  0.93770  1.0000
  C   C284      1.0  0.60081  0.67036  0.94518  1.0000
  C   C285      1.0  0.60568  0.65488  0.93026  1.0000
  H   H339      1.0  0.45373  0.49598  0.04766  1.0000
  H   H340      1.0  0.39884  0.57839  0.21115  1.0000
  H   H341      1.0  0.58439  0.66786  0.96158  1.0000
  H   H342      1.0  0.59302  0.64040  0.93530  1.0000
  H   H343      1.0  0.48124  0.56074  0.20075  1.0000
  C   C286      1.0  0.55813  0.61740  0.21333  1.0000
  C   C287      1.0  0.56183  0.63711  0.21587  1.0000
  C   C288      1.0  0.57965  0.65219  0.18845  1.0000
  C   C289      1.0  0.59407  0.64747  0.15945  1.0000
  C   C290      1.0  0.59069  0.62781  0.15785  1.0000
  C   C291      1.0  0.57251  0.61286  0.18400  1.0000
  H   H344      1.0  0.55075  0.64070  0.23852  1.0000
  H   H345      1.0  0.60815  0.56406  0.21379  1.0000
  H   H346      1.0  0.60185  0.62406  0.13583  1.0000
  H   H347      1.0  0.61393  0.66634  0.81845  1.0000
  H   H348      1.0  0.49558  0.53432  0.76101  1.0000
  H   H349      1.0  0.60339  0.58973  0.01398  1.0000
  H   H350      1.0  0.33489  0.61458  0.09500  1.0000
  C   C292      1.0  0.56190  0.60030  0.72911  1.0000
  H   H351      1.0  0.33789  0.54834  0.10313  1.0000
  H   H352      1.0  0.57129  0.52816  0.19586  1.0000
  C   C293      1.0  0.56605  0.53759  0.42263  1.0000
  H   H353      1.0  0.59080  0.71805  0.87070  1.0000
  S   S87       1.0  0.61036  0.59031  0.73995  1.0000
  H   H354      1.0  0.61985  0.49015  0.46480  1.0000
  S   S88       1.0  0.44499  0.57498  0.95745  1.0000
  H   H355      1.0  0.51632  0.58111  0.87587  1.0000
  S   S89       1.0  0.59765  0.62351  0.81390  1.0000
  C   C294      1.0  0.52127  0.57163  0.77012  1.0000
  H   H356      1.0  0.39991  0.60059  0.15261  1.0000
  S   S90       1.0  0.41166  0.58620  0.05588  1.0000
  H   H357      1.0  0.42150  0.50390  0.04258  1.0000
  Fe  Fe45      1.0  0.60058  0.52006  0.56010  1.0000
  H   H358      1.0  0.60847  0.62836  0.01826  1.0000
  N   N17       1.0  0.53097  0.54471  0.74128  1.0000
  Fe  Fe46      1.0  0.62764  0.48650  0.34265  1.0000
  H   H359      1.0  0.60888  0.61523  0.06499  1.0000
  H   H360      1.0  0.61242  0.48903  0.11246  1.0000
  S   S91       1.0  0.61700  0.50970  0.60384  1.0000
  H   H361      1.0  0.64697  0.57920  0.01569  1.0000
  H   H362      1.0  0.54876  0.53930  0.08487  1.0000
  H   H363      1.0  0.37275  0.56080  0.12921  1.0000
  H   H364      1.0  0.54990  0.63302  0.96647  1.0000
  N   N18       1.0  0.56039  0.50179  0.42821  1.0000
  C   C295      1.0  0.43729  0.51561  0.03913  1.0000
  C   C296      1.0  0.53171  0.53439  0.78014  1.0000
  H   H365      1.0  0.56990  0.49028  0.04290  1.0000
  C   C297      1.0  0.54986  0.53709  0.35287  1.0000
  Fe  Fe47      1.0  0.43808  0.59543  0.99804  1.0000
  S   S92       1.0  0.56042  0.56012  0.21575  1.0000
  H   H366      1.0  0.44728  0.53539  0.11228  1.0000
  C   C298      1.0  0.45015  0.57710  0.15052  1.0000
  C   C299      1.0  0.62384  0.69620  0.82838  1.0000
  H   H367      1.0  0.58628  0.54563  0.28097  1.0000
  Fe  Fe48      1.0  0.59601  0.59359  0.80320  1.0000
  H   H368      1.0  0.56340  0.48723  0.37619  1.0000
  Fe  Fe49      1.0  0.60659  0.61637  0.87172  1.0000
  H   H369      1.0  0.43462  0.56304  0.10544  1.0000
  H   H370      1.0  0.50700  0.54411  0.70740  1.0000
  C   C300      1.0  0.56597  0.50737  0.24940  1.0000
  S   S93       1.0  0.43269  0.62239  0.97586  1.0000
  H   H371      1.0  0.59049  0.61530  0.25637  1.0000
  C   C301      1.0  0.51374  0.60927  0.87830  1.0000
  H   H372      1.0  0.61019  0.53417  0.09851  1.0000
  H   H373      1.0  0.38191  0.54552  0.15917  1.0000
  H   H374      1.0  0.60869  0.63947  0.06341  1.0000
  C   C302      1.0  0.60888  0.51072  0.21694  1.0000
  H   H375      1.0  0.54800  0.54131  0.78690  1.0000
  C   C303      1.0  0.54651  0.49642  0.47056  1.0000
  H   H376      1.0  0.62906  0.72476  0.84413  1.0000
  H   H377      1.0  0.60259  0.54122  0.05343  1.0000
  H   H378      1.0  0.56542  0.48623  0.29802  1.0000
  H   H379      1.0  0.57774  0.51912  0.78750  1.0000
  H   H380      1.0  0.46003  0.56508  0.02336  1.0000
  C   C304      1.0  0.38368  0.60049  0.16284  1.0000
  Fe  Fe50      1.0  0.45755  0.63752  0.00975  1.0000
  H   H381      1.0  0.46690  0.58727  0.19711  1.0000
  C   C305      1.0  0.47094  0.56111  0.18020  1.0000
  H   H382      1.0  0.64454  0.58357  0.45956  1.0000
  C   C306      1.0  0.38092  0.56024  0.15448  1.0000
  C   C307      1.0  0.59062  0.52643  0.72223  1.0000
  H   H383      1.0  0.60977  0.49413  0.04113  1.0000
  H   H384      1.0  0.33406  0.62694  0.01345  1.0000
  C   C308      1.0  0.58619  0.67332  0.84417  1.0000
  H   H385      1.0  0.39813  0.57084  0.14377  1.0000
  C   C309      1.0  0.33724  0.56280  0.10142  1.0000
  N   N19       1.0  0.50062  0.56217  0.02285  1.0000
  C   C310      1.0  0.51504  0.56055  0.98544  1.0000
  C   C311      1.0  0.50052  0.58230  0.01742  1.0000
  C   C312      1.0  0.51023  0.56019  0.05802  1.0000
  C   C313      1.0  0.47866  0.54641  0.02971  1.0000
  C   C314      1.0  0.45971  0.55035  0.02790  1.0000
  C   C315      1.0  0.47589  0.52631  0.03689  1.0000
  C   C316      1.0  0.45546  0.51119  0.04182  1.0000
  H   H386      1.0  0.53182  0.57212  0.97878  1.0000
  H   H387      1.0  0.51691  0.54619  0.98783  1.0000
  H   H388      1.0  0.50836  0.56194  0.95831  1.0000
  H   H389      1.0  0.49462  0.58537  0.99007  1.0000
  H   H390      1.0  0.51721  0.59366  0.01274  1.0000
  H   H391      1.0  0.49007  0.58459  0.04478  1.0000
  H   H392      1.0  0.49991  0.56159  0.08657  1.0000
  H   H393      1.0  0.51177  0.54580  0.06377  1.0000
  H   H394      1.0  0.48953  0.52213  0.03864  1.0000
  C   C317      1.0  0.36577  0.58300  0.18346  1.0000
  N   N20       1.0  0.55488  0.68251  0.87601  1.0000
  C   C318      1.0  0.54311  0.67664  0.84367  1.0000
  C   C319      1.0  0.54614  0.66584  0.91062  1.0000
  C   C320      1.0  0.54967  0.69897  0.89121  1.0000
  C   C321      1.0  0.57859  0.68755  0.85961  1.0000
  H   H395      1.0  0.54451  0.66320  0.83317  1.0000
  H   H396      1.0  0.52526  0.67315  0.85469  1.0000
  H   H397      1.0  0.54969  0.68851  0.81646  1.0000
  H   H398      1.0  0.54777  0.65230  0.90127  1.0000
  H   H399      1.0  0.52836  0.66187  0.92414  1.0000
  H   H400      1.0  0.55488  0.66961  0.93521  1.0000
  H   H401      1.0  0.55491  0.71179  0.86634  1.0000
  H   H402      1.0  0.53173  0.69454  0.90399  1.0000
  H   H403      1.0  0.55768  0.70381  0.91635  1.0000
  H   H404      1.0  0.51477  0.59547  0.79489  1.0000
  C   C322      1.0  0.46551  0.54653  0.15607  1.0000
  C   C323      1.0  0.61700  0.71056  0.84310  1.0000
  C   C324      1.0  0.34827  0.54702  0.20840  1.0000
  H   H405      1.0  0.57804  0.61130  0.71450  1.0000
  S   S94       1.0  0.61576  0.55013  0.52067  1.0000
  H   H406      1.0  0.51938  0.53496  0.80658  1.0000
  H   H407      1.0  0.58234  0.51543  0.01680  1.0000
  H   H408      1.0  0.55074  0.62072  0.75866  1.0000
  H   H409      1.0  0.60298  0.59096  0.22923  1.0000
  C   C325      1.0  0.64738  0.49793  0.49211  1.0000
  S   S95       1.0  0.53244  0.52626  0.16849  1.0000
  C   C326      1.0  0.57691  0.56509  0.05380  1.0000
  C   C327      1.0  0.34517  0.58461  0.19658  1.0000
  H   H410      1.0  0.47829  0.56213  0.91755  1.0000
  Fe  Fe51      1.0  0.56316  0.60786  0.85036  1.0000
  H   H411      1.0  0.33290  0.64697  0.94915  1.0000
  C   C328      1.0  0.64390  0.60661  0.02549  1.0000
  S   S96       1.0  0.58497  0.57153  0.09833  1.0000
  H   H412      1.0  0.59448  0.51025  0.39893  1.0000
  H   H413      1.0  0.63535  0.58245  0.20816  1.0000
  Fe  Fe52      1.0  0.55625  0.55761  0.15237  1.0000
  C   C329      1.0  0.48451  0.57802  0.91077  1.0000
  C   C330      1.0  0.50598  0.58873  0.88745  1.0000
  C   C331      1.0  0.55296  0.54235  0.01992  1.0000
  S   S97       1.0  0.57962  0.50199  0.71481  1.0000
  S   S98       1.0  0.59046  0.72902  0.04678  1.0000
  S   S99       1.0  0.46465  0.61104  0.02777  1.0000
  C   C332      1.0  0.59475  0.70640  0.85856  1.0000
  C   C333      1.0  0.47929  0.60848  0.91755  1.0000
  C   C334      1.0  0.46286  0.57614  0.17807  1.0000
  C   C335      1.0  0.60847  0.67762  0.82897  1.0000
  C   C336      1.0  0.43944  0.53515  0.03207  1.0000
  C   C337      1.0  0.56213  0.49215  0.13625  1.0000
  N   N21       1.0  0.52030  0.63052  0.12787  1.0000
  C   C338      1.0  0.53620  0.64700  0.14109  1.0000
  C   C339      1.0  0.49862  0.63205  0.13928  1.0000
  C   C340      1.0  0.51842  0.61176  0.15108  1.0000
  C   C341      1.0  0.52810  0.63124  0.08352  1.0000
  C   C342      1.0  0.54769  0.62830  0.06815  1.0000
  C   C343      1.0  0.51699  0.63527  0.05438  1.0000
  C   C344      1.0  0.55538  0.62893  0.02640  1.0000
  C   C345      1.0  0.52480  0.63584  0.01273  1.0000
  C   C346      1.0  0.54394  0.63266  0.99876  1.0000
  H   H414      1.0  0.53814  0.66132  0.12420  1.0000
  H   H415      1.0  0.53096  0.64716  0.17428  1.0000
  H   H416      1.0  0.55267  0.64631  0.13548  1.0000
  H   H417      1.0  0.49921  0.64657  0.12590  1.0000
  H   H418      1.0  0.49270  0.63055  0.17292  1.0000
  H   H419      1.0  0.48602  0.62029  0.12922  1.0000
  H   H420      1.0  0.53455  0.61070  0.14922  1.0000
  H   H421      1.0  0.51116  0.61010  0.18436  1.0000
  H   H422      1.0  0.50797  0.59893  0.13975  1.0000
  H   H423      1.0  0.55736  0.62576  0.08836  1.0000
  H   H424      1.0  0.50228  0.63821  0.06287  1.0000
  H   H425      1.0  0.57038  0.62668  0.01533  1.0000
  H   H426      1.0  0.51585  0.63882  0.99131  1.0000
  Fe  Fe53      1.0  0.43773  0.60465  0.08352  1.0000
  S   S100      1.0  0.44147  0.59673  0.14638  1.0000
  H   H427      1.0  0.57500  0.65862  0.84425  1.0000
  H   H428      1.0  0.37428  0.56969  0.25134  1.0000
  H   H429      1.0  0.55231  0.50782  0.48956  1.0000
  C   C347      1.0  0.56482  0.55463  0.40366  1.0000
  Fe  Fe54      1.0  0.40828  0.61465  0.03640  1.0000
  N   N22       1.0  0.63960  0.63866  0.03337  1.0000
  C   C348      1.0  0.59707  0.53006  0.08173  1.0000
  H   H430      1.0  0.59155  0.62152  0.32634  1.0000
  C   C349      1.0  0.45187  0.54694  0.13011  1.0000
  Fe  Fe55      1.0  0.53438  0.52981  0.23272  1.0000
  H   H431      1.0  0.60634  0.53488  0.27786  1.0000
  H   H432      1.0  0.33116  0.71382  0.09778  1.0000
  H   H433      1.0  0.58491  0.49229  0.44467  1.0000
  S   S101      1.0  0.43268  0.63254  0.06839  1.0000
  S   S102      1.0  0.47707  0.52869  0.15567  1.0000
  C   C350      1.0  0.44464  0.56250  0.12647  1.0000
  H   H434      1.0  0.54560  0.50720  0.35710  1.0000
  N   N23       1.0  0.59200  0.50991  0.07259  1.0000
  C   C351      1.0  0.58355  0.57098  0.98007  1.0000
  H   H435      1.0  0.59328  0.57991  0.95086  1.0000
  S   S103      1.0  0.58966  0.49165  0.53629  1.0000
  C   C352      1.0  0.61230  0.50927  0.04715  1.0000
  C   C353      1.0  0.32447  0.72733  0.16938  1.0000
  H   H436      1.0  0.35109  0.53310  0.21285  1.0000
  C   C354      1.0  0.56537  0.55388  0.98206  1.0000
  C   C355      1.0  0.64347  0.67695  0.90321  1.0000
  H   H437      1.0  0.56997  0.56805  0.41632  1.0000
  C   C356      1.0  0.63127  0.55190  0.47149  1.0000
  Fe  Fe56      1.0  0.57274  0.57495  0.89044  1.0000
  H   H438      1.0  0.63042  0.55672  0.21377  1.0000
  C   C357      1.0  0.35451  0.57900  0.07592  1.0000
  S   S104      1.0  0.60828  0.58770  0.85788  1.0000
  H   H439      1.0  0.56105  0.50894  0.06131  1.0000
  H   H440      1.0  0.32681  0.60329  0.19803  1.0000
  S   S105      1.0  0.56035  0.57835  0.83463  1.0000
  C   C358      1.0  0.60205  0.54709  0.28862  1.0000
  H   H441      1.0  0.32732  0.64382  0.04308  1.0000
  H   H442      1.0  0.52925  0.49414  0.47092  1.0000
  S   S106      1.0  0.56881  0.51259  0.60641  1.0000
  H   H443      1.0  0.64077  0.62561  0.09234  1.0000
  C   C359      1.0  0.38239  0.56632  0.22264  1.0000
  C   C360      1.0  0.54645  0.54153  0.70752  1.0000
  H   H444      1.0  0.54741  0.54967  0.67752  1.0000
  S   S107      1.0  0.63083  0.51585  0.31302  1.0000
  H   H445      1.0  0.56981  0.57774  0.70491  1.0000
  N   N24       1.0  0.36907  0.56439  0.19214  1.0000
  C   C361      1.0  0.62351  0.56762  0.22433  1.0000
  C   C362      1.0  0.60210  0.54164  0.68883  1.0000
  C   C363      1.0  0.63079  0.53498  0.45587  1.0000
  C   C364      1.0  0.38101  0.61824  0.15463  1.0000
  C   C365      1.0  0.60416  0.56574  0.73390  1.0000
  H   H446      1.0  0.58970  0.55392  0.79779  1.0000
  H   H447      1.0  0.58936  0.51724  0.44827  1.0000
  S   S108      1.0  0.59253  0.70790  0.13511  1.0000
  H   H448      1.0  0.50524  0.52020  0.72847  1.0000
  C   C366      1.0  0.55919  0.51969  0.40716  1.0000
  H   H449      1.0  0.58260  0.53152  0.10126  1.0000
  H   H450      1.0  0.61740  0.57304  0.66873  1.0000
  H   H451      1.0  0.32873  0.66337  0.98327  1.0000
  C   C367      1.0  0.64307  0.53630  0.41655  1.0000
  S   S109      1.0  0.55746  0.54755  0.93751  1.0000
  C   C368      1.0  0.59676  0.60708  0.27526  1.0000
  C   C369      1.0  0.35126  0.71220  0.15778  1.0000
  C   C370      1.0  0.60411  0.59300  0.25997  1.0000
  C   C371      1.0  0.52634  0.59131  0.77452  1.0000
  C   C372      1.0  0.60895  0.56128  0.69472  1.0000
  C   C373      1.0  0.59327  0.55053  0.76745  1.0000
  H   H452      1.0  0.53882  0.52917  0.02151  1.0000
  H   H453      1.0  0.61731  0.57729  0.34548  1.0000
  H   H454      1.0  0.54338  0.53687  0.32592  1.0000
  H   H455      1.0  0.54187  0.52569  0.70495  1.0000
  H   H456      1.0  0.58233  0.66742  0.18995  1.0000
  H   H457      1.0  0.39477  0.63121  0.13746  1.0000
  C   C374      1.0  0.61536  0.63003  0.04564  1.0000
  H   H458      1.0  0.36815  0.57690  0.05736  1.0000
  H   H459      1.0  0.61774  0.51913  0.01697  1.0000
  S   S110      1.0  0.37609  0.61848  0.04493  1.0000
  C   C375      1.0  0.55115  0.51998  0.37141  1.0000
  C   C376      1.0  0.55671  0.55437  0.36886  1.0000
  C   C377      1.0  0.55689  0.58073  0.72395  1.0000
  N   N25       1.0  0.34558  0.72886  0.14329  1.0000
  H   H460      1.0  0.50575  0.56106  0.78822  1.0000
  C   C378      1.0  0.59634  0.49761  0.25316  1.0000
  C   C379      1.0  0.58656  0.53087  0.76162  1.0000
  C   C380      1.0  0.57820  0.51975  0.21221  1.0000
  C   C381      1.0  0.50875  0.53552  0.73428  1.0000
  H   H461      1.0  0.38526  0.55263  0.23034  1.0000
  H   H462      1.0  0.56309  0.54625  0.71272  1.0000
  H   H463      1.0  0.62076  0.52087  0.47421  1.0000
  C   C382      1.0  0.57490  0.49601  0.26953  1.0000
  H   H464      1.0  0.60526  0.53831  0.65835  1.0000
  H   H465      1.0  0.33734  0.54524  0.18698  1.0000
  H   H466      1.0  0.35138  0.71146  0.19067  1.0000
  S   S111      1.0  0.54006  0.50693  0.27167  1.0000
  C   C383      1.0  0.54663  0.60560  0.75412  1.0000
  C   C384      1.0  0.59964  0.52146  0.19605  1.0000
  C   C385      1.0  0.31774  0.58379  0.12051  1.0000
  H   H467      1.0  0.49583  0.72047  0.06018  1.0000
  H   H468      1.0  0.62627  0.51445  0.06177  1.0000
  C   C386      1.0  0.63846  0.69251  0.91708  1.0000
  C   C387      1.0  0.53628  0.56575  0.74414  1.0000
  H   H469      1.0  0.60523  0.60253  0.37034  1.0000
  H   H470      1.0  0.52883  0.51864  0.77908  1.0000
  H   H471      1.0  0.59908  0.54469  0.32246  1.0000
  C   C388      1.0  0.34355  0.72802  0.10066  1.0000
  C   C389      1.0  0.59728  0.61056  0.31479  1.0000
  C   C390      1.0  0.61216  0.58560  0.32465  1.0000
  H   H472      1.0  0.42537  0.53867  0.02960  1.0000
  C   C391      1.0  0.58327  0.50563  0.43004  1.0000
  H   H473      1.0  0.36764  0.71351  0.14029  1.0000
  C   C392      1.0  0.60497  0.59985  0.33946  1.0000
  H   H474      1.0  0.35851  0.63295  0.16020  1.0000
  C   C393      1.0  0.57561  0.50588  0.04750  1.0000
  N   N26       1.0  0.61946  0.56645  0.26939  1.0000
  C   C394      1.0  0.59583  0.48649  0.12778  1.0000
  C   C395      1.0  0.34280  0.60255  0.18889  1.0000
  C   C396      1.0  0.61237  0.58199  0.28411  1.0000
  C   C397      1.0  0.36061  0.61927  0.16755  1.0000
  H   H475      1.0  0.63774  0.56308  0.31394  1.0000
  H   H476      1.0  0.63544  0.60069  0.05718  1.0000
  S   S112      1.0  0.63671  0.51537  0.20016  1.0000
  H   H477      1.0  0.64253  0.52306  0.40489  1.0000
  C   C398      1.0  0.51267  0.73063  0.05500  1.0000
  H   H478      1.0  0.63891  0.65964  0.98558  1.0000
  H   H479      1.0  0.35921  0.72975  0.07953  1.0000
  H   H480      1.0  0.52068  0.72791  0.99185  1.0000
  C   C399      1.0  0.31896  0.56523  0.12406  1.0000
  H   H481      1.0  0.55203  0.49948  0.12730  1.0000
  C   C400      1.0  0.64831  0.63971  0.07045  1.0000
  C   C401      1.0  0.64006  0.56758  0.28067  1.0000
  H   H482      1.0  0.64080  0.66840  0.03234  1.0000
  H   H483      1.0  0.64197  0.48732  0.61645  1.0000
  C   C402      1.0  0.32023  0.65029  0.97014  1.0000
  H   H484      1.0  0.64506  0.65083  0.08785  1.0000
  Fe  Fe57      1.0  0.61489  0.73267  0.08463  1.0000
  H   H485      1.0  0.64436  0.50986  0.50509  1.0000
  C   C403      1.0  0.64635  0.65916  0.01197  1.0000
  C   C404      1.0  0.64413  0.57037  0.44754  1.0000
  C   C405      1.0  0.64738  0.62604  0.00810  1.0000
  H   H486      1.0  0.64705  0.55752  0.26605  1.0000
  H   H487      1.0  0.50887  0.73424  0.11676  1.0000
  H   H488      1.0  0.50851  0.88424  0.14047  1.0000
  H   H489      1.0  0.50009  0.82134  0.94745  1.0000
  H   H490      1.0  0.59260  0.98220  0.05325  1.0000
  Fe  Fe58      1.0  0.51618  0.94699  0.24143  1.0000
  S   S113      1.0  0.48716  0.94104  0.21401  1.0000
  S   S114      1.0  0.51464  0.93476  0.30529  1.0000
  H   H491      1.0  0.53515  0.92965  0.95491  1.0000
  S   S115      1.0  0.48047  0.94870  0.04617  1.0000
  C   C406      1.0  0.56146  0.78172  0.10441  1.0000
  Fe  Fe59      1.0  0.42515  0.80300  0.14861  1.0000
  S   S116      1.0  0.39845  0.80413  0.19785  1.0000
  S   S117      1.0  0.43480  0.77708  0.15467  1.0000
  Fe  Fe60      1.0  0.42906  0.84015  0.09682  1.0000
  S   S118      1.0  0.40275  0.84455  0.14216  1.0000
  S   S119      1.0  0.44607  0.85849  0.03477  1.0000
  Fe  Fe61      1.0  0.41917  0.83638  0.18843  1.0000
  S   S120      1.0  0.42757  0.85040  0.24245  1.0000
  Fe  Fe62      1.0  0.38495  0.81203  0.14641  1.0000
  S   S121      1.0  0.34917  0.79815  0.14732  1.0000
  S   S122      1.0  0.44701  0.83462  0.14263  1.0000
  S   S123      1.0  0.41020  0.80829  0.09796  1.0000
  H   H492      1.0  0.56784  0.78879  0.12947  1.0000
  C   C407      1.0  0.55650  0.75543  0.04197  1.0000
  H   H493      1.0  0.37989  0.74793  0.12389  1.0000
  Fe  Fe63      1.0  0.59302  0.84029  0.04679  1.0000
  S   S124      1.0  0.59096  0.83938  0.11379  1.0000
  S   S125      1.0  0.61388  0.82861  0.00503  1.0000
  Fe  Fe64      1.0  0.55928  0.85860  0.04798  1.0000
  S   S126      1.0  0.55406  0.85900  0.11509  1.0000
  S   S127      1.0  0.53796  0.86844  0.01546  1.0000
  Fe  Fe65      1.0  0.59059  0.86952  0.10225  1.0000
  C   C408      1.0  0.64311  0.95541  0.09865  1.0000
  Fe  Fe66      1.0  0.55490  0.82892  0.12007  1.0000
  S   S128      1.0  0.53246  0.80309  0.16802  1.0000
  S   S129      1.0  0.59586  0.87150  0.03448  1.0000
  S   S130      1.0  0.55678  0.82738  0.05398  1.0000
  C   C409      1.0  0.46213  0.78419  0.15705  1.0000
  C   C410      1.0  0.47778  0.80225  0.13541  1.0000
  C   C411      1.0  0.49965  0.80783  0.13745  1.0000
  C   C412      1.0  0.50567  0.79560  0.16239  1.0000
  C   C413      1.0  0.49002  0.77757  0.18417  1.0000
  C   C414      1.0  0.46833  0.77172  0.18094  1.0000
  H   H494      1.0  0.47308  0.81168  0.11641  1.0000
  H   H495      1.0  0.51174  0.82170  0.12023  1.0000
  H   H496      1.0  0.49458  0.76817  0.20379  1.0000
  H   H497      1.0  0.45621  0.75775  0.19779  1.0000
  C   C415      1.0  0.34209  0.78672  0.10582  1.0000
  N   N27       1.0  0.55174  0.75997  0.11546  1.0000
  S   S131      1.0  0.32375  0.75507  0.00049  1.0000
  H   H498      1.0  0.47047  0.93778  0.29867  1.0000
  C   C416      1.0  0.35185  0.78059  0.03683  1.0000
  C   C417      1.0  0.35774  0.78999  0.06936  1.0000
  C   C418      1.0  0.45860  0.93831  0.32596  1.0000
  C   C419      1.0  0.50606  0.92854  0.11309  1.0000
  H   H499      1.0  0.36404  0.78310  0.00875  1.0000
  H   H500      1.0  0.37435  0.79983  0.06600  1.0000
  H   H501      1.0  0.48025  0.90827  0.27542  1.0000
  C   C420      1.0  0.56826  0.93266  0.95336  1.0000
  C   C421      1.0  0.54991  0.89294  0.99025  1.0000
  C   C422      1.0  0.46195  0.78736  0.04190  1.0000
  C   C423      1.0  0.53652  0.90235  0.97970  1.0000
  C   C424      1.0  0.62928  0.97442  0.03915  1.0000
  H   H502      1.0  0.57544  0.78706  0.07710  1.0000
  C   C425      1.0  0.54562  0.92234  0.96215  1.0000
  C   C426      1.0  0.50541  0.84853  0.30040  1.0000
  C   C427      1.0  0.47026  0.92390  0.04113  1.0000
  C   C428      1.0  0.45417  0.91024  0.07348  1.0000
  C   C429      1.0  0.44682  0.89014  0.07166  1.0000
  C   C430      1.0  0.45492  0.88366  0.03686  1.0000
  C   C431      1.0  0.47054  0.89733  0.00393  1.0000
  C   C432      1.0  0.47840  0.91744  0.00626  1.0000
  H   H503      1.0  0.44781  0.91519  0.10048  1.0000
  H   H504      1.0  0.43492  0.87976  0.09730  1.0000
  H   H505      1.0  0.47690  0.89239  0.97696  1.0000
  H   H506      1.0  0.49076  0.92789  0.98115  1.0000
  C   C433      1.0  0.56401  0.89732  0.24361  1.0000
  H   H507      1.0  0.51902  0.89434  0.98591  1.0000
  H   H508      1.0  0.56255  0.73656  0.12926  1.0000
  C   C434      1.0  0.59309  0.89585  0.17345  1.0000
  C   C435      1.0  0.57647  0.87853  0.19632  1.0000
  C   C436      1.0  0.56214  0.87924  0.23168  1.0000
  H   H509      1.0  0.49832  0.83765  0.04910  1.0000
  H   H510      1.0  0.48992  0.98009  0.35346  1.0000
  H   H511      1.0  0.57477  0.86453  0.18700  1.0000
  C   C437      1.0  0.47041  0.91591  0.22174  1.0000
  C   C438      1.0  0.45705  0.90876  0.19514  1.0000
  C   C439      1.0  0.44414  0.88857  0.20051  1.0000
  C   C440      1.0  0.44370  0.87570  0.23384  1.0000
  C   C441      1.0  0.45639  0.88306  0.26126  1.0000
  C   C442      1.0  0.47018  0.90295  0.25456  1.0000
  H   H512      1.0  0.58219  0.95601  0.12043  1.0000
  H   H513      1.0  0.43413  0.88306  0.17955  1.0000
  H   H514      1.0  0.45572  0.87330  0.28765  1.0000
  C   C443      1.0  0.46130  0.82080  0.99284  1.0000
  H   H515      1.0  0.45769  0.80963  0.97251  1.0000
  H   H516      1.0  0.44697  0.81673  0.01935  1.0000
  H   H517      1.0  0.46239  0.83496  0.97618  1.0000
  H   H518      1.0  0.51671  0.81496  0.02133  1.0000
  H   H519      1.0  0.35273  0.85624  0.02066  1.0000
  H   H520      1.0  0.49877  0.85985  0.30129  1.0000
  H   H521      1.0  0.53627  0.83293  0.35250  1.0000
  C   C444      1.0  0.48193  0.76888  0.06570  1.0000
  C   C445      1.0  0.36416  0.74737  0.14292  1.0000
  H   H522      1.0  0.49947  0.84530  0.95200  1.0000
  N   N28       1.0  0.49241  0.83787  0.23735  1.0000
  C   C446      1.0  0.48142  0.85204  0.24148  1.0000
  C   C447      1.0  0.50882  0.84462  0.19761  1.0000
  C   C448      1.0  0.47546  0.81848  0.23686  1.0000
  C   C449      1.0  0.50348  0.83617  0.27031  1.0000
  H   H523      1.0  0.49326  0.86730  0.23975  1.0000
  H   H524      1.0  0.47287  0.85266  0.21673  1.0000
  H   H525      1.0  0.46867  0.84769  0.27076  1.0000
  H   H526      1.0  0.52180  0.85920  0.19700  1.0000
  H   H527      1.0  0.50123  0.84592  0.17173  1.0000
  H   H528      1.0  0.51722  0.83431  0.19144  1.0000
  H   H529      1.0  0.46334  0.81260  0.26696  1.0000
  H   H530      1.0  0.46621  0.81940  0.21340  1.0000
  H   H531      1.0  0.48246  0.80731  0.22967  1.0000
  H   H532      1.0  0.51355  0.81289  0.24920  1.0000
  S   S132      1.0  0.54356  0.93873  0.21170  1.0000
  C   C450      1.0  0.51705  0.84722  0.32970  1.0000
  S   S133      1.0  0.61001  0.89513  0.12766  1.0000
  Fe  Fe67      1.0  0.54369  0.92840  0.27564  1.0000
  H   H533      1.0  0.53329  0.81081  0.30122  1.0000
  C   C451      1.0  0.52529  0.82120  0.30126  1.0000
  C   C452      1.0  0.48574  0.96595  0.34178  1.0000
  H   H534      1.0  0.60840  0.92725  0.16894  1.0000
  C   C453      1.0  0.58174  0.92303  0.96233  1.0000
  H   H535      1.0  0.44605  0.78743  0.04126  1.0000
  H   H536      1.0  0.48196  0.75557  0.08186  1.0000
  N   N29       1.0  0.38312  0.85196  0.01113  1.0000
  C   C454      1.0  0.38183  0.84738  0.05532  1.0000
  C   C455      1.0  0.36040  0.84651  0.00651  1.0000
  C   C456      1.0  0.39300  0.83935  0.98993  1.0000
  C   C457      1.0  0.39630  0.87288  0.99297  1.0000
  C   C458      1.0  0.40733  0.88691  0.01551  1.0000
  C   C459      1.0  0.39885  0.87969  0.95106  1.0000
  C   C460      1.0  0.42021  0.90639  0.99698  1.0000
  C   C461      1.0  0.41177  0.89922  0.93285  1.0000
  C   C462      1.0  0.42249  0.91252  0.95576  1.0000
  H   H537      1.0  0.39831  0.85002  0.06058  1.0000
  H   H538      1.0  0.61757  0.96383  0.96704  1.0000
  C   C463      1.0  0.33035  0.76748  0.04089  1.0000
  H   H539      1.0  0.37146  0.83171  0.06857  1.0000
  S   S134      1.0  0.63202  0.76180  0.10179  1.0000
  H   H540      1.0  0.35956  0.84752  0.97404  1.0000
  H   H541      1.0  0.41028  0.84333  0.99208  1.0000
  H   H542      1.0  0.38388  0.82351  0.00335  1.0000
  H   H543      1.0  0.39304  0.84067  0.95703  1.0000
  H   H544      1.0  0.40662  0.88322  0.04741  1.0000
  H   H545      1.0  0.39107  0.86989  0.93192  1.0000
  H   H546      1.0  0.55957  0.75012  0.98003  1.0000
  H   H547      1.0  0.41363  0.90406  0.90072  1.0000
  H   H548      1.0  0.43269  0.92761  0.94158  1.0000
  C   C464      1.0  0.32045  0.77397  0.10949  1.0000
  H   H549      1.0  0.33530  0.75677  0.18631  1.0000
  H   H550      1.0  0.62687  0.76768  0.01973  1.0000
  C   C465      1.0  0.56901  0.75293  0.12230  1.0000
  C   C466      1.0  0.46322  0.97235  0.29911  1.0000
  C   C467      1.0  0.45707  0.96597  0.26336  1.0000
  H   H551      1.0  0.34987  0.83103  0.02143  1.0000
  C   C468      1.0  0.45707  0.97923  0.23125  1.0000
  C   C469      1.0  0.62113  0.79457  0.01302  1.0000
  C   C470      1.0  0.64804  0.86487  0.11168  1.0000
  H   H552      1.0  0.33843  0.73981  0.08918  1.0000
  H   H553      1.0  0.44180  0.93150  0.32138  1.0000
  H   H554      1.0  0.63655  0.87646  0.06473  1.0000
  C   C471      1.0  0.54274  0.75136  0.08184  1.0000
  H   H555      1.0  0.54426  0.94827  0.12001  1.0000
  H   H556      1.0  0.36656  0.74897  0.17420  1.0000
  H   H557      1.0  0.57588  0.75867  0.14804  1.0000
  N   N30       1.0  0.46368  0.95881  0.33358  1.0000
  H   H558      1.0  0.37443  0.85626  0.07342  1.0000
  H   H559      1.0  0.45245  0.95084  0.25901  1.0000
  H   H560      1.0  0.42875  0.91679  0.01460  1.0000
  H   H561      1.0  0.45270  0.97400  0.20398  1.0000
  H   H562      1.0  0.45114  0.97275  0.38042  1.0000
  C   C472      1.0  0.51381  0.82245  0.27168  1.0000
  H   H563      1.0  0.61953  0.79400  0.98196  1.0000
  H   H564      1.0  0.54943  0.86584  0.24934  1.0000
  H   H565      1.0  0.63279  0.97298  0.13912  1.0000
  C   C473      1.0  0.50142  0.78511  0.05040  1.0000
  H   H566      1.0  0.51664  0.78436  0.05468  1.0000
  N   N31       1.0  0.48172  0.82295  0.00580  1.0000
  C   C474      1.0  0.50129  0.80254  0.03086  1.0000
  H   H567      1.0  0.48725  0.85182  0.02107  1.0000
  H   H568      1.0  0.51636  0.83733  0.97618  1.0000
  C   C475      1.0  0.50015  0.83195  0.96881  1.0000
  H   H569      1.0  0.46953  0.83180  0.06113  1.0000
  H   H570      1.0  0.51167  0.89149  0.06572  1.0000
  C   C476      1.0  0.48434  0.83665  0.03549  1.0000
  H   H571      1.0  0.62062  0.82319  0.08602  1.0000
  C   C477      1.0  0.48159  0.80410  0.02522  1.0000
  H   H572      1.0  0.58301  0.89603  0.98837  1.0000
  H   H573      1.0  0.62737  0.79676  0.12404  1.0000
  C   C478      1.0  0.46226  0.77003  0.06157  1.0000
  S   S135      1.0  0.54481  0.89844  0.28555  1.0000
  H   H574      1.0  0.50805  0.90267  0.17156  1.0000
  H   H575      1.0  0.54907  0.78747  0.09791  1.0000
  H   H576      1.0  0.44702  0.75764  0.07514  1.0000
  H   H577      1.0  0.57368  0.76470  0.03552  1.0000
  C   C479      1.0  0.52696  0.83360  0.33015  1.0000
  H   H578      1.0  0.51901  0.85736  0.35129  1.0000
  C   C480      1.0  0.62508  0.77961  0.03447  1.0000
  C   C481      1.0  0.57253  0.90327  0.98132  1.0000
  H   H579      1.0  0.45682  0.91881  0.17016  1.0000
  C   C482      1.0  0.44744  0.95816  0.37070  1.0000
  C   C483      1.0  0.52047  0.73869  0.08741  1.0000
  Fe  Fe68      1.0  0.53950  0.96471  0.30549  1.0000
  H   H580      1.0  0.49860  0.96825  0.31358  1.0000
  C   C484      1.0  0.62550  0.79606  0.09316  1.0000
  H   H581      1.0  0.54229  0.76196  0.17914  1.0000
  C   C485      1.0  0.62645  0.97969  0.96746  1.0000
  C   C486      1.0  0.58079  0.91461  0.22095  1.0000
  C   C487      1.0  0.59552  0.91384  0.18629  1.0000
  H   H582      1.0  0.48992  0.89952  0.07517  1.0000
  S   S136      1.0  0.57982  0.95766  0.93187  1.0000
  C   C488      1.0  0.61900  0.81010  0.03189  1.0000
  S   S137      1.0  0.54372  0.97167  0.01646  1.0000
  H   H583      1.0  0.57980  0.90232  0.07942  1.0000
  H   H584      1.0  0.43069  0.95329  0.36539  1.0000
  H   H585      1.0  0.58890  0.96230  0.02482  1.0000
  C   C489      1.0  0.59759  0.97845  0.02283  1.0000
  C   C490      1.0  0.32193  0.74288  0.18905  1.0000
  S   S138      1.0  0.52277  0.96471  0.93615  1.0000
  Fe  Fe69      1.0  0.51181  0.96802  0.00114  1.0000
  H   H586      1.0  0.58248  0.92861  0.23023  1.0000
  C   C491      1.0  0.57170  0.91218  0.08808  1.0000
  S   S139      1.0  0.56850  0.95703  0.28239  1.0000
  Fe  Fe70      1.0  0.56572  0.96796  0.22079  1.0000
  C   C492      1.0  0.50366  0.89703  0.14370  1.0000
  H   H587      1.0  0.48552  0.89147  0.14931  1.0000
  C   C493      1.0  0.62131  0.81087  0.07187  1.0000
  C   C494      1.0  0.63772  0.95970  0.03033  1.0000
  Fe  Fe71      1.0  0.55551  0.97143  0.95021  1.0000
  C   C495      1.0  0.63461  0.96953  0.10842  1.0000
  H   H588      1.0  0.63888  0.95481  0.00120  1.0000
  H   H589      1.0  0.54101  0.89253  0.08304  1.0000
  H   H590      1.0  0.50836  0.93414  0.14184  1.0000
  C   C496      1.0  0.62779  0.97888  0.07924  1.0000
  H   H591      1.0  0.51572  0.91597  0.04308  1.0000
  C   C497      1.0  0.50784  0.90459  0.07118  1.0000
  N   N32       1.0  0.51448  0.91267  0.10715  1.0000
  C   C498      1.0  0.55116  0.93774  0.11082  1.0000
  C   C499      1.0  0.53512  0.75479  0.15487  1.0000
  H   H592      1.0  0.51403  0.94106  0.08713  1.0000
  C   C500      1.0  0.62726  0.78037  0.07455  1.0000
  H   H593      1.0  0.58306  0.75772  0.09526  1.0000
  C   C501      1.0  0.58337  0.92977  0.09925  1.0000
  C   C502      1.0  0.57318  0.94255  0.11058  1.0000
  H   H594      1.0  0.52804  0.73863  0.16626  1.0000
  H   H595      1.0  0.60018  0.93313  0.10013  1.0000
  H   H596      1.0  0.59927  0.93083  0.95503  1.0000
  H   H597      1.0  0.36166  0.76052  0.12982  1.0000
  H   H598      1.0  0.48820  0.92335  0.11532  1.0000
  C   C503      1.0  0.53846  0.91944  0.10144  1.0000
  H   H599      1.0  0.52174  0.75990  0.15200  1.0000
  S   S140      1.0  0.53834  0.97750  0.24407  1.0000
  C   C504      1.0  0.54949  0.90685  0.08983  1.0000
  S   S141      1.0  0.53617  0.98241  0.35547  1.0000
  H   H600      1.0  0.64791  0.94782  0.12165  1.0000
  C   C505      1.0  0.64457  0.95044  0.05977  1.0000
  H   H601      1.0  0.45959  0.92859  0.35192  1.0000
  H   H602      1.0  0.63915  0.86996  0.13555  1.0000
  H   H603      1.0  0.44705  0.94782  0.39711  1.0000
  H   H604      1.0  0.48747  0.95541  0.36522  1.0000
  C   C506      1.0  0.64657  0.86851  0.07161  1.0000
  C   C507      1.0  0.54856  0.74717  0.00989  1.0000
  H   H605      1.0  0.64427  0.98366  0.95523  1.0000
  H   H606      1.0  0.55594  0.97836  0.14690  1.0000
  H   H607      1.0  0.60058  0.98327  0.81290  1.0000
  N   N33       1.0  0.62160  0.98441  0.00909  1.0000
  C   C508      1.0  0.52670  0.73476  0.01642  1.0000
  H   H608      1.0  0.70862  0.23079  0.44971  1.0000
  C   C509      1.0  0.76476  0.14333  0.54028  1.0000
  H   H609      1.0  0.71154  0.16261  0.52905  1.0000
  S   S142      1.0  0.73693  0.15396  0.63571  1.0000
  S   S143      1.0  0.71246  0.19133  0.59672  1.0000
  H   H610      1.0  0.73836  0.16326  0.38249  1.0000
  Fe  Fe72      1.0  0.74095  0.18401  0.60622  1.0000
  C   C510      1.0  0.68164  0.13529  0.46940  1.0000
  H   H611      1.0  0.70539  0.21799  0.74468  1.0000
  H   H612      1.0  0.78145  0.14971  0.51952  1.0000
  H   H613      1.0  0.66456  0.18121  0.70124  1.0000
  Fe  Fe73      1.0  0.73301  0.20376  0.53296  1.0000
  H   H614      1.0  0.72319  0.11233  0.47021  1.0000
  S   S144      1.0  0.66894  0.22794  0.40757  1.0000
  C   C511      1.0  0.66691  0.21360  0.73563  1.0000
  C   C512      1.0  0.65455  0.18144  0.78097  1.0000
  H   H615      1.0  0.77114  0.11822  0.48949  1.0000
  C   C513      1.0  0.69216  0.20538  0.76671  1.0000
  H   H616      1.0  0.72157  0.13421  0.55816  1.0000
  S   S145      1.0  0.76037  0.19470  0.54104  1.0000
  C   C514      1.0  0.69658  0.17002  0.44085  1.0000
  H   H617      1.0  0.71881  0.12758  0.40774  1.0000
  C   C515      1.0  0.65850  0.19119  0.56424  1.0000
  Fe  Fe74      1.0  0.73129  0.22066  0.61130  1.0000
  H   H618      1.0  0.69064  0.12791  0.52408  1.0000
  C   C516      1.0  0.75567  0.11317  0.51384  1.0000
  H   H619      1.0  0.76596  0.13580  0.56917  1.0000
  C   C517      1.0  0.65308  0.18360  0.49884  1.0000
  H   H620      1.0  0.68479  0.17640  0.72248  1.0000
  C   C518      1.0  0.74672  0.13917  0.48256  1.0000
  C   C519      1.0  0.73021  0.13643  0.42371  1.0000
  H   H621      1.0  0.67331  0.19122  0.40157  1.0000
  C   C520      1.0  0.74112  0.15654  0.40956  1.0000
  H   H622      1.0  0.72799  0.11485  0.58080  1.0000
  C   C521      1.0  0.73284  0.12783  0.45972  1.0000
  H   H623      1.0  0.67620  0.14717  0.41406  1.0000
  H   H624      1.0  0.76868  0.16950  0.48205  1.0000
  S   S146      1.0  0.74890  0.23396  0.54642  1.0000
  H   H625      1.0  0.66937  0.16375  0.59061  1.0000
  H   H626      1.0  0.74320  0.10110  0.50421  1.0000
  H   H627      1.0  0.71425  0.11106  0.54041  1.0000
  C   C522      1.0  0.65827  0.16610  0.80274  1.0000
  H   H628      1.0  0.69901  0.18172  0.41676  1.0000
  H   H629      1.0  0.76293  0.18385  0.42048  1.0000
  S   S147      1.0  0.75802  0.21233  0.62679  1.0000
  H   H630      1.0  0.69191  0.19927  0.68949  1.0000
  C   C523      1.0  0.75493  0.16810  0.43107  1.0000
  H   H631      1.0  0.69976  0.19470  0.77293  1.0000
  C   C524      1.0  0.72718  0.12208  0.55131  1.0000
  N   N34       1.0  0.67268  0.19693  0.74998  1.0000
  H   H632      1.0  0.68782  0.21079  0.79553  1.0000
  Fe  Fe75      1.0  0.77470  0.22382  0.56055  1.0000
  H   H633      1.0  0.75975  0.15548  0.54926  1.0000
  S   S148      1.0  0.71961  0.19921  0.47754  1.0000
  H   H634      1.0  0.65816  0.13748  0.68362  1.0000
  C   C525      1.0  0.69220  0.13970  0.50105  1.0000
  N   N35       1.0  0.74870  0.12976  0.52126  1.0000
  C   C526      1.0  0.67880  0.18809  0.71429  1.0000
  H   H635      1.0  0.66999  0.13121  0.60197  1.0000
  C   C527      1.0  0.75788  0.15962  0.46689  1.0000
  C   C528      1.0  0.68385  0.15050  0.43918  1.0000
  C   C529      1.0  0.65814  0.19010  0.39431  1.0000
  C   C530      1.0  0.70408  0.15929  0.50375  1.0000
  C   C531      1.0  0.70959  0.13782  0.65581  1.0000
  C   C532      1.0  0.70433  0.11751  0.66008  1.0000
  C   C533      1.0  0.68239  0.10443  0.67099  1.0000
  H   H636      1.0  0.65302  0.18670  0.59810  1.0000
  C   C534      1.0  0.67095  0.13179  0.67786  1.0000
  C   C535      1.0  0.69291  0.14491  0.66580  1.0000
  H   H637      1.0  0.71720  0.11192  0.65368  1.0000
  H   H638      1.0  0.67840  0.08881  0.67231  1.0000
  H   H639      1.0  0.75850  0.10645  0.54186  1.0000
  H   H640      1.0  0.69690  0.16050  0.66382  1.0000
  C   C536      1.0  0.70613  0.17449  0.47372  1.0000
  H   H641      1.0  0.68114  0.22573  0.71474  1.0000
  C   C537      1.0  0.66566  0.11158  0.67897  1.0000
  H   H642      1.0  0.67615  0.19374  0.55397  1.0000
  H   H643      1.0  0.67420  0.16524  0.79689  1.0000
  H   H644      1.0  0.65729  0.20571  0.55745  1.0000
  H   H645      1.0  0.69866  0.22959  0.58264  1.0000
  H   H646      1.0  0.66078  0.21997  0.76161  1.0000
  H   H647      1.0  0.67037  0.18529  0.48808  1.0000
  H   H648      1.0  0.65444  0.20918  0.71758  1.0000
  C   C538      1.0  0.65866  0.15256  0.57771  1.0000
  S   S149      1.0  0.66649  0.11062  0.46762  1.0000
  C   C539      1.0  0.65878  0.13372  0.58560  1.0000
  H   H649      1.0  0.65242  0.19823  0.49020  1.0000
  C   C540      1.0  0.65208  0.20633  0.39430  1.0000
  H   H650      1.0  0.65024  0.01112  0.99733  1.0000
  H   H651      1.0  0.69166  0.45809  0.43915  1.0000
  S   S150      1.0  0.71232  0.48079  0.60557  1.0000
  H   H652      1.0  0.72582  0.25403  0.38831  1.0000
  H   H653      1.0  0.85312  0.44530  0.84412  1.0000
  C   C541      1.0  0.90676  0.33331  0.77272  1.0000
  H   H654      1.0  0.90550  0.39957  0.51688  1.0000
  Fe  Fe76      1.0  0.90496  0.36492  0.62849  1.0000
  S   S151      1.0  0.89974  0.34231  0.58728  1.0000
  H   H655      1.0  0.97358  0.40899  0.66265  1.0000
  Fe  Fe77      1.0  0.85839  0.36217  0.64370  1.0000
  S   S152      1.0  0.84870  0.33939  0.60420  1.0000
  S   S153      1.0  0.83559  0.37465  0.67687  1.0000
  Fe  Fe78      1.0  0.86812  0.32577  0.63381  1.0000
  S   S154      1.0  0.85540  0.29344  0.65826  1.0000
  Fe  Fe79      1.0  0.88099  0.35788  0.56083  1.0000
  S   S155      1.0  0.88321  0.36193  0.49335  1.0000
  S   S156      1.0  0.87488  0.34692  0.67761  1.0000
  S   S157      1.0  0.88899  0.38200  0.59775  1.0000
  C   C542      1.0  0.75417  0.24851  0.43377  1.0000
  C   C543      1.0  0.91266  0.34724  0.79812  1.0000
  H   H656      1.0  0.90465  0.37649  0.71056  1.0000
  C   C544      1.0  0.87960  0.46487  0.39900  1.0000
  H   H657      1.0  0.92150  0.43340  0.47820  1.0000
  H   H658      1.0  0.69113  0.24192  0.47201  1.0000
  H   H659      1.0  0.66341  0.39789  0.47301  1.0000
  Fe  Fe80      1.0  0.94432  0.47572  0.51844  1.0000
  C   C545      1.0  0.65567  0.45184  0.57527  1.0000
  C   C546      1.0  0.93896  0.39167  0.68228  1.0000
  H   H660      1.0  0.67260  0.46359  0.38604  1.0000
  C   C547      1.0  0.89669  0.38603  0.46586  1.0000
  H   H661      1.0  0.89021  0.37716  0.40933  1.0000
  H   H662      1.0  0.91475  0.44994  0.87253  1.0000
  C   C548      1.0  0.84398  0.27926  0.62347  1.0000
  C   C549      1.0  0.85094  0.28664  0.58157  1.0000
  C   C550      1.0  0.84089  0.27558  0.55424  1.0000
  C   C551      1.0  0.82323  0.25754  0.56882  1.0000
  C   C552      1.0  0.81632  0.25014  0.61072  1.0000
  C   C553      1.0  0.82691  0.26084  0.63795  1.0000
  H   H663      1.0  0.86410  0.30086  0.57017  1.0000
  H   H664      1.0  0.84639  0.28133  0.52182  1.0000
  N   N36       1.0  0.72471  0.26211  0.44825  1.0000
  H   H665      1.0  0.82149  0.25508  0.67034  1.0000
  C   C554      1.0  0.87976  0.43357  0.69924  1.0000
  C   C555      1.0  0.88816  0.41918  0.69086  1.0000
  C   C556      1.0  0.87430  0.40066  0.68616  1.0000
  C   C557      1.0  0.85202  0.39643  0.69004  1.0000
  C   C558      1.0  0.84334  0.41035  0.70121  1.0000
  C   C559      1.0  0.85726  0.42903  0.70521  1.0000
  H   H666      1.0  0.90547  0.42251  0.68676  1.0000
  H   H667      1.0  0.88102  0.38979  0.67883  1.0000
  H   H668      1.0  0.82605  0.40704  0.70488  1.0000
  H   H669      1.0  0.85059  0.44002  0.71181  1.0000
  C   C560      1.0  0.68203  0.40785  0.55786  1.0000
  H   H670      1.0  0.86794  0.43651  0.78548  1.0000
  H   H671      1.0  0.87250  0.41434  0.78313  1.0000
  C   C561      1.0  0.66343  0.40691  0.33870  1.0000
  H   H672      1.0  0.95634  0.34836  0.70400  1.0000
  C   C562      1.0  0.92001  0.38696  0.71332  1.0000
  H   H673      1.0  0.90779  0.45631  0.77787  1.0000
  H   H674      1.0  0.92264  0.44634  0.80565  1.0000
  H   H675      1.0  0.69167  0.29066  0.62140  1.0000
  H   H676      1.0  0.77499  0.43096  0.67085  1.0000
  C   C563      1.0  0.80198  0.46344  0.58186  1.0000
  H   H677      1.0  0.70712  0.26554  0.40325  1.0000
  N   N37       1.0  0.78125  0.29352  0.60635  1.0000
  C   C564      1.0  0.76084  0.29459  0.63022  1.0000
  C   C565      1.0  0.77482  0.27512  0.58894  1.0000
  C   C566      1.0  0.79481  0.29216  0.63510  1.0000
  C   C567      1.0  0.79418  0.31068  0.57343  1.0000
  C   C568      1.0  0.78932  0.32788  0.56908  1.0000
  C   C569      1.0  0.81308  0.31095  0.54576  1.0000
  C   C570      1.0  0.80264  0.34418  0.53879  1.0000
  C   C571      1.0  0.82626  0.32729  0.51571  1.0000
  C   C572      1.0  0.82106  0.34386  0.51221  1.0000
  H   H678      1.0  0.75004  0.29596  0.61013  1.0000
  H   H679      1.0  0.75109  0.28105  0.65349  1.0000
  H   H680      1.0  0.76436  0.30709  0.64738  1.0000
  H   H681      1.0  0.78903  0.27182  0.57408  1.0000
  H   H682      1.0  0.76528  0.27584  0.56596  1.0000
  H   H683      1.0  0.76455  0.26203  0.61295  1.0000
  H   H684      1.0  0.80005  0.30569  0.64897  1.0000
  H   H685      1.0  0.78596  0.27930  0.66026  1.0000
  H   H686      1.0  0.80998  0.29046  0.61964  1.0000
  H   H687      1.0  0.77557  0.32927  0.58911  1.0000
  H   H688      1.0  0.81826  0.29876  0.54797  1.0000
  H   H689      1.0  0.79890  0.35729  0.53638  1.0000
  H   H690      1.0  0.84104  0.32736  0.49581  1.0000
  H   H691      1.0  0.83164  0.35659  0.48928  1.0000
  H   H692      1.0  0.73612  0.28004  0.38854  1.0000
  H   H693      1.0  0.87715  0.47047  0.53848  1.0000
  C   C573      1.0  0.65160  0.47888  0.60668  1.0000
  C   C574      1.0  0.94098  0.40853  0.75352  1.0000
  S   S158      1.0  0.72031  0.46926  0.49634  1.0000
  S   S159      1.0  0.93843  0.37988  0.63929  1.0000
  H   H694      1.0  0.68382  0.35843  0.42305  1.0000
  C   C575      1.0  0.86380  0.46361  0.88637  1.0000
  C   C576      1.0  0.70247  0.26722  0.63560  1.0000
  C   C577      1.0  0.86289  0.43473  0.50844  1.0000
  S   S160      1.0  0.70739  0.41658  0.47927  1.0000
  C   C578      1.0  0.86236  0.42098  0.48241  1.0000
  H   H695      1.0  0.88247  0.31274  0.72018  1.0000
  C   C579      1.0  0.85649  0.40127  0.49832  1.0000
  H   H696      1.0  0.90680  0.41114  0.37010  1.0000
  H   H697      1.0  0.67575  0.44198  0.48718  1.0000
  C   C580      1.0  0.67656  0.44505  0.45402  1.0000
  H   H698      1.0  0.71087  0.42393  0.36885  1.0000
  C   C581      1.0  0.69491  0.41389  0.36703  1.0000
  H   H699      1.0  0.70836  0.27290  0.66122  1.0000
  H   H700      1.0  0.90056  0.34757  0.82402  1.0000
  C   C582      1.0  0.69298  0.27723  0.61316  1.0000
  S   S161      1.0  0.92631  0.44852  0.39354  1.0000
  H   H701      1.0  0.86798  0.44981  0.49410  1.0000
  H   H702      1.0  0.65283  0.31594  0.57092  1.0000
  H   H703      1.0  0.86720  0.42566  0.44962  1.0000
  H   H704      1.0  0.88980  0.29386  0.70057  1.0000
  H   H705      1.0  0.85654  0.39081  0.47789  1.0000
  Fe  Fe81      1.0  0.73203  0.47293  0.55331  1.0000
  H   H706      1.0  0.67862  0.43238  0.44083  1.0000
  C   C583      1.0  0.86088  0.46291  0.56023  1.0000
  H   H707      1.0  0.87786  0.45590  0.62122  1.0000
  S   S162      1.0  0.85100  0.46805  0.76577  1.0000
  H   H708      1.0  0.70167  0.27541  0.46993  1.0000
  C   C584      1.0  0.91538  0.42454  0.42142  1.0000
  C   C585      1.0  0.67665  0.45691  0.58211  1.0000
  N   N38       1.0  0.88748  0.43167  0.82530  1.0000
  C   C586      1.0  0.88939  0.41437  0.84746  1.0000
  C   C587      1.0  0.86946  0.42423  0.80451  1.0000
  C   C588      1.0  0.90793  0.44242  0.79320  1.0000
  C   C589      1.0  0.88421  0.44489  0.85410  1.0000
  C   C590      1.0  0.86584  0.45045  0.86013  1.0000
  C   C591      1.0  0.90009  0.45310  0.87632  1.0000
  C   C592      1.0  0.69698  0.24281  0.59133  1.0000
  H   H709      1.0  0.68170  0.47420  0.49113  1.0000
  C   C593      1.0  0.98077  0.46342  0.30451  1.0000
  H   H710      1.0  0.87473  0.40640  0.87306  1.0000
  H   H711      1.0  0.89128  0.40388  0.82684  1.0000
  H   H712      1.0  0.90406  0.41850  0.86022  1.0000
  H   H713      1.0  0.85352  0.41569  0.82666  1.0000
  S   S163      1.0  0.80406  0.46579  0.52929  1.0000
  S   S164      1.0  0.66140  0.27470  0.44466  1.0000
  C   C594      1.0  0.68516  0.26991  0.58017  1.0000
  C   C595      1.0  0.85212  0.47578  0.43397  1.0000
  Fe  Fe82      1.0  0.73041  0.44356  0.49600  1.0000
  C   C596      1.0  0.78710  0.44629  0.60837  1.0000
  S   S165      1.0  0.73957  0.44572  0.55614  1.0000
  Fe  Fe83      1.0  0.94060  0.47034  0.43231  1.0000
  S   S166      1.0  0.76425  0.46122  0.45723  1.0000
  H   H714      1.0  0.88859  0.29574  0.75300  1.0000
  H   H715      1.0  0.93959  0.33684  0.65516  1.0000
  C   C597      1.0  0.85256  0.40887  0.56658  1.0000
  C   C598      1.0  0.89344  0.30459  0.72191  1.0000
  H   H716      1.0  0.94251  0.44525  0.65815  1.0000
  C   C599      1.0  0.65368  0.38825  0.36305  1.0000
  C   C600      1.0  0.95883  0.40521  0.68651  1.0000
  Fe  Fe84      1.0  0.65368  0.26615  0.51259  1.0000
  H   H717      1.0  0.69167  0.43402  0.32103  1.0000
  H   H718      1.0  0.66159  0.40059  0.61918  1.0000
  C   C601      1.0  0.89553  0.48353  0.39547  1.0000
  H   H719      1.0  0.94606  0.39358  0.50357  1.0000
  C   C602      1.0  0.78212  0.27731  0.46735  1.0000
  C   C603      1.0  0.72347  0.26565  0.40524  1.0000
  C   C604      1.0  0.68261  0.40677  0.51668  1.0000
  C   C605      1.0  0.71966  0.47341  0.35666  1.0000
  H   H720      1.0  0.93835  0.37227  0.80889  1.0000
  H   H721      1.0  0.74171  0.47400  0.72394  1.0000
  C   C606      1.0  0.95794  0.40503  0.44007  1.0000
  H   H722      1.0  0.69704  0.41439  0.56724  1.0000
  H   H723      1.0  0.77662  0.43438  0.59641  1.0000
  C   C607      1.0  0.85753  0.42897  0.55155  1.0000
  H   H724      1.0  0.94444  0.42935  0.54381  1.0000
  C   C608      1.0  0.92226  0.33291  0.73799  1.0000
  Fe  Fe85      1.0  0.77256  0.46574  0.51748  1.0000
  H   H725      1.0  0.73737  0.47145  0.40211  1.0000
  C   C609      1.0  0.68411  0.41962  0.34030  1.0000
  C   C610      1.0  0.68535  0.39526  0.39150  1.0000
  N   N39       1.0  0.91683  0.31813  0.71083  1.0000
  C   C611      1.0  0.94379  0.34739  0.73030  1.0000
  H   H726      1.0  0.89237  0.45089  0.57604  1.0000
  C   C612      1.0  0.92185  0.32818  0.66815  1.0000
  C   C613      1.0  0.85186  0.39524  0.54028  1.0000
  C   C614      1.0  0.95836  0.40560  0.48101  1.0000
  H   H727      1.0  0.94796  0.31492  0.70139  1.0000
  H   H728      1.0  0.84836  0.38005  0.55247  1.0000
  C   C615      1.0  0.89726  0.38941  0.42429  1.0000
  C   C616      1.0  0.90582  0.40194  0.48498  1.0000
  C   C617      1.0  0.93014  0.30599  0.71248  1.0000
  C   C618      1.0  0.93398  0.36112  0.78980  1.0000
  C   C619      1.0  0.78616  0.44436  0.65039  1.0000
  C   C620      1.0  0.74684  0.26285  0.44934  1.0000
  H   H729      1.0  0.85023  0.46843  0.88901  1.0000
  H   H730      1.0  0.92726  0.29858  0.74432  1.0000
  C   C621      1.0  0.71875  0.27693  0.46937  1.0000
  H   H731      1.0  0.76722  0.47078  0.64171  1.0000
  H   H732      1.0  0.88424  0.45336  0.38734  1.0000
  H   H733      1.0  0.96750  0.39173  0.55263  1.0000
  C   C622      1.0  0.95075  0.41937  0.55912  1.0000
  C   C623      1.0  0.90658  0.40862  0.40212  1.0000
  H   H734      1.0  0.92616  0.29440  0.69308  1.0000
  C   C624      1.0  0.79986  0.45971  0.66578  1.0000
  H   H735      1.0  0.95004  0.42214  0.59109  1.0000
  H   H736      1.0  0.91358  0.33869  0.66650  1.0000
  C   C625      1.0  0.65418  0.46541  0.46211  1.0000
  C   C626      1.0  0.94946  0.36127  0.75583  1.0000
  H   H737      1.0  0.66083  0.43732  0.39001  1.0000
  H   H738      1.0  0.84962  0.40358  0.59880  1.0000
  C   C627      1.0  0.70484  0.25022  0.62422  1.0000
  C   C628      1.0  0.68682  0.25249  0.56977  1.0000
  C   C629      1.0  0.91503  0.42119  0.46287  1.0000
  H   H739      1.0  0.91633  0.31764  0.64724  1.0000
  H   H740      1.0  0.79310  0.28842  0.48035  1.0000
  C   C630      1.0  0.66197  0.40001  0.58727  1.0000
  N   N40       1.0  0.85806  0.44309  0.58012  1.0000
  H   H741      1.0  0.83693  0.44602  0.63402  1.0000
  H   H742      1.0  0.84559  0.44634  0.42176  1.0000
  H   H743      1.0  0.84778  0.46198  0.54406  1.0000
  S   S167      1.0  0.79946  0.45736  0.71783  1.0000
  H   H744      1.0  0.91042  0.43356  0.76905  1.0000
  S   S168      1.0  0.93611  0.45911  0.58154  1.0000
  S   S169      1.0  0.96310  0.46604  0.46897  1.0000
  H   H745      1.0  0.72939  0.29221  0.45383  1.0000
  H   H746      1.0  0.87502  0.43125  0.61660  1.0000
  C   C631      1.0  0.89784  0.46621  0.90255  1.0000
  H   H747      1.0  0.68092  0.24683  0.54436  1.0000
  C   C632      1.0  0.92104  0.39524  0.74894  1.0000
  S   S170      1.0  0.97710  0.46231  0.84584  1.0000
  H   H748      1.0  0.66766  0.34964  0.36347  1.0000
  H   H749      1.0  0.83443  0.42154  0.63123  1.0000
  H   H750      1.0  0.82301  0.43318  0.59861  1.0000
  C   C633      1.0  0.87651  0.44538  0.59938  1.0000
  C   C634      1.0  0.70805  0.24239  0.46819  1.0000
  C   C635      1.0  0.95980  0.41376  0.72188  1.0000
  Fe  Fe86      1.0  0.96946  0.44690  0.79318  1.0000
  S   S171      1.0  0.89745  0.45723  0.70136  1.0000
  H   H751      1.0  0.90643  0.39098  0.77321  1.0000
  C   C636      1.0  0.66742  0.35703  0.44066  1.0000
  C   C637      1.0  0.66309  0.39829  0.50487  1.0000
  C   C638      1.0  0.83726  0.43562  0.61228  1.0000
  H   H752      1.0  0.71230  0.45771  0.35852  1.0000
  H   H753      1.0  0.68622  0.44831  0.57268  1.0000
  H   H754      1.0  0.86004  0.47280  0.58292  1.0000
  H   H755      1.0  0.94534  0.39301  0.43215  1.0000
  H   H756      1.0  0.93887  0.40409  0.56210  1.0000
  S   S172      1.0  0.91955  0.47697  0.48401  1.0000
  C   C639      1.0  0.85793  0.46099  0.41829  1.0000
  S   S173      1.0  0.96581  0.47239  0.75867  1.0000
  C   C640      1.0  0.66837  0.47735  0.48371  1.0000
  H   H757      1.0  0.75512  0.48332  0.61284  1.0000
  H   H758      1.0  0.80302  0.23608  0.62215  1.0000
  H   H759      1.0  0.75772  0.28922  0.47767  1.0000
  C   C641      1.0  0.87976  0.47149  0.90746  1.0000
  H   H760      1.0  0.66965  0.36695  0.46374  1.0000
  H   H761      1.0  0.80418  0.26227  0.45506  1.0000
  C   C642      1.0  0.78849  0.26266  0.45284  1.0000
  S   S174      1.0  0.94235  0.41721  0.80012  1.0000
  H   H762      1.0  0.88989  0.32320  0.78068  1.0000
  H   H763      1.0  0.69467  0.39195  0.41161  1.0000
  S   S175      1.0  0.67454  0.28337  0.55111  1.0000
  S   S176      1.0  0.80940  0.24513  0.53424  1.0000
  H   H764      1.0  0.71970  0.27525  0.50179  1.0000
  H   H765      1.0  0.97408  0.45662  0.68922  1.0000
  C   C643      1.0  0.95762  0.45688  0.64108  1.0000
  C   C644      1.0  0.95918  0.46573  0.60182  1.0000
  C   C645      1.0  0.76163  0.27752  0.46568  1.0000
  S   S177      1.0  0.69559  0.47571  0.30181  1.0000
  H   H766      1.0  0.97527  0.42394  0.72510  1.0000
  C   C646      1.0  0.81417  0.47702  0.63927  1.0000
  C   C647      1.0  0.75542  0.47814  0.64430  1.0000
  H   H767      1.0  0.91063  0.47292  0.91784  1.0000
  Fe  Fe87      1.0  0.87861  0.47653  0.71036  1.0000
  S   S178      1.0  0.85975  0.48180  0.66672  1.0000
  H   H768      1.0  0.73881  0.46675  0.65842  1.0000
  C   C648      1.0  0.97538  0.46354  0.65897  1.0000
  Fe  Fe88      1.0  0.83302  0.47614  0.72267  1.0000
  H   H769      1.0  0.87849  0.48229  0.92643  1.0000
  C   C649      1.0  0.73382  0.48122  0.38146  1.0000
  H   H770      1.0  0.76984  0.47721  0.71226  1.0000
  N   N41       1.0  0.65678  0.44797  0.44714  1.0000
  C   C650      1.0  0.65854  0.45002  0.40258  1.0000
  S   S179      1.0  0.71835  0.23879  0.65043  1.0000
  H   H771      1.0  0.83525  0.47168  0.45012  1.0000
  C   C651      1.0  0.66451  0.38170  0.38973  1.0000
  C   C652      1.0  0.81544  0.47882  0.59737  1.0000
  C   C653      1.0  0.68517  0.47302  0.60114  1.0000
  C   C654      1.0  0.77458  0.24834  0.43594  1.0000
  H   H772      1.0  0.65933  0.34167  0.45781  1.0000
  H   H773      1.0  0.77948  0.23683  0.42505  1.0000
  N   N42       1.0  0.97321  0.42239  0.53640  1.0000
  N   N43       1.0  0.65437  0.36143  0.41332  1.0000
  H   H774      1.0  0.74391  0.23702  0.42056  1.0000
  H   H775      1.0  0.65494  0.41157  0.31832  1.0000
  H   H776      1.0  0.97355  0.46625  0.36768  1.0000
  C   C655      1.0  0.97391  0.42161  0.49266  1.0000
  H   H777      1.0  0.97952  0.40702  0.58637  1.0000
  H   H778      1.0  0.97245  0.41989  0.37794  1.0000
  H   H779      1.0  0.96580  0.37261  0.74864  1.0000
  C   C656      1.0  0.97320  0.42015  0.40952  1.0000
  H   H780      1.0  0.96542  0.45112  0.30776  1.0000
  C   C657      1.0  0.65172  0.34716  0.38466  1.0000
  C   C658      1.0  0.97933  0.40660  0.55367  1.0000
  C   C659      1.0  0.97899  0.48040  0.57963  1.0000
  H   H781      1.0  0.71025  0.23784  0.49869  1.0000
  C   C660      1.0  0.67228  0.48353  0.61482  1.0000
  H   H782      1.0  0.70653  0.51885  0.41321  1.0000
  S   S180      1.0  0.96328  0.50868  0.84040  1.0000
  C   C661      1.0  0.90577  0.49748  0.80814  1.0000
  Fe  Fe89      1.0  0.87125  0.51274  0.67814  1.0000
  H   H783      1.0  0.74995  0.51675  0.68611  1.0000
  S   S181      1.0  0.87973  0.53850  0.62897  1.0000
  H   H784      1.0  0.93024  0.56473  0.63509  1.0000
  H   H785      1.0  0.69193  0.55650  0.50298  1.0000
  H   H786      1.0  0.72698  0.50968  0.53071  1.0000
  H   H787      1.0  0.81478  0.53752  0.55656  1.0000
  H   H788      1.0  0.82416  0.48921  0.65112  1.0000
  S   S182      1.0  0.89355  0.50827  0.71536  1.0000
  C   C662      1.0  0.70052  0.53104  0.41181  1.0000
  H   H789      1.0  0.91833  0.50788  0.53614  1.0000
  S   S183      1.0  0.76052  0.51126  0.41148  1.0000
  H   H790      1.0  0.84799  0.49362  0.50713  1.0000
  S   S184      1.0  0.93053  0.53247  0.45684  1.0000
  H   H791      1.0  0.69114  0.54479  0.57247  1.0000
  C   C663      1.0  0.73902  0.51410  0.35183  1.0000
  H   H792      1.0  0.72028  0.51591  0.30782  1.0000
  C   C664      1.0  0.71964  0.52011  0.52405  1.0000
  H   H793      1.0  0.74599  0.56790  0.42166  1.0000
  C   C665      1.0  0.72012  0.52644  0.48372  1.0000
  H   H794      1.0  0.87169  0.54246  0.43817  1.0000
  H   H795      1.0  0.87648  0.50857  0.49636  1.0000
  C   C666      1.0  0.74354  0.50157  0.37909  1.0000
  H   H796      1.0  0.76156  0.49619  0.73145  1.0000
  Fe  Fe90      1.0  0.67373  0.49245  0.30052  1.0000
  C   C667      1.0  0.71092  0.54027  0.47383  1.0000
  C   C668      1.0  0.73611  0.55581  0.40774  1.0000
  H   H797      1.0  0.66449  0.59064  0.94179  1.0000
  H   H798      1.0  0.83433  0.53182  0.66812  1.0000
  C   C669      1.0  0.70409  0.56322  0.42541  1.0000
  H   H799      1.0  0.83899  0.50899  0.40866  1.0000
  C   C670      1.0  0.90860  0.52050  0.85532  1.0000
  C   C671      1.0  0.95584  0.52261  0.71328  1.0000
  H   H800      1.0  0.93785  0.52905  0.87745  1.0000
  Fe  Fe91      1.0  0.66394  0.52721  0.32508  1.0000
  H   H801      1.0  0.73813  0.56176  0.37520  1.0000
  H   H802      1.0  0.90192  0.52960  0.87236  1.0000
  C   C672      1.0  0.70955  0.52698  0.55582  1.0000
  C   C673      1.0  0.72405  0.50623  0.32834  1.0000
  H   H803      1.0  0.66636  0.64391  0.06226  1.0000
  C   C674      1.0  0.89324  0.53603  0.58138  1.0000
  C   C675      1.0  0.89716  0.55004  0.54723  1.0000
  C   C676      1.0  0.90870  0.54889  0.50908  1.0000
  C   C677      1.0  0.91642  0.53375  0.50499  1.0000
  C   C678      1.0  0.91226  0.51953  0.53902  1.0000
  C   C679      1.0  0.90063  0.52066  0.57727  1.0000
  H   H804      1.0  0.89159  0.56200  0.55046  1.0000
  H   H805      1.0  0.91197  0.55992  0.48286  1.0000
  C   C680      1.0  0.81078  0.53104  0.58844  1.0000
  C   C681      1.0  0.94465  0.54457  0.65351  1.0000
  H   H806      1.0  0.74694  0.52985  0.34897  1.0000
  S   S185      1.0  0.87180  0.51017  0.82626  1.0000
  H   H807      1.0  0.68281  0.52477  0.42736  1.0000
  C   C682      1.0  0.66477  0.49320  0.49882  1.0000
  H   H808      1.0  0.66714  0.58609  0.39033  1.0000
  H   H809      1.0  0.74365  0.54466  0.40717  1.0000
  C   C683      1.0  0.83980  0.50952  0.44105  1.0000
  H   H810      1.0  0.66444  0.66648  0.00103  1.0000
  C   C684      1.0  0.65637  0.55471  0.39301  1.0000
  C   C685      1.0  0.95651  0.53269  0.64097  1.0000
  S   S186      1.0  0.96218  0.50176  0.40583  1.0000
  S   S187      1.0  0.67349  0.55644  0.34562  1.0000
  C   C686      1.0  0.69948  0.53989  0.54748  1.0000
  C   C687      1.0  0.82170  0.52783  0.65136  1.0000
  C   C688      1.0  0.70008  0.54651  0.50713  1.0000
  H   H811      1.0  0.83595  0.52227  0.44998  1.0000
  H   H812      1.0  0.93800  0.51856  0.72543  1.0000
  H   H813      1.0  0.68627  0.55774  0.43988  1.0000
  C   C689      1.0  0.95839  0.54501  0.57000  1.0000
  C   C690      1.0  0.96291  0.53302  0.59830  1.0000
  H   H814      1.0  0.70186  0.53589  0.37896  1.0000
  Fe  Fe92      1.0  0.98285  0.49808  0.44791  1.0000
  H   H815      1.0  0.67847  0.49561  0.63069  1.0000
  N   N44       1.0  0.71278  0.54753  0.43060  1.0000
  H   H816      1.0  0.77762  0.51451  0.58948  1.0000
  H   H817      1.0  0.84339  0.54618  0.59560  1.0000
  Fe  Fe93      1.0  0.94283  0.50819  0.46080  1.0000
  S   S188      1.0  0.65936  0.49847  0.36091  1.0000
  C   C691      1.0  0.93772  0.50852  0.83605  1.0000
  N   N45       1.0  0.86155  0.51075  0.44666  1.0000
  H   H818      1.0  0.72776  0.52036  0.46031  1.0000
  C   C692      1.0  0.65022  0.59408  0.00189  1.0000
  C   C693      1.0  0.93994  0.55628  0.62491  1.0000
  H   H819      1.0  0.79811  0.50813  0.70219  1.0000
  H   H820      1.0  0.89807  0.51006  0.60373  1.0000
  C   C694      1.0  0.94701  0.55666  0.58329  1.0000
  S   S189      1.0  0.84335  0.50751  0.73187  1.0000
  H   H821      1.0  0.67486  0.50122  0.51762  1.0000
  H   H822      1.0  0.70602  0.56860  0.39258  1.0000
  C   C695      1.0  0.78958  0.51772  0.60753  1.0000
  C   C696      1.0  0.82684  0.53601  0.61031  1.0000
  H   H823      1.0  0.89335  0.53435  0.43585  1.0000
  H   H824      1.0  0.96322  0.54488  0.53758  1.0000
  H   H825      1.0  0.71271  0.57618  0.43862  1.0000
  S   S190      1.0  0.68125  0.52245  0.26577  1.0000
  C   C697      1.0  0.89707  0.50932  0.83002  1.0000
  H   H826      1.0  0.97105  0.52368  0.58648  1.0000
  C   C698      1.0  0.80064  0.51427  0.67065  1.0000
  C   C699      1.0  0.92892  0.52018  0.85815  1.0000
  H   H827      1.0  0.88051  0.53303  0.39368  1.0000
  H   H828      1.0  0.85663  0.51969  0.50557  1.0000
  C   C700      1.0  0.87744  0.53094  0.42755  1.0000
  H   H829      1.0  0.70931  0.52203  0.58702  1.0000
  N   N46       1.0  0.76143  0.49429  0.66823  1.0000
  H   H830      1.0  0.94302  0.56552  0.56129  1.0000
  H   H831      1.0  0.82610  0.49648  0.46051  1.0000
  C   C701      1.0  0.74585  0.50430  0.66893  1.0000
  C   C702      1.0  0.86058  0.50809  0.49087  1.0000
  H   H832      1.0  0.93839  0.54477  0.68523  1.0000
  Fe  Fe94      1.0  0.97643  0.48848  0.80830  1.0000
  C   C703      1.0  0.92607  0.49704  0.81124  1.0000
  H   H833      1.0  0.66068  0.64649  0.94958  1.0000
  S   S191      1.0  0.96565  0.50770  0.50025  1.0000
  Fe  Fe95      1.0  0.75479  0.48722  0.46287  1.0000
  H   H834      1.0  0.82663  0.49229  0.57725  1.0000
  H   H835      1.0  0.98175  0.52681  0.90255  1.0000
  H   H836      1.0  0.90309  0.51252  0.40708  1.0000
  C   C704      1.0  0.65772  0.63216  0.96581  1.0000
  H   H837      1.0  0.72870  0.49398  0.68327  1.0000
  N   N47       1.0  0.96112  0.51956  0.67032  1.0000
  Fe  Fe96      1.0  0.86465  0.50014  0.76851  1.0000
  H   H838      1.0  0.93259  0.48777  0.79466  1.0000
  C   C705      1.0  0.66380  0.61946  0.94241  1.0000
  C   C706      1.0  0.78393  0.50863  0.64906  1.0000
  H   H839      1.0  0.74581  0.51026  0.63767  1.0000
  H   H840      1.0  0.65999  0.67956  0.88696  1.0000
  H   H841      1.0  0.65107  0.70712  0.91122  1.0000
  C   C707      1.0  0.65682  0.57179  0.40840  1.0000
  H   H842      1.0  0.65282  0.58273  0.27128  1.0000
  H   H843      1.0  0.89661  0.48827  0.78964  1.0000
  H   H844      1.0  0.95064  0.48824  0.69011  1.0000
  C   C708      1.0  0.94793  0.49891  0.66865  1.0000
  C   C709      1.0  0.66006  0.60048  0.96035  1.0000
  H   H845      1.0  0.95174  0.49522  0.63775  1.0000
  H   H846      1.0  0.93017  0.49599  0.67637  1.0000
  H   H847      1.0  0.91249  0.48630  0.38147  1.0000
  C   C710      1.0  0.88983  0.49852  0.41036  1.0000
  H   H848      1.0  0.96055  0.51323  0.73415  1.0000
  S   S192      1.0  0.76597  0.49338  0.51998  1.0000
  H   H849      1.0  0.96467  0.53812  0.71632  1.0000
  H   H850      1.0  0.67085  0.62427  0.90980  1.0000
  H   H851      1.0  0.98075  0.48673  0.54871  1.0000
  C   C711      1.0  0.71452  0.48586  0.33049  1.0000
  C   C712      1.0  0.86779  0.49523  0.42934  1.0000
  C   C713      1.0  0.75859  0.48511  0.71083  1.0000
  H   H852      1.0  0.71306  0.85527  0.03956  1.0000
  H   H853      1.0  0.68806  0.84192  0.95278  1.0000
  N   N48       1.0  0.68410  0.84522  0.01638  1.0000
  H   H854      1.0  0.71075  0.87335  0.00378  1.0000
  C   C714      1.0  0.70755  0.85742  0.01127  1.0000
  H   H855      1.0  0.71817  0.85376  0.98634  1.0000
  H   H856      1.0  0.69013  0.81924  0.00295  1.0000
  C   C715      1.0  0.67878  0.84752  0.97617  1.0000
  C   C716      1.0  0.68071  0.82423  0.02738  1.0000
  C   C717      1.0  0.67226  0.84812  0.09010  1.0000
  H   H857      1.0  0.66328  0.81461  0.03203  1.0000
  C   C718      1.0  0.67089  0.85132  0.04892  1.0000
  H   H858      1.0  0.68573  0.82103  0.05560  1.0000
  C   C719      1.0  0.65761  0.86176  0.04062  1.0000
  H   H859      1.0  0.68284  0.86319  0.96367  1.0000
  H   H860      1.0  0.66108  0.83908  0.97851  1.0000
  H   H861      1.0  0.68231  0.84069  0.09886  1.0000
  H   H862      1.0  0.65517  0.86470  0.01056  1.0000
  H   H863      1.0  0.66184  0.85179  0.15225  1.0000
  C   C720      1.0  0.66079  0.85463  0.12095  1.0000
  H   H864      1.0  0.65046  0.93891  0.05290  1.0000
