data_image0
_chemical_formula_structural       CFeSH2FeS2FeSHFeSFeS3C8H2CHCHCNHC3HC6H2CHSH2SC2H2CH3FeC3H4C2H5SH3NC3HCSH3CH2CHC2HC2H3CHCSFeS2CHFeHFeSHS2HFeSHCSH2C6H4CHCHC6HCH3C4NHC3H3CHFeC4HCS2CHSHC2HNH2CH4C3H3CHCH2C2H4SHNFeCH3SCFeS3FeHS2HSHSHCFe3S2H2SH2CHC5H4C3HCHCHC6HCH3C2H4CHSHCHCHFeHC2H3SNFeCH2CHC2H2SH2C3H3C2NCH2CHCNC2HCHCH2C2HSHCHCHC4H2NHFeSC2H6SH3SHFeCH2CHC3FeCSC2H3C2NC6H5CH3C2H3SNSH4NSH2C2HCSHCHCHCH2SHCFeCHC2H2C4SH2CHC2HFeH2CHC2H2C2HCHSC2SHCH3CFeSHC2FeCFeSCHSHFe2HCHSNHC2HCH4C2HSCHC4H3CSH2C2HCHCSCH2SH5SHFeNH4CHC2HC3HCHC2H4FeS2HCFeCFeSCS5FeS2FeSFeCSH3C6H4C6H6NC6H5NC9H16NHCHCNH2CH2FeHCHCHCHCHFeH3C2H2C2HCH3CHCH3SC3SHCSHSFeS2FeCFeSCSFeS2FeS2FeHFeS4CNC6H4CHSH2C2H2C6H6C7H2CNCH4CH3C2FeC2SCHCH4C3HCH9C2H2NC9H14NC5H8CHCHC3H2SCSCH2C2HCHCH9C3SH2CFeS2FeSHSHFeS2FeS2FeSFeS2HC3SC3H2C6H4C6H5C6H4C2HFeHC2H2CH6CH2CHCHNH10CH2C2HCHCH7CH3CHC5NC2SC2HCHC2H2CHCHCHCNC3H2CHSCH2CHCHSHFeH4CH2FeS2FeS2FeSFeS2H2FeSCFeS2Fe2S3C6H4CH2C6H4CHCHC2HCHCNC4H3C2HCHC2HNHCHCHC3HCH3NCHCH2C3H2C3NSH5NC3HCHCH5C2H3CHCHCH2CSH2CHCHC2H2C2HNH2C2H3CH4C5H3CH4C2HSC3HCH7CS3FeSHS3FeSFeS2CH3SH4C2HC4HCH3C4HCH3C3H2SCH2CH2CHCHCH4CHCH4C3H2CH2FeH2CFeNCNC3SCHCNHC5H8C2HCFeH3SHCHFeCS2FeSFeS3Fe2HC6H3CHC4HC2H2C2H3CH4CHC2HC2H2C2H4NHSCHCH2C2HC2H2CH2NCHNSH2C4H3CHC2H2SC2HFeH2CHSHSC2H5C5HSHFeH5CH4CNH5SHCSHCHFeSHSC4HC2H2CHC2HNH8FeHC3H2C3HCSFeHCFeCSFeC2H2SCSHCSHCHC4HNH3CH2C2SH4CH2CHCH5CH2
_chemical_formula_sum              "C600 Fe80 S160 H720 N40"
_cell_length_a       48.3106
_cell_length_b       38.8062
_cell_length_c       38.7893
_cell_angle_alpha    89.8744
_cell_angle_beta     105.954
_cell_angle_gamma    89.7959

_space_group_name_H-M_alt    "P 1"
_space_group_IT_number       1

loop_
  _space_group_symop_operation_xyz
  'x, y, z'

loop_
  _atom_site_type_symbol
  _atom_site_label
  _atom_site_symmetry_multiplicity
  _atom_site_fract_x
  _atom_site_fract_y
  _atom_site_fract_z
  _atom_site_occupancy
  C   C1        1.0  0.17414  0.49816  0.39704  1.0000
  Fe  Fe1       1.0  0.02650  0.22901  0.41788  1.0000
  S   S1        1.0  0.06055  0.26297  0.40481  1.0000
  H   H1        1.0  0.05960  0.48696  0.12462  1.0000
  H   H2        1.0  0.01308  0.18344  0.33667  1.0000
  Fe  Fe2       1.0  0.07163  0.41016  0.26476  1.0000
  S   S2        1.0  0.11387  0.38817  0.26085  1.0000
  S   S3        1.0  0.03906  0.38428  0.28922  1.0000
  Fe  Fe3       1.0  0.07588  0.47247  0.21735  1.0000
  S   S4        1.0  0.11782  0.45457  0.21000  1.0000
  H   H3        1.0  0.07550  0.23029  0.31301  1.0000
  Fe  Fe4       1.0  0.09790  0.40197  0.20212  1.0000
  S   S5        1.0  0.10412  0.36752  0.15741  1.0000
  Fe  Fe5       1.0  0.12969  0.44316  0.26922  1.0000
  S   S6        1.0  0.17458  0.46191  0.29855  1.0000
  S   S7        1.0  0.05491  0.42066  0.20544  1.0000
  S   S8        1.0  0.08849  0.46440  0.27709  1.0000
  C   C2        1.0  0.06756  0.48971  0.05733  1.0000
  C   C3        1.0  0.06089  0.47838  0.02107  1.0000
  C   C4        1.0  0.07625  0.35798  0.11820  1.0000
  C   C5        1.0  0.08221  0.33656  0.09189  1.0000
  C   C6        1.0  0.06106  0.33010  0.05941  1.0000
  C   C7        1.0  0.03385  0.34539  0.05285  1.0000
  C   C8        1.0  0.02792  0.36681  0.07915  1.0000
  C   C9        1.0  0.04888  0.37281  0.11180  1.0000
  H   H4        1.0  0.10336  0.32506  0.09659  1.0000
  H   H5        1.0  0.06596  0.31371  0.03932  1.0000
  C   C10       1.0  0.01963  0.07761  0.32344  1.0000
  H   H6        1.0  0.04389  0.38910  0.13185  1.0000
  C   C11       1.0  0.18456  0.48081  0.34171  1.0000
  H   H7        1.0  0.03891  0.17177  0.25466  1.0000
  C   C12       1.0  0.07244  0.27570  0.28149  1.0000
  N   N1        1.0  0.02099  0.20361  0.28854  1.0000
  H   H8        1.0  0.04537  0.20810  0.34437  1.0000
  C   C13       1.0  0.16563  0.48214  0.36324  1.0000
  C   C14       1.0  0.00474  0.31529  0.44642  1.0000
  C   C15       1.0  0.03834  0.02140  0.49148  1.0000
  H   H9        1.0  0.14455  0.47060  0.35393  1.0000
  C   C16       1.0  0.05424  0.29525  0.37103  1.0000
  C   C17       1.0  0.07775  0.31352  0.36552  1.0000
  C   C18       1.0  0.07358  0.34021  0.33984  1.0000
  C   C19       1.0  0.04575  0.34908  0.31967  1.0000
  C   C20       1.0  0.02225  0.33059  0.32498  1.0000
  C   C21       1.0  0.02646  0.30366  0.35034  1.0000
  H   H10       1.0  0.09934  0.30720  0.38139  1.0000
  H   H11       1.0  0.09183  0.35431  0.33613  1.0000
  C   C22       1.0  0.01492  0.25831  0.25047  1.0000
  H   H12       1.0  0.22669  0.49497  0.33770  1.0000
  S   S9        1.0  0.03011  0.12487  0.50572  1.0000
  H   H13       1.0  0.10280  0.41772  0.10107  1.0000
  H   H14       1.0  0.33203  0.02256  0.03797  1.0000
  S   S10       1.0  0.02875  0.17126  0.41341  1.0000
  C   C23       1.0  0.03224  0.23567  0.27665  1.0000
  C   C24       1.0  0.31742  0.04219  0.02104  1.0000
  H   H15       1.0  0.06010  0.39139  0.39119  1.0000
  H   H16       1.0  0.00688  0.37865  0.07436  1.0000
  C   C25       1.0  0.05498  0.29721  0.25569  1.0000
  H   H17       1.0  0.07459  0.44495  0.13509  1.0000
  H   H18       1.0  0.01124  0.22953  0.33263  1.0000
  H   H19       1.0  0.04326  0.45089  0.09792  1.0000
  Fe  Fe6       1.0  0.01689  0.16871  0.46549  1.0000
  C   C26       1.0  0.09085  0.43317  0.07735  1.0000
  C   C27       1.0  0.03844  0.17358  0.28313  1.0000
  C   C28       1.0  0.02281  0.20626  0.32719  1.0000
  H   H20       1.0  0.10568  0.50980  0.11992  1.0000
  H   H21       1.0  0.02193  0.32780  0.46777  1.0000
  H   H22       1.0  0.30635  0.05552  0.03892  1.0000
  H   H23       1.0  0.03048  0.06453  0.45483  1.0000
  C   C29       1.0  0.21193  0.49583  0.35421  1.0000
  C   C30       1.0  0.10979  0.48485  0.10827  1.0000
  H   H24       1.0  0.12401  0.49019  0.09066  1.0000
  H   H25       1.0  0.02967  0.14884  0.29030  1.0000
  H   H26       1.0  0.09454  0.28308  0.29412  1.0000
  H   H27       1.0  0.01499  0.30051  0.42857  1.0000
  H   H28       1.0  0.04259  0.07356  0.33397  1.0000
  S   S11       1.0  0.02183  0.02317  0.27941  1.0000
  H   H29       1.0  0.06347  0.32113  0.24830  1.0000
  H   H30       1.0  0.07152  0.41776  0.06382  1.0000
  H   H31       1.0  0.01883  0.12109  0.35754  1.0000
  N   N2        1.0  0.08281  0.46774  0.08803  1.0000
  C   C31       1.0  0.06427  0.46250  0.11237  1.0000
  C   C32       1.0  0.03740  0.39194  0.39003  1.0000
  C   C33       1.0  0.02631  0.36791  0.40956  1.0000
  H   H32       1.0  0.10533  0.43502  0.05956  1.0000
  C   C34       1.0  0.02741  0.01630  0.42685  1.0000
  S   S12       1.0  0.01966  0.22600  0.47300  1.0000
  H   H33       1.0  0.06107  0.17487  0.30007  1.0000
  H   H34       1.0  0.12214  0.46869  0.13121  1.0000
  H   H35       1.0  0.04160  0.34968  0.42537  1.0000
  C   C35       1.0  0.06130  0.24551  0.29206  1.0000
  H   H36       1.0  0.02782  0.43266  0.35086  1.0000
  H   H37       1.0  0.02236  0.02827  0.40051  1.0000
  C   C36       1.0  0.00361  0.05563  0.29668  1.0000
  H   H38       1.0  0.15944  0.49880  0.41361  1.0000
  C   C37       1.0  0.00616  0.10465  0.33684  1.0000
  C   C38       1.0  0.01922  0.41529  0.36727  1.0000
  H   H39       1.0  0.00066  0.33741  0.30957  1.0000
  C   C39       1.0  0.02628  0.28861  0.24033  1.0000
  C   C40       1.0  0.03196  0.03664  0.45745  1.0000
  H   H40       1.0  0.00821  0.28984  0.35419  1.0000
  H   H41       1.0  0.01271  0.30600  0.22088  1.0000
  H   H42       1.0  0.06627  0.45286  0.01390  1.0000
  C   C41       1.0  0.22039  0.51201  0.38796  1.0000
  H   H43       1.0  0.33169  0.06077  0.01234  1.0000
  C   C42       1.0  0.20150  0.51320  0.40953  1.0000
  S   S13       1.0  0.00704  0.34051  0.01160  1.0000
  Fe  Fe7       1.0  0.07265  0.07649  0.76755  1.0000
  S   S14       1.0  0.11466  0.10066  0.76710  1.0000
  S   S15       1.0  0.04099  0.09735  0.79635  1.0000
  C   C43       1.0  0.01734  0.40422  0.82826  1.0000
  H   H44       1.0  0.04855  0.28451  0.82968  1.0000
  Fe  Fe8       1.0  0.13084  0.04586  0.76788  1.0000
  H   H45       1.0  0.06473  0.14644  0.94159  1.0000
  Fe  Fe9       1.0  0.09904  0.09454  0.70707  1.0000
  S   S16       1.0  0.10056  0.13912  0.66970  1.0000
  H   H46       1.0  0.09488  0.07064  0.88145  1.0000
  S   S17       1.0  0.05613  0.07368  0.70758  1.0000
  S   S18       1.0  0.17576  0.02746  0.79841  1.0000
  H   H47       1.0  0.04364  0.16872  0.75917  1.0000
  Fe  Fe10      1.0  0.02451  0.25275  0.91648  1.0000
  S   S19       1.0  0.06167  0.22606  0.90186  1.0000
  H   H48       1.0  0.02344  0.09096  0.98229  1.0000
  C   C44       1.0  0.27628  0.05089  0.96673  1.0000
  S   S20       1.0  0.02156  0.31070  0.91981  1.0000
  H   H49       1.0  0.01208  0.13481  0.69617  1.0000
  H   H50       1.0  0.04037  0.40718  0.83902  1.0000
  C   C45       1.0  0.08144  0.13476  0.62399  1.0000
  C   C46       1.0  0.06583  0.10492  0.61136  1.0000
  C   C47       1.0  0.05036  0.10229  0.57502  1.0000
  C   C48       1.0  0.05024  0.12947  0.55102  1.0000
  C   C49       1.0  0.06574  0.15942  0.56362  1.0000
  C   C50       1.0  0.08133  0.16199  0.60000  1.0000
  H   H51       1.0  0.06569  0.08385  0.62963  1.0000
  H   H52       1.0  0.01227  0.38543  0.95449  1.0000
  H   H53       1.0  0.06598  0.18041  0.54531  1.0000
  H   H54       1.0  0.09343  0.18511  0.60960  1.0000
  C   C51       1.0  0.07812  0.07979  0.89291  1.0000
  H   H55       1.0  0.02413  0.25110  0.83307  1.0000
  C   C52       1.0  0.27783  0.08710  0.97261  1.0000
  H   H56       1.0  0.04293  0.49167  0.96517  1.0000
  C   C53       1.0  0.04717  0.13445  0.82386  1.0000
  C   C54       1.0  0.02417  0.14832  0.83496  1.0000
  C   C55       1.0  0.02822  0.17701  0.85788  1.0000
  C   C56       1.0  0.05546  0.19182  0.87049  1.0000
  C   C57       1.0  0.07836  0.17852  0.85869  1.0000
  C   C58       1.0  0.07422  0.15006  0.83527  1.0000
  H   H57       1.0  0.04290  0.16594  0.66527  1.0000
  C   C59       1.0  0.00178  0.42814  0.80298  1.0000
  H   H58       1.0  0.09948  0.18996  0.86805  1.0000
  H   H59       1.0  0.09209  0.13974  0.82674  1.0000
  H   H60       1.0  0.22259  0.11459  0.90253  1.0000
  C   C60       1.0  0.00859  0.40969  0.93841  1.0000
  C   C61       1.0  0.00963  0.17134  0.61551  1.0000
  C   C62       1.0  0.02934  0.25508  0.76542  1.0000
  C   C63       1.0  0.02971  0.07524  0.89890  1.0000
  N   N3        1.0  0.29647  0.02606  0.98989  1.0000
  H   H61       1.0  0.03331  0.15264  0.97467  1.0000
  C   C64       1.0  0.08235  0.10945  0.91381  1.0000
  C   C65       1.0  0.01280  0.31498  0.77087  1.0000
  C   C66       1.0  0.06196  0.20910  0.73479  1.0000
  H   H62       1.0  0.01554  0.35849  0.85929  1.0000
  H   H63       1.0  0.02452  0.18431  0.60367  1.0000
  H   H64       1.0  0.01623  0.20761  0.78682  1.0000
  C   C67       1.0  0.05189  0.06268  0.88556  1.0000
  H   H65       1.0  0.26013  0.13723  0.95447  1.0000
  Fe  Fe11      1.0  0.00383  0.30135  0.96699  1.0000
  C   C68       1.0  0.06018  0.12260  0.92682  1.0000
  C   C69       1.0  0.03294  0.10603  0.91936  1.0000
  C   C70       1.0  0.00328  0.14322  0.66861  1.0000
  C   C71       1.0  0.23530  0.06176  0.91394  1.0000
  H   H66       1.0  0.03829  0.07916  0.56557  1.0000
  C   C72       1.0  0.25440  0.03900  0.93668  1.0000
  S   S21       1.0  0.11935  0.04233  0.70744  1.0000
  S   S22       1.0  0.01145  0.24393  0.96733  1.0000
  C   C73       1.0  0.06344  0.24450  0.72966  1.0000
  H   H67       1.0  0.02695  0.42717  0.94991  1.0000
  S   S23       1.0  0.02035  0.46245  0.78948  1.0000
  H   H68       1.0  0.10253  0.12325  0.91864  1.0000
  C   C74       1.0  0.02861  0.21885  0.77037  1.0000
  C   C75       1.0  0.04446  0.19631  0.75494  1.0000
  H   H69       1.0  0.07735  0.25429  0.71421  1.0000
  N   N4        1.0  0.01276  0.27847  0.78261  1.0000
  H   H70       1.0  0.01038  0.18722  0.86631  1.0000
  H   H71       1.0  0.07470  0.19151  0.72353  1.0000
  C   C76       1.0  0.23739  0.09705  0.92039  1.0000
  H   H72       1.0  0.01910  0.17309  0.93142  1.0000
  H   H73       1.0  0.04847  0.04017  0.86840  1.0000
  H   H74       1.0  0.03463  0.32661  0.77995  1.0000
  H   H75       1.0  0.21885  0.05195  0.89104  1.0000
  C   C77       1.0  0.04750  0.26731  0.74472  1.0000
  C   C78       1.0  0.25857  0.10969  0.94966  1.0000
  C   C79       1.0  0.02536  0.27730  0.82200  1.0000
  H   H76       1.0  0.01393  0.29506  0.83605  1.0000
  H   H77       1.0  0.00986  0.06090  0.89245  1.0000
  H   H78       1.0  0.04159  0.03893  0.51382  1.0000
  C   C80       1.0  0.00328  0.37667  0.83988  1.0000
  H   H79       1.0  0.31711  0.51005  0.59395  1.0000
  C   C81       1.0  0.02057  0.16096  0.65124  1.0000
  H   H80       1.0  0.32544  0.02696  0.95655  1.0000
  H   H81       1.0  0.29376  0.09865  0.99463  1.0000
  C   C82       1.0  0.01477  0.15339  0.95020  1.0000
  C   C83       1.0  0.04728  0.50032  0.99271  1.0000
  H   H82       1.0  0.05004  0.29440  0.74008  1.0000
  H   H83       1.0  0.32966  0.46656  0.64312  1.0000
  H   H84       1.0  0.00956  0.40245  0.91106  1.0000
  H   H85       1.0  0.00846  0.18134  0.54351  1.0000
  S   S24       1.0  0.08968  0.02183  0.77250  1.0000
  H   H86       1.0  0.00314  0.13662  0.82588  1.0000
  N   N5        1.0  0.00896  0.11908  0.93279  1.0000
  Fe  Fe12      1.0  0.07734  0.02162  0.71213  1.0000
  C   C84       1.0  0.00372  0.09451  0.95958  1.0000
  H   H87       1.0  0.00453  0.31747  0.74122  1.0000
  H   H88       1.0  0.14493  0.01479  0.85230  1.0000
  H   H89       1.0  0.19352  0.80608  0.50341  1.0000
  S   S25       1.0  0.02332  0.92691  0.25312  1.0000
  C   C85       1.0  0.04501  0.71519  0.18887  1.0000
  Fe  Fe13      1.0  0.09357  0.67359  0.08582  1.0000
  S   S26       1.0  0.04590  0.66935  0.06310  1.0000
  S   S27       1.0  0.11847  0.63941  0.13154  1.0000
  S   S28       1.0  0.21074  0.53362  0.45193  1.0000
  Fe  Fe14      1.0  0.04689  0.72734  0.05855  1.0000
  H   H90       1.0  0.03290  0.80144  0.29282  1.0000
  S   S29       1.0  0.10250  0.66855  0.03230  1.0000
  S   S30       1.0  0.09447  0.73186  0.08474  1.0000
  H   H91       1.0  0.17801  0.62009  0.49616  1.0000
  S   S31       1.0  0.25077  0.81602  0.05528  1.0000
  H   H92       1.0  0.06421  0.78292  0.28353  1.0000
  S   S32       1.0  0.02422  0.90226  0.15514  1.0000
  H   H93       1.0  0.02162  0.72637  0.22662  1.0000
  C   C86       1.0  0.12140  0.91757  0.03760  1.0000
  Fe  Fe15      1.0  0.09886  0.72603  0.02860  1.0000
  Fe  Fe16      1.0  0.25043  0.56643  0.47586  1.0000
  Fe  Fe17      1.0  0.29027  0.62630  0.47020  1.0000
  S   S33       1.0  0.29531  0.56866  0.46905  1.0000
  S   S34       1.0  0.24404  0.62384  0.47154  1.0000
  H   H94       1.0  0.24164  0.64105  0.32070  1.0000
  H   H95       1.0  0.15539  0.53653  0.23712  1.0000
  S   S35       1.0  0.26540  0.91182  0.02791  1.0000
  H   H96       1.0  0.16563  0.70693  0.47057  1.0000
  H   H97       1.0  0.08171  0.77250  0.15243  1.0000
  C   C87       1.0  0.14309  0.60216  0.25490  1.0000
  H   H98       1.0  0.12657  0.57079  0.30779  1.0000
  C   C88       1.0  0.22747  0.61816  0.36323  1.0000
  C   C89       1.0  0.02121  0.86115  0.13454  1.0000
  C   C90       1.0  0.04148  0.85122  0.11640  1.0000
  C   C91       1.0  0.03956  0.81895  0.09926  1.0000
  C   C92       1.0  0.01721  0.79638  0.10000  1.0000
  H   H99       1.0  0.13539  0.59075  0.46134  1.0000
  H   H100      1.0  0.05875  0.86861  0.11565  1.0000
  H   H101      1.0  0.05511  0.81170  0.08512  1.0000
  H   H102      1.0  0.04007  0.57183  0.03971  1.0000
  C   C93       1.0  0.17580  0.76586  0.04984  1.0000
  C   C94       1.0  0.20390  0.77925  0.06210  1.0000
  C   C95       1.0  0.21672  0.79631  0.03844  1.0000
  H   H103      1.0  0.06457  0.81197  0.19035  1.0000
  C   C96       1.0  0.06198  0.72785  0.16797  1.0000
  H   H104      1.0  0.16582  0.75359  0.06845  1.0000
  C   C97       1.0  0.20704  0.59724  0.37202  1.0000
  H   H105      1.0  0.03660  0.93713  0.46511  1.0000
  C   C98       1.0  0.09986  0.60536  0.14557  1.0000
  C   C99       1.0  0.07015  0.60714  0.14104  1.0000
  C   C100      1.0  0.05608  0.58071  0.15436  1.0000
  C   C101      1.0  0.07153  0.55221  0.17223  1.0000
  C   C102      1.0  0.10113  0.55004  0.17622  1.0000
  C   C103      1.0  0.11528  0.57661  0.16307  1.0000
  H   H106      1.0  0.05808  0.62933  0.12820  1.0000
  C   C104      1.0  0.18192  0.58946  0.30823  1.0000
  H   H107      1.0  0.13826  0.57502  0.16662  1.0000
  H   H108      1.0  0.09388  0.82343  0.03466  1.0000
  H   H109      1.0  0.18538  0.53054  0.27572  1.0000
  C   C105      1.0  0.04158  0.77307  0.21318  1.0000
  C   C106      1.0  0.08553  0.87651  0.04450  1.0000
  H   H110      1.0  0.03201  0.75799  0.27821  1.0000
  H   H111      1.0  0.30746  0.78799  0.05809  1.0000
  H   H112      1.0  0.29464  0.98205  0.02334  1.0000
  H   H113      1.0  0.03315  0.58256  0.15114  1.0000
  C   C107      1.0  0.03559  0.96500  0.46402  1.0000
  H   H114      1.0  0.11310  0.52802  0.18960  1.0000
  S   S36       1.0  0.05312  0.52015  0.18944  1.0000
  H   H115      1.0  0.03054  0.84890  0.25414  1.0000
  C   C108      1.0  0.06901  0.76268  0.16937  1.0000
  H   H116      1.0  0.17666  0.94589  0.04831  1.0000
  C   C109      1.0  0.20315  0.61086  0.30021  1.0000
  H   H117      1.0  0.19998  0.58291  0.49925  1.0000
  Fe  Fe18      1.0  0.04637  0.81583  0.50839  1.0000
  H   H118      1.0  0.20278  0.61647  0.27278  1.0000
  C   C110      1.0  0.13720  0.55451  0.29155  1.0000
  C   C111      1.0  0.22551  0.62499  0.32738  1.0000
  H   H119      1.0  0.15539  0.55217  0.46159  1.0000
  H   H120      1.0  0.20895  0.59139  0.39993  1.0000
  H   H121      1.0  0.14707  0.53165  0.30762  1.0000
  S   S37       1.0  0.01237  0.75671  0.07654  1.0000
  N   N6        1.0  0.15881  0.57434  0.27887  1.0000
  Fe  Fe19      1.0  0.31032  0.91299  0.02173  1.0000
  C   C112      1.0  0.14293  0.56688  0.47704  1.0000
  H   H122      1.0  0.12366  0.55137  0.47729  1.0000
  H   H123      1.0  0.27701  0.70610  0.01182  1.0000
  C   C113      1.0  0.12744  0.85678  0.02749  1.0000
  H   H124      1.0  0.03935  0.68810  0.18732  1.0000
  C   C114      1.0  0.00262  0.85690  0.34875  1.0000
  C   C115      1.0  0.03496  0.73735  0.21121  1.0000
  H   H125      1.0  0.12783  0.94426  0.03909  1.0000
  H   H126      1.0  0.06936  0.71069  0.15025  1.0000
  S   S38       1.0  0.30278  0.66530  0.43356  1.0000
  H   H127      1.0  0.06298  0.83523  0.24483  1.0000
  H   H128      1.0  0.21541  0.77719  0.09023  1.0000
  C   C116      1.0  0.05917  0.52385  0.06323  1.0000
  C   C117      1.0  0.03917  0.83253  0.23588  1.0000
  C   C118      1.0  0.02927  0.98055  0.43015  1.0000
  H   H129      1.0  0.21212  0.67702  0.49576  1.0000
  H   H130      1.0  0.01875  0.80472  0.35553  1.0000
  H   H131      1.0  0.13261  0.63649  0.49735  1.0000
  C   C119      1.0  0.16049  0.76916  0.01371  1.0000
  C   C120      1.0  0.04564  0.54551  0.03466  1.0000
  N   N7        1.0  0.03015  0.79601  0.23657  1.0000
  C   C121      1.0  0.10149  0.84981  0.03540  1.0000
  H   H132      1.0  0.13911  0.83503  0.02108  1.0000
  H   H133      1.0  0.29971  0.70878  0.05696  1.0000
  C   C122      1.0  0.17427  0.93421  0.02148  1.0000
  H   H134      1.0  0.19111  0.88920  0.07566  1.0000
  C   C123      1.0  0.18460  0.58293  0.34510  1.0000
  N   N8        1.0  0.30791  0.74715  0.02042  1.0000
  C   C124      1.0  0.13827  0.89087  0.02833  1.0000
  C   C125      1.0  0.09545  0.91029  0.04561  1.0000
  H   H135      1.0  0.13595  0.62271  0.27055  1.0000
  C   C126      1.0  0.17284  0.70148  0.49903  1.0000
  H   H136      1.0  0.08300  0.93092  0.05297  1.0000
  C   C127      1.0  0.04028  0.98493  0.49579  1.0000
  H   H137      1.0  0.06549  0.87096  0.05085  1.0000
  H   H138      1.0  0.06330  0.53427  0.09004  1.0000
  C   C128      1.0  0.04028  0.78394  0.27431  1.0000
  C   C129      1.0  0.28822  0.72431  0.03321  1.0000
  H   H139      1.0  0.24507  0.62881  0.38425  1.0000
  S   S39       1.0  0.02179  0.85814  0.47176  1.0000
  H   H140      1.0  0.15626  0.61444  0.23888  1.0000
  C   C130      1.0  0.17195  0.55050  0.25795  1.0000
  H   H141      1.0  0.17006  0.56621  0.35392  1.0000
  C   C131      1.0  0.01461  0.82771  0.36903  1.0000
  H   H142      1.0  0.21082  0.88208  0.04307  1.0000
  C   C132      1.0  0.18939  0.87921  0.04828  1.0000
  C   C133      1.0  0.00294  0.88628  0.40418  1.0000
  C   C134      1.0  0.02112  0.82793  0.40674  1.0000
  C   C135      1.0  0.05894  0.78516  0.19145  1.0000
  H   H143      1.0  0.03098  0.84415  0.20876  1.0000
  H   H144      1.0  0.12346  0.59239  0.23507  1.0000
  N   N9        1.0  0.16633  0.89721  0.02088  1.0000
  H   H145      1.0  0.03028  0.80529  0.42202  1.0000
  Fe  Fe20      1.0  0.26729  0.85434  0.02127  1.0000
  S   S40       1.0  0.31386  0.85530  0.02117  1.0000
  C   C136      1.0  0.32281  0.77020  0.05019  1.0000
  C   C137      1.0  0.01508  0.85716  0.42447  1.0000
  H   H146      1.0  0.11983  0.54404  0.26878  1.0000
  H   H147      1.0  0.18604  0.56402  0.24401  1.0000
  H   H148      1.0  0.02565  0.96477  0.40624  1.0000
  H   H149      1.0  0.22732  0.76836  0.48602  1.0000
  H   H150      1.0  0.18546  0.85113  0.04907  1.0000
  H   H151      1.0  0.31998  0.95676  0.10337  1.0000
  S   S41       1.0  0.04597  0.75768  0.50864  1.0000
  H   H152      1.0  0.19532  0.93780  0.01534  1.0000
  H   H153      1.0  0.24151  0.52349  0.39724  1.0000
  H   H154      1.0  0.27138  0.73947  0.04142  1.0000
  S   S42       1.0  0.12262  0.73237  0.50145  1.0000
  H   H155      1.0  0.26588  0.01270  0.01886  1.0000
  Fe  Fe21      1.0  0.00007  0.92033  0.19486  1.0000
  C   C138      1.0  0.00538  0.68811  0.64225  1.0000
  H   H156      1.0  0.00163  0.96023  0.52685  1.0000
  H   H157      1.0  0.15567  0.52253  0.53213  1.0000
  C   C139      1.0  0.03225  0.60406  0.56133  1.0000
  H   H158      1.0  0.02158  0.55998  0.58704  1.0000
  C   C140      1.0  0.00789  0.59490  0.86681  1.0000
  C   C141      1.0  0.31321  0.00822  0.96836  1.0000
  C   C142      1.0  0.19914  0.68427  0.51322  1.0000
  Fe  Fe22      1.0  0.00715  0.57232  0.71552  1.0000
  C   C143      1.0  0.08081  0.85726  0.70888  1.0000
  S   S43       1.0  0.01725  0.73464  0.59504  1.0000
  C   C144      1.0  0.14300  0.59253  0.53411  1.0000
  C   C145      1.0  0.28005  0.00010  0.00430  1.0000
  H   H159      1.0  0.26613  0.98383  0.98295  1.0000
  H   H160      1.0  0.25196  0.01189  0.93040  1.0000
  H   H161      1.0  0.27414  0.78489  0.00084  1.0000
  C   C146      1.0  0.04977  0.67780  0.62657  1.0000
  C   C147      1.0  0.05139  0.99215  0.56182  1.0000
  N   N10       1.0  0.04239  0.81507  0.67542  1.0000
  C   C148      1.0  0.00998  0.65823  0.66376  1.0000
  C   C149      1.0  0.21045  0.98508  0.84908  1.0000
  C   C150      1.0  0.24609  0.74853  0.53899  1.0000
  C   C151      1.0  0.18511  0.59634  0.51215  1.0000
  C   C152      1.0  0.16575  0.88377  0.98488  1.0000
  C   C153      1.0  0.11347  0.64273  0.54012  1.0000
  H   H162      1.0  0.01238  0.80211  0.62450  1.0000
  H   H163      1.0  0.08572  0.74655  0.87692  1.0000
  H   H164      1.0  0.05626  0.97853  0.58815  1.0000
  H   H165      1.0  0.10405  0.66748  0.53006  1.0000
  H   H166      1.0  0.18777  0.54482  0.55782  1.0000
  C   C154      1.0  0.11969  0.69521  0.91332  1.0000
  H   H167      1.0  0.19800  0.60413  0.53942  1.0000
  H   H168      1.0  0.18589  0.52800  0.51457  1.0000
  H   H169      1.0  0.15818  0.94925  0.00079  1.0000
  C   C155      1.0  0.08860  0.88719  0.72923  1.0000
  C   C156      1.0  0.12986  0.62465  0.52147  1.0000
  H   H170      1.0  0.09133  0.96155  0.53378  1.0000
  H   H171      1.0  0.02556  0.76448  0.68050  1.0000
  H   H172      1.0  0.16195  0.85563  0.98254  1.0000
  S   S44       1.0  0.12421  0.75616  0.99718  1.0000
  N   N11       1.0  0.16064  0.57424  0.51405  1.0000
  S   S45       1.0  0.24152  0.65473  0.56823  1.0000
  H   H173      1.0  0.02957  0.55087  0.97745  1.0000
  H   H174      1.0  0.01008  0.66097  0.80640  1.0000
  H   H175      1.0  0.29924  0.99328  0.94585  1.0000
  H   H176      1.0  0.07003  0.00939  0.56306  1.0000
  N   N12       1.0  0.08772  0.69620  0.90082  1.0000
  S   S46       1.0  0.05310  0.97864  0.67713  1.0000
  H   H177      1.0  0.02315  0.91210  0.73643  1.0000
  H   H178      1.0  0.09794  0.84413  0.70123  1.0000
  C   C157      1.0  0.10987  0.62960  0.57203  1.0000
  C   C158      1.0  0.15594  0.71190  0.52133  1.0000
  H   H179      1.0  0.18656  0.88821  0.97842  1.0000
  C   C159      1.0  0.02423  0.63681  0.54724  1.0000
  S   S47       1.0  0.05103  0.72533  0.00198  1.0000
  H   H180      1.0  0.03059  0.68797  0.86449  1.0000
  C   C160      1.0  0.07192  0.94634  0.66078  1.0000
  H   H181      1.0  0.02555  0.93265  0.55920  1.0000
  C   C161      1.0  0.04531  0.67759  0.85058  1.0000
  H   H182      1.0  0.15940  0.98317  0.91038  1.0000
  C   C162      1.0  0.02207  0.94521  0.53252  1.0000
  H   H183      1.0  0.04151  0.63517  0.77268  1.0000
  H   H184      1.0  0.07923  0.93430  0.56424  1.0000
  S   S48       1.0  0.09440  0.81953  0.52504  1.0000
  H   H185      1.0  0.19906  0.68173  0.60070  1.0000
  C   C163      1.0  0.05407  0.64746  0.64752  1.0000
  Fe  Fe23      1.0  0.31018  0.57307  0.52948  1.0000
  C   C164      1.0  0.05167  0.84605  0.69787  1.0000
  H   H186      1.0  0.12951  0.70882  0.89435  1.0000
  C   C165      1.0  0.16533  0.00126  0.86026  1.0000
  C   C166      1.0  0.01816  0.82399  0.64366  1.0000
  H   H187      1.0  0.15422  0.85453  0.55468  1.0000
  H   H188      1.0  0.02372  0.84634  0.62888  1.0000
  C   C167      1.0  0.03126  0.86608  0.70945  1.0000
  C   C168      1.0  0.03925  0.89629  0.72923  1.0000
  C   C169      1.0  0.05095  0.64747  0.79832  1.0000
  C   C170      1.0  0.03330  0.66213  0.81730  1.0000
  S   S49       1.0  0.01707  0.56050  0.77447  1.0000
  H   H189      1.0  0.07381  0.93100  0.75314  1.0000
  H   H190      1.0  0.01380  0.79724  0.70578  1.0000
  C   C171      1.0  0.19183  0.68740  0.57231  1.0000
  H   H191      1.0  0.04156  0.57771  0.91261  1.0000
  C   C172      1.0  0.07283  0.94602  0.53692  1.0000
  C   C173      1.0  0.02037  0.62298  0.92536  1.0000
  H   H192      1.0  0.15272  0.77621  0.56097  1.0000
  Fe  Fe24      1.0  0.09439  0.76180  0.52936  1.0000
  H   H193      1.0  0.31810  0.74178  0.95212  1.0000
  H   H194      1.0  0.09756  0.64401  0.58672  1.0000
  C   C174      1.0  0.20123  0.83577  0.60378  1.0000
  H   H195      1.0  0.05315  0.59372  0.56156  1.0000
  C   C175      1.0  0.08073  0.64824  0.81253  1.0000
  C   C176      1.0  0.05607  0.92182  0.63697  1.0000
  H   H196      1.0  0.11968  0.58812  0.61023  1.0000
  H   H197      1.0  0.14967  0.80717  0.59400  1.0000
  C   C177      1.0  0.18388  0.00251  0.83823  1.0000
  C   C178      1.0  0.12238  0.59812  0.58521  1.0000
  H   H198      1.0  0.14806  0.55571  0.57861  1.0000
  C   C179      1.0  0.22613  0.77041  0.58545  1.0000
  H   H199      1.0  0.13925  0.91500  0.66751  1.0000
  S   S50       1.0  0.03943  0.59776  0.69008  1.0000
  C   C180      1.0  0.07009  0.89522  0.62386  1.0000
  C   C181      1.0  0.13872  0.57969  0.56666  1.0000
  S   S51       1.0  0.21042  0.94574  0.94665  1.0000
  H   H200      1.0  0.17602  0.77364  0.60568  1.0000
  C   C182      1.0  0.16529  0.79184  0.58392  1.0000
  H   H201      1.0  0.22494  0.98603  0.83221  1.0000
  H   H202      1.0  0.16201  0.78787  0.96193  1.0000
  H   H203      1.0  0.27707  0.75355  0.96854  1.0000
  C   C183      1.0  0.17368  0.78523  0.98993  1.0000
  Fe  Fe25      1.0  0.29666  0.85997  0.96157  1.0000
  S   S52       1.0  0.04150  0.62284  0.97054  1.0000
  H   H204      1.0  0.14858  0.89659  0.96352  1.0000
  C   C184      1.0  0.02487  0.59677  0.90257  1.0000
  C   C185      1.0  0.02509  0.69789  0.62332  1.0000
  Fe  Fe26      1.0  0.09112  0.81926  0.58144  1.0000
  C   C186      1.0  0.17287  0.54097  0.53058  1.0000
  Fe  Fe27      1.0  0.26162  0.62416  0.53122  1.0000
  S   S53       1.0  0.29540  0.91795  0.96149  1.0000
  C   C187      1.0  0.06783  0.90691  0.73892  1.0000
  H   H205      1.0  0.07282  0.63156  0.64919  1.0000
  S   S54       1.0  0.11789  0.85717  0.62115  1.0000
  H   H206      1.0  0.08697  0.68984  0.95586  1.0000
  Fe  Fe28      1.0  0.04738  0.76092  0.56722  1.0000
  Fe  Fe29      1.0  0.05452  0.66782  0.00909  1.0000
  H   H207      1.0  0.21825  0.85162  0.59717  1.0000
  C   C188      1.0  0.20866  0.67686  0.54986  1.0000
  H   H208      1.0  0.18611  0.85366  0.61213  1.0000
  S   S55       1.0  0.30743  0.63104  0.52979  1.0000
  N   N13       1.0  0.18603  0.81427  0.57275  1.0000
  H   H209      1.0  0.12798  0.70823  0.93977  1.0000
  C   C189      1.0  0.03248  0.78833  0.69660  1.0000
  C   C190      1.0  0.11602  0.91695  0.65867  1.0000
  H   H210      1.0  0.22580  0.76876  0.61313  1.0000
  C   C191      1.0  0.20684  0.79245  0.56074  1.0000
  H   H211      1.0  0.12788  0.66822  0.91721  1.0000
  H   H212      1.0  0.07419  0.81863  0.64602  1.0000
  H   H213      1.0  0.15237  0.71210  0.57547  1.0000
  H   H214      1.0  0.08120  0.65092  0.92984  1.0000
  C   C192      1.0  0.07558  0.67911  0.86579  1.0000
  C   C193      1.0  0.16549  0.70482  0.55812  1.0000
  H   H215      1.0  0.08797  0.74676  0.92404  1.0000
  S   S56       1.0  0.04312  0.81862  0.56491  1.0000
  C   C194      1.0  0.10201  0.94415  0.67124  1.0000
  H   H216      1.0  0.25922  0.73130  0.59365  1.0000
  C   C195      1.0  0.09304  0.66382  0.84573  1.0000
  C   C196      1.0  0.06565  0.79965  0.66202  1.0000
  C   C197      1.0  0.24548  0.74893  0.57465  1.0000
  C   C198      1.0  0.17362  0.98335  0.89317  1.0000
  H   H217      1.0  0.05761  0.87701  0.60522  1.0000
  H   H218      1.0  0.11623  0.66327  0.85514  1.0000
  H   H219      1.0  0.05787  0.77713  0.64431  1.0000
  C   C199      1.0  0.07868  0.73292  0.89830  1.0000
  S   S57       1.0  0.25016  0.85537  0.96155  1.0000
  H   H220      1.0  0.09428  0.63636  0.79771  1.0000
  H   H221      1.0  0.03281  0.92340  0.62879  1.0000
  C   C200      1.0  0.20024  0.96606  0.90405  1.0000
  C   C201      1.0  0.03399  0.63724  0.66581  1.0000
  H   H222      1.0  0.05493  0.73593  0.89230  1.0000
  C   C202      1.0  0.21847  0.96654  0.88161  1.0000
  H   H223      1.0  0.11445  0.96293  0.68963  1.0000
  C   C203      1.0  0.07684  0.67918  0.92872  1.0000
  S   S58       1.0  0.31412  0.82742  0.92352  1.0000
  C   C204      1.0  0.10006  0.89219  0.63515  1.0000
  H   H224      1.0  0.08377  0.78989  0.68429  1.0000
  H   H225      1.0  0.21112  0.81168  0.98364  1.0000
  S   S59       1.0  0.09569  0.76154  0.58782  1.0000
  H   H226      1.0  0.23898  0.95327  0.88959  1.0000
  H   H227      1.0  0.05329  0.68271  0.92414  1.0000
  H   H228      1.0  0.11073  0.89603  0.73625  1.0000
  H   H229      1.0  0.06512  0.68514  0.61222  1.0000
  H   H230      1.0  0.04996  0.78100  0.72086  1.0000
  S   S60       1.0  0.26576  0.56649  0.53637  1.0000
  H   H231      1.0  0.21147  0.82014  0.62797  1.0000
  Fe  Fe30      1.0  0.25064  0.91296  0.96752  1.0000
  N   N14       1.0  0.04656  0.96769  0.53127  1.0000
  H   H232      1.0  0.30333  0.78759  0.98102  1.0000
  H   H233      1.0  0.00883  0.85894  0.70271  1.0000
  H   H234      1.0  0.01160  0.57453  0.84962  1.0000
  H   H235      1.0  0.18356  0.85560  0.53468  1.0000
  C   C205      1.0  0.28990  0.76915  0.99135  1.0000
  H   H236      1.0  0.03199  0.00831  0.56022  1.0000
  C   C206      1.0  0.20158  0.79884  0.00222  1.0000
  C   C207      1.0  0.01369  0.58476  0.57581  1.0000
  H   H237      1.0  0.03885  0.65203  0.53671  1.0000
  C   C208      1.0  0.33193  0.72639  0.97323  1.0000
  C   C209      1.0  0.03974  0.53378  0.99950  1.0000
  C   C210      1.0  0.16922  0.83801  0.54451  1.0000
  H   H238      1.0  0.32900  0.98956  0.98490  1.0000
  C   C211      1.0  0.20788  0.79120  0.52444  1.0000
  H   H239      1.0  0.26037  0.73085  0.53051  1.0000
  C   C212      1.0  0.22733  0.76956  0.51395  1.0000
  C   C213      1.0  0.32948  0.72618  0.00896  1.0000
  H   H240      1.0  0.15543  0.82359  0.52131  1.0000
  H   H241      1.0  0.32873  0.70727  0.56779  1.0000
  H   H242      1.0  0.06975  0.92413  0.51775  1.0000
  H   H243      1.0  0.01871  0.92395  0.51255  1.0000
  Fe  Fe31      1.0  0.49263  0.06497  0.21825  1.0000
  S   S61       1.0  0.45244  0.09184  0.22277  1.0000
  S   S62       1.0  0.52360  0.07979  0.18596  1.0000
  H   H244      1.0  0.58824  0.20982  0.37918  1.0000
  C   C214      1.0  0.57911  0.49486  0.04021  1.0000
  Fe  Fe32      1.0  0.43445  0.03822  0.22287  1.0000
  C   C215      1.0  0.44701  0.04181  0.36584  1.0000
  Fe  Fe33      1.0  0.47099  0.08422  0.28234  1.0000
  S   S63       1.0  0.46822  0.12760  0.32061  1.0000
  C   C216      1.0  0.37664  0.03680  0.29872  1.0000
  S   S64       1.0  0.51230  0.06104  0.27782  1.0000
  S   S65       1.0  0.54872  0.45664  0.19854  1.0000
  S   S66       1.0  0.55209  0.12944  0.47899  1.0000
  S   S67       1.0  0.58852  0.50539  0.29094  1.0000
  S   S68       1.0  0.59468  0.30493  0.04613  1.0000
  Fe  Fe34      1.0  0.54050  0.24123  0.06733  1.0000
  S   S69       1.0  0.58802  0.23790  0.09455  1.0000
  S   S70       1.0  0.50551  0.21118  0.08305  1.0000
  Fe  Fe35      1.0  0.58480  0.29580  0.09851  1.0000
  S   S71       1.0  0.60691  0.32528  0.14911  1.0000
  Fe  Fe36      1.0  0.59329  0.24740  0.03925  1.0000
  C   C217      1.0  0.55906  0.49631  0.12233  1.0000
  S   S72       1.0  0.53724  0.29859  0.07424  1.0000
  H   H245      1.0  0.57431  0.19834  0.46892  1.0000
  H   H246      1.0  0.53608  0.40940  0.02419  1.0000
  H   H247      1.0  0.35596  0.06872  0.34770  1.0000
  C   C218      1.0  0.56554  0.42054  0.18517  1.0000
  C   C219      1.0  0.59453  0.41257  0.20100  1.0000
  C   C220      1.0  0.60701  0.38336  0.18963  1.0000
  C   C221      1.0  0.59080  0.36235  0.16195  1.0000
  C   C222      1.0  0.56195  0.37073  0.14583  1.0000
  C   C223      1.0  0.54934  0.39948  0.15764  1.0000
  H   H248      1.0  0.60720  0.42858  0.22232  1.0000
  H   H249      1.0  0.62932  0.37698  0.20234  1.0000
  H   H250      1.0  0.54920  0.35484  0.12460  1.0000
  H   H251      1.0  0.52689  0.40548  0.14530  1.0000
  C   C224      1.0  0.49201  0.12844  0.36435  1.0000
  C   C225      1.0  0.51234  0.10230  0.37647  1.0000
  C   C226      1.0  0.53052  0.10312  0.41167  1.0000
  C   C227      1.0  0.52862  0.13006  0.43506  1.0000
  C   C228      1.0  0.50851  0.15646  0.42289  1.0000
  C   C229      1.0  0.49022  0.15558  0.38763  1.0000
  H   H252      1.0  0.51395  0.08131  0.35879  1.0000
  H   H253      1.0  0.54608  0.08263  0.42086  1.0000
  H   H254      1.0  0.50683  0.17732  0.44067  1.0000
  H   H255      1.0  0.47450  0.17588  0.37841  1.0000
  H   H256      1.0  0.50238  0.16103  0.26500  1.0000
  H   H257      1.0  0.41214  0.10055  0.35259  1.0000
  N   N15       1.0  0.58388  0.49109  0.10732  1.0000
  C   C230      1.0  0.51132  0.17503  0.11223  1.0000
  C   C231      1.0  0.48899  0.16419  0.12646  1.0000
  C   C232      1.0  0.49255  0.13533  0.14938  1.0000
  C   C233      1.0  0.51841  0.11676  0.15793  1.0000
  C   C234      1.0  0.54084  0.12773  0.14389  1.0000
  C   C235      1.0  0.53741  0.15688  0.12133  1.0000
  H   H258      1.0  0.46874  0.17807  0.11956  1.0000
  H   H259      1.0  0.47513  0.12721  0.16002  1.0000
  H   H260      1.0  0.56093  0.11353  0.15038  1.0000
  H   H261      1.0  0.55473  0.16487  0.11043  1.0000
  H   H262      1.0  0.41676  0.08706  0.30999  1.0000
  N   N16       1.0  0.53800  0.25949  0.18801  1.0000
  C   C236      1.0  0.55938  0.24754  0.16945  1.0000
  C   C237      1.0  0.51234  0.27215  0.16019  1.0000
  C   C238      1.0  0.55115  0.28881  0.21124  1.0000
  C   C239      1.0  0.52913  0.23227  0.20963  1.0000
  C   C240      1.0  0.53877  0.19750  0.21049  1.0000
  C   C241      1.0  0.50949  0.24001  0.22992  1.0000
  C   C242      1.0  0.52935  0.17235  0.23056  1.0000
  C   C243      1.0  0.50014  0.21460  0.24977  1.0000
  C   C244      1.0  0.51002  0.18082  0.25004  1.0000
  H   H263      1.0  0.55037  0.22706  0.14955  1.0000
  H   H264      1.0  0.56605  0.26879  0.15414  1.0000
  H   H265      1.0  0.57940  0.23773  0.18872  1.0000
  H   H266      1.0  0.50119  0.25052  0.14311  1.0000
  H   H267      1.0  0.51821  0.29140  0.14209  1.0000
  H   H268      1.0  0.49633  0.28474  0.17184  1.0000
  H   H269      1.0  0.55925  0.30895  0.19589  1.0000
  H   H270      1.0  0.53566  0.30206  0.22327  1.0000
  H   H271      1.0  0.56979  0.28000  0.23342  1.0000
  H   H272      1.0  0.55310  0.18876  0.19527  1.0000
  H   H273      1.0  0.50081  0.26569  0.23004  1.0000
  H   H274      1.0  0.53656  0.14583  0.23028  1.0000
  H   H275      1.0  0.48481  0.22091  0.26466  1.0000
  H   H276      1.0  0.59058  0.15450  0.43719  1.0000
  H   H277      1.0  0.64385  0.41745  0.31510  1.0000
  H   H278      1.0  0.66085  0.18897  0.44021  1.0000
  N   N17       1.0  0.39377  0.05074  0.33384  1.0000
  H   H279      1.0  0.56135  0.19773  0.40113  1.0000
  C   C245      1.0  0.40179  0.08665  0.32729  1.0000
  H   H280      1.0  0.64729  0.31555  0.44111  1.0000
  C   C246      1.0  0.61002  0.17030  0.43807  1.0000
  N   N18       1.0  0.60349  0.20783  0.43672  1.0000
  H   H281      1.0  0.64440  0.48984  0.36234  1.0000
  H   H282      1.0  0.62275  0.46064  0.11931  1.0000
  C   C247      1.0  0.57353  0.47792  0.07019  1.0000
  H   H283      1.0  0.39040  0.03199  0.28041  1.0000
  H   H284      1.0  0.38729  0.06254  0.38513  1.0000
  Fe  Fe37      1.0  0.54697  0.30374  0.02107  1.0000
  H   H285      1.0  0.36743  0.02602  0.36327  1.0000
  C   C248      1.0  0.65646  0.21627  0.43961  1.0000
  H   H286      1.0  0.61199  0.47427  0.15809  1.0000
  C   C249      1.0  0.60385  0.46553  0.12980  1.0000
  H   H287      1.0  0.66075  0.45933  0.42094  1.0000
  C   C250      1.0  0.62602  0.26637  0.43793  1.0000
  H   H288      1.0  0.56584  0.50728  0.14990  1.0000
  C   C251      1.0  0.58041  0.21461  0.40321  1.0000
  H   H289      1.0  0.55286  0.43214  0.08469  1.0000
  Fe  Fe38      1.0  0.57447  0.50015  0.23084  1.0000
  H   H290      1.0  0.57238  0.24160  0.40157  1.0000
  H   H291      1.0  0.59338  0.44025  0.13090  1.0000
  H   H292      1.0  0.49195  0.03064  0.39009  1.0000
  C   C252      1.0  0.65200  0.19744  0.02175  1.0000
  C   C253      1.0  0.59226  0.21583  0.46774  1.0000
  H   H293      1.0  0.35931  0.05488  0.28441  1.0000
  H   H294      1.0  0.62637  0.16307  0.46343  1.0000
  C   C254      1.0  0.62871  0.22990  0.43789  1.0000
  C   C255      1.0  0.64961  0.28780  0.43990  1.0000
  H   H295      1.0  0.60577  0.27864  0.43728  1.0000
  C   C256      1.0  0.54796  0.43343  0.02862  1.0000
  H   H296      1.0  0.38275  0.10251  0.31334  1.0000
  H   H297      1.0  0.58371  0.24254  0.46696  1.0000
  H   H298      1.0  0.61766  0.16203  0.41479  1.0000
  C   C257      1.0  0.41900  0.02838  0.34998  1.0000
  H   H299      1.0  0.45160  0.06906  0.36680  1.0000
  C   C258      1.0  0.55763  0.44678  0.06325  1.0000
  H   H300      1.0  0.64132  0.18000  0.06920  1.0000
  H   H301      1.0  0.54787  0.47188  0.12487  1.0000
  H   H302      1.0  0.60950  0.21319  0.49338  1.0000
  S   S73       1.0  0.44982  0.03295  0.28283  1.0000
  C   C259      1.0  0.47059  0.01993  0.37953  1.0000
  C   C260      1.0  0.37524  0.05207  0.35853  1.0000
  C   C261      1.0  0.65589  0.17720  0.05261  1.0000
  S   S74       1.0  0.38804  0.02186  0.19841  1.0000
  H   H303      1.0  0.54287  0.51412  0.10530  1.0000
  C   C262      1.0  0.66570  0.40787  0.31985  1.0000
  S   S75       1.0  0.54564  0.24667  0.01139  1.0000
  H   H304      1.0  0.41945  0.47907  0.65069  1.0000
  S   S76       1.0  0.60190  0.17335  0.55584  1.0000
  Fe  Fe39      1.0  0.53502  0.21579  0.57497  1.0000
  S   S77       1.0  0.57977  0.22422  0.60975  1.0000
  S   S78       1.0  0.49757  0.23775  0.59271  1.0000
  Fe  Fe40      1.0  0.59180  0.22941  0.55798  1.0000
  C   C263      1.0  0.65254  0.27292  0.53996  1.0000
  Fe  Fe41      1.0  0.58526  0.16722  0.60409  1.0000
  S   S79       1.0  0.60942  0.13416  0.65096  1.0000
  C   C264      1.0  0.60474  0.02422  0.88453  1.0000
  S   S80       1.0  0.53979  0.15807  0.57223  1.0000
  Fe  Fe42      1.0  0.42900  0.42630  0.71887  1.0000
  S   S81       1.0  0.46819  0.45147  0.71005  1.0000
  S   S82       1.0  0.38352  0.43926  0.68577  1.0000
  Fe  Fe43      1.0  0.46482  0.38084  0.78000  1.0000
  S   S83       1.0  0.50634  0.40295  0.77520  1.0000
  S   S84       1.0  0.46599  0.33549  0.81721  1.0000
  Fe  Fe44      1.0  0.48328  0.45401  0.77021  1.0000
  H   H305      1.0  0.59872  0.03328  0.62455  1.0000
  Fe  Fe45      1.0  0.48695  0.39776  0.71577  1.0000
  S   S85       1.0  0.51375  0.37865  0.67983  1.0000
  S   S86       1.0  0.44279  0.43221  0.77905  1.0000
  S   S87       1.0  0.44671  0.37235  0.72067  1.0000
  S   S88       1.0  0.53100  0.34874  0.98293  1.0000
  C   C265      1.0  0.61700  0.05081  0.90807  1.0000
  N   N19       1.0  0.65655  0.07304  0.96121  1.0000
  C   C266      1.0  0.48300  0.33976  0.86349  1.0000
  C   C267      1.0  0.48570  0.31083  0.88603  1.0000
  C   C268      1.0  0.49995  0.31324  0.92285  1.0000
  C   C269      1.0  0.51156  0.34468  0.93735  1.0000
  C   C270      1.0  0.50853  0.37374  0.91488  1.0000
  C   C271      1.0  0.49443  0.37127  0.87805  1.0000
  H   H306      1.0  0.47678  0.28641  0.87494  1.0000
  H   H307      1.0  0.50192  0.29078  0.93996  1.0000
  H   H308      1.0  0.51740  0.39815  0.92589  1.0000
  H   H309      1.0  0.49241  0.39364  0.86085  1.0000
  C   C272      1.0  0.37545  0.46966  0.65028  1.0000
  H   H310      1.0  0.47525  0.29982  0.53538  1.0000
  S   S89       1.0  0.54625  0.22513  0.52302  1.0000
  H   H311      1.0  0.39068  0.43310  0.58522  1.0000
  H   H312      1.0  0.47954  0.46997  0.90889  1.0000
  C   C273      1.0  0.34658  0.47856  0.63399  1.0000
  C   C274      1.0  0.57383  0.32015  0.81633  1.0000
  H   H313      1.0  0.38805  0.40406  0.54848  1.0000
  H   H314      1.0  0.60812  0.36080  0.94039  1.0000
  C   C275      1.0  0.50274  0.27622  0.61811  1.0000
  C   C276      1.0  0.52633  0.29753  0.61981  1.0000
  C   C277      1.0  0.52931  0.32874  0.63883  1.0000
  C   C278      1.0  0.50895  0.33885  0.65666  1.0000
  C   C279      1.0  0.48554  0.31726  0.65547  1.0000
  C   C280      1.0  0.48245  0.28610  0.63619  1.0000
  H   H315      1.0  0.54196  0.29043  0.60573  1.0000
  H   H316      1.0  0.54744  0.34529  0.63955  1.0000
  H   H317      1.0  0.46986  0.32445  0.66938  1.0000
  H   H318      1.0  0.46414  0.26974  0.63506  1.0000
  H   H319      1.0  0.63121  0.26882  0.93812  1.0000
  H   H320      1.0  0.57981  0.25610  0.92972  1.0000
  C   C281      1.0  0.56185  0.04716  0.69144  1.0000
  C   C282      1.0  0.59190  0.04928  0.70309  1.0000
  C   C283      1.0  0.60628  0.07612  0.69064  1.0000
  C   C284      1.0  0.59078  0.10072  0.66616  1.0000
  C   C285      1.0  0.56077  0.09843  0.65445  1.0000
  C   C286      1.0  0.54640  0.07190  0.66718  1.0000
  C   C287      1.0  0.42322  0.32823  0.57251  1.0000
  H   H321      1.0  0.62950  0.07779  0.70010  1.0000
  H   H322      1.0  0.54851  0.11711  0.63573  1.0000
  C   C288      1.0  0.58982  0.31081  0.89192  1.0000
  N   N20       1.0  0.59755  0.30713  0.93145  1.0000
  C   C289      1.0  0.59428  0.34089  0.94783  1.0000
  H   H323      1.0  0.46447  0.47918  0.95913  1.0000
  H   H324      1.0  0.58343  0.27845  0.97101  1.0000
  H   H325      1.0  0.63257  0.29291  0.97741  1.0000
  H   H326      1.0  0.60404  0.03067  0.72220  1.0000
  C   C290      1.0  0.57811  0.28191  0.94148  1.0000
  H   H327      1.0  0.41934  0.43050  0.56438  1.0000
  H   H328      1.0  0.57438  0.49401  0.98325  1.0000
  H   H329      1.0  0.64362  0.31321  0.94209  1.0000
  C   C291      1.0  0.60142  0.30854  0.83411  1.0000
  C   C292      1.0  0.49804  0.48616  0.91092  1.0000
  Fe  Fe46      1.0  0.55560  0.16818  0.52372  1.0000
  C   C293      1.0  0.54968  0.05562  0.54759  1.0000
  C   C294      1.0  0.63777  0.10369  0.96013  1.0000
  S   S90       1.0  0.50641  0.50083  0.79894  1.0000
  C   C295      1.0  0.38992  0.50930  0.60994  1.0000
  H   H330      1.0  0.53243  0.33561  0.82190  1.0000
  C   C296      1.0  0.57221  0.05819  0.57882  1.0000
  H   H331      1.0  0.60006  0.33921  0.97764  1.0000
  H   H332      1.0  0.63338  0.11763  0.93409  1.0000
  H   H333      1.0  0.45089  0.38260  0.64725  1.0000
  H   H334      1.0  0.61676  0.30333  0.81893  1.0000
  C   C297      1.0  0.43855  0.30602  0.55602  1.0000
  C   C298      1.0  0.47192  0.35148  0.55396  1.0000
  C   C299      1.0  0.62758  0.29508  0.94763  1.0000
  H   H335      1.0  0.55523  0.29004  0.93290  1.0000
  C   C300      1.0  0.56183  0.32219  0.87281  1.0000
  H   H336      1.0  0.51840  0.02233  0.51381  1.0000
  H   H337      1.0  0.57175  0.35056  0.93943  1.0000
  H   H338      1.0  0.40488  0.31735  0.57930  1.0000
  H   H339      1.0  0.56780  0.32414  0.78756  1.0000
  H   H340      1.0  0.65479  0.32823  0.53632  1.0000
  H   H341      1.0  0.54573  0.32779  0.88656  1.0000
  H   H342      1.0  0.63109  0.29467  0.88341  1.0000
  H   H343      1.0  0.42645  0.41758  0.64684  1.0000
  H   H344      1.0  0.52316  0.07041  0.65804  1.0000
  C   C301      1.0  0.39713  0.48527  0.63823  1.0000
  C   C302      1.0  0.65563  0.21684  0.63993  1.0000
  H   H345      1.0  0.50797  0.50110  0.00206  1.0000
  H   H346      1.0  0.46458  0.40002  0.57514  1.0000
  N   N21       1.0  0.52930  0.19204  0.69995  1.0000
  C   C303      1.0  0.50334  0.17842  0.67361  1.0000
  C   C304      1.0  0.55045  0.20139  0.68005  1.0000
  C   C305      1.0  0.54248  0.16408  0.72551  1.0000
  C   C306      1.0  0.52088  0.22144  0.71932  1.0000
  C   C307      1.0  0.52957  0.25597  0.71560  1.0000
  C   C308      1.0  0.50248  0.21619  0.74180  1.0000
  C   C309      1.0  0.52058  0.28318  0.73364  1.0000
  C   C310      1.0  0.49367  0.24362  0.75974  1.0000
  C   C311      1.0  0.50267  0.27704  0.75562  1.0000
  H   H347      1.0  0.49236  0.19901  0.65459  1.0000
  H   H348      1.0  0.50880  0.15715  0.65732  1.0000
  H   H349      1.0  0.48732  0.16807  0.68669  1.0000
  H   H350      1.0  0.55701  0.17863  0.66658  1.0000
  H   H351      1.0  0.57048  0.21219  0.69821  1.0000
  H   H352      1.0  0.54120  0.22038  0.65837  1.0000
  H   H353      1.0  0.56104  0.17388  0.74707  1.0000
  H   H354      1.0  0.52699  0.15221  0.73848  1.0000
  H   H355      1.0  0.55058  0.14249  0.71193  1.0000
  H   H356      1.0  0.54272  0.26292  0.69822  1.0000
  H   H357      1.0  0.49435  0.19089  0.74525  1.0000
  H   H358      1.0  0.52689  0.30942  0.72974  1.0000
  H   H359      1.0  0.47945  0.23914  0.77661  1.0000
  H   H360      1.0  0.49535  0.29829  0.76907  1.0000
  N   N22       1.0  0.41677  0.38712  0.59846  1.0000
  C   C312      1.0  0.39385  0.37054  0.61156  1.0000
  C   C313      1.0  0.43753  0.40278  0.62998  1.0000
  C   C314      1.0  0.40318  0.41488  0.57305  1.0000
  C   C315      1.0  0.43206  0.36294  0.58045  1.0000
  C   C316      1.0  0.45664  0.37400  0.57015  1.0000
  H   H361      1.0  0.54261  0.07820  0.53090  1.0000
  H   H362      1.0  0.55376  0.48889  0.87317  1.0000
  H   H363      1.0  0.51122  0.45406  0.87283  1.0000
  H   H364      1.0  0.63945  0.19940  0.64634  1.0000
  H   H365      1.0  0.40280  0.34940  0.63095  1.0000
  H   H366      1.0  0.38338  0.38921  0.62595  1.0000
  H   H367      1.0  0.37623  0.36027  0.58911  1.0000
  H   H368      1.0  0.58242  0.08293  0.58649  1.0000
  C   C317      1.0  0.60943  0.30378  0.87136  1.0000
  H   H369      1.0  0.45259  0.42105  0.62255  1.0000
  C   C318      1.0  0.46290  0.31756  0.54696  1.0000
  H   H370      1.0  0.49122  0.36015  0.54751  1.0000
  C   C319      1.0  0.64253  0.04531  0.93639  1.0000
  C   C320      1.0  0.55401  0.32675  0.83565  1.0000
  C   C321      1.0  0.51631  0.47634  0.89026  1.0000
  H   H371      1.0  0.64614  0.22650  0.61207  1.0000
  H   H372      1.0  0.54681  0.43951  0.97319  1.0000
  S   S91       1.0  0.61856  0.27447  0.54884  1.0000
  C   C322      1.0  0.54042  0.49596  0.89045  1.0000
  S   S92       1.0  0.62305  0.22694  0.00745  1.0000
  C   C323      1.0  0.33939  0.50313  0.60610  1.0000
  H   H373      1.0  0.60639  0.07555  0.90316  1.0000
  H   H374      1.0  0.58561  0.02898  0.86265  1.0000
  C   C324      1.0  0.58150  0.02918  0.60045  1.0000
  C   C325      1.0  0.53610  0.02408  0.53800  1.0000
  H   H375      1.0  0.65678  0.21772  0.54165  1.0000
  C   C326      1.0  0.56953  0.48103  0.00567  1.0000
  H   H376      1.0  0.64710  0.04681  0.00570  1.0000
  C   C327      1.0  0.55400  0.45038  0.99989  1.0000
  H   H377      1.0  0.61705  0.09642  0.96541  1.0000
  H   H378      1.0  0.43215  0.27930  0.55124  1.0000
  H   H379      1.0  0.40809  0.50690  0.71536  1.0000
  H   H380      1.0  0.65811  0.23894  0.65876  1.0000
  H   H381      1.0  0.64811  0.12306  0.98078  1.0000
  H   H382      1.0  0.65962  0.15249  0.62356  1.0000
  H   H383      1.0  0.44500  0.50596  0.92189  1.0000
  H   H384      1.0  0.44724  0.50598  0.80318  1.0000
  H   H385      1.0  0.37287  0.50947  0.72023  1.0000
  C   C328      1.0  0.45856  0.50619  0.95024  1.0000
  C   C329      1.0  0.66522  0.06018  0.99884  1.0000
  C   C330      1.0  0.66574  0.30407  0.53516  1.0000
  S   S93       1.0  0.51400  0.96538  0.30686  1.0000
  H   H386      1.0  0.48542  0.96740  0.38831  1.0000
  H   H387      1.0  0.43036  0.92121  0.16501  1.0000
  C   C331      1.0  0.55493  0.71354  0.29321  1.0000
  Fe  Fe47      1.0  0.59682  0.57124  0.21788  1.0000
  S   S94       1.0  0.55435  0.55284  0.22239  1.0000
  S   S95       1.0  0.59892  0.61290  0.17739  1.0000
  Fe  Fe48      1.0  0.57253  0.56052  0.28173  1.0000
  S   S96       1.0  0.54081  0.58863  0.30578  1.0000
  H   H388      1.0  0.56783  0.99767  0.23268  1.0000
  S   S97       1.0  0.61449  0.58164  0.27697  1.0000
  H   H389      1.0  0.45322  0.65104  0.39988  1.0000
  Fe  Fe49      1.0  0.46045  0.73422  0.43760  1.0000
  S   S98       1.0  0.50520  0.73489  0.47488  1.0000
  S   S99       1.0  0.43631  0.68884  0.45241  1.0000
  Fe  Fe50      1.0  0.47289  0.79852  0.39745  1.0000
  S   S100      1.0  0.51820  0.80323  0.43257  1.0000
  S   S101      1.0  0.45112  0.83600  0.35287  1.0000
  Fe  Fe51      1.0  0.51947  0.74524  0.42522  1.0000
  S   S102      1.0  0.55691  0.71534  0.41395  1.0000
  Fe  Fe52      1.0  0.49946  0.79199  0.47887  1.0000
  S   S103      1.0  0.47512  0.74126  0.38778  1.0000
  S   S104      1.0  0.45383  0.79067  0.44366  1.0000
  H   H390      1.0  0.57504  0.70301  0.30941  1.0000
  C   C332      1.0  0.39899  0.68327  0.44623  1.0000
  C   C333      1.0  0.38999  0.65611  0.46449  1.0000
  C   C334      1.0  0.36059  0.65050  0.46080  1.0000
  S   S105      1.0  0.61596  0.51806  0.22192  1.0000
  C   C335      1.0  0.34883  0.69901  0.42006  1.0000
  C   C336      1.0  0.37835  0.70486  0.42404  1.0000
  C   C337      1.0  0.46901  0.91510  0.20835  1.0000
  H   H391      1.0  0.48108  0.75301  0.24247  1.0000
  H   H392      1.0  0.38504  0.72575  0.40969  1.0000
  C   C338      1.0  0.54649  0.62567  0.33354  1.0000
  C   C339      1.0  0.57385  0.63541  0.35435  1.0000
  C   C340      1.0  0.57681  0.66314  0.37860  1.0000
  C   C341      1.0  0.55257  0.68167  0.38189  1.0000
  C   C342      1.0  0.52545  0.67279  0.35989  1.0000
  C   C343      1.0  0.52241  0.64474  0.33620  1.0000
  H   H393      1.0  0.59258  0.62084  0.35272  1.0000
  H   H394      1.0  0.59795  0.66995  0.39529  1.0000
  H   H395      1.0  0.50676  0.68742  0.36128  1.0000
  H   H396      1.0  0.50121  0.63761  0.31995  1.0000
  C   C344      1.0  0.53799  0.61659  0.06308  1.0000
  C   C345      1.0  0.53473  0.59102  0.08739  1.0000
  C   C346      1.0  0.55256  0.59038  0.12286  1.0000
  C   C347      1.0  0.57440  0.61475  0.13405  1.0000
  C   C348      1.0  0.57733  0.64072  0.10998  1.0000
  C   C349      1.0  0.55908  0.64181  0.07469  1.0000
  H   H397      1.0  0.51831  0.57159  0.07871  1.0000
  H   H398      1.0  0.54972  0.57074  0.14137  1.0000
  H   H399      1.0  0.59415  0.65973  0.11844  1.0000
  H   H400      1.0  0.56196  0.66147  0.05616  1.0000
  H   H401      1.0  0.51507  0.66146  0.42654  1.0000
  C   C350      1.0  0.49597  0.93000  0.31974  1.0000
  C   C351      1.0  0.51182  0.90632  0.34508  1.0000
  C   C352      1.0  0.49835  0.87761  0.35569  1.0000
  C   C353      1.0  0.46890  0.87205  0.34068  1.0000
  C   C354      1.0  0.45309  0.89560  0.31506  1.0000
  C   C355      1.0  0.46650  0.92459  0.30479  1.0000
  H   H402      1.0  0.53464  0.91025  0.35671  1.0000
  H   H403      1.0  0.51081  0.85967  0.37528  1.0000
  H   H404      1.0  0.43032  0.89146  0.30322  1.0000
  H   H405      1.0  0.45407  0.94259  0.28518  1.0000
  C   C356      1.0  0.38758  0.97957  0.10213  1.0000
  C   C357      1.0  0.35996  0.96512  0.09034  1.0000
  H   H406      1.0  0.54881  0.63022  0.21166  1.0000
  Fe  Fe53      1.0  0.62946  0.52619  0.28181  1.0000
  H   H407      1.0  0.45822  0.90145  0.22537  1.0000
  C   C358      1.0  0.58510  0.66653  0.25989  1.0000
  C   C359      1.0  0.49620  0.95260  0.16562  1.0000
  H   H408      1.0  0.45077  0.61062  0.37776  1.0000
  H   H409      1.0  0.41591  0.81036  0.48633  1.0000
  C   C360      1.0  0.55905  0.94599  0.18565  1.0000
  H   H410      1.0  0.59549  0.64903  0.24434  1.0000
  H   H411      1.0  0.35396  0.62950  0.47510  1.0000
  H   H412      1.0  0.54857  0.61779  0.43127  1.0000
  H   H413      1.0  0.57579  0.72062  0.21399  1.0000
  H   H414      1.0  0.51761  0.65668  0.20522  1.0000
  H   H415      1.0  0.58268  0.95002  0.19637  1.0000
  C   C361      1.0  0.40026  0.79291  0.49388  1.0000
  H   H416      1.0  0.33563  0.98719  0.16193  1.0000
  H   H417      1.0  0.55162  0.93783  0.26960  1.0000
  C   C362      1.0  0.59942  0.52442  0.11015  1.0000
  H   H418      1.0  0.43694  0.94266  0.36484  1.0000
  C   C363      1.0  0.53819  0.64961  0.22502  1.0000
  H   H419      1.0  0.33287  0.71557  0.40267  1.0000
  N   N23       1.0  0.55700  0.67980  0.23752  1.0000
  H   H420      1.0  0.60066  0.68773  0.26985  1.0000
  H   H421      1.0  0.42713  0.73165  0.50675  1.0000
  H   H422      1.0  0.57391  0.67990  0.19141  1.0000
  H   H423      1.0  0.50356  0.76863  0.30576  1.0000
  H   H424      1.0  0.50503  0.71285  0.21137  1.0000
  H   H425      1.0  0.33393  0.75586  0.07493  1.0000
  H   H426      1.0  0.55741  0.90337  0.24106  1.0000
  H   H427      1.0  0.39407  0.77357  0.47196  1.0000
  H   H428      1.0  0.47185  0.55722  0.38400  1.0000
  H   H429      1.0  0.38078  0.80848  0.49347  1.0000
  C   C364      1.0  0.49838  0.92252  0.22110  1.0000
  H   H430      1.0  0.36560  0.01231  0.30128  1.0000
  H   H431      1.0  0.57673  0.57663  0.40846  1.0000
  C   C365      1.0  0.54274  0.70402  0.25678  1.0000
  C   C366      1.0  0.54522  0.98848  0.22315  1.0000
  H   H432      1.0  0.54214  0.70509  0.18580  1.0000
  C   C367      1.0  0.43961  0.97043  0.36515  1.0000
  H   H433      1.0  0.47628  0.64187  0.37192  1.0000
  C   C368      1.0  0.37790  0.99940  0.15711  1.0000
  H   H434      1.0  0.45918  0.57779  0.43310  1.0000
  H   H435      1.0  0.60607  0.53411  0.13829  1.0000
  H   H436      1.0  0.38639  0.67146  0.04447  1.0000
  H   H437      1.0  0.58245  0.65128  0.28316  1.0000
  H   H438      1.0  0.52145  0.63691  0.46770  1.0000
  H   H439      1.0  0.45434  0.95426  0.12709  1.0000
  H   H440      1.0  0.46024  0.61671  0.45759  1.0000
  C   C369      1.0  0.55946  0.93163  0.24588  1.0000
  H   H441      1.0  0.58563  0.54497  0.09394  1.0000
  H   H442      1.0  0.40580  0.63932  0.48176  1.0000
  H   H443      1.0  0.50888  0.91406  0.24808  1.0000
  C   C370      1.0  0.50700  0.59145  0.41052  1.0000
  H   H444      1.0  0.55055  0.74357  0.33822  1.0000
  C   C371      1.0  0.49469  0.56207  0.39038  1.0000
  C   C372      1.0  0.54103  0.54399  0.38403  1.0000
  C   C373      1.0  0.46689  0.94477  0.15303  1.0000
  C   C374      1.0  0.46697  0.98433  0.37870  1.0000
  C   C375      1.0  0.51571  0.71903  0.23896  1.0000
  N   N24       1.0  0.54366  0.95146  0.21356  1.0000
  C   C376      1.0  0.51299  0.94143  0.19998  1.0000
  C   C377      1.0  0.51443  0.75097  0.29209  1.0000
  S   S106      1.0  0.34946  0.94588  0.04733  1.0000
  C   C378      1.0  0.35023  0.98496  0.14532  1.0000
  C   C379      1.0  0.33987  0.67181  0.43844  1.0000
  H   H445      1.0  0.50517  0.96886  0.14882  1.0000
  C   C380      1.0  0.56237  0.69720  0.20586  1.0000
  H   H446      1.0  0.53278  0.63649  0.24789  1.0000
  C   C381      1.0  0.54097  0.73687  0.31031  1.0000
  C   C382      1.0  0.50469  0.64564  0.44339  1.0000
  H   H447      1.0  0.40205  0.97795  0.08528  1.0000
  H   H448      1.0  0.48978  0.58659  0.47043  1.0000
  C   C383      1.0  0.46628  0.63044  0.39185  1.0000
  H   H449      1.0  0.55213  0.96449  0.16296  1.0000
  C   C384      1.0  0.47385  0.59845  0.44705  1.0000
  H   H450      1.0  0.55559  0.91937  0.17471  1.0000
  C   C385      1.0  0.53725  0.59583  0.41712  1.0000
  H   H451      1.0  0.50156  0.51719  0.36095  1.0000
  C   C386      1.0  0.55388  0.57223  0.40415  1.0000
  N   N25       1.0  0.48851  0.61620  0.42309  1.0000
  C   C387      1.0  0.45330  0.92620  0.17441  1.0000
  C   C388      1.0  0.51151  0.53886  0.37723  1.0000
  C   C389      1.0  0.34933  0.70513  0.03417  1.0000
  H   H452      1.0  0.55386  0.52664  0.37278  1.0000
  H   H453      1.0  0.58281  0.93797  0.25430  1.0000
  C   C390      1.0  0.39662  0.99639  0.13544  1.0000
  H   H454      1.0  0.49033  0.66342  0.45292  1.0000
  S   S107      1.0  0.51699  0.61379  0.01789  1.0000
  C   C391      1.0  0.50182  0.74207  0.25647  1.0000
  H   H455      1.0  0.61948  0.52202  0.10151  1.0000
  H   H456      1.0  0.40425  0.79550  0.01318  1.0000
  C   C392      1.0  0.34131  0.96770  0.11215  1.0000
  H   H457      1.0  0.53408  0.00510  0.19999  1.0000
  C   C393      1.0  0.37093  0.68656  0.02456  1.0000
  H   H458      1.0  0.33926  0.78615  0.04237  1.0000
  S   S108      1.0  0.47324  0.01184  0.21404  1.0000
  H   H459      1.0  0.37694  0.72625  0.49282  1.0000
  Fe  Fe54      1.0  0.48969  0.01003  0.27408  1.0000
  H   H460      1.0  0.34864  0.70340  0.06172  1.0000
  H   H461      1.0  0.41787  0.00760  0.14407  1.0000
  H   H462      1.0  0.53486  0.99353  0.24501  1.0000
  H   H463      1.0  0.39522  0.97982  0.34117  1.0000
  C   C394      1.0  0.41590  0.99202  0.35127  1.0000
  H   H464      1.0  0.59106  0.51863  0.04277  1.0000
  H   H465      1.0  0.33883  0.69559  0.50982  1.0000
  Fe  Fe55      1.0  0.46471  0.65668  0.89953  1.0000
  S   S109      1.0  0.51255  0.65339  0.92211  1.0000
  S   S110      1.0  0.43998  0.61793  0.85892  1.0000
  Fe  Fe56      1.0  0.45902  0.71469  0.95090  1.0000
  S   S111      1.0  0.50681  0.71451  0.97724  1.0000
  S   S112      1.0  0.43498  0.75077  0.97879  1.0000
  Fe  Fe57      1.0  0.51057  0.71161  0.92058  1.0000
  S   S113      1.0  0.54362  0.74401  0.90289  1.0000
  Fe  Fe58      1.0  0.50395  0.65675  0.97622  1.0000
  S   S114      1.0  0.46298  0.71482  0.89435  1.0000
  S   S115      1.0  0.45592  0.65722  0.95340  1.0000
  H   H466      1.0  0.53361  0.97119  0.55125  1.0000
  H   H467      1.0  0.53059  0.76579  0.68071  1.0000
  Fe  Fe59      1.0  0.56444  0.96645  0.73511  1.0000
  S   S116      1.0  0.60833  0.94942  0.73288  1.0000
  C   C395      1.0  0.37316  0.73264  0.51820  1.0000
  Fe  Fe60      1.0  0.55408  0.89970  0.77338  1.0000
  S   S117      1.0  0.59737  0.87877  0.77340  1.0000
  S   S118      1.0  0.51992  0.86861  0.79041  1.0000
  Fe  Fe61      1.0  0.61374  0.93229  0.78983  1.0000
  Fe  Fe62      1.0  0.58721  0.89804  0.71650  1.0000
  S   S119      1.0  0.59536  0.86613  0.67091  1.0000
  S   S120      1.0  0.57075  0.95233  0.79322  1.0000
  S   S121      1.0  0.54308  0.91606  0.71544  1.0000
  C   C396      1.0  0.52618  0.83243  0.56909  1.0000
  C   C397      1.0  0.55524  0.82461  0.57356  1.0000
  C   C398      1.0  0.57614  0.83489  0.60500  1.0000
  C   C399      1.0  0.56824  0.85309  0.63218  1.0000
  C   C400      1.0  0.53916  0.86074  0.62775  1.0000
  C   C401      1.0  0.51830  0.85047  0.59640  1.0000
  H   H468      1.0  0.56162  0.81072  0.55280  1.0000
  H   H469      1.0  0.59859  0.82882  0.60813  1.0000
  H   H470      1.0  0.53265  0.87464  0.64833  1.0000
  H   H471      1.0  0.49589  0.85670  0.59320  1.0000
  C   C402      1.0  0.35133  0.71479  0.52782  1.0000
  H   H472      1.0  0.56389  0.74204  0.69324  1.0000
  H   H473      1.0  0.45973  0.64063  0.78376  1.0000
  C   C403      1.0  0.53654  0.77805  0.87086  1.0000
  C   C404      1.0  0.50859  0.78633  0.85059  1.0000
  C   C405      1.0  0.50389  0.81381  0.82576  1.0000
  C   C406      1.0  0.52707  0.83305  0.82057  1.0000
  C   C407      1.0  0.55507  0.82428  0.84026  1.0000
  C   C408      1.0  0.55972  0.79708  0.86541  1.0000
  H   H474      1.0  0.49066  0.77143  0.85390  1.0000
  H   H475      1.0  0.48217  0.82040  0.81064  1.0000
  H   H476      1.0  0.57312  0.83890  0.83670  1.0000
  H   H477      1.0  0.58145  0.79079  0.88081  1.0000
  C   C409      1.0  0.40155  0.77208  0.96205  1.0000
  H   H478      1.0  0.36785  0.60247  0.72911  1.0000
  C   C410      1.0  0.36504  0.81039  0.97393  1.0000
  H   H479      1.0  0.56140  0.93219  0.64775  1.0000
  C   C411      1.0  0.58295  0.93615  0.59061  1.0000
  C   C412      1.0  0.38502  0.76911  0.92639  1.0000
  H   H480      1.0  0.52441  0.70726  0.82314  1.0000
  C   C413      1.0  0.55224  0.76172  0.75412  1.0000
  H   H481      1.0  0.39249  0.75305  0.90800  1.0000
  C   C414      1.0  0.48797  0.53188  0.81767  1.0000
  N   N26       1.0  0.48447  0.52801  0.95433  1.0000
  C   C415      1.0  0.44433  0.55474  0.82890  1.0000
  C   C416      1.0  0.45915  0.58424  0.84493  1.0000
  C   C417      1.0  0.48863  0.58693  0.84823  1.0000
  C   C418      1.0  0.50291  0.56095  0.83447  1.0000
  H   H482      1.0  0.48328  0.78438  0.96235  1.0000
  H   H483      1.0  0.42158  0.55234  0.82647  1.0000
  H   H484      1.0  0.50024  0.60961  0.86004  1.0000
  C   C419      1.0  0.45570  0.61856  0.76598  1.0000
  C   C420      1.0  0.44809  0.80848  0.90161  1.0000
  H   H485      1.0  0.59800  0.94388  0.57483  1.0000
  C   C421      1.0  0.42802  0.60462  0.75476  1.0000
  H   H486      1.0  0.49150  0.56117  0.72805  1.0000
  C   C422      1.0  0.54654  0.52545  0.91150  1.0000
  C   C423      1.0  0.54720  0.81795  0.72613  1.0000
  H   H487      1.0  0.52553  0.56369  0.83625  1.0000
  N   N27       1.0  0.41264  0.77673  0.52958  1.0000
  H   H488      1.0  0.52349  0.81622  0.71496  1.0000
  C   C424      1.0  0.38983  0.75808  0.54081  1.0000
  H   H489      1.0  0.44041  0.78649  0.91492  1.0000
  C   C425      1.0  0.47359  0.57379  0.73476  1.0000
  H   H490      1.0  0.45964  0.92315  0.85014  1.0000
  C   C426      1.0  0.47422  0.56365  0.94389  1.0000
  C   C427      1.0  0.56123  0.72940  0.81076  1.0000
  C   C428      1.0  0.35837  0.78651  0.91473  1.0000
  H   H491      1.0  0.41174  0.61737  0.76444  1.0000
  C   C429      1.0  0.49273  0.80354  0.94750  1.0000
  H   H492      1.0  0.59990  0.80723  0.71941  1.0000
  H   H493      1.0  0.44464  0.51596  0.96674  1.0000
  H   H494      1.0  0.44124  0.88080  0.88498  1.0000
  N   N28       1.0  0.56182  0.78403  0.72855  1.0000
  C   C430      1.0  0.52270  0.75308  0.74759  1.0000
  H   H495      1.0  0.45971  0.57332  0.95963  1.0000
  C   C431      1.0  0.46395  0.88017  0.88670  1.0000
  H   H496      1.0  0.46222  0.56509  0.91501  1.0000
  H   H497      1.0  0.52773  0.83768  0.92282  1.0000
  C   C432      1.0  0.57132  0.74916  0.78656  1.0000
  C   C433      1.0  0.45771  0.84522  0.95360  1.0000
  C   C434      1.0  0.48246  0.85492  0.90780  1.0000
  H   H498      1.0  0.53394  0.55888  0.94787  1.0000
  H   H499      1.0  0.54985  0.97635  0.64636  1.0000
  C   C435      1.0  0.51201  0.85617  0.90831  1.0000
  C   C436      1.0  0.52210  0.88100  0.88860  1.0000
  C   C437      1.0  0.50324  0.90490  0.86759  1.0000
  N   N29       1.0  0.39330  0.55913  0.72041  1.0000
  S   S122      1.0  0.49867  0.82041  0.53034  1.0000
  H   H500      1.0  0.59404  0.75486  0.79442  1.0000
  H   H501      1.0  0.55115  0.82968  0.75315  1.0000
  H   H502      1.0  0.44336  0.53740  0.70602  1.0000
  H   H503      1.0  0.43905  0.86193  0.94047  1.0000
  H   H504      1.0  0.57589  0.72109  0.83599  1.0000
  N   N30       1.0  0.47070  0.82844  0.92739  1.0000
  C   C438      1.0  0.51287  0.73335  0.77203  1.0000
  C   C439      1.0  0.56852  0.99640  0.59104  1.0000
  C   C440      1.0  0.53211  0.72158  0.80358  1.0000
  H   H505      1.0  0.55492  0.83632  0.70875  1.0000
  C   C441      1.0  0.39451  0.52172  0.72898  1.0000
  H   H506      1.0  0.50686  0.76234  0.72395  1.0000
  C   C442      1.0  0.39150  0.79291  0.98562  1.0000
  H   H507      1.0  0.51021  0.81662  0.96796  1.0000
  H   H508      1.0  0.41062  0.82417  0.55772  1.0000
  H   H509      1.0  0.39748  0.55215  0.66694  1.0000
  H   H510      1.0  0.64615  0.00658  0.80938  1.0000
  H   H511      1.0  0.56282  0.92659  0.57163  1.0000
  C   C443      1.0  0.60475  0.96996  0.64244  1.0000
  C   C444      1.0  0.42235  0.57452  0.73309  1.0000
  H   H512      1.0  0.60577  0.76587  0.74061  1.0000
  H   H513      1.0  0.35519  0.70832  0.93662  1.0000
  H   H514      1.0  0.54453  0.88087  0.88845  1.0000
  C   C445      1.0  0.47425  0.90463  0.86679  1.0000
  H   H515      1.0  0.51106  0.92314  0.85124  1.0000
  C   C446      1.0  0.59337  0.79031  0.73908  1.0000
  H   H516      1.0  0.49013  0.72786  0.76699  1.0000
  C   C447      1.0  0.55420  0.76821  0.69238  1.0000
  H   H517      1.0  0.56206  0.78410  0.67296  1.0000
  H   H518      1.0  0.60051  0.80372  0.76536  1.0000
  C   C448      1.0  0.45874  0.52854  0.81553  1.0000
  S   S123      1.0  0.35370  0.55061  0.56014  1.0000
  H   H519      1.0  0.50244  0.78859  0.92921  1.0000
  H   H520      1.0  0.42871  0.82426  0.88897  1.0000
  C   C449      1.0  0.34821  0.80709  0.93852  1.0000
  H   H521      1.0  0.39027  0.67419  0.98227  1.0000
  C   C450      1.0  0.47846  0.60304  0.75625  1.0000
  H   H522      1.0  0.56495  0.54110  0.91090  1.0000
  C   C451      1.0  0.44595  0.55994  0.72290  1.0000
  C   C452      1.0  0.64247  0.98551  0.91573  1.0000
  H   H523      1.0  0.38038  0.59142  0.67341  1.0000
  H   H524      1.0  0.40682  0.52131  0.60076  1.0000
  C   C453      1.0  0.43546  0.75202  0.52697  1.0000
  C   C454      1.0  0.50346  0.51638  0.93243  1.0000
  H   H525      1.0  0.61198  0.94551  0.65747  1.0000
  N   N31       1.0  0.57780  0.96508  0.61319  1.0000
  H   H526      1.0  0.45636  0.79773  0.87979  1.0000
  H   H527      1.0  0.53450  0.94813  0.60958  1.0000
  C   C455      1.0  0.37182  0.57486  0.73674  1.0000
  C   C456      1.0  0.55487  0.95498  0.62986  1.0000
  H   H528      1.0  0.49204  0.58254  0.94843  1.0000
  H   H529      1.0  0.50008  0.61309  0.76626  1.0000
  H   H530      1.0  0.37898  0.57280  0.76656  1.0000
  C   C457      1.0  0.38355  0.76416  0.57406  1.0000
  H   H531      1.0  0.59249  0.91325  0.60710  1.0000
  H   H532      1.0  0.45326  0.76504  0.51889  1.0000
  H   H533      1.0  0.52028  0.54406  0.99831  1.0000
  H   H534      1.0  0.39518  0.78277  0.59319  1.0000
  C   C458      1.0  0.38260  0.56367  0.68103  1.0000
  C   C459      1.0  0.35333  0.70726  0.96383  1.0000
  C   C460      1.0  0.34561  0.72141  0.56043  1.0000
  C   C461      1.0  0.37307  0.68786  0.98951  1.0000
  C   C462      1.0  0.65522  0.01201  0.93895  1.0000
  H   H535      1.0  0.60837  0.97126  0.86970  1.0000
  H   H536      1.0  0.44503  0.73879  0.55300  1.0000
  H   H537      1.0  0.62271  0.97869  0.63177  1.0000
  C   C463      1.0  0.61739  0.99163  0.88847  1.0000
  H   H538      1.0  0.60172  0.98886  0.66268  1.0000
  H   H539      1.0  0.43814  0.79390  0.58152  1.0000
  H   H540      1.0  0.65279  0.96041  0.91771  1.0000
  H   H541      1.0  0.35777  0.82646  0.99239  1.0000
  C   C464      1.0  0.54517  0.99491  0.55946  1.0000
  C   C465      1.0  0.42656  0.80444  0.55472  1.0000
  H   H542      1.0  0.47377  0.86142  0.97277  1.0000
  S   S124      1.0  0.65394  0.93586  0.83671  1.0000
  C   C466      1.0  0.36170  0.74600  0.58353  1.0000
  C   C467      1.0  0.52845  0.53555  0.93228  1.0000
  C   C468      1.0  0.50077  0.52763  0.99279  1.0000
  H   H543      1.0  0.44940  0.82582  0.96953  1.0000
  C   C469      1.0  0.36109  0.51866  0.59403  1.0000
  H   H544      1.0  0.35720  0.75095  0.60896  1.0000
  H   H545      1.0  0.36125  0.55125  0.66984  1.0000
  H   H546      1.0  0.48763  0.53784  0.01005  1.0000
  H   H547      1.0  0.44319  0.81830  0.54500  1.0000
  H   H548      1.0  0.35054  0.56184  0.72761  1.0000
  H   H549      1.0  0.34545  0.78382  0.88727  1.0000
  H   H550      1.0  0.40320  0.51716  0.75828  1.0000
  C   C470      1.0  0.66461  0.00580  0.83267  1.0000
  S   S125      1.0  0.54264  0.01468  0.70701  1.0000
  S   S126      1.0  0.96925  0.16943  0.43917  1.0000
  S   S127      1.0  0.97956  0.23371  0.38925  1.0000
  Fe  Fe63      1.0  0.97233  0.22701  0.44381  1.0000
  S   S128      1.0  0.94737  0.25879  0.47465  1.0000
  H   H551      1.0  0.76460  0.39158  0.39747  1.0000
  S   S129      1.0  0.95945  0.14640  0.33683  1.0000
  S   S130      1.0  0.80103  0.40562  0.48774  1.0000
  S   S131      1.0  0.75547  0.34262  0.45485  1.0000
  Fe  Fe64      1.0  0.80343  0.35100  0.46842  1.0000
  S   S132      1.0  0.82590  0.33572  0.42625  1.0000
  Fe  Fe65      1.0  0.75371  0.39492  0.47869  1.0000
  S   S133      1.0  0.71523  0.43095  0.46033  1.0000
  S   S134      1.0  0.84534  0.02824  0.02794  1.0000
  C   C471      1.0  0.93783  0.11672  0.12106  1.0000
  H   H552      1.0  0.95488  0.14709  0.50687  1.0000
  H   H553      1.0  0.96053  0.33884  0.46631  1.0000
  H   H554      1.0  0.75176  0.33266  0.37765  1.0000
  S   S135      1.0  0.67520  0.50887  0.30987  1.0000
  H   H555      1.0  0.86211  0.09424  0.05168  1.0000
  H   H556      1.0  0.97440  0.09877  0.16319  1.0000
  H   H557      1.0  0.85353  0.14262  0.08919  1.0000
  H   H558      1.0  0.98749  0.19373  0.23983  1.0000
  C   C472      1.0  0.95129  0.09727  0.15158  1.0000
  C   C473      1.0  0.91310  0.27888  0.46008  1.0000
  H   H559      1.0  0.79484  0.38918  0.37969  1.0000
  C   C474      1.0  0.87518  0.31205  0.47579  1.0000
  C   C475      1.0  0.85931  0.31348  0.43977  1.0000
  C   C476      1.0  0.87050  0.29753  0.41390  1.0000
  C   C477      1.0  0.89718  0.28002  0.42401  1.0000
  H   H560      1.0  0.92816  0.14151  0.04995  1.0000
  C   C478      1.0  0.90555  0.07330  0.15250  1.0000
  H   H561      1.0  0.85832  0.29841  0.38597  1.0000
  H   H562      1.0  0.90533  0.26741  0.40392  1.0000
  H   H563      1.0  0.86887  0.08924  0.11131  1.0000
  C   C479      1.0  0.97393  0.06104  0.28324  1.0000
  C   C480      1.0  0.96057  0.08873  0.29599  1.0000
  C   C481      1.0  0.97661  0.11062  0.32291  1.0000
  C   C482      1.0  0.72385  0.38572  0.33360  1.0000
  H   H564      1.0  0.89379  0.09285  0.03677  1.0000
  C   C483      1.0  0.97858  0.39184  0.38447  1.0000
  H   H565      1.0  0.93769  0.09309  0.28505  1.0000
  H   H566      1.0  0.69499  0.29025  0.44447  1.0000
  H   H567      1.0  0.71974  0.40862  0.28043  1.0000
  C   C484      1.0  0.68584  0.48745  0.35187  1.0000
  C   C485      1.0  0.70443  0.45232  0.41833  1.0000
  C   C486      1.0  0.72382  0.45877  0.39821  1.0000
  H   H568      1.0  0.95159  0.13287  0.11027  1.0000
  H   H569      1.0  0.98632  0.37323  0.47153  1.0000
  S   S136      1.0  0.80286  0.11287  0.03621  1.0000
  C   C487      1.0  0.96089  0.32141  0.39940  1.0000
  H   H570      1.0  0.88018  0.17553  0.10316  1.0000
  H   H571      1.0  0.95258  0.29950  0.41218  1.0000
  C   C488      1.0  0.66649  0.48121  0.37216  1.0000
  H   H572      1.0  0.71768  0.36917  0.38485  1.0000
  H   H573      1.0  0.94180  0.33757  0.38656  1.0000
  C   C489      1.0  0.90199  0.29504  0.48581  1.0000
  H   H574      1.0  0.94571  0.06036  0.19073  1.0000
  C   C490      1.0  0.99048  0.19638  0.26917  1.0000
  H   H575      1.0  0.96136  0.04426  0.26263  1.0000
  C   C491      1.0  0.87810  0.11063  0.04388  1.0000
  H   H576      1.0  0.76924  0.42386  0.36639  1.0000
  H   H577      1.0  0.96938  0.31074  0.37772  1.0000
  H   H578      1.0  0.72966  0.48123  0.34969  1.0000
  H   H579      1.0  0.95567  0.39274  0.38133  1.0000
  C   C492      1.0  0.77149  0.39582  0.37271  1.0000
  H   H580      1.0  0.78025  0.32889  0.35752  1.0000
  C   C493      1.0  0.71455  0.47624  0.36512  1.0000
  H   H581      1.0  0.74376  0.32167  0.33099  1.0000
  H   H582      1.0  0.99445  0.29612  0.46028  1.0000
  H   H583      1.0  0.85872  0.17305  0.05725  1.0000
  H   H584      1.0  0.86607  0.12451  0.01911  1.0000
  C   C494      1.0  0.70936  0.40270  0.30103  1.0000
  C   C495      1.0  0.91173  0.15698  0.05841  1.0000
  C   C496      1.0  0.76746  0.37980  0.31193  1.0000
  H   H585      1.0  0.89311  0.05604  0.16447  1.0000
  H   H586      1.0  0.74602  0.45092  0.40852  1.0000
  C   C497      1.0  0.93520  0.07560  0.16723  1.0000
  H   H587      1.0  0.92265  0.17667  0.07826  1.0000
  H   H588      1.0  0.76801  0.40748  0.30454  1.0000
  Fe  Fe66      1.0  0.76380  0.32226  0.51087  1.0000
  H   H589      1.0  0.75548  0.36503  0.28790  1.0000
  H   H590      1.0  0.86697  0.32440  0.49596  1.0000
  C   C498      1.0  0.68073  0.41358  0.29449  1.0000
  Fe  Fe67      1.0  0.98136  0.17557  0.38754  1.0000
  N   N32       1.0  0.89250  0.13473  0.07279  1.0000
  C   C499      1.0  0.87036  0.15740  0.08105  1.0000
  N   N33       1.0  0.75450  0.37507  0.34220  1.0000
  C   C500      1.0  0.89189  0.09249  0.12198  1.0000
  C   C501      1.0  0.90758  0.11485  0.10525  1.0000
  C   C502      1.0  0.75755  0.33804  0.35240  1.0000
  S   S137      1.0  0.72451  0.11636  0.05127  1.0000
  C   C503      1.0  0.69750  0.14875  0.04027  1.0000
  H   H591      1.0  0.79022  0.37056  0.31901  1.0000
  C   C504      1.0  0.97014  0.35799  0.45143  1.0000
  N   N34       1.0  0.98350  0.34078  0.42584  1.0000
  H   H592      1.0  0.68120  0.13697  0.08539  1.0000
  C   C505      1.0  0.98990  0.41545  0.36471  1.0000
  C   C506      1.0  0.67923  0.39133  0.35198  1.0000
  C   C507      1.0  0.70787  0.38052  0.35891  1.0000
  C   C508      1.0  0.67849  0.15282  0.06170  1.0000
  C   C509      1.0  0.67583  0.46391  0.40535  1.0000
  H   H593      1.0  0.89945  0.17148  0.03410  1.0000
  H   H594      1.0  0.97584  0.43349  0.34665  1.0000
  H   H595      1.0  0.98291  0.17177  0.27839  1.0000
  H   H596      1.0  0.95239  0.37575  0.43781  1.0000
  H   H597      1.0  0.67033  0.42759  0.27009  1.0000
  H   H598      1.0  0.70115  0.22728  0.44408  1.0000
  H   H599      1.0  0.97575  0.21675  0.27413  1.0000
  H   H600      1.0  0.67228  0.08141  0.01851  1.0000
  C   C510      1.0  0.67989  0.23801  0.44151  1.0000
  C   C511      1.0  0.67648  0.27364  0.44166  1.0000
  H   H601      1.0  0.99246  0.25350  0.23773  1.0000
  C   C512      1.0  0.99636  0.36686  0.40700  1.0000
  Fe  Fe68      1.0  0.75485  0.10656  0.01667  1.0000
  H   H602      1.0  0.66785  0.38818  0.37230  1.0000
  H   H603      1.0  0.90333  0.01714  0.07042  1.0000
  H   H604      1.0  0.87600  0.51004  0.57826  1.0000
  S   S138      1.0  0.83340  0.39830  0.59696  1.0000
  H   H605      1.0  0.67717  0.09524  0.92372  1.0000
  C   C513      1.0  0.98827  0.19518  0.54332  1.0000
  H   H606      1.0  0.92390  0.17711  0.55780  1.0000
  Fe  Fe69      1.0  0.80590  0.06293  0.00836  1.0000
  C   C514      1.0  0.80525  0.48261  0.63409  1.0000
  S   S139      1.0  0.98022  0.24665  0.87990  1.0000
  S   S140      1.0  0.95773  0.29733  0.93328  1.0000
  Fe  Fe70      1.0  0.96649  0.24074  0.93050  1.0000
  S   S141      1.0  0.94059  0.19270  0.93401  1.0000
  Fe  Fe71      1.0  0.97621  0.30367  0.88645  1.0000
  S   S142      1.0  0.95516  0.33787  0.83908  1.0000
  S   S143      1.0  0.80435  0.08777  0.95516  1.0000
  S   S144      1.0  0.75140  0.13514  0.96560  1.0000
  Fe  Fe72      1.0  0.75612  0.08279  0.94293  1.0000
  Fe  Fe73      1.0  0.79975  0.13719  0.98273  1.0000
  H   H607      1.0  0.69626  0.15111  0.62293  1.0000
  C   C515      1.0  0.90822  0.19191  0.94695  1.0000
  C   C516      1.0  0.89313  0.16071  0.94458  1.0000
  C   C517      1.0  0.86743  0.15877  0.95487  1.0000
  C   C518      1.0  0.85675  0.18797  0.96805  1.0000
  C   C519      1.0  0.87193  0.21913  0.97064  1.0000
  C   C520      1.0  0.89754  0.22115  0.96004  1.0000
  H   H608      1.0  0.90117  0.13799  0.93434  1.0000
  H   H609      1.0  0.85582  0.13471  0.95242  1.0000
  H   H610      1.0  0.90899  0.24530  0.96204  1.0000
  C   C521      1.0  0.98220  0.26748  0.77433  1.0000
  H   H611      1.0  0.94190  0.13843  0.60108  1.0000
  C   C522      1.0  0.67104  0.19341  0.00042  1.0000
  C   C523      1.0  0.97355  0.37255  0.82588  1.0000
  C   C524      1.0  0.75765  0.44601  0.58949  1.0000
  C   C525      1.0  0.69312  0.30428  0.52905  1.0000
  H   H612      1.0  0.75065  0.45196  0.61386  1.0000
  C   C526      1.0  0.97205  0.42408  0.78905  1.0000
  C   C527      1.0  0.95804  0.39623  0.80031  1.0000
  H   H613      1.0  0.95988  0.44220  0.76938  1.0000
  H   H614      1.0  0.93505  0.39312  0.78921  1.0000
  C   C528      1.0  0.85726  0.43375  0.60915  1.0000
  C   C529      1.0  0.85857  0.46013  0.58499  1.0000
  H   H615      1.0  0.67775  0.17000  0.68864  1.0000
  H   H616      1.0  0.80071  0.45743  0.64303  1.0000
  H   H617      1.0  0.84591  0.45841  0.55736  1.0000
  C   C530      1.0  0.82751  0.50085  0.65757  1.0000
  H   H618      1.0  0.97429  0.09731  0.89030  1.0000
  H   H619      1.0  0.91415  0.29442  0.51376  1.0000
  H   H620      1.0  0.93566  0.41409  0.91845  1.0000
  H   H621      1.0  0.93287  0.20214  0.52403  1.0000
  C   C531      1.0  0.98074  0.16412  0.59597  1.0000
  H   H622      1.0  0.71781  0.30320  0.60930  1.0000
  C   C532      1.0  0.89212  0.46511  0.65652  1.0000
  C   C533      1.0  0.97492  0.13562  0.65025  1.0000
  H   H623      1.0  0.68402  0.04238  0.00424  1.0000
  C   C534      1.0  0.97737  0.45890  0.91766  1.0000
  C   C535      1.0  0.87587  0.48930  0.59685  1.0000
  H   H624      1.0  0.66826  0.20899  0.97655  1.0000
  H   H625      1.0  0.96407  0.13319  0.91219  1.0000
  C   C536      1.0  0.73275  0.20698  0.63470  1.0000
  C   C537      1.0  0.70766  0.27327  0.52798  1.0000
  H   H626      1.0  0.79574  0.44961  0.55101  1.0000
  H   H627      1.0  0.95962  0.44232  0.97775  1.0000
  H   H628      1.0  0.94694  0.12472  0.54336  1.0000
  H   H629      1.0  0.83901  0.48958  0.68313  1.0000
  N   N35       1.0  0.76697  0.47761  0.57412  1.0000
  H   H630      1.0  0.72279  0.48612  0.54352  1.0000
  S   S145      1.0  0.75906  0.37379  0.53423  1.0000
  C   C538      1.0  0.69411  0.18626  0.68088  1.0000
  H   H631      1.0  0.77519  0.42631  0.59652  1.0000
  C   C539      1.0  0.89257  0.49205  0.63271  1.0000
  H   H632      1.0  0.90475  0.46692  0.68421  1.0000
  H   H633      1.0  0.97962  0.24222  0.78660  1.0000
  C   C540      1.0  0.75364  0.22705  0.62545  1.0000
  C   C541      1.0  0.66681  0.24181  0.53825  1.0000
  H   H634      1.0  0.69774  0.06263  0.95175  1.0000
  C   C542      1.0  0.97511  0.49164  0.93324  1.0000
  C   C543      1.0  0.69379  0.16943  0.00976  1.0000
  H   H635      1.0  0.69464  0.10429  0.97017  1.0000
  H   H636      1.0  0.75964  0.45333  0.52247  1.0000
  C   C544      1.0  0.70087  0.25653  0.62578  1.0000
  H   H637      1.0  0.94443  0.21603  0.56980  1.0000
  H   H638      1.0  0.98319  0.12588  0.53994  1.0000
  N   N36       1.0  0.68344  0.19881  0.64339  1.0000
  C   C545      1.0  0.69436  0.24203  0.53249  1.0000
  H   H639      1.0  0.67368  0.06009  0.83064  1.0000
  N   N37       1.0  0.96874  0.17341  0.55766  1.0000
  S   S146      1.0  0.72336  0.07426  0.88893  1.0000
  H   H640      1.0  0.67102  0.17695  0.59050  1.0000
  H   H641      1.0  0.70305  0.32845  0.52543  1.0000
  C   C546      1.0  0.94133  0.19287  0.55227  1.0000
  C   C547      1.0  0.95712  0.40216  0.92099  1.0000
  C   C548      1.0  0.70411  0.03559  0.87528  1.0000
  C   C549      1.0  0.96377  0.14573  0.61443  1.0000
  H   H642      1.0  0.76413  0.27691  0.60823  1.0000
  H   H643      1.0  0.71384  0.17013  0.68512  1.0000
  H   H644      1.0  0.73802  0.18031  0.64156  1.0000
  C   C550      1.0  0.97304  0.48901  0.86058  1.0000
  H   H645      1.0  0.98528  0.13974  0.88159  1.0000
  C   C551      1.0  0.98028  0.43065  0.97604  1.0000
  C   C552      1.0  0.87432  0.43630  0.64485  1.0000
  H   H646      1.0  0.87351  0.41604  0.66375  1.0000
  H   H647      1.0  0.98612  0.10376  0.97082  1.0000
  S   S147      1.0  0.75788  0.05369  0.99370  1.0000
  C   C553      1.0  0.97652  0.45868  0.88082  1.0000
  C   C554      1.0  0.70551  0.22095  0.63460  1.0000
  H   H648      1.0  0.95771  0.39417  0.89367  1.0000
  Fe  Fe74      1.0  0.80660  0.38072  0.54180  1.0000
  H   H649      1.0  0.68079  0.26955  0.62438  1.0000
  H   H650      1.0  0.86381  0.24184  0.98081  1.0000
  C   C555      1.0  0.68018  0.03611  0.84488  1.0000
  H   H651      1.0  0.78320  0.48951  0.52873  1.0000
  S   S148      1.0  0.81199  0.32677  0.52293  1.0000
  H   H652      1.0  0.95835  0.37779  0.93667  1.0000
  S   S149      1.0  0.74241  0.27265  0.52125  1.0000
  C   C556      1.0  0.77681  0.46716  0.54272  1.0000
  C   C557      1.0  0.74824  0.26165  0.61646  1.0000
  H   H653      1.0  0.70832  0.16692  0.99320  1.0000
  H   H654      1.0  0.77402  0.21571  0.62475  1.0000
  H   H655      1.0  0.96893  0.28595  0.78518  1.0000
  H   H656      1.0  0.69945  0.20819  0.70002  1.0000
  H   H657      1.0  0.97257  0.48807  0.83246  1.0000
  C   C558      1.0  0.96309  0.14142  0.53607  1.0000
  C   C559      1.0  0.98215  0.12233  0.90293  1.0000
  C   C560      1.0  0.67740  0.16860  0.61906  1.0000
  C   C561      1.0  0.79050  0.49625  0.59985  1.0000
  C   C562      1.0  0.72208  0.27642  0.61704  1.0000
  H   H658      1.0  0.96171  0.12126  0.66374  1.0000
  S   S150      1.0  0.82529  0.18633  0.98297  1.0000
  H   H659      1.0  0.97588  0.49466  0.96114  1.0000
  Fe  Fe75      1.0  0.99700  0.50858  0.75849  1.0000
  H   H660      1.0  0.73919  0.43333  0.57002  1.0000
  H   H661      1.0  0.70550  0.21797  0.53159  1.0000
  H   H662      1.0  0.97847  0.43494  0.86729  1.0000
  H   H663      1.0  0.99610  0.16306  0.95903  1.0000
  H   H664      1.0  0.97239  0.26559  0.74487  1.0000
  C   C563      1.0  0.68261  0.08437  0.95139  1.0000
  H   H665      1.0  0.73420  0.51036  0.58460  1.0000
  H   H666      1.0  0.99367  0.21965  0.55854  1.0000
  H   H667      1.0  0.99722  0.06871  0.94774  1.0000
  H   H668      1.0  0.97832  0.20235  0.51483  1.0000
  C   C564      1.0  0.74126  0.50020  0.56155  1.0000
  N   N38       1.0  0.98076  0.42614  0.93816  1.0000
  H   H669      1.0  0.99854  0.44671  0.99136  1.0000
  H   H670      1.0  0.98228  0.40552  0.99048  1.0000
  H   H671      1.0  0.99868  0.33147  0.78237  1.0000
  H   H672      1.0  0.93252  0.78214  0.05014  1.0000
  H   H673      1.0  0.98985  0.80182  0.19612  1.0000
  S   S151      1.0  0.96307  0.89214  0.20597  1.0000
  H   H674      1.0  0.95648  0.90628  0.05225  1.0000
  C   C565      1.0  0.90097  0.99281  0.11962  1.0000
  S   S152      1.0  0.96141  0.95150  0.26576  1.0000
  H   H675      1.0  0.89477  0.89553  0.13169  1.0000
  C   C566      1.0  0.85930  0.01301  0.07234  1.0000
  H   H676      1.0  0.98949  0.76960  0.22919  1.0000
  Fe  Fe76      1.0  0.94329  0.94489  0.20593  1.0000
  S   S153      1.0  0.89600  0.95513  0.17862  1.0000
  H   H677      1.0  0.98867  0.81395  0.24030  1.0000
  S   S154      1.0  0.97894  0.97274  0.19099  1.0000
  C   C567      1.0  0.89637  0.91427  0.06507  1.0000
  C   C568      1.0  0.88277  0.98001  0.13913  1.0000
  C   C569      1.0  0.85294  0.98534  0.12587  1.0000
  C   C570      1.0  0.92412  0.83236  0.06914  1.0000
  H   H678      1.0  0.97987  0.78883  0.11922  1.0000
  C   C571      1.0  0.90303  0.87622  0.11562  1.0000
  C   C572      1.0  0.95074  0.87943  0.05256  1.0000
  H   H679      1.0  0.83871  0.97576  0.14089  1.0000
  H   H680      1.0  0.88518  0.93265  0.07881  1.0000
  C   C573      1.0  0.96394  0.85625  0.03441  1.0000
  H   H681      1.0  0.90637  0.92985  0.04761  1.0000
  C   C574      1.0  0.94037  0.91595  0.11336  1.0000
  C   C575      1.0  0.93096  0.86807  0.07128  1.0000
  H   H682      1.0  0.96814  0.80321  0.02038  1.0000
  N   N39       1.0  0.91787  0.89299  0.09114  1.0000
  H   H683      1.0  0.93259  0.93033  0.13363  1.0000
  H   H684      1.0  0.92401  0.99001  0.12996  1.0000
  H   H685      1.0  0.98329  0.84573  0.14927  1.0000
  H   H686      1.0  0.99764  0.90875  0.41754  1.0000
  H   H687      1.0  0.95967  0.90100  0.12819  1.0000
  H   H688      1.0  0.90902  0.82133  0.08196  1.0000
  H   H689      1.0  0.87952  0.89794  0.04721  1.0000
  H   H690      1.0  0.94771  0.93594  0.09734  1.0000
  Fe  Fe77      1.0  0.98506  0.90165  0.26444  1.0000
  H   H691      1.0  0.91792  0.85881  0.13508  1.0000
  C   C576      1.0  0.99821  0.79523  0.22504  1.0000
  C   C577      1.0  0.99707  0.88635  0.36652  1.0000
  C   C578      1.0  0.84125  0.00215  0.09282  1.0000
  H   H692      1.0  0.88372  0.86158  0.10068  1.0000
  H   H693      1.0  0.81817  0.00521  0.08244  1.0000
  C   C579      1.0  0.95730  0.82133  0.03358  1.0000
  C   C580      1.0  0.93724  0.80947  0.05058  1.0000
  C   C581      1.0  0.99719  0.80617  0.11852  1.0000
  H   H694      1.0  0.98753  0.90883  0.35119  1.0000
  C   C582      1.0  0.88921  0.00857  0.08602  1.0000
  S   S155      1.0  0.99374  0.85476  0.30132  1.0000
  Fe  Fe78      1.0  0.99835  0.97642  0.25068  1.0000
  H   H695      1.0  0.97974  0.86528  0.02140  1.0000
  C   C583      1.0  0.99911  0.83839  0.13563  1.0000
  Fe  Fe79      1.0  0.97190  0.57750  0.76991  1.0000
  C   C584      1.0  0.98124  0.64508  0.87650  1.0000
  S   S156      1.0  0.96247  0.61555  0.80972  1.0000
  Fe  Fe80      1.0  0.94779  0.53808  0.69889  1.0000
  C   C585      1.0  0.82244  0.54651  0.61407  1.0000
  C   C586      1.0  0.96053  0.59737  0.62164  1.0000
  H   H696      1.0  0.95283  0.62412  0.61456  1.0000
  H   H697      1.0  0.99179  0.67638  0.53753  1.0000
  S   S157      1.0  0.91178  0.53074  0.64702  1.0000
  C   C587      1.0  0.97877  0.63124  0.56155  1.0000
  S   S158      1.0  0.96307  0.59275  0.71184  1.0000
  H   H698      1.0  0.73088  0.00368  0.91673  1.0000
  C   C588      1.0  0.97019  0.52050  0.87635  1.0000
  S   S159      1.0  0.99179  0.51837  0.69983  1.0000
  H   H699      1.0  0.79072  0.53998  0.56435  1.0000
  C   C589      1.0  0.97652  0.54331  0.60459  1.0000
  H   H700      1.0  0.98632  0.70362  0.64008  1.0000
  C   C590      1.0  0.99759  0.65041  0.54747  1.0000
  C   C591      1.0  0.69713  0.97403  0.88089  1.0000
  C   C592      1.0  0.83605  0.53271  0.64763  1.0000
  C   C593      1.0  0.98618  0.59776  0.57614  1.0000
  H   H701      1.0  0.70386  0.94997  0.89486  1.0000
  N   N40       1.0  0.96587  0.57816  0.59114  1.0000
  H   H702      1.0  0.96402  0.66353  0.86663  1.0000
  H   H703      1.0  0.82982  0.57084  0.60613  1.0000
  H   H704      1.0  0.96076  0.52943  0.61584  1.0000
  C   C594      1.0  0.93804  0.57368  0.56340  1.0000
  H   H705      1.0  0.96689  0.54386  0.86030  1.0000
  H   H706      1.0  0.92686  0.59861  0.55488  1.0000
  C   C595      1.0  0.71239  0.00445  0.89346  1.0000
  C   C596      1.0  0.67314  0.97456  0.85054  1.0000
  S   S160      1.0  0.95192  0.52491  0.75691  1.0000
  H   H707      1.0  0.96980  0.54671  0.92482  1.0000
  H   H708      1.0  0.85401  0.54611  0.66549  1.0000
  H   H709      1.0  0.67559  0.00642  0.95822  1.0000
  H   H710      1.0  0.99492  0.66761  0.92950  1.0000
  C   C597      1.0  0.98558  0.61861  0.85381  1.0000
  H   H711      1.0  0.95854  0.64323  0.56153  1.0000
  H   H712      1.0  0.94400  0.58460  0.63222  1.0000
  C   C598      1.0  0.97157  0.52191  0.91267  1.0000
  H   H713      1.0  0.74518  0.52249  0.54554  1.0000
  C   C599      1.0  0.80006  0.52861  0.59041  1.0000
  H   H714      1.0  0.92280  0.55763  0.57358  1.0000
  H   H715      1.0  0.94126  0.56080  0.53918  1.0000
  H   H716      1.0  0.98050  0.59880  0.64409  1.0000
  H   H717      1.0  0.99473  0.65124  0.67840  1.0000
  H   H718      1.0  0.98027  0.52686  0.58286  1.0000
  C   C600      1.0  0.99875  0.64750  0.91208  1.0000
  H   H719      1.0  0.99679  0.54483  0.62687  1.0000
  H   H720      1.0  0.99809  0.83065  0.65082  1.0000
