data_image0
_chemical_formula_structural       H2SH4SH3FeS2FeS2FeSFeS3FeS2FeSCFeSFeS4HFeSCSHCSHFeSFeSHC2HNC2HCFeCSCHC2SHCH2CH2CSHCHCSH2C6H5C2HCH3C7H4C4H3C6H4C6HCH2C6H5CHFeH3C3SC2H2CHC2SH4CNH2CH2CHCH3C2H2CH3CHC4HC2H3C3HNC9H15CH2CH4CH3C4H2C2HCNHC3H2NHCNHNC9H11CH2CHC3H3C2NH3SNCHC3HCH5NHC2HCH2CH4FeHCSH3C3FeSCH2CHCFeHC2H2C2HC2H4CSC3H2SCHCHC2HSH3C2FeSHFeS2FeSFeS3FeNSHC2HSH5SHS2CH3SHNHCFeHC2H2FeS2FeSHFeCFeS3C2H3SH2C6H4CHCH3C3HNHCHC2H4C7H4C6H5CHC6H3CFeC4H5C2HCSHNC2H2C4H4CH3CHSC2NC3HC2HSH3SH3CH2CH2C3H6C2SH3CSHC2H4C2HC2HCH2NH4FeCH4NC5H5C4H4CH8NSC2HC2HCHFeS2FeS2FeSFeHS2HCSHCH2FeS2FeS2FeSFeS3FeS2FeS2FeHFeS3FeS2FeS2FeSFeS3HS2C7H2CHC6H5C6H4C6H4C6H4C2H2C8H3FeHC5H4C6H4C2HNHCHCHCH7CHCHCHCH3C4HCHNH2SCHCSHC2HC2H2CNHC2H5C2HCH3NHCH2CH2CHNC9H14NC3HCHCH4CH4C2HCHFeC2NC2H3NCH2C2H2SH2CH2CH5CSNC2H8NC9H14NC6H5CH5C2H6FeC3H5CHCSC4H2CHC4H2C2HC2HCHSH3C2HCHC3H2CHCH2NHC4H6CH2CH2C3H4C2H4SCH2CHCSFeS2FeSHFeSFeS3CFeSHFeS2FeSFeS3FeS2FeS2FeSFeS3FeS2FeSFeSFeS3HSHSHSCHC6H4NSHC6H4C6H4C4HCH4C6H4C6H8C5HCH2CSH2C6H4CHC3H2C2HC2HNCH4FeHCHC2H4CNC9H12CH2CHNC9H14CH3NC2HSCNHFeCHC3H7C3HCH3NHCHSH2NCHC3HC2HC2FeCSNC9H21SH3SCHS2CH2C2HFeCSHC2H5CH2CH2C2HC2H2CH2CH6C2HCHCH2CH2C6H4FeH3CSC5HFeS2FeS2FeHFeS3HC2H2FeS2FeS2FeSCS2HCFeS2FeS2FeSFeS3HCH3C6H3C6H4C6H4CHC3SCH2C4H3FeCSCH2CH4CH2C3SHCHCH2C6H4FeH2SC3HC6H4FeNC6HCSH11FeC2NC9H14NC5SHC2HCHCH2C2HCH2CHNC9H14SCH6S2C2HC2HNC9H14NC9H15CH3NC6HSCFeCSCHSFeH4FeHC2HCH4CNCH2CHCH2CH2CH3CHNC2NH9C2HSHCSH4FeHC2FeS2FeS2FeSFeHS2H2CSC3H3SHSFeSFeSHFeSFeS2FeSFeS4HCHC2SNCS2CSFeS2C5HFeH4SCH3CSC7H4C6H5CHC2HFeCFeH4C3HC6NH2C6H4SCSFeC7H4C2FeH2CHSC2SHC2HFeCH12C2NC9H17CHCH2C2H11C2H2NC2H6C2NC7H5SH10CH2C2SH5CH2C2SH2CH4NC3HCH3C2NC3HCHC2H7FeHCNC6SCH4S2CFeHFeH2C4H2CSH4CH3CHFeS2FeS2FeSFeS3HSFeS2FeS2FeSFeS3NCSC2SCNHFeS2H3FeSFeHFeS2Fe3SFeHSHFeS2HSCSH2C3H2CHSCHCH2CH2CH3C3H2C2HCHC6H4C2H5C4H2C2H2C6H4C6H4C6H4C6H8SHCNC9H12CHCHCH4SH2CHC3H2CH10CH2C2FeHNH5CSHC3HCH2CHCH3C3HC2H3CH2SH3CHC2H3FeCNC9H6NH3CHCH3CSHSNHCH2C3HCHC4HCFeSCH2C3FeHC2HC4H5CH2NCH2SCH3C2HCH3C3H3S2H3CHCSH2C2H3C2FeS2FeS2FeSFeS3HFe2S2FeS2FeSFeS4FeHCHCFeHSCFeHSFeHSH2SHSFeSC2HFeH3CH2CHCFeS2C5H2CSHCHC3HC2HC2HC6H4CSHC7H3C5H2C6H4C6H4C6H3C2NC9H17CHCH4CFeHCH2CHS2HCHCNC9H15C2HCH2NSC5NH4C2H2CHNH3C2HC2HSH2CHCH2C3H4C2N2H2CH5SHC2HNFeH2C5HSHC3H3FeHNCSH6C2H2SH2SHCH2CHCHC8NCHSCHCHFeH5C4FeCSH2SC4H4C3H4C3HSH4C2HCHCHC3HC2HCH2SHSHCH4CHCH2CH5C2H2SH2NHCH3FeS2FeS2FeSFeS3FeS3FeHFeS4FeS2CFeSFeS2FeS2FeSFeS3HCHCNHFeS2CSCH2C2H5FeHC6H4C6H4FeH2CHCH2C6H2C6H4C6H4CHSNC4HCHC3HC2H3SC4H5C4HCHCHNC9H14NC6H14FeCH3C2N2CHFeH2CSCNC7HCH7CH5CHCHCH2NC9H14SCHFeHFeSC4HCH3CH2CH2C3H2CSCH3C4H3FeSCHCH3CNHC8HCH10C3H4C4FeCH3CH2CSCH2CHCHSCH3C4HCHCHCH3C2H2CH2C2H2SH4C2H2CH2FeHCFeS2FeS2FeSFeS3CSCH5SHFeCH3FeS2FeS2FeSFeS3FeS2FeSHFeS3H2SHCSCHC4HC6HC2H2CSHC6H4C6H4CH4CH2CHCH3C2HSH3C6H4C6H4C4H4C3H4C4H3CHCNC9H5C2HNH12NC2H4CH3CNC9H16CNHCH9CHFe2H2CHC2HC2HSHC3HC4H2CH3NC7HCH2CH4CHC2HCH4CNHCH3CH2CHC2N2CHC2H4C2H3C2HC2H7CHCFeCSH2NC3HFeSNFeS2FeSFeS3HSHSH3FeS2Fe2SCHC2SFeSHSFeS2FeS2FeSFeS3C6H3C6H6FeHNCHC4H2CH2CSHSC3HC2SC6H5CHCSC6H7CHNC10HFeHNHCH8CH2C2HFeHSC2H2C7H6NC4HCH2C3H2CH3CH2C2HCHFeCH3CH6FeCH3SHC2HFeCH3SHC3H4CH2CH3NHC3H2C2HSHC3H3CH4CHCHCHCH2C2H2C2H2C3NC9H13CNC9H11NH3CHC3H2CH2SH3CSCHC2H2CH2FeCHSHSHSC2H3CH2CHNH2C2HC2HCH2SH4SCFeHSH3C2H3SNHSH2FeS2FeS2FeSFeS4H3CS2FeCHCHCH2C2HCH4NFeS2FeS2FeSFeS4HCFeHSHCH2S2HC2HCHCH2C6H4C6H6C2H4CSCH2CSC2H6C4HCHC4H5C8H5CHC2H2CHC2HCH2CH4CH2CHNHC6H3SH3NC6H13FeCHCH3C2NCNHCHC2NHC2HC6FeCHCHC3NH5NHCHSHCHCSHCHFeCH2CHCH2C2NC9H14CSH3CSC4HC2HSC2HCHSC3HCHC4HC3HCHNH5CHCH4CH3FeHCHCH2SH2C3HFeHCH4SHC3HCFeSCFeS2FeHFeS3FeS2FeS2FeHFeS3FeS2H2FeSHSHFeS2FeSCSHFeS2FeS2FeSFeS3C6H4C6H7C6H4C7H2C3H3NCH2CH3C8H4C7H4SC7H3CH2C2SH6C7H8NCHC3H4CHCSCHCHSHCHCH2CHSH4C2HNHNCH2C4HCHCH2CH2SH2C2H4C2H6CHC2HC2H3CH2CH2CH2SFeCHNC9H14NC9H11CHCHCH2C2HSHNH5C2H2CH5NFeHCHCHSC2SH2C2FeS2FeS2Fe2S3FeSCFeS2FeSHSH3SHSFeS2FeSFeS3FeS2FeS2FeSFeS3C6H4CH2CSC2H2C6H4C6H4C4HCH2FeC2H3CHC2HC2H4C6H4C5H5CHNCSHCHC2H2C3H3CHC2HC3HC2H2CHCH2CNC9H14C2NC9H15FeNC9H14CH4CHCH3SHCSH2CHFeH2C2NHCNCH4C2HFeC2HCH2CH2CHCHC2SC2HCHNH2C2H2NC9H8CSCHCH4C2HFeCHC3H2CH3CH2CH4SC2H4SHCH10SFeS2FeSFeCFeS2CFeS2FeS2FeSFeS3HNHS2H2SC2HCHC2SCHCSHSHCSCSC6H4C6H7C6H4C6H5CHCHCSC6H4C2H4FeCH2C4HC6H4CH2NH5C2H2CH2CH2SCNC2H3CH3CHCHCHSCHSHCHCH2C3H2CFeH4C3H3C2HCHC2H2CHCHNC2HCH2FeSHCFeHNC9H14NC2H3CHCNCSC2H4C3H2CNC2H3CNSH3CS2HFeC2HCHCH3CHCH3CHCH5C3H3SH2C2H2CH4SH3S2HFeC2HC2H2CSFeCH3SCHCHNFeCHC3NH2SC2HFeS2FeSHFeSFeCS2HSH2CHFeSCHC2HS2CHCNC2HFeCSFeHFeS2FeS2FeS2FeSFeS3H3FeHFeS2HFeSHS2FeS2FeSNH4CH2SH3C6H4C6H4CHC4H3SH2CH2CHC3H2C2HC2H4C11H6C6H4C2H2C6H2CHCH7SH2CSH2CHNHCH2SC2H3CHCH2C2NC9H19NC7H5C2SH5C2HFeHSHC3SCHC4H2FeH2C4HC2H4CH3CH3CHC3HC3HNCHSC3HCNCNH4CHCH8NCHFeHNC4H7CHC2SHSH7C3H2C3HCHSHC2HCH3FeS2FeS2FeSFeS3FeS2FeSCFeSFeS5C2SH2SFeSCSHSFeS2FeSFeCSCFeS2FeS2FeCFeS4CH4C2HCHFeC6H3FeHCH2SHC3H5CH2CHSC6H4CH4C5H3C6H4C6H4C6H8SH5C3FeH4C2HC2H2NC9H14C3HNHCH3SH2C3H2C2HCNC9H12CHNC7H11C2N2HC4HFeCHSHCH2FeHCHCSH2CNFeCH6CHCHCHC2HCH2CHCH2CH3CSH2CSNC9H15CHC3HCHC2H4C3H2C2SC4H2CH2C3H2C6HCHSH2CFeS2FeS2FeSFeS3FeS2FeS2FeSFeHS2CSHFeCSFeS2FeSHS2H2SHC2FeSCFeS2Fe2CFeS3HC2H2NCSHC2HCH2C4H2C2H2CFeHC2HCHCH8CHCHC2HC6H4CHCH2NC6H3C6H4C6H4C6H4CH2SH2C2HC2H2C2H2CHC2HCH2CH2C3FeCH2CH5C2H2C6H3N2C2H6NH5CH4NCHCH4SH3C2HC2SCH2NHC8H11NC9H2NH5CH5CNCHCH4C2HCH3CH4CH3CH2C2HCH3CS2HCNC9NH4CH2FeH5NC3HCH2C3H3CH3CH2CH5CSCH2CHC2H2SC2H3CHCH2C2FeHNFeS2FeSCS3NHCSH2SFeSFeS2FeS2FeSFeS3FeS2NHCH2SCH4C2SH2SHSH3CFeH4C3HCH3C3H2C6H4C4H6C3HNHCFeH4CH2CH4C3H3C6H4C6H7CHCSNC9H14CHCFeSH4CS2HC2HSH2CH2CH7CH4FeHCH3NC2FeCHCH2SC2SHC2HCHCSCH3C3HC2HCNC9H14NC9H5C2HC2H2C3HCHSH4NCHC2FeH2CH3SCH2CHC2SFeCSC3HCH4C2HSFe2S2FeS2HSFeS3HCS2FeS2FeS2FeSFeS3FeS2FeHFeS2FeS2CSHSFeSH4C2H2CH2CHCH2C3H3C2H2C6H5FeC2SC6H7C2HSH2CH2CNH2NH2C7H4C6H3CH3CHC2HC2H2CH2SH4C3NC2HC7SHC2FeH2C2H4C2H2CH3CH3CNC9H14NC9H17NC9H14CHC3HCH2C2H2CHCH4SHFeH3CH4CFeC2HFeH2C2SNCHCHCH3NSC3HCFeC2Fe2CSFeH2C2SCSCHFeCHCSHCFeHSHC3HCHCSH4CFeNHFeCHC2HC3H2C2HCNH2C2HFeSHSCFeSHCH5C4FeS2HSFeSFeSHSFeS2FeS2FeSFeS3H2SFeCSNCHS2FeS2FeS2FeSFeS3HSHS2CSH2C6H4C6H5C2HCHCH3C2H2C6H4C6H4C6H7C6H4CHC2HC3H2NC4H2CHCH9CH2CHFe2C2FeC2NFeHC3H3CHFeHCHS2C5HC2HCH3CH3NC9H14SC2H3CH2C3H4FeCH2FeHCH4C2H3CH3NCFeHCSCH2SCH5C4FeC3H2SFeHSH2CHFeC2HSHC2H2CN2CNC9H14NC9H13CHCHCHC2HC2H2CHC2SHCH2CHC2HC3H3FeHS3H2CHCHFeS2FeS2Fe2S4FeS2FeS2FeSFeS3FeS2FeS2FeSFeS3FeHSC2H2SHSC5H2CH3CHCSH2SH3C6H4C6H4C4H2C6H4C6H4C4H3NC2HCH2C2HC2FeHC6H4C2HNC9HCHCHNH5CH2NC6HCH12CH2C2HC2HC2H2CNCHC7H5CHCH8SCH4NC8H12CH2FeC7H6CH3SCH4C2NH3C2NHNFeH2SCHCHCH2C3H3CHCHCHCHCHC2SNCFeH4C4H2SHCSNH4CH2C2SCH8C2H3C2H4CFeCHCHCH3CHC2HC2HSH2CH4CHSFeHCHC2SHS2CSH5FeSCH3CHS2H3FeSNH2CFeH3C2HCH3CH3FeS2HSFeSHSFeSNFeS2FeSFeS4C6H4C6H4CHCH3CHC4HC2H3C5H5C3H4C6H4NH3C2NHCHSC2HCNC7SHNHSH2C2SCFeH3CHC2H2CH2CH7CHCNH6SCHCHCHCHCH2C2H2CHCHCH2CHC3SHCH2CH2CFeH3C5H2C4SC2HFeHS2H4SCFeSHCSFeSFeS2FeSCFeS2FeSFeS2FeS2FeHSFeCSCH2S2H2SFeSHFeS2FeHFeS3CHFeS2HSFeSFeS3C6H6C2HCH3C7H3C4HCHC2FeC5NHC7H5C6H4C3H2C6H4CSH2CHCHCHC4HCH5CHC2H6C2H3CH3C2HC2FeH2FeC2NCHCH2CHCH8C2H2SHC2NC7H5C3H6CHNC9H14CSHCH2CNH2CH3C2HC2HCHSN2HC2NH4CSHC2H3FeCSCH4CHCH5CHCH2C
_chemical_formula_sum              "H4104 S912 Fe456 C3420 N228"
_cell_length_a       91.6418
_cell_length_b       91.2128
_cell_length_c       50.0014
_cell_angle_alpha    77.6723
_cell_angle_beta     78.0659
_cell_angle_gamma    101.502

_space_group_name_H-M_alt    "P 1"
_space_group_IT_number       1

loop_
  _space_group_symop_operation_xyz
  'x, y, z'

loop_
  _atom_site_type_symbol
  _atom_site_label
  _atom_site_symmetry_multiplicity
  _atom_site_fract_x
  _atom_site_fract_y
  _atom_site_fract_z
  _atom_site_occupancy
  H   H1        1.0  0.21091  0.23718  0.13954  1.0000
  H   H2        1.0  0.01486  0.27559  0.14639  1.0000
  S   S1        1.0  0.98853  0.17956  0.19301  1.0000
  H   H3        1.0  0.19265  0.25103  0.15599  1.0000
  H   H4        1.0  0.20300  0.01814  0.00044  1.0000
  H   H5        1.0  0.10791  0.04716  0.01774  1.0000
  H   H6        1.0  0.04473  0.31548  0.07902  1.0000
  S   S2        1.0  0.00771  0.30059  0.07389  1.0000
  H   H7        1.0  0.98934  0.12153  0.00952  1.0000
  H   H8        1.0  0.19116  0.19271  0.24417  1.0000
  H   H9        1.0  0.12924  0.28346  0.41350  1.0000
  Fe  Fe1       1.0  0.19617  0.20585  0.12523  1.0000
  S   S3        1.0  0.17598  0.20789  0.10720  1.0000
  S   S4        1.0  0.22062  0.21928  0.10093  1.0000
  Fe  Fe2       1.0  0.17688  0.17907  0.17558  1.0000
  S   S5        1.0  0.15496  0.17888  0.16147  1.0000
  S   S6        1.0  0.17665  0.16179  0.21590  1.0000
  Fe  Fe3       1.0  0.16957  0.18181  0.11750  1.0000
  S   S7        1.0  0.16620  0.16890  0.08374  1.0000
  Fe  Fe4       1.0  0.16290  0.20492  0.15235  1.0000
  S   S8        1.0  0.14695  0.22082  0.15889  1.0000
  S   S9        1.0  0.19084  0.17998  0.13265  1.0000
  S   S10       1.0  0.18376  0.20494  0.16956  1.0000
  Fe  Fe5       1.0  0.07928  0.25961  0.28896  1.0000
  S   S11       1.0  0.08947  0.24330  0.31572  1.0000
  S   S12       1.0  0.05597  0.24973  0.27916  1.0000
  Fe  Fe6       1.0  0.10609  0.28764  0.28514  1.0000
  S   S13       1.0  0.11803  0.27261  0.30980  1.0000
  C   C1        1.0  0.19184  0.01007  0.00559  1.0000
  Fe  Fe7       1.0  0.11215  0.25588  0.28420  1.0000
  S   S14       1.0  0.12921  0.24177  0.27238  1.0000
  Fe  Fe8       1.0  0.09455  0.26132  0.33965  1.0000
  S   S15       1.0  0.09271  0.25255  0.38740  1.0000
  S   S16       1.0  0.10205  0.27169  0.25656  1.0000
  S   S17       1.0  0.08248  0.27688  0.31569  1.0000
  S   S18       1.0  0.08663  0.11436  0.00838  1.0000
  H   H10       1.0  0.17197  0.24627  0.16720  1.0000
  Fe  Fe9       1.0  0.10808  0.13327  0.00120  1.0000
  S   S19       1.0  0.10831  0.14364  0.03883  1.0000
  C   C2        1.0  0.03413  0.26806  0.18111  1.0000
  S   S20       1.0  0.18727  0.01835  0.14314  1.0000
  H   H11       1.0  0.18156  0.28579  0.12079  1.0000
  C   C3        1.0  0.04282  0.17826  0.06867  1.0000
  S   S21       1.0  0.15814  0.00163  0.19836  1.0000
  H   H12       1.0  0.16933  0.03409  0.31623  1.0000
  Fe  Fe10      1.0  0.16370  0.00206  0.15167  1.0000
  S   S22       1.0  0.14978  0.00755  0.11876  1.0000
  Fe  Fe11      1.0  0.18265  0.01619  0.19039  1.0000
  S   S23       1.0  0.18660  0.03677  0.21113  1.0000
  H   H13       1.0  0.01523  0.24851  0.16027  1.0000
  C   C4        1.0  0.01393  0.13737  0.10656  1.0000
  C   C5        1.0  0.07801  0.00481  0.05252  1.0000
  H   H14       1.0  0.15995  0.27896  0.35554  1.0000
  N   N1        1.0  0.14113  0.28878  0.36915  1.0000
  C   C6        1.0  0.14097  0.99654  0.09788  1.0000
  C   C7        1.0  0.09872  0.25679  0.46459  1.0000
  H   H15       1.0  0.10500  0.02490  0.99615  1.0000
  C   C8        1.0  0.21934  0.15537  0.44529  1.0000
  Fe  Fe12      1.0  0.99994  0.20465  0.19009  1.0000
  C   C9        1.0  0.98384  0.16762  0.06506  1.0000
  S   S24       1.0  0.02371  0.21452  0.19821  1.0000
  C   C10       1.0  0.20825  0.12329  0.19524  1.0000
  H   H16       1.0  0.00632  0.23701  0.19591  1.0000
  C   C11       1.0  0.21838  0.14896  0.47437  1.0000
  C   C12       1.0  0.99364  0.12670  0.02557  1.0000
  S   S25       1.0  0.99771  0.21273  0.14535  1.0000
  H   H17       1.0  0.05871  0.27387  0.17613  1.0000
  C   C13       1.0  0.20879  0.18508  0.26147  1.0000
  H   H18       1.0  0.99884  0.09886  0.02327  1.0000
  H   H19       1.0  0.05749  0.99923  0.03848  1.0000
  C   C14       1.0  0.17042  0.98924  0.03670  1.0000
  H   H20       1.0  0.04280  0.18454  0.08483  1.0000
  H   H21       1.0  0.20831  0.28741  0.10410  1.0000
  C   C15       1.0  0.07374  0.17067  0.98714  1.0000
  S   S26       1.0  0.23003  0.10185  0.38280  1.0000
  H   H22       1.0  0.19112  0.27823  0.14702  1.0000
  C   C16       1.0  0.18937  0.02712  0.29853  1.0000
  H   H23       1.0  0.03428  0.12985  0.09278  1.0000
  C   C17       1.0  0.13638  0.00433  0.07474  1.0000
  S   S27       1.0  0.21399  0.99058  0.12294  1.0000
  H   H24       1.0  0.20072  0.17755  0.28085  1.0000
  H   H25       1.0  0.13842  0.01683  0.06980  1.0000
  C   C18       1.0  0.20039  0.04700  0.22612  1.0000
  C   C19       1.0  0.21502  0.04433  0.22500  1.0000
  C   C20       1.0  0.22555  0.05304  0.23654  1.0000
  C   C21       1.0  0.22170  0.06455  0.24953  1.0000
  C   C22       1.0  0.20697  0.06703  0.25109  1.0000
  C   C23       1.0  0.19650  0.05843  0.23935  1.0000
  H   H26       1.0  0.21831  0.03567  0.21494  1.0000
  H   H27       1.0  0.21994  0.12057  0.24021  1.0000
  H   H28       1.0  0.20355  0.07544  0.26160  1.0000
  H   H29       1.0  0.18524  0.06061  0.24057  1.0000
  H   H30       1.0  0.16772  0.26709  0.09729  1.0000
  C   C24       1.0  0.21580  0.14584  0.42776  1.0000
  C   C25       1.0  0.21054  0.25547  0.06453  1.0000
  H   H31       1.0  0.99248  0.14377  0.11565  1.0000
  C   C26       1.0  0.05681  0.16736  0.03349  1.0000
  H   H32       1.0  0.01855  0.17543  0.07236  1.0000
  H   H33       1.0  0.12584  0.00239  0.04012  1.0000
  H   H34       1.0  0.05970  0.14122  0.01767  1.0000
  C   C27       1.0  0.18131  0.03459  0.31573  1.0000
  C   C28       1.0  0.04728  0.24013  0.25602  1.0000
  C   C29       1.0  0.03108  0.23447  0.26294  1.0000
  C   C30       1.0  0.02364  0.22698  0.24539  1.0000
  C   C31       1.0  0.03228  0.22481  0.22057  1.0000
  C   C32       1.0  0.04847  0.23060  0.21351  1.0000
  C   C33       1.0  0.05589  0.23825  0.23088  1.0000
  H   H35       1.0  0.02418  0.23587  0.28213  1.0000
  H   H36       1.0  0.01123  0.22262  0.25141  1.0000
  H   H37       1.0  0.05537  0.22907  0.19446  1.0000
  H   H38       1.0  0.06826  0.24274  0.22466  1.0000
  C   C34       1.0  0.09486  0.26056  0.41653  1.0000
  C   C35       1.0  0.09566  0.27620  0.41535  1.0000
  C   C36       1.0  0.09833  0.28213  0.43832  1.0000
  C   C37       1.0  0.09623  0.25091  0.44147  1.0000
  H   H39       1.0  0.09416  0.28370  0.39677  1.0000
  H   H40       1.0  0.09908  0.29426  0.43694  1.0000
  H   H41       1.0  0.09548  0.23876  0.44285  1.0000
  C   C38       1.0  0.15002  0.16314  0.07049  1.0000
  C   C39       1.0  0.13505  0.16293  0.08446  1.0000
  C   C40       1.0  0.12245  0.15714  0.07422  1.0000
  C   C41       1.0  0.12467  0.15164  0.04982  1.0000
  C   C42       1.0  0.13966  0.15217  0.03549  1.0000
  C   C43       1.0  0.15222  0.15774  0.04597  1.0000
  H   H42       1.0  0.13317  0.16693  0.10346  1.0000
  H   H43       1.0  0.11090  0.15676  0.08551  1.0000
  H   H44       1.0  0.14157  0.14804  0.01664  1.0000
  H   H45       1.0  0.16376  0.15782  0.03507  1.0000
  C   C44       1.0  0.19394  0.15830  0.22288  1.0000
  C   C45       1.0  0.20826  0.16600  0.20380  1.0000
  C   C46       1.0  0.22188  0.16348  0.21053  1.0000
  C   C47       1.0  0.22130  0.15318  0.23624  1.0000
  C   C48       1.0  0.20697  0.14514  0.25498  1.0000
  C   C49       1.0  0.19334  0.14774  0.24832  1.0000
  H   H46       1.0  0.20879  0.17407  0.18412  1.0000
  C   C50       1.0  0.04630  0.27369  0.21762  1.0000
  H   H47       1.0  0.20640  0.13724  0.27490  1.0000
  H   H48       1.0  0.18228  0.14174  0.26314  1.0000
  C   C51       1.0  0.14211  0.22656  0.19055  1.0000
  C   C52       1.0  0.14774  0.22132  0.21378  1.0000
  C   C53       1.0  0.14387  0.22634  0.23845  1.0000
  C   C54       1.0  0.13436  0.23662  0.24017  1.0000
  C   C55       1.0  0.12885  0.24199  0.21681  1.0000
  C   C56       1.0  0.13270  0.23695  0.19213  1.0000
  H   H49       1.0  0.15500  0.21333  0.21281  1.0000
  H   H50       1.0  0.14815  0.22209  0.25644  1.0000
  H   H51       1.0  0.12163  0.25001  0.21777  1.0000
  H   H52       1.0  0.12835  0.24111  0.17418  1.0000
  H   H53       1.0  0.20732  0.02142  0.04331  1.0000
  C   C57       1.0  0.12716  0.29129  0.36033  1.0000
  H   H54       1.0  0.22451  0.03695  0.31017  1.0000
  Fe  Fe13      1.0  0.19526  0.99653  0.15271  1.0000
  H   H55       1.0  0.06670  0.17975  0.06142  1.0000
  H   H56       1.0  0.03561  0.26697  0.15968  1.0000
  H   H57       1.0  0.08026  0.01719  0.04318  1.0000
  C   C58       1.0  0.12920  0.99616  0.05784  1.0000
  C   C59       1.0  0.21014  0.12314  0.46686  1.0000
  C   C60       1.0  0.09994  0.27250  0.46310  1.0000
  S   S28       1.0  0.11775  0.31376  0.26664  1.0000
  C   C61       1.0  0.18200  0.24866  0.14858  1.0000
  C   C62       1.0  0.00110  0.26938  0.09879  1.0000
  H   H58       1.0  0.21687  0.15090  0.40552  1.0000
  H   H59       1.0  0.16623  0.24672  0.10992  1.0000
  C   C63       1.0  0.02274  0.12983  0.09071  1.0000
  H   H60       1.0  0.01289  0.27021  0.08809  1.0000
  C   C64       1.0  0.00448  0.10502  0.03692  1.0000
  C   C65       1.0  0.04745  0.27217  0.19019  1.0000
  S   S29       1.0  0.99006  0.17817  0.11065  1.0000
  H   H61       1.0  0.99444  0.27150  0.15865  1.0000
  H   H62       1.0  0.21658  0.00754  0.03018  1.0000
  H   H63       1.0  0.19660  0.11571  0.20711  1.0000
  H   H64       1.0  0.13644  0.08499  0.15212  1.0000
  C   C66       1.0  0.18410  0.01076  0.98414  1.0000
  N   N2        1.0  0.19307  0.99793  0.05577  1.0000
  H   H65       1.0  0.12151  0.29852  0.37232  1.0000
  H   H66       1.0  0.20868  0.12698  0.17232  1.0000
  C   C67       1.0  0.08819  0.99899  0.06639  1.0000
  H   H67       1.0  0.99480  0.24263  0.17244  1.0000
  H   H68       1.0  0.01585  0.11225  0.02284  1.0000
  C   C68       1.0  0.18869  0.04293  0.33175  1.0000
  H   H69       1.0  0.01859  0.14325  0.12082  1.0000
  C   C69       1.0  0.14899  0.28049  0.35047  1.0000
  H   H70       1.0  0.19761  0.07671  0.16183  1.0000
  H   H71       1.0  0.19849  0.07041  0.34537  1.0000
  H   H72       1.0  0.03109  0.27178  0.25771  1.0000
  C   C70       1.0  0.20481  0.02787  0.29744  1.0000
  C   C71       1.0  0.08518  0.17136  0.02589  1.0000
  H   H73       1.0  0.08725  0.18418  0.02159  1.0000
  H   H74       1.0  0.00766  0.26469  0.24296  1.0000
  C   C72       1.0  0.99056  0.25735  0.21130  1.0000
  H   H75       1.0  0.18882  0.24243  0.09208  1.0000
  H   H76       1.0  0.00634  0.09595  0.05372  1.0000
  H   H77       1.0  0.15472  0.31262  0.32073  1.0000
  C   C73       1.0  0.01920  0.26513  0.19946  1.0000
  H   H78       1.0  0.07462  0.18335  0.98156  1.0000
  C   C74       1.0  0.20344  0.19364  0.24079  1.0000
  C   C75       1.0  0.19744  0.25333  0.08647  1.0000
  C   C76       1.0  0.22128  0.28030  0.07149  1.0000
  C   C77       1.0  0.00529  0.27372  0.16551  1.0000
  H   H79       1.0  0.18036  0.01189  0.07592  1.0000
  C   C78       1.0  0.00546  0.24669  0.17899  1.0000
  C   C79       1.0  0.16285  0.98997  0.01506  1.0000
  H   H80       1.0  0.08462  0.16630  0.04854  1.0000
  H   H81       1.0  0.06761  0.14214  0.04754  1.0000
  H   H82       1.0  0.21500  0.07470  0.31594  1.0000
  C   C80       1.0  0.99166  0.25506  0.11651  1.0000
  C   C81       1.0  0.99920  0.13763  0.10366  1.0000
  C   C82       1.0  0.10226  0.03546  0.98654  1.0000
  H   H83       1.0  0.14598  0.27578  0.40631  1.0000
  N   N3        1.0  0.08576  0.21067  0.26567  1.0000
  C   C83       1.0  0.09932  0.20607  0.25111  1.0000
  C   C84       1.0  0.08883  0.22777  0.25603  1.0000
  C   C85       1.0  0.08460  0.20613  0.29656  1.0000
  C   C86       1.0  0.07116  0.20361  0.25974  1.0000
  C   C87       1.0  0.05683  0.20485  0.27532  1.0000
  C   C88       1.0  0.07076  0.19631  0.23733  1.0000
  C   C89       1.0  0.04296  0.19874  0.26944  1.0000
  C   C90       1.0  0.05682  0.19044  0.23140  1.0000
  C   C91       1.0  0.04296  0.19163  0.24743  1.0000
  H   H84       1.0  0.10238  0.21092  0.22767  1.0000
  H   H85       1.0  0.10986  0.21056  0.25769  1.0000
  H   H86       1.0  0.09729  0.19323  0.25616  1.0000
  H   H87       1.0  0.09017  0.23174  0.23282  1.0000
  H   H88       1.0  0.09955  0.23364  0.26052  1.0000
  H   H89       1.0  0.07930  0.23208  0.26679  1.0000
  H   H90       1.0  0.08116  0.19329  0.30513  1.0000
  H   H91       1.0  0.09578  0.21064  0.30127  1.0000
  H   H92       1.0  0.07617  0.21096  0.30904  1.0000
  H   H93       1.0  0.05622  0.21113  0.29141  1.0000
  H   H94       1.0  0.08108  0.19526  0.22372  1.0000
  H   H95       1.0  0.03221  0.20016  0.28120  1.0000
  H   H96       1.0  0.05674  0.18520  0.21387  1.0000
  H   H97       1.0  0.03223  0.18752  0.24218  1.0000
  H   H98       1.0  0.22794  0.10461  0.23581  1.0000
  C   C92       1.0  0.19579  0.26470  0.10154  1.0000
  H   H99       1.0  0.22849  0.23111  0.17756  1.0000
  H   H100      1.0  0.19235  0.04670  0.38354  1.0000
  C   C93       1.0  0.20453  0.04424  0.33066  1.0000
  H   H101      1.0  0.14157  0.26876  0.35271  1.0000
  H   H102      1.0  0.00498  0.13512  0.01447  1.0000
  H   H103      1.0  0.21111  0.02233  0.28347  1.0000
  H   H104      1.0  0.09838  0.00688  0.06782  1.0000
  C   C94       1.0  0.04254  0.16205  0.02725  1.0000
  H   H105      1.0  0.12978  0.29718  0.33740  1.0000
  H   H106      1.0  0.12829  0.26701  0.39964  1.0000
  H   H107      1.0  0.15178  0.28669  0.32762  1.0000
  C   C95       1.0  0.00165  0.12220  0.06899  1.0000
  C   C96       1.0  0.21239  0.03636  0.31304  1.0000
  C   C97       1.0  0.06944  0.14735  0.02448  1.0000
  C   C98       1.0  0.18137  0.27536  0.13732  1.0000
  H   H108      1.0  0.18932  0.00054  0.09836  1.0000
  H   H109      1.0  0.22303  0.16769  0.43543  1.0000
  C   C99       1.0  0.01844  0.26682  0.22733  1.0000
  C   C100      1.0  0.03185  0.27106  0.23610  1.0000
  H   H110      1.0  0.05660  0.27641  0.22498  1.0000
  C   C101      1.0  0.22219  0.24351  0.12599  1.0000
  N   N4        1.0  0.18202  0.26185  0.12537  1.0000
  H   H111      1.0  0.20878  0.12241  0.42472  1.0000
  C   C102      1.0  0.02911  0.17316  0.06163  1.0000
  C   C103      1.0  0.05651  0.17543  0.05493  1.0000
  C   C104      1.0  0.21373  0.20284  0.21525  1.0000
  H   H112      1.0  0.20537  0.03440  0.38466  1.0000
  H   H113      1.0  0.01819  0.16097  0.03585  1.0000
  N   N5        1.0  0.21217  0.05352  0.34725  1.0000
  H   H114      1.0  0.18377  0.02104  0.28545  1.0000
  C   C105      1.0  0.21897  0.11054  0.23074  1.0000
  N   N6        1.0  0.07109  0.16432  0.01817  1.0000
  H   H115      1.0  0.15718  0.25628  0.13309  1.0000
  N   N7        1.0  0.12117  0.09237  0.06690  1.0000
  C   C106      1.0  0.13326  0.09752  0.03965  1.0000
  C   C107      1.0  0.11543  0.07522  0.07365  1.0000
  C   C108      1.0  0.10805  0.09914  0.06303  1.0000
  C   C109      1.0  0.12762  0.09776  0.08898  1.0000
  C   C110      1.0  0.12904  0.08743  0.11348  1.0000
  C   C111      1.0  0.13305  0.11388  0.08601  1.0000
  C   C112      1.0  0.13544  0.09304  0.13360  1.0000
  C   C113      1.0  0.13944  0.11935  0.10618  1.0000
  C   C114      1.0  0.14062  0.10895  0.12995  1.0000
  H   H116      1.0  0.14358  0.09318  0.04191  1.0000
  H   H117      1.0  0.12901  0.09322  0.02268  1.0000
  H   H118      1.0  0.13717  0.11039  0.03170  1.0000
  H   H119      1.0  0.12488  0.06935  0.07523  1.0000
  H   H120      1.0  0.11045  0.07161  0.05679  1.0000
  H   H121      1.0  0.10609  0.07059  0.09373  1.0000
  H   H122      1.0  0.11166  0.11197  0.05453  1.0000
  H   H123      1.0  0.10239  0.09465  0.04765  1.0000
  H   H124      1.0  0.09912  0.09642  0.08345  1.0000
  H   H125      1.0  0.12535  0.07498  0.11761  1.0000
  H   H126      1.0  0.13245  0.12240  0.06791  1.0000
  C   C115      1.0  0.22891  0.05438  0.34271  1.0000
  H   H127      1.0  0.14357  0.13175  0.10331  1.0000
  H   H128      1.0  0.14561  0.11329  0.14550  1.0000
  C   C116      1.0  0.13604  0.27839  0.39845  1.0000
  H   H129      1.0  0.22512  0.08934  0.44305  1.0000
  C   C117      1.0  0.99533  0.28261  0.09479  1.0000
  C   C118      1.0  0.22972  0.20351  0.20938  1.0000
  C   C119      1.0  0.15147  0.30403  0.36644  1.0000
  H   H130      1.0  0.15120  0.30115  0.41139  1.0000
  H   H131      1.0  0.17063  0.27297  0.15458  1.0000
  H   H132      1.0  0.98541  0.13336  0.03289  1.0000
  C   C120      1.0  0.10061  0.06202  0.98622  1.0000
  C   C121      1.0  0.02895  0.16502  0.04103  1.0000
  N   N8        1.0  0.22070  0.11554  0.19981  1.0000
  H   H133      1.0  0.11397  0.31500  0.32587  1.0000
  H   H134      1.0  0.21367  0.17756  0.47570  1.0000
  H   H135      1.0  0.11853  0.31220  0.46260  1.0000
  S   S30       1.0  0.10317  0.07771  0.00211  1.0000
  N   N9        1.0  0.00531  0.26080  0.18922  1.0000
  C   C122      1.0  0.16774  0.25789  0.11590  1.0000
  H   H136      1.0  0.18122  0.23772  0.14189  1.0000
  C   C123      1.0  0.20837  0.00924  0.04834  1.0000
  C   C124      1.0  0.20753  0.08198  0.16832  1.0000
  C   C125      1.0  0.01680  0.12240  0.07203  1.0000
  H   H137      1.0  0.20923  0.13389  0.20303  1.0000
  C   C126      1.0  0.22447  0.18579  0.25678  1.0000
  H   H138      1.0  0.98978  0.24754  0.22961  1.0000
  H   H139      1.0  0.23087  0.29047  0.06637  1.0000
  H   H140      1.0  0.99492  0.17538  0.05320  1.0000
  H   H141      1.0  0.23100  0.04271  0.34939  1.0000
  H   H142      1.0  0.11850  0.28012  0.36391  1.0000
  N   N10       1.0  0.99501  0.11461  0.04925  1.0000
  H   H143      1.0  0.09571  0.16909  0.01345  1.0000
  C   C127      1.0  0.06513  0.99467  0.05004  1.0000
  C   C128      1.0  0.20768  0.09516  0.17846  1.0000
  H   H144      1.0  0.22884  0.01637  0.14177  1.0000
  C   C129      1.0  0.21062  0.06965  0.33928  1.0000
  H   H145      1.0  0.00637  0.28482  0.17175  1.0000
  H   H146      1.0  0.19764  0.09968  0.17892  1.0000
  C   C130      1.0  0.20819  0.27831  0.09342  1.0000
  H   H147      1.0  0.99621  0.24494  0.11931  1.0000
  H   H148      1.0  0.07997  0.14465  0.01318  1.0000
  H   H149      1.0  0.18195  0.04856  0.34466  1.0000
  H   H150      1.0  0.21718  0.07733  0.34976  1.0000
  Fe  Fe14      1.0  0.99641  0.32003  0.06134  1.0000
  H   H151      1.0  0.21391  0.00795  0.06630  1.0000
  C   C131      1.0  0.20472  0.04666  0.37795  1.0000
  S   S31       1.0  0.22476  0.10871  0.30282  1.0000
  H   H152      1.0  0.02431  0.11696  0.06016  1.0000
  H   H153      1.0  0.20896  0.20909  0.19977  1.0000
  H   H154      1.0  0.12482  0.32071  0.41099  1.0000
  C   C132      1.0  0.16964  0.00073  0.98887  1.0000
  C   C133      1.0  0.22951  0.23725  0.10545  1.0000
  C   C134      1.0  0.21117  0.12978  0.43853  1.0000
  Fe  Fe15      1.0  0.10179  0.10245  0.98385  1.0000
  S   S32       1.0  0.19229  0.99527  0.19894  1.0000
  C   C135      1.0  0.22032  0.10188  0.18815  1.0000
  H   H155      1.0  0.21174  0.24634  0.05406  1.0000
  H   H156      1.0  0.20756  0.10228  0.24182  1.0000
  C   C136      1.0  0.18519  0.99922  0.03264  1.0000
  H   H157      1.0  0.21035  0.05326  0.39108  1.0000
  C   C137      1.0  0.99314  0.13022  0.08513  1.0000
  Fe  Fe16      1.0  0.98462  0.18811  0.14953  1.0000
  H   H158      1.0  0.04180  0.15558  0.01156  1.0000
  C   C138      1.0  0.10394  0.04813  0.99868  1.0000
  C   C139      1.0  0.15532  0.30866  0.39008  1.0000
  H   H159      1.0  0.21948  0.06471  0.16021  1.0000
  H   H160      1.0  0.17235  0.99143  0.09036  1.0000
  C   C140      1.0  0.18337  0.00055  0.08109  1.0000
  C   C141      1.0  0.21987  0.07518  0.16735  1.0000
  H   H161      1.0  0.22367  0.26294  0.14441  1.0000
  C   C142      1.0  0.22245  0.26892  0.05708  1.0000
  C   C143      1.0  0.22946  0.25801  0.12877  1.0000
  H   H162      1.0  0.98916  0.26770  0.21899  1.0000
  H   H163      1.0  0.20695  0.11061  0.47496  1.0000
  H   H164      1.0  0.22853  0.17871  0.27256  1.0000
  H   H165      1.0  0.22315  0.20846  0.15781  1.0000
  C   C144      1.0  0.15748  0.31509  0.33959  1.0000
  S   S33       1.0  0.12338  0.12042  0.98005  1.0000
  C   C145      1.0  0.23236  0.08140  0.17684  1.0000
  C   C146      1.0  0.19587  0.00135  0.79548  1.0000
  C   C147      1.0  0.17482  0.20950  0.85194  1.0000
  H   H166      1.0  0.09991  0.24919  0.48339  1.0000
  H   H167      1.0  0.17096  0.99349  0.57383  1.0000
  S   S34       1.0  0.99500  0.10486  0.96600  1.0000
  C   C148      1.0  0.20434  0.99008  0.83761  1.0000
  H   H168      1.0  0.10585  0.31931  0.53516  1.0000
  C   C149      1.0  0.99877  0.18485  0.71799  1.0000
  H   H169      1.0  0.22625  0.27492  0.76229  1.0000
  C   C150      1.0  0.01846  0.22951  0.74326  1.0000
  C   C151      1.0  0.09715  0.03655  0.96185  1.0000
  H   H170      1.0  0.14230  0.26615  0.69730  1.0000
  S   S35       1.0  0.98776  0.31200  0.83008  1.0000
  H   H171      1.0  0.20445  0.22958  0.91260  1.0000
  H   H172      1.0  0.15966  0.09963  0.88290  1.0000
  H   H173      1.0  0.98686  0.28041  0.68140  1.0000
  C   C152      1.0  0.23130  0.99948  0.83837  1.0000
  C   C153      1.0  0.13145  0.04977  0.91784  1.0000
  Fe  Fe17      1.0  0.21050  0.21827  0.72818  1.0000
  S   S36       1.0  0.18963  0.22770  0.73527  1.0000
  H   H174      1.0  0.14273  0.22129  0.56295  1.0000
  Fe  Fe18      1.0  0.19451  0.19208  0.70634  1.0000
  S   S37       1.0  0.17218  0.19935  0.71264  1.0000
  S   S38       1.0  0.19602  0.17000  0.69268  1.0000
  Fe  Fe19      1.0  0.18718  0.22357  0.69333  1.0000
  S   S39       1.0  0.18300  0.24184  0.65882  1.0000
  Fe  Fe20      1.0  0.17623  0.20271  0.75401  1.0000
  S   S40       1.0  0.15662  0.19753  0.79354  1.0000
  S   S41       1.0  0.20940  0.21610  0.68447  1.0000
  S   S42       1.0  0.19724  0.19347  0.74958  1.0000
  Fe  Fe21      1.0  0.11931  0.13255  0.93903  1.0000
  N   N11       1.0  0.99066  0.25943  0.67070  1.0000
  S   S43       1.0  0.14028  0.13948  0.90115  1.0000
  H   H175      1.0  0.12913  0.30577  0.50107  1.0000
  C   C154      1.0  0.19686  0.20905  0.81688  1.0000
  C   C155      1.0  0.04026  0.11184  0.96620  1.0000
  H   H176      1.0  0.16887  0.99404  0.83097  1.0000
  S   S44       1.0  0.09837  0.11390  0.94178  1.0000
  H   H177      1.0  0.13017  0.05540  0.84923  1.0000
  H   H178      1.0  0.98741  0.19049  0.77440  1.0000
  H   H179      1.0  0.98412  0.21273  0.79217  1.0000
  H   H180      1.0  0.09275  0.07364  0.95190  1.0000
  H   H181      1.0  0.15541  0.26996  0.66306  1.0000
  S   S45       1.0  0.23186  0.08302  0.62541  1.0000
  H   H182      1.0  0.21290  0.16165  0.53452  1.0000
  S   S46       1.0  0.19344  0.01327  0.64257  1.0000
  S   S47       1.0  0.10577  0.14689  0.95994  1.0000
  C   C156      1.0  0.20057  0.22642  0.84691  1.0000
  H   H183      1.0  0.14968  0.10406  0.85601  1.0000
  H   H184      1.0  0.18591  0.00114  0.78586  1.0000
  H   H185      1.0  0.21056  0.14211  0.53397  1.0000
  S   S48       1.0  0.09545  0.02124  0.94494  1.0000
  H   H186      1.0  0.18899  0.19501  0.65510  1.0000
  N   N12       1.0  0.13495  0.09351  0.89854  1.0000
  H   H187      1.0  0.99935  0.19485  0.70026  1.0000
  C   C157      1.0  0.00953  0.20217  0.74354  1.0000
  Fe  Fe22      1.0  0.09957  0.99730  0.95961  1.0000
  H   H188      1.0  0.18268  0.17264  0.63619  1.0000
  C   C158      1.0  0.01915  0.13008  0.96053  1.0000
  C   C159      1.0  0.18632  0.23137  0.81148  1.0000
  H   H189      1.0  0.18190  0.00443  0.84695  1.0000
  H   H190      1.0  0.14549  0.17931  0.61664  1.0000
  Fe  Fe23      1.0  0.08171  0.26091  0.59877  1.0000
  S   S49       1.0  0.09348  0.24831  0.57018  1.0000
  S   S50       1.0  0.05883  0.25362  0.63292  1.0000
  Fe  Fe24      1.0  0.11091  0.28843  0.58255  1.0000
  S   S51       1.0  0.12474  0.27766  0.55319  1.0000
  H   H191      1.0  0.00082  0.24584  0.69883  1.0000
  Fe  Fe25      1.0  0.10326  0.27168  0.53773  1.0000
  C   C160      1.0  0.02709  0.26938  0.60977  1.0000
  Fe  Fe26      1.0  0.11399  0.25529  0.58767  1.0000
  S   S52       1.0  0.12497  0.23658  0.60654  1.0000
  S   S53       1.0  0.09008  0.28376  0.56554  1.0000
  S   S54       1.0  0.10162  0.26652  0.61779  1.0000
  C   C161      1.0  0.03158  0.28519  0.64167  1.0000
  C   C162      1.0  0.15048  0.19157  0.60706  1.0000
  H   H192      1.0  0.22019  0.06680  0.58600  1.0000
  H   H193      1.0  0.00529  0.25354  0.61981  1.0000
  H   H194      1.0  0.15123  0.11590  0.87981  1.0000
  S   S55       1.0  0.99319  0.20860  0.64681  1.0000
  H   H195      1.0  0.02703  0.24056  0.73467  1.0000
  H   H196      1.0  0.19898  0.15323  0.51773  1.0000
  C   C163      1.0  0.01166  0.22052  0.64365  1.0000
  C   C164      1.0  0.01474  0.22710  0.66532  1.0000
  C   C165      1.0  0.02927  0.23714  0.66160  1.0000
  C   C166      1.0  0.04104  0.24038  0.63653  1.0000
  C   C167      1.0  0.03811  0.23347  0.61511  1.0000
  C   C168      1.0  0.02345  0.22366  0.61863  1.0000
  H   H197      1.0  0.00587  0.22453  0.68480  1.0000
  H   H198      1.0  0.03139  0.24263  0.67805  1.0000
  H   H199      1.0  0.04704  0.23589  0.59566  1.0000
  H   H200      1.0  0.02120  0.21856  0.60176  1.0000
  C   C169      1.0  0.03689  0.28055  0.61746  1.0000
  H   H201      1.0  0.18641  0.21636  0.89090  1.0000
  C   C170      1.0  0.20738  0.23150  0.88976  1.0000
  H   H202      1.0  0.13330  0.08218  0.85222  1.0000
  H   H203      1.0  0.00370  0.23798  0.77244  1.0000
  H   H204      1.0  0.13310  0.06658  0.94097  1.0000
  C   C171      1.0  0.22877  0.99305  0.74345  1.0000
  C   C172      1.0  0.03446  0.13688  0.96000  1.0000
  C   C173      1.0  0.00628  0.26686  0.65162  1.0000
  H   H205      1.0  0.22738  0.18486  0.69052  1.0000
  N   N13       1.0  0.18977  0.21915  0.83231  1.0000
  H   H206      1.0  0.21379  0.12673  0.50577  1.0000
  C   C174      1.0  0.01200  0.26255  0.62652  1.0000
  H   H207      1.0  0.08990  0.05141  0.93031  1.0000
  C   C175      1.0  0.22141  0.24158  0.87335  1.0000
  C   C176      1.0  0.21512  0.23645  0.83102  1.0000
  H   H208      1.0  0.13806  0.25527  0.67251  1.0000
  H   H209      1.0  0.13166  0.28907  0.62267  1.0000
  H   H210      1.0  0.14509  0.09224  0.93406  1.0000
  H   H211      1.0  0.16365  0.00127  0.97225  1.0000
  C   C177      1.0  0.20765  0.15277  0.65884  1.0000
  C   C178      1.0  0.15185  0.18087  0.82258  1.0000
  C   C179      1.0  0.13878  0.17850  0.84501  1.0000
  C   C180      1.0  0.13499  0.16582  0.86914  1.0000
  C   C181      1.0  0.14434  0.15546  0.87110  1.0000
  C   C182      1.0  0.15745  0.15787  0.84871  1.0000
  C   C183      1.0  0.16120  0.17051  0.82452  1.0000
  H   H212      1.0  0.13153  0.18651  0.84373  1.0000
  H   H213      1.0  0.12488  0.16409  0.88623  1.0000
  H   H214      1.0  0.16477  0.14993  0.85008  1.0000
  H   H215      1.0  0.17133  0.17225  0.80747  1.0000
  C   C184      1.0  0.14054  0.23888  0.62256  1.0000
  C   C185      1.0  0.14089  0.22671  0.64486  1.0000
  C   C186      1.0  0.15363  0.22758  0.65669  1.0000
  C   C187      1.0  0.16631  0.24051  0.64585  1.0000
  C   C188      1.0  0.16596  0.25269  0.62357  1.0000
  C   C189      1.0  0.15313  0.25192  0.61201  1.0000
  H   H216      1.0  0.13130  0.21648  0.65287  1.0000
  H   H217      1.0  0.15370  0.21819  0.67397  1.0000
  H   H218      1.0  0.17578  0.26268  0.61491  1.0000
  H   H219      1.0  0.15323  0.26115  0.59428  1.0000
  H   H220      1.0  0.18873  0.20291  0.80665  1.0000
  C   C190      1.0  0.22529  0.24400  0.84406  1.0000
  H   H221      1.0  0.17527  0.32072  0.65664  1.0000
  C   C191      1.0  0.22110  0.06375  0.62943  1.0000
  C   C192      1.0  0.21675  0.05307  0.65636  1.0000
  C   C193      1.0  0.20829  0.03764  0.66075  1.0000
  C   C194      1.0  0.20408  0.03264  0.63819  1.0000
  C   C195      1.0  0.20848  0.04330  0.61121  1.0000
  C   C196      1.0  0.21692  0.05876  0.60683  1.0000
  H   H222      1.0  0.01167  0.16475  0.74823  1.0000
  H   H223      1.0  0.20499  0.02962  0.68161  1.0000
  H   H224      1.0  0.21903  0.25209  0.74362  1.0000
  C   C197      1.0  0.22915  0.25375  0.75167  1.0000
  Fe  Fe27      1.0  0.08488  0.12734  0.96611  1.0000
  C   C198      1.0  0.13033  0.04633  0.89242  1.0000
  C   C199      1.0  0.17833  0.99323  0.84168  1.0000
  C   C200      1.0  0.20712  0.16780  0.66088  1.0000
  C   C201      1.0  0.21476  0.18042  0.63732  1.0000
  H   H225      1.0  0.99955  0.17479  0.70899  1.0000
  H   H226      1.0  0.12424  0.08852  0.94330  1.0000
  H   H227      1.0  0.11058  0.09133  0.90491  1.0000
  H   H228      1.0  0.21476  0.19209  0.63868  1.0000
  H   H229      1.0  0.19985  0.01339  0.79713  1.0000
  C   C202      1.0  0.00949  0.17487  0.75605  1.0000
  C   C203      1.0  0.02611  0.19116  0.71152  1.0000
  H   H230      1.0  0.04834  0.10475  0.96821  1.0000
  C   C204      1.0  0.13354  0.07729  0.89683  1.0000
  S   S56       1.0  0.22964  0.11850  0.55893  1.0000
  H   H231      1.0  0.03099  0.21877  0.71631  1.0000
  N   N14       1.0  0.01109  0.18858  0.73239  1.0000
  C   C205      1.0  0.16977  0.21562  0.59882  1.0000
  C   C206      1.0  0.13510  0.09549  0.92723  1.0000
  H   H232      1.0  0.12230  0.11103  0.89260  1.0000
  H   H233      1.0  0.21871  0.23864  0.80830  1.0000
  C   C207      1.0  0.14301  0.19935  0.58909  1.0000
  C   C208      1.0  0.13281  0.98923  0.82747  1.0000
  C   C209      1.0  0.12178  0.09896  0.89082  1.0000
  C   C210      1.0  0.16296  0.31534  0.66371  1.0000
  H   H234      1.0  0.17634  0.19937  0.86702  1.0000
  H   H235      1.0  0.20737  0.21571  0.79961  1.0000
  H   H236      1.0  0.11529  0.27068  0.69945  1.0000
  H   H237      1.0  0.98740  0.23726  0.66083  1.0000
  C   C211      1.0  0.14950  0.10366  0.87844  1.0000
  H   H238      1.0  0.01115  0.13721  0.95803  1.0000
  H   H239      1.0  0.13146  0.31225  0.53157  1.0000
  H   H240      1.0  0.22677  0.18227  0.49662  1.0000
  C   C212      1.0  0.01648  0.27853  0.65849  1.0000
  H   H241      1.0  0.12492  0.99195  0.86961  1.0000
  S   S57       1.0  0.06420  0.13715  0.96168  1.0000
  C   C213      1.0  0.16391  0.19954  0.61302  1.0000
  C   C214      1.0  0.13358  0.31619  0.50809  1.0000
  N   N15       1.0  0.17122  0.19116  0.63310  1.0000
  C   C215      1.0  0.18417  0.20150  0.63906  1.0000
  C   C216      1.0  0.15968  0.18318  0.66064  1.0000
  C   C217      1.0  0.17734  0.17935  0.62132  1.0000
  H   H242      1.0  0.22773  0.18767  0.59336  1.0000
  C   C218      1.0  0.09551  0.06311  0.96155  1.0000
  C   C219      1.0  0.14886  0.21515  0.57605  1.0000
  H   H243      1.0  0.12858  0.99863  0.81733  1.0000
  S   S58       1.0  0.12262  0.99302  0.96293  1.0000
  H   H244      1.0  0.20531  0.03959  0.59359  1.0000
  H   H245      1.0  0.19393  0.20702  0.61981  1.0000
  H   H246      1.0  0.18035  0.21080  0.64773  1.0000
  S   S59       1.0  0.18534  0.99468  0.72887  1.0000
  H   H247      1.0  0.15411  0.19153  0.66944  1.0000
  H   H248      1.0  0.16506  0.17748  0.67671  1.0000
  H   H249      1.0  0.15041  0.17379  0.65898  1.0000
  C   C220      1.0  0.02061  0.21679  0.73289  1.0000
  H   H250      1.0  0.16818  0.17074  0.61736  1.0000
  H   H251      1.0  0.18634  0.18485  0.60094  1.0000
  C   C221      1.0  0.21071  0.15367  0.52089  1.0000
  H   H252      1.0  0.13244  0.19319  0.58566  1.0000
  H   H253      1.0  0.01293  0.28233  0.67730  1.0000
  C   C222      1.0  0.99437  0.21389  0.77566  1.0000
  C   C223      1.0  0.13111  0.05815  0.86896  1.0000
  C   C224      1.0  0.13718  0.31713  0.68272  1.0000
  H   H254      1.0  0.16679  0.20461  0.84032  1.0000
  H   H255      1.0  0.13047  0.04042  0.93619  1.0000
  H   H256      1.0  0.03813  0.14928  0.95701  1.0000
  H   H257      1.0  0.18654  0.99954  0.58845  1.0000
  H   H258      1.0  0.03596  0.19411  0.72088  1.0000
  H   H259      1.0  0.03144  0.26549  0.59135  1.0000
  C   C225      1.0  0.21949  0.99978  0.82459  1.0000
  C   C226      1.0  0.99641  0.20113  0.76540  1.0000
  S   S60       1.0  0.10457  0.28100  0.49037  1.0000
  H   H260      1.0  0.99005  0.26861  0.89049  1.0000
  H   H261      1.0  0.13608  0.10776  0.92785  1.0000
  H   H262      1.0  0.18172  0.23974  0.82187  1.0000
  C   C227      1.0  0.99195  0.25255  0.69959  1.0000
  S   S61       1.0  0.11677  0.31242  0.59048  1.0000
  H   H263      1.0  0.17761  0.22631  0.80111  1.0000
  C   C228      1.0  0.16231  0.22321  0.58059  1.0000
  C   C229      1.0  0.00535  0.22808  0.76453  1.0000
  H   H264      1.0  0.99764  0.17068  0.77053  1.0000
  H   H265      1.0  0.02754  0.20059  0.69209  1.0000
  H   H266      1.0  0.22267  0.00753  0.80353  1.0000
  H   H267      1.0  0.11871  0.29855  0.68481  1.0000
  C   C230      1.0  0.13279  0.07343  0.87099  1.0000
  C   C231      1.0  0.13292  0.06496  0.92026  1.0000
  H   H268      1.0  0.11110  0.27903  0.66644  1.0000
  C   C232      1.0  0.15705  0.30079  0.65992  1.0000
  C   C233      1.0  0.02493  0.10504  0.96672  1.0000
  H   H269      1.0  0.17982  0.22277  0.60207  1.0000
  C   C234      1.0  0.19706  0.22398  0.87688  1.0000
  H   H270      1.0  0.15003  0.28467  0.62073  1.0000
  H   H271      1.0  0.20182  0.14293  0.67693  1.0000
  N   N16       1.0  0.22261  0.15863  0.49329  1.0000
  H   H272      1.0  0.12854  0.03441  0.89116  1.0000
  H   H273      1.0  0.04877  0.28529  0.60501  1.0000
  H   H274      1.0  0.16872  0.21644  0.86395  1.0000
  H   H275      1.0  0.20023  0.20007  0.83149  1.0000
  Fe  Fe28      1.0  0.18430  0.99419  0.68442  1.0000
  C   C235      1.0  0.21549  0.15030  0.63348  1.0000
  H   H276      1.0  0.12154  0.09928  0.86861  1.0000
  H   H277      1.0  0.21984  0.05678  0.67404  1.0000
  H   H278      1.0  0.21561  0.13863  0.63217  1.0000
  H   H279      1.0  0.16662  0.23559  0.57084  1.0000
  N   N17       1.0  0.13492  0.27857  0.66296  1.0000
  C   C236      1.0  0.11813  0.27187  0.67622  1.0000
  C   C237      1.0  0.13756  0.28050  0.63205  1.0000
  C   C238      1.0  0.14302  0.26707  0.67449  1.0000
  C   C239      1.0  0.14093  0.29380  0.66794  1.0000
  C   C240      1.0  0.13112  0.30254  0.67916  1.0000
  H   H280      1.0  0.99504  0.26143  0.71101  1.0000
  H   H281      1.0  0.13300  0.26938  0.62721  1.0000
  H   H282      1.0  0.14911  0.31073  0.58220  1.0000
  H   H283      1.0  0.11410  0.26011  0.67321  1.0000
  H   H284      1.0  0.19667  0.23810  0.79398  1.0000
  C   C241      1.0  0.22257  0.16282  0.60959  1.0000
  C   C242      1.0  0.14770  0.32030  0.59117  1.0000
  C   C243      1.0  0.04511  0.12783  0.96266  1.0000
  C   C244      1.0  0.22220  0.17790  0.61167  1.0000
  H   H285      1.0  0.03933  0.29377  0.64770  1.0000
  H   H286      1.0  0.02706  0.18066  0.70401  1.0000
  H   H287      1.0  0.01767  0.17757  0.76903  1.0000
  H   H288      1.0  0.16522  0.29529  0.64987  1.0000
  C   C245      1.0  0.09380  0.05044  0.94947  1.0000
  H   H289      1.0  0.18935  0.01911  0.96369  1.0000
  H   H290      1.0  0.20504  0.99882  0.78007  1.0000
  H   H291      1.0  0.10453  0.31202  0.50531  1.0000
  H   H292      1.0  0.98473  0.27190  0.85755  1.0000
  H   H293      1.0  0.22931  0.24756  0.88331  1.0000
  H   H294      1.0  0.98709  0.18175  0.73267  1.0000
  H   H295      1.0  0.02129  0.09267  0.96928  1.0000
  H   H296      1.0  0.08451  0.16875  0.97494  1.0000
  N   N18       1.0  0.19158  0.98983  0.82357  1.0000
  S   S62       1.0  0.23091  0.16001  0.57633  1.0000
  C   C246      1.0  0.22436  0.17545  0.48126  1.0000
  C   C247      1.0  0.21393  0.13252  0.48444  1.0000
  H   H297      1.0  0.14629  0.32006  0.49886  1.0000
  C   C248      1.0  0.01432  0.11411  0.96385  1.0000
  C   C249      1.0  0.22848  0.98951  0.86522  1.0000
  H   H298      1.0  0.22300  0.99683  0.72741  1.0000
  C   C250      1.0  0.18033  0.98960  0.58194  1.0000
  H   H299      1.0  0.06440  0.16503  0.97880  1.0000
  Fe  Fe29      1.0  0.16889  0.38598  0.30194  1.0000
  S   S63       1.0  0.18106  0.39349  0.25569  1.0000
  S   S64       1.0  0.15142  0.36244  0.32434  1.0000
  Fe  Fe30      1.0  0.18572  0.41688  0.31189  1.0000
  S   S65       1.0  0.19886  0.42642  0.26599  1.0000
  S   S66       1.0  0.18681  0.42958  0.34687  1.0000
  Fe  Fe31      1.0  0.17647  0.41666  0.25645  1.0000
  S   S67       1.0  0.17032  0.42968  0.21814  1.0000
  Fe  Fe32      1.0  0.20239  0.40251  0.26889  1.0000
  H   H300      1.0  0.03724  0.48303  0.15417  1.0000
  S   S68       1.0  0.16283  0.40881  0.30210  1.0000
  S   S69       1.0  0.19065  0.39331  0.31555  1.0000
  H   H301      1.0  0.13503  0.38448  0.29317  1.0000
  C   C251      1.0  0.06962  0.37028  0.09640  1.0000
  S   S70       1.0  0.21426  0.52680  0.45027  1.0000
  H   H302      1.0  0.03832  0.32855  0.03861  1.0000
  C   C252      1.0  0.22825  0.60166  0.42720  1.0000
  H   H303      1.0  0.99725  0.62146  0.15729  1.0000
  H   H304      1.0  0.09381  0.34798  0.33186  1.0000
  Fe  Fe33      1.0  0.03529  0.52359  0.28126  1.0000
  S   S71       1.0  0.04785  0.53033  0.23514  1.0000
  S   S72       1.0  0.00903  0.51353  0.29470  1.0000
  Fe  Fe34      1.0  0.06468  0.53823  0.29853  1.0000
  S   S73       1.0  0.07855  0.54607  0.25316  1.0000
  S   S74       1.0  0.07799  0.53969  0.33274  1.0000
  Fe  Fe35      1.0  0.05796  0.55314  0.24275  1.0000
  S   S75       1.0  0.05956  0.57454  0.20860  1.0000
  Fe  Fe36      1.0  0.06725  0.52254  0.24987  1.0000
  S   S76       1.0  0.08352  0.51028  0.22841  1.0000
  S   S77       1.0  0.04452  0.54706  0.28835  1.0000
  S   S78       1.0  0.05415  0.51406  0.29580  1.0000
  Fe  Fe37      1.0  0.15704  0.61482  0.42378  1.0000
  S   S79       1.0  0.16291  0.59434  0.44918  1.0000
  S   S80       1.0  0.16656  0.64070  0.42150  1.0000
  Fe  Fe38      1.0  0.13483  0.59319  0.39965  1.0000
  S   S81       1.0  0.13973  0.57159  0.42314  1.0000
  S   S82       1.0  0.11760  0.59361  0.37199  1.0000
  Fe  Fe39      1.0  0.13756  0.58238  0.45989  1.0000
  H   H305      1.0  0.14276  0.34144  0.24372  1.0000
  Fe  Fe40      1.0  0.16454  0.58537  0.41037  1.0000
  S   S83       1.0  0.18519  0.57790  0.38876  1.0000
  S   S84       1.0  0.13135  0.60336  0.43732  1.0000
  S   S85       1.0  0.15990  0.60646  0.38410  1.0000
  Fe  Fe41      1.0  0.09305  0.42297  0.17324  1.0000
  S   S86       1.0  0.06761  0.42072  0.18136  1.0000
  S   S87       1.0  0.10059  0.41328  0.21242  1.0000
  Fe  Fe42      1.0  0.09819  0.43729  0.11048  1.0000
  S   S88       1.0  0.07314  0.43634  0.11355  1.0000
  S   S89       1.0  0.11631  0.44408  0.06883  1.0000
  Fe  Fe43      1.0  0.07389  0.44475  0.15266  1.0000
  S   S90       1.0  0.05887  0.46004  0.16712  1.0000
  Fe  Fe44      1.0  0.06877  0.41244  0.14203  1.0000
  S   S91       1.0  0.05064  0.39079  0.14508  1.0000
  S   S92       1.0  0.09945  0.44780  0.14712  1.0000
  S   S93       1.0  0.09375  0.41263  0.13629  1.0000
  H   H306      1.0  0.21598  0.63400  0.40096  1.0000
  S   S94       1.0  0.10120  0.63944  0.20509  1.0000
  S   S95       1.0  0.02351  0.37712  0.04319  1.0000
  C   C253      1.0  0.22468  0.58527  0.43218  1.0000
  C   C254      1.0  0.12235  0.46376  0.05000  1.0000
  C   C255      1.0  0.11577  0.47479  0.05996  1.0000
  C   C256      1.0  0.12054  0.49039  0.04403  1.0000
  C   C257      1.0  0.13180  0.49498  0.01808  1.0000
  C   C258      1.0  0.13844  0.48397  0.00824  1.0000
  C   C259      1.0  0.13371  0.46839  0.02417  1.0000
  H   H307      1.0  0.10697  0.47129  0.07985  1.0000
  H   H308      1.0  0.11540  0.49889  0.05179  1.0000
  C   C260      1.0  0.02939  0.48807  0.16634  1.0000
  H   H309      1.0  0.21057  0.42319  0.13061  1.0000
  C   C261      1.0  0.03013  0.38159  0.07208  1.0000
  C   C262      1.0  0.02356  0.37221  0.09978  1.0000
  C   C263      1.0  0.02984  0.37535  0.12196  1.0000
  C   C264      1.0  0.04245  0.38812  0.11685  1.0000
  C   C265      1.0  0.04865  0.39788  0.08936  1.0000
  C   C266      1.0  0.04258  0.39453  0.06701  1.0000
  H   H310      1.0  0.01371  0.36248  0.10414  1.0000
  H   H311      1.0  0.02488  0.36785  0.14323  1.0000
  H   H312      1.0  0.05838  0.40773  0.08522  1.0000
  H   H313      1.0  0.04767  0.40188  0.04569  1.0000
  H   H314      1.0  0.19201  0.63329  0.44539  1.0000
  C   C267      1.0  0.08944  0.55515  0.34189  1.0000
  C   C268      1.0  0.08680  0.56996  0.33763  1.0000
  C   C269      1.0  0.09564  0.58158  0.34670  1.0000
  C   C270      1.0  0.10719  0.57858  0.36024  1.0000
  C   C271      1.0  0.10989  0.56380  0.36436  1.0000
  C   C272      1.0  0.10102  0.55217  0.35536  1.0000
  H   H315      1.0  0.07781  0.57241  0.32770  1.0000
  H   H316      1.0  0.09341  0.59296  0.34343  1.0000
  H   H317      1.0  0.11873  0.56127  0.37468  1.0000
  H   H318      1.0  0.10309  0.54072  0.35903  1.0000
  C   C273      1.0  0.07647  0.49664  0.21096  1.0000
  C   C274      1.0  0.06065  0.49048  0.21552  1.0000
  C   C275      1.0  0.05539  0.47917  0.20210  1.0000
  C   C276      1.0  0.06589  0.47417  0.18367  1.0000
  C   C277      1.0  0.08171  0.48039  0.17899  1.0000
  C   C278      1.0  0.08698  0.49147  0.19286  1.0000
  H   H319      1.0  0.05246  0.49430  0.22963  1.0000
  H   H320      1.0  0.04315  0.47418  0.20631  1.0000
  H   H321      1.0  0.08987  0.47675  0.16455  1.0000
  H   H322      1.0  0.09923  0.49619  0.18931  1.0000
  C   C279      1.0  0.07155  0.59229  0.20778  1.0000
  C   C280      1.0  0.07605  0.59476  0.23185  1.0000
  C   C281      1.0  0.08509  0.60935  0.23085  1.0000
  C   C282      1.0  0.08972  0.62142  0.20580  1.0000
  C   C283      1.0  0.08529  0.61891  0.18172  1.0000
  C   C284      1.0  0.07612  0.60440  0.18280  1.0000
  H   H323      1.0  0.07230  0.58552  0.25132  1.0000
  H   H324      1.0  0.08831  0.61139  0.24962  1.0000
  H   H325      1.0  0.08900  0.62812  0.16224  1.0000
  H   H326      1.0  0.07262  0.60250  0.16416  1.0000
  C   C285      1.0  0.99791  0.50008  0.28086  1.0000
  C   C286      1.0  0.00323  0.48785  0.27307  1.0000
  H   H327      1.0  0.10538  0.47116  0.00759  1.0000
  H   H328      1.0  0.01478  0.48704  0.27366  1.0000
  C   C287      1.0  0.08669  0.45100  0.02307  1.0000
  C   C288      1.0  0.20633  0.54090  0.43239  1.0000
  C   C289      1.0  0.19312  0.54407  0.44750  1.0000
  C   C290      1.0  0.18635  0.55518  0.43431  1.0000
  C   C291      1.0  0.19275  0.56322  0.40579  1.0000
  C   C292      1.0  0.20597  0.56006  0.39061  1.0000
  C   C293      1.0  0.21281  0.54901  0.40387  1.0000
  C   C294      1.0  0.19316  0.64561  0.44163  1.0000
  H   H329      1.0  0.17625  0.55760  0.44629  1.0000
  H   H330      1.0  0.21108  0.56637  0.36859  1.0000
  H   H331      1.0  0.22317  0.54694  0.39214  1.0000
  Fe  Fe45      1.0  0.98342  0.65489  0.09804  1.0000
  H   H332      1.0  0.06462  0.53972  0.42752  1.0000
  C   C295      1.0  0.21468  0.45261  0.32675  1.0000
  C   C296      1.0  0.20128  0.44541  0.34873  1.0000
  C   C297      1.0  0.19921  0.45087  0.37322  1.0000
  C   C298      1.0  0.21032  0.46333  0.37575  1.0000
  C   C299      1.0  0.20808  0.42751  0.14979  1.0000
  H   H333      1.0  0.21650  0.44859  0.30778  1.0000
  H   H334      1.0  0.18884  0.44551  0.39025  1.0000
  H   H335      1.0  0.20826  0.46760  0.39437  1.0000
  H   H336      1.0  0.16506  0.48553  0.39493  1.0000
  C   C300      1.0  0.15082  0.42565  0.21700  1.0000
  C   C301      1.0  0.13907  0.41672  0.24089  1.0000
  C   C302      1.0  0.12367  0.41334  0.23930  1.0000
  C   C303      1.0  0.11993  0.41876  0.21380  1.0000
  C   C304      1.0  0.13161  0.42794  0.19001  1.0000
  C   C305      1.0  0.14703  0.43141  0.19166  1.0000
  H   H337      1.0  0.14186  0.41239  0.26057  1.0000
  H   H338      1.0  0.11466  0.40629  0.25783  1.0000
  H   H339      1.0  0.12883  0.43219  0.17025  1.0000
  H   H340      1.0  0.15606  0.43841  0.17313  1.0000
  C   C306      1.0  0.14261  0.34874  0.30792  1.0000
  C   C307      1.0  0.14683  0.35070  0.27858  1.0000
  H   H341      1.0  0.15580  0.36072  0.26522  1.0000
  N   N19       1.0  0.07268  0.55836  0.44528  1.0000
  H   H342      1.0  0.21308  0.44142  0.19004  1.0000
  C   C308      1.0  0.10189  0.35595  0.31293  1.0000
  H   H343      1.0  0.19728  0.59281  0.43026  1.0000
  C   C309      1.0  0.21290  0.42889  0.19449  1.0000
  H   H344      1.0  0.05124  0.32511  0.10346  1.0000
  C   C310      1.0  0.14376  0.56307  0.98761  1.0000
  H   H345      1.0  0.04037  0.65123  0.22090  1.0000
  H   H346      1.0  0.98747  0.45299  0.16394  1.0000
  H   H347      1.0  0.08886  0.44831  0.04391  1.0000
  H   H348      1.0  0.04898  0.54644  0.46727  1.0000
  H   H349      1.0  0.19414  0.50309  0.43097  1.0000
  H   H350      1.0  0.10953  0.49554  0.98144  1.0000
  H   H351      1.0  0.01247  0.45378  0.21500  1.0000
  C   C311      1.0  0.05761  0.35461  0.06856  1.0000
  H   H352      1.0  0.17242  0.51264  0.39265  1.0000
  C   C312      1.0  0.21991  0.60874  0.38442  1.0000
  H   H353      1.0  0.99495  0.47343  0.14679  1.0000
  C   C313      1.0  0.13884  0.34951  0.45285  1.0000
  H   H354      1.0  0.22585  0.40478  0.18800  1.0000
  C   C314      1.0  0.08184  0.57479  0.43474  1.0000
  H   H355      1.0  0.19575  0.42186  0.16128  1.0000
  H   H356      1.0  0.22053  0.42400  0.46182  1.0000
  H   H357      1.0  0.14134  0.55141  0.98485  1.0000
  C   C315      1.0  0.03986  0.63917  0.23254  1.0000
  C   C316      1.0  0.13248  0.56783  0.00445  1.0000
  C   C317      1.0  0.11438  0.36663  0.31538  1.0000
  C   C318      1.0  0.01743  0.63500  0.20083  1.0000
  H   H358      1.0  0.15222  0.62126  0.03131  1.0000
  C   C319      1.0  0.21336  0.54764  0.98815  1.0000
  H   H359      1.0  0.20559  0.40077  0.19067  1.0000
  N   N20       1.0  0.04711  0.34019  0.06763  1.0000
  H   H360      1.0  0.11882  0.34583  0.23094  1.0000
  H   H361      1.0  0.17469  0.49003  0.99275  1.0000
  S   S96       1.0  0.22382  0.39640  0.24751  1.0000
  C   C320      1.0  0.13551  0.58292  0.00770  1.0000
  H   H362      1.0  0.03185  0.52078  0.18947  1.0000
  C   C321      1.0  0.14242  0.35412  0.42318  1.0000
  S   S97       1.0  0.13744  0.51456  0.99850  1.0000
  H   H363      1.0  0.13229  0.38366  0.24644  1.0000
  C   C322      1.0  0.17196  0.51143  0.02075  1.0000
  C   C323      1.0  0.00228  0.45356  0.20603  1.0000
  H   H364      1.0  0.17697  0.34568  0.35768  1.0000
  C   C324      1.0  0.07564  0.38028  0.04566  1.0000
  C   C325      1.0  0.07755  0.38198  0.07185  1.0000
  H   H365      1.0  0.99750  0.44141  0.20564  1.0000
  H   H366      1.0  0.04214  0.34918  0.02790  1.0000
  C   C326      1.0  0.14940  0.60934  0.02828  1.0000
  N   N21       1.0  0.21850  0.42434  0.16818  1.0000
  H   H367      1.0  0.18811  0.53793  0.46963  1.0000
  C   C327      1.0  0.22380  0.47046  0.35386  1.0000
  C   C328      1.0  0.09612  0.46410  0.00207  1.0000
  H   H368      1.0  0.20919  0.44020  0.14261  1.0000
  H   H369      1.0  0.16932  0.51927  0.00309  1.0000
  H   H370      1.0  0.21984  0.42626  0.20983  1.0000
  H   H371      1.0  0.10619  0.34793  0.20805  1.0000
  H   H372      1.0  0.14717  0.48741  0.98838  1.0000
  C   C329      1.0  0.01716  0.61450  0.16655  1.0000
  C   C330      1.0  0.02676  0.50971  0.18625  1.0000
  H   H373      1.0  0.06260  0.43706  0.98601  1.0000
  C   C331      1.0  0.15007  0.59369  0.99439  1.0000
  H   H374      1.0  0.21282  0.61526  0.37338  1.0000
  H   H375      1.0  0.19508  0.61195  0.42058  1.0000
  H   H376      1.0  0.21477  0.44732  0.43427  1.0000
  N   N22       1.0  0.21879  0.61071  0.41341  1.0000
  H   H377      1.0  0.04933  0.64033  0.24342  1.0000
  C   C332      1.0  0.05689  0.55830  0.46046  1.0000
  H   H378      1.0  0.04584  0.60620  0.21629  1.0000
  H   H379      1.0  0.02841  0.39008  0.98170  1.0000
  C   C333      1.0  0.99335  0.47622  0.26581  1.0000
  H   H380      1.0  0.05793  0.33989  0.02512  1.0000
  H   H381      1.0  0.02100  0.46639  0.13618  1.0000
  C   C334      1.0  0.09603  0.54906  0.45247  1.0000
  H   H382      1.0  0.02879  0.63439  0.24931  1.0000
  N   N23       1.0  0.08729  0.44759  0.24789  1.0000
  C   C335      1.0  0.07119  0.44827  0.24814  1.0000
  C   C336      1.0  0.09571  0.44941  0.21824  1.0000
  C   C337      1.0  0.08657  0.43192  0.26517  1.0000
  C   C338      1.0  0.09555  0.45973  0.25880  1.0000
  C   C339      1.0  0.08927  0.47194  0.26566  1.0000
  C   C340      1.0  0.11071  0.45999  0.26159  1.0000
  C   C341      1.0  0.09761  0.48346  0.27514  1.0000
  C   C342      1.0  0.11892  0.47155  0.27118  1.0000
  C   C343      1.0  0.11237  0.48325  0.27798  1.0000
  H   H383      1.0  0.07085  0.45935  0.23413  1.0000
  H   H384      1.0  0.06524  0.43894  0.23995  1.0000
  H   H385      1.0  0.06418  0.44696  0.26992  1.0000
  H   H386      1.0  0.09746  0.46137  0.20492  1.0000
  H   H387      1.0  0.08932  0.44120  0.20855  1.0000
  H   H388      1.0  0.10729  0.44709  0.21659  1.0000
  H   H389      1.0  0.09813  0.42956  0.26322  1.0000
  H   H390      1.0  0.08120  0.43041  0.28800  1.0000
  H   H391      1.0  0.07978  0.42259  0.25811  1.0000
  H   H392      1.0  0.07805  0.47310  0.26341  1.0000
  H   H393      1.0  0.11643  0.45137  0.25590  1.0000
  H   H394      1.0  0.09260  0.49276  0.27980  1.0000
  H   H395      1.0  0.13050  0.47151  0.27303  1.0000
  H   H396      1.0  0.11879  0.49228  0.28515  1.0000
  N   N24       1.0  0.19352  0.50510  0.38727  1.0000
  C   C344      1.0  0.21031  0.51272  0.37878  1.0000
  C   C345      1.0  0.18960  0.49601  0.41740  1.0000
  C   C346      1.0  0.18892  0.49485  0.36946  1.0000
  H   H397      1.0  0.12627  0.58615  0.02045  1.0000
  C   C347      1.0  0.19924  0.49405  0.34458  1.0000
  H   H398      1.0  0.15620  0.60250  0.03943  1.0000
  C   C348      1.0  0.20042  0.51978  0.00204  1.0000
  H   H399      1.0  0.12744  0.33399  0.34754  1.0000
  H   H400      1.0  0.21725  0.50401  0.37894  1.0000
  H   H401      1.0  0.21396  0.52100  0.35732  1.0000
  H   H402      1.0  0.21361  0.51955  0.39355  1.0000
  C   C349      1.0  0.07200  0.44465  0.99042  1.0000
  H   H403      1.0  0.20075  0.42243  0.20563  1.0000
  H   H404      1.0  0.05912  0.62940  0.17626  1.0000
  H   H405      1.0  0.08290  0.55239  0.40750  1.0000
  H   H406      1.0  0.21109  0.50083  0.33716  1.0000
  C   C350      1.0  0.98273  0.50074  0.28040  1.0000
  C   C351      1.0  0.17367  0.48526  0.37680  1.0000
  H   H407      1.0  0.14914  0.36582  0.41164  1.0000
  C   C352      1.0  0.12875  0.32874  0.42272  1.0000
  H   H408      1.0  0.03734  0.61014  0.17769  1.0000
  Fe  Fe46      1.0  0.00420  0.35563  0.04941  1.0000
  C   C353      1.0  0.07461  0.44133  0.01731  1.0000
  C   C354      1.0  0.16928  0.47490  0.36117  1.0000
  N   N25       1.0  0.00657  0.46451  0.17743  1.0000
  C   C355      1.0  0.05980  0.35680  0.09489  1.0000
  C   C356      1.0  0.00585  0.62265  0.16924  1.0000
  H   H409      1.0  0.03531  0.64465  0.10526  1.0000
  H   H410      1.0  0.12128  0.55979  0.01478  1.0000
  H   H411      1.0  0.16716  0.32691  0.40511  1.0000
  N   N26       1.0  0.15288  0.60970  0.99775  1.0000
  C   C357      1.0  0.16671  0.32982  0.33659  1.0000
  H   H412      1.0  0.18826  0.52537  0.39851  1.0000
  H   H413      1.0  0.06638  0.63855  0.20089  1.0000
  C   C358      1.0  0.03580  0.50255  0.16995  1.0000
  C   C359      1.0  0.17014  0.33406  0.36015  1.0000
  H   H414      1.0  0.05619  0.64798  0.17840  1.0000
  H   H415      1.0  0.99740  0.63951  0.18761  1.0000
  S   S98       1.0  0.22509  0.49067  0.43409  1.0000
  H   H416      1.0  0.13878  0.45985  0.01641  1.0000
  H   H417      1.0  0.06425  0.32729  0.06974  1.0000
  C   C360      1.0  0.13090  0.33559  0.32487  1.0000
  H   H418      1.0  0.21500  0.57914  0.42636  1.0000
  H   H419      1.0  0.11782  0.37522  0.18793  1.0000
  C   C361      1.0  0.16904  0.61905  0.98454  1.0000
  H   H420      1.0  0.09339  0.57619  0.42070  1.0000
  H   H421      1.0  0.20265  0.41111  0.38922  1.0000
  H   H422      1.0  0.98304  0.46666  0.18266  1.0000
  H   H423      1.0  0.06728  0.43122  0.03374  1.0000
  H   H424      1.0  0.17659  0.46562  0.32594  1.0000
  C   C362      1.0  0.22732  0.45270  0.42966  1.0000
  S   S99       1.0  0.99210  0.33617  0.08846  1.0000
  N   N27       1.0  0.04171  0.62909  0.21297  1.0000
  C   C363      1.0  0.04645  0.33948  0.03847  1.0000
  C   C364      1.0  0.21713  0.40739  0.17639  1.0000
  H   H425      1.0  0.13028  0.61216  0.99427  1.0000
  H   H426      1.0  0.02682  0.34861  0.07391  1.0000
  H   H427      1.0  0.99752  0.46661  0.26074  1.0000
  H   H428      1.0  0.14314  0.35813  0.46307  1.0000
  H   H429      1.0  0.99265  0.48276  0.20601  1.0000
  H   H430      1.0  0.05178  0.61537  0.24144  1.0000
  H   H431      1.0  0.03043  0.33921  0.10619  1.0000
  H   H432      1.0  0.21560  0.59641  0.38459  1.0000
  N   N28       1.0  0.11811  0.58253  0.24352  1.0000
  C   C365      1.0  0.10651  0.58450  0.26718  1.0000
  C   C366      1.0  0.13370  0.58991  0.24522  1.0000
  C   C367      1.0  0.11561  0.59101  0.21662  1.0000
  C   C368      1.0  0.11686  0.56583  0.24572  1.0000
  C   C369      1.0  0.11564  0.55537  0.27208  1.0000
  C   C370      1.0  0.11712  0.55952  0.22198  1.0000
  C   C371      1.0  0.11364  0.53946  0.27493  1.0000
  C   C372      1.0  0.11528  0.54359  0.22504  1.0000
  C   C373      1.0  0.11334  0.53357  0.25149  1.0000
  H   H433      1.0  0.10924  0.58122  0.28790  1.0000
  H   H434      1.0  0.10595  0.59679  0.26439  1.0000
  H   H435      1.0  0.09476  0.57735  0.26914  1.0000
  H   H436      1.0  0.13517  0.60252  0.24367  1.0000
  H   H437      1.0  0.14279  0.58869  0.22786  1.0000
  H   H438      1.0  0.13595  0.58453  0.26566  1.0000
  H   H439      1.0  0.10429  0.58541  0.21364  1.0000
  H   H440      1.0  0.11553  0.60327  0.21624  1.0000
  H   H441      1.0  0.12493  0.59173  0.19784  1.0000
  H   H442      1.0  0.11577  0.55927  0.29099  1.0000
  H   H443      1.0  0.11815  0.56650  0.20102  1.0000
  H   H444      1.0  0.11182  0.53163  0.29566  1.0000
  H   H445      1.0  0.11465  0.53882  0.20707  1.0000
  H   H446      1.0  0.11613  0.36691  0.33607  1.0000
  N   N29       1.0  0.10804  0.36461  0.23288  1.0000
  C   C374      1.0  0.09301  0.36796  0.23116  1.0000
  C   C375      1.0  0.12010  0.37594  0.20869  1.0000
  C   C376      1.0  0.10782  0.34887  0.22911  1.0000
  C   C377      1.0  0.11058  0.36532  0.26094  1.0000
  C   C378      1.0  0.22870  0.52904  0.98854  1.0000
  C   C379      1.0  0.09995  0.35530  0.28616  1.0000
  H   H447      1.0  0.06462  0.36648  0.02299  1.0000
  H   H448      1.0  0.20292  0.48286  0.31077  1.0000
  H   H449      1.0  0.21271  0.55963  0.98394  1.0000
  H   H450      1.0  0.09250  0.37940  0.23538  1.0000
  H   H451      1.0  0.09101  0.36846  0.20979  1.0000
  C   C380      1.0  0.13737  0.34378  0.40816  1.0000
  H   H452      1.0  0.08370  0.57977  0.45258  1.0000
  H   H453      1.0  0.02738  0.45702  0.16575  1.0000
  H   H454      1.0  0.13171  0.37385  0.20813  1.0000
  H   H455      1.0  0.09845  0.33964  0.24530  1.0000
  H   H456      1.0  0.08483  0.39258  0.07328  1.0000
  C   C381      1.0  0.98287  0.48703  0.35693  1.0000
  C   C382      1.0  0.20240  0.60500  0.42990  1.0000
  H   H457      1.0  0.02309  0.32796  0.08450  1.0000
  H   H458      1.0  0.14016  0.34743  0.38517  1.0000
  H   H459      1.0  0.08308  0.35904  0.24665  1.0000
  H   H460      1.0  0.11124  0.52118  0.25384  1.0000
  H   H461      1.0  0.17698  0.49179  0.42709  1.0000
  H   H462      1.0  0.05221  0.40261  0.98991  1.0000
  Fe  Fe47      1.0  0.98783  0.33934  0.01172  1.0000
  C   C383      1.0  0.19467  0.48376  0.32897  1.0000
  C   C384      1.0  0.12335  0.37586  0.26423  1.0000
  C   C385      1.0  0.18499  0.50004  0.98696  1.0000
  H   H463      1.0  0.05361  0.34829  0.11466  1.0000
  H   H464      1.0  0.13700  0.60431  0.03933  1.0000
  H   H465      1.0  0.16169  0.50131  0.02911  1.0000
  H   H466      1.0  0.21676  0.50533  0.99850  1.0000
  H   H467      1.0  0.18985  0.49932  0.05265  1.0000
  C   C386      1.0  0.05650  0.63653  0.19120  1.0000
  H   H468      1.0  0.07616  0.58223  0.42185  1.0000
  C   C387      1.0  0.22774  0.54436  0.98423  1.0000
  S   S100      1.0  0.01014  0.33947  0.02339  1.0000
  C   C388      1.0  0.10369  0.54071  0.46916  1.0000
  C   C389      1.0  0.18733  0.49441  0.03504  1.0000
  C   C390      1.0  0.01121  0.50248  0.19880  1.0000
  C   C391      1.0  0.01358  0.48028  0.17918  1.0000
  H   H469      1.0  0.19454  0.48575  0.41946  1.0000
  H   H470      1.0  0.03152  0.60757  0.24542  1.0000
  C   C392      1.0  0.99244  0.46445  0.16723  1.0000
  H   H471      1.0  0.06588  0.55880  0.40624  1.0000
  C   C393      1.0  0.12757  0.32665  0.28332  1.0000
  C   C394      1.0  0.18224  0.65204  0.43075  1.0000
  C   C395      1.0  0.07143  0.55206  0.42062  1.0000
  C   C396      1.0  0.00597  0.63284  0.18637  1.0000
  H   H472      1.0  0.09012  0.34676  0.28536  1.0000
  H   H473      1.0  0.18786  0.52466  0.36301  1.0000
  C   C397      1.0  0.16453  0.32349  0.38681  1.0000
  C   C398      1.0  0.21424  0.41812  0.38601  1.0000
  H   H474      1.0  0.18913  0.53899  0.99912  1.0000
  C   C399      1.0  0.12999  0.33425  0.46840  1.0000
  C   C400      1.0  0.00468  0.48803  0.19528  1.0000
  H   H475      1.0  0.04800  0.50807  0.16072  1.0000
  C   C401      1.0  0.19985  0.53560  0.99692  1.0000
  H   H476      1.0  0.21386  0.65003  0.45624  1.0000
  S   S101      1.0  0.00530  0.64727  0.10024  1.0000
  H   H477      1.0  0.99425  0.49267  0.35805  1.0000
  H   H478      1.0  0.17095  0.63084  0.98819  1.0000
  H   H479      1.0  0.17260  0.51728  0.03800  1.0000
  C   C402      1.0  0.22354  0.62762  0.41088  1.0000
  C   C403      1.0  0.04270  0.61394  0.22973  1.0000
  H   H480      1.0  0.12053  0.38810  0.20969  1.0000
  C   C404      1.0  0.02910  0.62677  0.19872  1.0000
  H   H481      1.0  0.10255  0.55570  0.43124  1.0000
  C   C405      1.0  0.13935  0.33975  0.26642  1.0000
  C   C406      1.0  0.02864  0.61650  0.18099  1.0000
  C   C407      1.0  0.18514  0.51745  0.38526  1.0000
  H   H482      1.0  0.23206  0.61279  0.37126  1.0000
  H   H483      1.0  0.07064  0.37195  0.11686  1.0000
  C   C408      1.0  0.22583  0.46503  0.32934  1.0000
  H   H484      1.0  0.01709  0.64348  0.21289  1.0000
  C   C409      1.0  0.01706  0.45852  0.15804  1.0000
  H   H485      1.0  0.13957  0.64927  0.06728  1.0000
  H   H486      1.0  0.19634  0.48838  0.02863  1.0000
  N   N30       1.0  0.18637  0.50673  0.01111  1.0000
  H   H487      1.0  0.22272  0.62993  0.43207  1.0000
  C   C410      1.0  0.03123  0.33892  0.08386  1.0000
  C   C411      1.0  0.12506  0.37656  0.29110  1.0000
  C   C412      1.0  0.08041  0.54907  0.46315  1.0000
  C   C413      1.0  0.17982  0.47404  0.33748  1.0000
  H   H488      1.0  0.20105  0.60556  0.45228  1.0000
  H   H489      1.0  0.15773  0.46729  0.36769  1.0000
  H   H490      1.0  0.17744  0.61345  0.99315  1.0000
  H   H491      1.0  0.20929  0.42219  0.42677  1.0000
  H   H492      1.0  0.17635  0.48510  0.04382  1.0000
  H   H493      1.0  0.01136  0.44687  0.15646  1.0000
  C   C414      1.0  0.06581  0.36685  0.04388  1.0000
  H   H494      1.0  0.21890  0.40247  0.15785  1.0000
  H   H495      1.0  0.05160  0.56578  0.44675  1.0000
  C   C415      1.0  0.03207  0.65273  0.11694  1.0000
  H   H496      1.0  0.08158  0.38958  0.02669  1.0000
  H   H497      1.0  0.17083  0.33823  0.31597  1.0000
  C   C416      1.0  0.05209  0.32645  0.08054  1.0000
  C   C417      1.0  0.14271  0.61789  0.98436  1.0000
  C   C418      1.0  0.21817  0.42458  0.40733  1.0000
  H   H498      1.0  0.99121  0.47143  0.33475  1.0000
  H   H499      1.0  0.14454  0.63006  0.98618  1.0000
  H   H500      1.0  0.11579  0.54136  0.46097  1.0000
  H   H501      1.0  0.01719  0.60682  0.15271  1.0000
  C   C419      1.0  0.21530  0.51692  0.99683  1.0000
  C   C420      1.0  0.12336  0.32469  0.31267  1.0000
  H   H502      1.0  0.23054  0.46254  0.41030  1.0000
  H   H503      1.0  0.22902  0.45766  0.44756  1.0000
  H   H504      1.0  0.23049  0.56389  0.44818  1.0000
  H   H505      1.0  0.00424  0.50793  0.21195  1.0000
  S   S102      1.0  0.98265  0.35697  0.03527  1.0000
  C   C421      1.0  0.22489  0.42132  0.35993  1.0000
  H   H506      1.0  0.22161  0.41668  0.34317  1.0000
  H   H507      1.0  0.99328  0.45643  0.22121  1.0000
  C   C422      1.0  0.12516  0.32400  0.45233  1.0000
  H   H508      1.0  0.05703  0.56276  0.47954  1.0000
  C   C423      1.0  0.20553  0.65516  0.44787  1.0000
  S   S103      1.0  0.15692  0.65541  0.00969  1.0000
  Fe  Fe48      1.0  0.17704  0.37510  0.63150  1.0000
  S   S104      1.0  0.16046  0.39027  0.63322  1.0000
  S   S105      1.0  0.17538  0.35354  0.61452  1.0000
  Fe  Fe49      1.0  0.19937  0.39595  0.65559  1.0000
  S   S106      1.0  0.18431  0.41243  0.65892  1.0000
  H   H509      1.0  0.03281  0.56451  0.78549  1.0000
  Fe  Fe50      1.0  0.16459  0.39111  0.67578  1.0000
  S   S107      1.0  0.14641  0.38775  0.71636  1.0000
  Fe  Fe51      1.0  0.18176  0.41028  0.61603  1.0000
  S   S108      1.0  0.18282  0.43180  0.58241  1.0000
  S   S109      1.0  0.17980  0.37450  0.67548  1.0000
  S   S110      1.0  0.19812  0.39518  0.61137  1.0000
  C   C424      1.0  0.15070  0.65331  0.86147  1.0000
  Fe  Fe52      1.0  0.00976  0.52785  0.64383  1.0000
  S   S111      1.0  0.02761  0.51939  0.61773  1.0000
  H   H510      1.0  0.12953  0.32378  0.69072  1.0000
  Fe  Fe53      1.0  0.03500  0.55041  0.65994  1.0000
  S   S112      1.0  0.05442  0.54280  0.63567  1.0000
  S   S113      1.0  0.03749  0.57126  0.67899  1.0000
  Fe  Fe54      1.0  0.04171  0.54415  0.60172  1.0000
  S   S114      1.0  0.05328  0.55647  0.55535  1.0000
  Fe  Fe55      1.0  0.03869  0.51865  0.65400  1.0000
  S   S115      1.0  0.04531  0.49608  0.66685  1.0000
  S   S116      1.0  0.02294  0.55294  0.62483  1.0000
  S   S117      1.0  0.02025  0.52601  0.68112  1.0000
  Fe  Fe56      1.0  0.09221  0.43629  0.76922  1.0000
  S   S118      1.0  0.08945  0.41998  0.81151  1.0000
  S   S119      1.0  0.10689  0.43703  0.72635  1.0000
  Fe  Fe57      1.0  0.06966  0.45323  0.79365  1.0000
  S   S120      1.0  0.06496  0.43817  0.83805  1.0000
  S   S121      1.0  0.05977  0.47407  0.78517  1.0000
  Fe  Fe58      1.0  0.09060  0.44115  0.82834  1.0000
  S   S122      1.0  0.10413  0.44440  0.86105  1.0000
  Fe  Fe59      1.0  0.06409  0.41836  0.81765  1.0000
  S   S123      1.0  0.04693  0.39498  0.83972  1.0000
  S   S124      1.0  0.09539  0.45757  0.78537  1.0000
  S   S125      1.0  0.06674  0.43323  0.77401  1.0000
  Fe  Fe60      1.0  0.16816  0.55004  0.90549  1.0000
  S   S126      1.0  0.17728  0.53641  0.87610  1.0000
  S   S127      1.0  0.16709  0.57514  0.89247  1.0000
  Fe  Fe61      1.0  0.15302  0.52093  0.95431  1.0000
  S   S128      1.0  0.16082  0.50494  0.92932  1.0000
  Fe  Fe62      1.0  0.18344  0.52336  0.91413  1.0000
  S   S129      1.0  0.20463  0.51396  0.91353  1.0000
  Fe  Fe63      1.0  0.15408  0.51905  0.89351  1.0000
  S   S130      1.0  0.13914  0.51138  0.86525  1.0000
  S   S131      1.0  0.17601  0.53830  0.94218  1.0000
  S   S132      1.0  0.14457  0.53370  0.91988  1.0000
  H   H511      1.0  0.14325  0.35540  0.62196  1.0000
  S   S133      1.0  0.09029  0.60438  0.72819  1.0000
  H   H512      1.0  0.10771  0.38405  0.65665  1.0000
  S   S134      1.0  0.20333  0.63378  0.92309  1.0000
  H   H513      1.0  0.21430  0.47281  0.49819  1.0000
  S   S135      1.0  0.00805  0.35489  0.77643  1.0000
  C   C425      1.0  0.22468  0.54110  0.91324  1.0000
  H   H514      1.0  0.22536  0.45124  0.78267  1.0000
  C   C426      1.0  0.17737  0.59112  0.90156  1.0000
  C   C427      1.0  0.17215  0.60471  0.89849  1.0000
  C   C428      1.0  0.18012  0.61787  0.90469  1.0000
  C   C429      1.0  0.19342  0.61759  0.91407  1.0000
  C   C430      1.0  0.19866  0.60399  0.91729  1.0000
  C   C431      1.0  0.19063  0.59076  0.91115  1.0000
  H   H515      1.0  0.16186  0.60510  0.89139  1.0000
  H   H516      1.0  0.17602  0.62827  0.90198  1.0000
  H   H517      1.0  0.20896  0.60370  0.92454  1.0000
  H   H518      1.0  0.19483  0.58040  0.91342  1.0000
  N   N31       1.0  0.10416  0.48177  0.95260  1.0000
  S   S136      1.0  0.07717  0.64246  0.74460  1.0000
  H   H519      1.0  0.07909  0.60822  0.63274  1.0000
  C   C432      1.0  0.13032  0.49260  0.86330  1.0000
  C   C433      1.0  0.11966  0.49123  0.84684  1.0000
  C   C434      1.0  0.11180  0.47657  0.84555  1.0000
  C   C435      1.0  0.11444  0.46308  0.86091  1.0000
  C   C436      1.0  0.12517  0.46444  0.87727  1.0000
  C   C437      1.0  0.13322  0.47913  0.87821  1.0000
  H   H520      1.0  0.11735  0.50157  0.83515  1.0000
  H   H521      1.0  0.10353  0.47570  0.83295  1.0000
  H   H522      1.0  0.12737  0.45405  0.88905  1.0000
  H   H523      1.0  0.14166  0.48003  0.89043  1.0000
  C   C438      1.0  0.03512  0.38452  0.82257  1.0000
  C   C439      1.0  0.03530  0.39049  0.79429  1.0000
  C   C440      1.0  0.02668  0.38137  0.78066  1.0000
  C   C441      1.0  0.01757  0.36633  0.79528  1.0000
  C   C442      1.0  0.01698  0.36055  0.82385  1.0000
  C   C443      1.0  0.02580  0.36958  0.83738  1.0000
  H   H524      1.0  0.04215  0.40208  0.78283  1.0000
  H   H525      1.0  0.02709  0.38597  0.75862  1.0000
  H   H526      1.0  0.01000  0.34899  0.83535  1.0000
  H   H527      1.0  0.02552  0.36486  0.85929  1.0000
  C   C444      1.0  0.07343  0.55985  0.54220  1.0000
  C   C445      1.0  0.08208  0.55196  0.55726  1.0000
  C   C446      1.0  0.09802  0.55452  0.54560  1.0000
  C   C447      1.0  0.10539  0.56492  0.51884  1.0000
  H   H528      1.0  0.99832  0.61505  0.77129  1.0000
  C   C448      1.0  0.08087  0.57056  0.51584  1.0000
  H   H529      1.0  0.07646  0.54369  0.57760  1.0000
  H   H530      1.0  0.10466  0.54829  0.55717  1.0000
  H   H531      1.0  0.22976  0.33165  0.74453  1.0000
  H   H532      1.0  0.06953  0.61436  0.60544  1.0000
  C   C449      1.0  0.04775  0.48967  0.70102  1.0000
  C   C450      1.0  0.04847  0.49939  0.71911  1.0000
  C   C451      1.0  0.05167  0.49427  0.74536  1.0000
  C   C452      1.0  0.05422  0.47948  0.75355  1.0000
  C   C453      1.0  0.05304  0.46962  0.73578  1.0000
  C   C454      1.0  0.04979  0.47470  0.70960  1.0000
  H   H533      1.0  0.04691  0.51095  0.71266  1.0000
  H   H534      1.0  0.05255  0.50194  0.75909  1.0000
  H   H535      1.0  0.05480  0.45815  0.74207  1.0000
  H   H536      1.0  0.04916  0.46711  0.69571  1.0000
  C   C455      1.0  0.05246  0.58028  0.69228  1.0000
  C   C456      1.0  0.05270  0.59506  0.69663  1.0000
  C   C457      1.0  0.06426  0.60269  0.70728  1.0000
  C   C458      1.0  0.07570  0.59556  0.71392  1.0000
  C   C459      1.0  0.07558  0.58086  0.70922  1.0000
  C   C460      1.0  0.06400  0.57322  0.69857  1.0000
  H   H537      1.0  0.04387  0.60068  0.69170  1.0000
  H   H538      1.0  0.06434  0.61411  0.71026  1.0000
  H   H539      1.0  0.08440  0.57525  0.71419  1.0000
  H   H540      1.0  0.06395  0.56183  0.69550  1.0000
  H   H541      1.0  0.05340  0.60655  0.76182  1.0000
  H   H542      1.0  0.07465  0.52461  0.52915  1.0000
  H   H543      1.0  0.22829  0.35809  0.74271  1.0000
  H   H544      1.0  0.15770  0.33501  0.67705  1.0000
  C   C461      1.0  0.00463  0.48067  0.65333  1.0000
  C   C462      1.0  0.21381  0.46205  0.51293  1.0000
  C   C463      1.0  0.20023  0.45426  0.53447  1.0000
  C   C464      1.0  0.19961  0.44056  0.55435  1.0000
  C   C465      1.0  0.21250  0.43445  0.55204  1.0000
  H   H545      1.0  0.98974  0.50701  0.60301  1.0000
  C   C466      1.0  0.02357  0.59178  0.77406  1.0000
  H   H546      1.0  0.19028  0.45903  0.53611  1.0000
  H   H547      1.0  0.21206  0.42379  0.56693  1.0000
  C   C467      1.0  0.10051  0.61742  0.57857  1.0000
  S   S137      1.0  0.99153  0.64638  0.78678  1.0000
  H   H548      1.0  0.21727  0.42941  0.64168  1.0000
  H   H549      1.0  0.06098  0.53900  0.50136  1.0000
  C   C468      1.0  0.13647  0.40229  0.71887  1.0000
  C   C469      1.0  0.12812  0.40252  0.74562  1.0000
  C   C470      1.0  0.11927  0.41333  0.74818  1.0000
  C   C471      1.0  0.11854  0.42384  0.72396  1.0000
  C   C472      1.0  0.12703  0.42374  0.69723  1.0000
  C   C473      1.0  0.13605  0.41305  0.69467  1.0000
  H   H550      1.0  0.12852  0.39430  0.76440  1.0000
  H   H551      1.0  0.11301  0.41348  0.76889  1.0000
  H   H552      1.0  0.12655  0.43186  0.67838  1.0000
  H   H553      1.0  0.14240  0.41291  0.67396  1.0000
  C   C474      1.0  0.15900  0.34241  0.60754  1.0000
  H   H554      1.0  0.22081  0.46952  0.77815  1.0000
  C   C475      1.0  0.13181  0.33632  0.60810  1.0000
  C   C476      1.0  0.14457  0.34568  0.61334  1.0000
  C   C477      1.0  0.05168  0.40307  0.96828  1.0000
  H   H555      1.0  0.12072  0.33899  0.61266  1.0000
  H   H556      1.0  0.02137  0.63423  0.85575  1.0000
  C   C478      1.0  0.01018  0.58955  0.73670  1.0000
  C   C479      1.0  0.07142  0.60417  0.61973  1.0000
  H   H557      1.0  0.12811  0.48967  0.92944  1.0000
  C   C480      1.0  0.15810  0.57338  0.97401  1.0000
  C   C481      1.0  0.99837  0.48493  0.69946  1.0000
  H   H558      1.0  0.07406  0.41685  0.90052  1.0000
  N   N32       1.0  0.99701  0.47286  0.68374  1.0000
  C   C482      1.0  0.11440  0.62451  0.55771  1.0000
  H   H559      1.0  0.99440  0.34800  0.90496  1.0000
  H   H560      1.0  0.01831  0.46733  0.68879  1.0000
  H   H561      1.0  0.15688  0.64929  0.87660  1.0000
  H   H562      1.0  0.00430  0.47228  0.64013  1.0000
  Fe  Fe64      1.0  0.10749  0.63855  0.78897  1.0000
  H   H563      1.0  0.08404  0.57216  0.61376  1.0000
  C   C483      1.0  0.22222  0.46723  0.58093  1.0000
  H   H564      1.0  0.10242  0.58123  0.48369  1.0000
  C   C484      1.0  0.01519  0.60265  0.78064  1.0000
  C   C485      1.0  0.16047  0.32969  0.59636  1.0000
  H   H565      1.0  0.12590  0.35100  0.50839  1.0000
  H   H566      1.0  0.06853  0.57822  0.58058  1.0000
  H   H567      1.0  0.12475  0.47857  0.96516  1.0000
  H   H568      1.0  0.21133  0.45414  0.81044  1.0000
  C   C486      1.0  0.09378  0.46793  0.97450  1.0000
  N   N33       1.0  0.07692  0.38077  0.76324  1.0000
  C   C487      1.0  0.08509  0.37635  0.78529  1.0000
  C   C488      1.0  0.07451  0.39633  0.76366  1.0000
  C   C489      1.0  0.06169  0.36934  0.77148  1.0000
  C   C490      1.0  0.08541  0.38123  0.73431  1.0000
  C   C491      1.0  0.07909  0.38537  0.71098  1.0000
  C   C492      1.0  0.10006  0.37786  0.72826  1.0000
  C   C493      1.0  0.08703  0.38630  0.68333  1.0000
  C   C494      1.0  0.10788  0.37882  0.70053  1.0000
  C   C495      1.0  0.10144  0.38310  0.67812  1.0000
  H   H569      1.0  0.07837  0.37619  0.80673  1.0000
  H   H570      1.0  0.08695  0.36455  0.78674  1.0000
  H   H571      1.0  0.09643  0.38481  0.78100  1.0000
  H   H572      1.0  0.06691  0.39985  0.75018  1.0000
  H   H573      1.0  0.08566  0.40538  0.75587  1.0000
  H   H574      1.0  0.06898  0.39674  0.78543  1.0000
  H   H575      1.0  0.06298  0.35761  0.77022  1.0000
  H   H576      1.0  0.05517  0.36826  0.79356  1.0000
  H   H577      1.0  0.05409  0.37259  0.75778  1.0000
  H   H578      1.0  0.06800  0.38807  0.71396  1.0000
  H   H579      1.0  0.10596  0.37478  0.74439  1.0000
  H   H580      1.0  0.08205  0.38967  0.66583  1.0000
  C   C496      1.0  0.00459  0.60671  0.76580  1.0000
  H   H581      1.0  0.99920  0.48995  0.64497  1.0000
  H   H582      1.0  0.10297  0.33147  0.50426  1.0000
  C   C497      1.0  0.06393  0.41098  0.91808  1.0000
  H   H583      1.0  0.01703  0.48640  0.65000  1.0000
  N   N34       1.0  0.10085  0.48211  0.69514  1.0000
  C   C498      1.0  0.11518  0.47873  0.70148  1.0000
  C   C499      1.0  0.09422  0.48964  0.71660  1.0000
  C   C500      1.0  0.08996  0.46702  0.69859  1.0000
  C   C501      1.0  0.10332  0.49222  0.66629  1.0000
  C   C502      1.0  0.09078  0.49691  0.65755  1.0000
  C   C503      1.0  0.11798  0.49770  0.64616  1.0000
  C   C504      1.0  0.09278  0.50663  0.63066  1.0000
  C   C505      1.0  0.11986  0.50744  0.61925  1.0000
  C   C506      1.0  0.10730  0.51194  0.61156  1.0000
  H   H584      1.0  0.12388  0.48952  0.69986  1.0000
  H   H585      1.0  0.11285  0.47121  0.72342  1.0000
  H   H586      1.0  0.12035  0.47217  0.68729  1.0000
  H   H587      1.0  0.10203  0.50106  0.71465  1.0000
  H   H588      1.0  0.09206  0.48235  0.73865  1.0000
  H   H589      1.0  0.08292  0.49172  0.71467  1.0000
  H   H590      1.0  0.08740  0.45930  0.72040  1.0000
  H   H591      1.0  0.07875  0.46836  0.69483  1.0000
  H   H592      1.0  0.09482  0.46069  0.68361  1.0000
  H   H593      1.0  0.07925  0.49309  0.67147  1.0000
  H   H594      1.0  0.12816  0.49462  0.65066  1.0000
  H   H595      1.0  0.08294  0.51004  0.62473  1.0000
  H   H596      1.0  0.13113  0.51154  0.60423  1.0000
  H   H597      1.0  0.10883  0.51953  0.59073  1.0000
  C   C507      1.0  0.04177  0.57545  0.78193  1.0000
  H   H598      1.0  0.01406  0.36884  0.91412  1.0000
  H   H599      1.0  0.12040  0.63639  0.55557  1.0000
  H   H600      1.0  0.04344  0.61120  0.79237  1.0000
  N   N35       1.0  0.03482  0.58780  0.79000  1.0000
  C   C508      1.0  0.11316  0.60106  0.54242  1.0000
  C   C509      1.0  0.21553  0.49372  0.83948  1.0000
  H   H601      1.0  0.12027  0.46896  0.93907  1.0000
  S   S138      1.0  0.16782  0.65224  0.93226  1.0000
  C   C510      1.0  0.22248  0.45993  0.79423  1.0000
  N   N36       1.0  0.12611  0.32882  0.49977  1.0000
  H   H602      1.0  0.05645  0.59924  0.79594  1.0000
  Fe  Fe65      1.0  0.98810  0.33334  0.79732  1.0000
  C   C511      1.0  0.21783  0.43985  0.62489  1.0000
  H   H603      1.0  0.02711  0.36613  0.93576  1.0000
  C   C512      1.0  0.02127  0.63653  0.83364  1.0000
  C   C513      1.0  0.09241  0.60186  0.58170  1.0000
  C   C514      1.0  0.08054  0.53125  0.50751  1.0000
  H   H604      1.0  0.22390  0.50761  0.86560  1.0000
  H   H605      1.0  0.99392  0.60343  0.73234  1.0000
  H   H606      1.0  0.11156  0.50657  0.94650  1.0000
  H   H607      1.0  0.11817  0.59469  0.52849  1.0000
  H   H608      1.0  0.01679  0.57254  0.82547  1.0000
  H   H609      1.0  0.07526  0.41634  0.94966  1.0000
  H   H610      1.0  0.00833  0.58456  0.71942  1.0000
  C   C515      1.0  0.09678  0.57304  0.50410  1.0000
  C   C516      1.0  0.08013  0.58087  0.62406  1.0000
  C   C517      1.0  0.09964  0.48472  0.92542  1.0000
  H   H611      1.0  0.21184  0.44724  0.63586  1.0000
  C   C518      1.0  0.02071  0.58531  0.75156  1.0000
  H   H612      1.0  0.03422  0.37788  0.89968  1.0000
  H   H613      1.0  0.17213  0.62099  0.96115  1.0000
  H   H614      1.0  0.05428  0.58226  0.60569  1.0000
  N   N37       1.0  0.07770  0.59391  0.60352  1.0000
  H   H615      1.0  0.02653  0.57703  0.74474  1.0000
  C   C519      1.0  0.21821  0.48287  0.82424  1.0000
  H   H616      1.0  0.20508  0.49772  0.84069  1.0000
  S   S139      1.0  0.12536  0.56762  0.50473  1.0000
  H   H617      1.0  0.09399  0.58195  0.56459  1.0000
  H   H618      1.0  0.09640  0.62435  0.59202  1.0000
  N   N38       1.0  0.02235  0.38860  0.92906  1.0000
  C   C520      1.0  0.09598  0.53188  0.49666  1.0000
  H   H619      1.0  0.20945  0.47895  0.81402  1.0000
  C   C521      1.0  0.03440  0.63690  0.81307  1.0000
  C   C522      1.0  0.14221  0.64269  0.85010  1.0000
  C   C523      1.0  0.22625  0.43001  0.71349  1.0000
  H   H620      1.0  0.05009  0.57264  0.79439  1.0000
  C   C524      1.0  0.12068  0.61636  0.53962  1.0000
  C   C525      1.0  0.01851  0.39947  0.90647  1.0000
  H   H621      1.0  0.02350  0.59165  0.82956  1.0000
  C   C526      1.0  0.10442  0.49586  0.96306  1.0000
  C   C527      1.0  0.22687  0.45622  0.51138  1.0000
  Fe  Fe66      1.0  0.07359  0.63775  0.79167  1.0000
  C   C528      1.0  0.07278  0.53968  0.49115  1.0000
  S   S140      1.0  0.22304  0.39937  0.66491  1.0000
  N   N39       1.0  0.13892  0.59347  0.82884  1.0000
  C   C529      1.0  0.15063  0.59736  0.84449  1.0000
  C   C530      1.0  0.14384  0.60510  0.80083  1.0000
  C   C531      1.0  0.12405  0.59497  0.84518  1.0000
  C   C532      1.0  0.13688  0.57763  0.82486  1.0000
  C   C533      1.0  0.12613  0.57222  0.81014  1.0000
  C   C534      1.0  0.14508  0.56708  0.83578  1.0000
  C   C535      1.0  0.12370  0.55716  0.80672  1.0000
  C   C536      1.0  0.14260  0.55209  0.83216  1.0000
  C   C537      1.0  0.13190  0.54710  0.81781  1.0000
  H   H622      1.0  0.16218  0.59646  0.83356  1.0000
  H   H623      1.0  0.15221  0.60945  0.84654  1.0000
  H   H624      1.0  0.14713  0.58963  0.86645  1.0000
  H   H625      1.0  0.14649  0.61720  0.80300  1.0000
  H   H626      1.0  0.13473  0.60447  0.78916  1.0000
  H   H627      1.0  0.15437  0.60358  0.78720  1.0000
  H   H628      1.0  0.11926  0.58547  0.86516  1.0000
  H   H629      1.0  0.12539  0.60614  0.85118  1.0000
  H   H630      1.0  0.11522  0.59478  0.83290  1.0000
  H   H631      1.0  0.11945  0.57960  0.80134  1.0000
  H   H632      1.0  0.15344  0.57002  0.84741  1.0000
  H   H633      1.0  0.11538  0.55324  0.79552  1.0000
  H   H634      1.0  0.14896  0.54424  0.84078  1.0000
  H   H635      1.0  0.12996  0.53536  0.81545  1.0000
  H   H636      1.0  0.02077  0.64506  0.75460  1.0000
  H   H637      1.0  0.05046  0.40389  0.89107  1.0000
  H   H638      1.0  0.21374  0.48402  0.55524  1.0000
  H   H639      1.0  0.04849  0.57914  0.75931  1.0000
  H   H640      1.0  0.22668  0.44720  0.84617  1.0000
  H   H641      1.0  0.10035  0.47511  0.91506  1.0000
  H   H642      1.0  0.16672  0.56973  0.96040  1.0000
  S   S141      1.0  0.99110  0.34497  0.96410  1.0000
  H   H643      1.0  0.21105  0.43570  0.61063  1.0000
  H   H644      1.0  0.14185  0.63054  0.85683  1.0000
  H   H645      1.0  0.03509  0.57832  0.83333  1.0000
  S   S142      1.0  0.08651  0.61931  0.79490  1.0000
  C   C538      1.0  0.09927  0.59388  0.56314  1.0000
  H   H646      1.0  0.06431  0.59678  0.57293  1.0000
  S   S143      1.0  0.11371  0.64300  0.74144  1.0000
  S   S144      1.0  0.05093  0.63381  0.82376  1.0000
  C   C539      1.0  0.22611  0.44229  0.53067  1.0000
  H   H647      1.0  0.00454  0.45203  0.68306  1.0000
  H   H648      1.0  0.06002  0.59799  0.63495  1.0000
  C   C540      1.0  0.06574  0.58758  0.59006  1.0000
  C   C541      1.0  0.00782  0.64246  0.79728  1.0000
  H   H649      1.0  0.20824  0.41754  0.69864  1.0000
  Fe  Fe67      1.0  0.09146  0.62508  0.74740  1.0000
  C   C542      1.0  0.00575  0.46164  0.69356  1.0000
  S   S145      1.0  0.12394  0.63379  0.81622  1.0000
  H   H650      1.0  0.01796  0.41057  0.91201  1.0000
  C   C543      1.0  0.03673  0.39614  0.93518  1.0000
  C   C544      1.0  0.03793  0.39586  0.96321  1.0000
  H   H651      1.0  0.07429  0.57693  0.50443  1.0000
  H   H652      1.0  0.13145  0.62188  0.52347  1.0000
  H   H653      1.0  0.02700  0.40227  0.88554  1.0000
  H   H654      1.0  0.06926  0.57453  0.64066  1.0000
  H   H655      1.0  0.99404  0.48001  0.72277  1.0000
  C   C545      1.0  0.22029  0.41975  0.69865  1.0000
  H   H656      1.0  0.08891  0.58508  0.63497  1.0000
  H   H657      1.0  0.01061  0.49145  0.69542  1.0000
  C   C546      1.0  0.13124  0.34116  0.51351  1.0000
  H   H658      1.0  0.99175  0.49349  0.69302  1.0000
  H   H659      1.0  0.21582  0.54688  0.90923  1.0000
  C   C547      1.0  0.13414  0.64768  0.83031  1.0000
  C   C548      1.0  0.04755  0.60178  0.78480  1.0000
  H   H660      1.0  0.00674  0.39316  0.96325  1.0000
  C   C549      1.0  0.00800  0.63931  0.82580  1.0000
  C   C550      1.0  0.12000  0.47965  0.94634  1.0000
  H   H661      1.0  0.99795  0.63911  0.84181  1.0000
  H   H662      1.0  0.08778  0.48642  0.92852  1.0000
  C   C551      1.0  0.13325  0.32351  0.59722  1.0000
  H   H663      1.0  0.99798  0.37844  0.94862  1.0000
  H   H664      1.0  0.21871  0.43569  0.72476  1.0000
  C   C552      1.0  0.03413  0.63980  0.78458  1.0000
  H   H665      1.0  0.10748  0.49540  0.90967  1.0000
  H   H666      1.0  0.04407  0.63984  0.76858  1.0000
  H   H667      1.0  0.00187  0.45642  0.71685  1.0000
  H   H668      1.0  0.07890  0.45946  0.94875  1.0000
  H   H669      1.0  0.01000  0.37392  0.97100  1.0000
  H   H670      1.0  0.18395  0.50886  0.96877  1.0000
  C   C553      1.0  0.05027  0.40367  0.91284  1.0000
  C   C554      1.0  0.02459  0.37481  0.91919  1.0000
  H   H671      1.0  0.17259  0.59583  0.96587  1.0000
  C   C555      1.0  0.02719  0.58232  0.82087  1.0000
  H   H672      1.0  0.12786  0.33676  0.53711  1.0000
  C   C556      1.0  0.02091  0.64269  0.77669  1.0000
  H   H673      1.0  0.19530  0.49597  0.97887  1.0000
  H   H674      1.0  0.21060  0.46161  0.59380  1.0000
  C   C557      1.0  0.22991  0.41230  0.68403  1.0000
  H   H675      1.0  0.01681  0.60819  0.79727  1.0000
  H   H676      1.0  0.00722  0.39441  0.90281  1.0000
  C   C558      1.0  0.22206  0.52511  0.91648  1.0000
  C   C559      1.0  0.08146  0.45770  0.96917  1.0000
  C   C560      1.0  0.22612  0.49931  0.85362  1.0000
  C   C561      1.0  0.00876  0.38341  0.95411  1.0000
  C   C562      1.0  0.00210  0.60019  0.74385  1.0000
  C   C563      1.0  0.06462  0.41072  0.94575  1.0000
  H   H677      1.0  0.11922  0.37656  0.69635  1.0000
  H   H678      1.0  0.14402  0.34559  0.50735  1.0000
  H   H679      1.0  0.10211  0.52580  0.50977  1.0000
  H   H680      1.0  0.14497  0.61840  0.96135  1.0000
  Fe  Fe68      1.0  0.19329  0.65459  0.92372  1.0000
  H   H681      1.0  0.09257  0.49737  0.96972  1.0000
  H   H682      1.0  0.22453  0.37838  0.76141  1.0000
  H   H683      1.0  0.17159  0.32710  0.59176  1.0000
  C   C564      1.0  0.22383  0.48020  0.55873  1.0000
  S   S146      1.0  0.98352  0.51760  0.65491  1.0000
  C   C565      1.0  0.98508  0.33787  0.91642  1.0000
  C   C566      1.0  0.23170  0.47726  0.82286  1.0000
  C   C567      1.0  0.16130  0.58845  0.97729  1.0000
  C   C568      1.0  0.10916  0.32268  0.51150  1.0000
  C   C569      1.0  0.15305  0.32347  0.67515  1.0000
  H   H684      1.0  0.23171  0.50539  0.92423  1.0000
  Fe  Fe69      1.0  0.17277  0.77999  0.27009  1.0000
  S   S147      1.0  0.18006  0.78661  0.22241  1.0000
  S   S148      1.0  0.15167  0.78302  0.29894  1.0000
  Fe  Fe70      1.0  0.19770  0.76282  0.27561  1.0000
  S   S149      1.0  0.20708  0.76819  0.22860  1.0000
  S   S150      1.0  0.20592  0.74540  0.30420  1.0000
  Fe  Fe71      1.0  0.20424  0.79209  0.22809  1.0000
  H   H685      1.0  0.98412  0.79546  0.09954  1.0000
  Fe  Fe72      1.0  0.18234  0.76215  0.22692  1.0000
  S   S151      1.0  0.17710  0.74565  0.19999  1.0000
  S   S152      1.0  0.19671  0.78723  0.27566  1.0000
  S   S153      1.0  0.17319  0.75510  0.27404  1.0000
  H   H686      1.0  0.00023  0.86372  0.02531  1.0000
  C   C570      1.0  0.19969  0.81062  0.35598  1.0000
  C   C571      1.0  0.03915  0.87184  0.00049  1.0000
  H   H687      1.0  0.20695  0.82224  0.35161  1.0000
  H   H688      1.0  0.18797  0.81690  0.32385  1.0000
  Fe  Fe73      1.0  0.10710  0.68496  0.11989  1.0000
  S   S154      1.0  0.11896  0.68188  0.15518  1.0000
  S   S155      1.0  0.11851  0.69433  0.07288  1.0000
  Fe  Fe74      1.0  0.07514  0.67798  0.15951  1.0000
  S   S156      1.0  0.08421  0.67433  0.19807  1.0000
  S   S157      1.0  0.05006  0.67854  0.16507  1.0000
  Fe  Fe75      1.0  0.10365  0.69534  0.17456  1.0000
  S   S158      1.0  0.10910  0.71353  0.19827  1.0000
  C   C572      1.0  0.01777  0.65624  0.11784  1.0000
  S   S159      1.0  0.09332  0.70012  0.13762  1.0000
  S   S160      1.0  0.98907  0.76743  0.22848  1.0000
  H   H689      1.0  0.18449  0.97299  0.07211  1.0000
  C   C573      1.0  0.04209  0.65943  0.13138  1.0000
  Fe  Fe76      1.0  0.11158  0.85039  0.29818  1.0000
  S   S161      1.0  0.09349  0.83440  0.33610  1.0000
  S   S162      1.0  0.13092  0.84544  0.26804  1.0000
  Fe  Fe77      1.0  0.09796  0.87787  0.30172  1.0000
  S   S163      1.0  0.07838  0.86382  0.33980  1.0000
  S   S164      1.0  0.10042  0.90302  0.27891  1.0000
  Fe  Fe78      1.0  0.09672  0.85439  0.35647  1.0000
  S   S165      1.0  0.10196  0.85084  0.40033  1.0000
  Fe  Fe79      1.0  0.07657  0.84495  0.31641  1.0000
  S   S166      1.0  0.05391  0.82884  0.31521  1.0000
  S   S167      1.0  0.11626  0.86953  0.31937  1.0000
  S   S168      1.0  0.09466  0.85986  0.27750  1.0000
  H   H690      1.0  0.17230  0.75469  0.41475  1.0000
  C   C574      1.0  0.04835  0.69258  0.07005  1.0000
  H   H691      1.0  0.01311  0.79964  0.28150  1.0000
  H   H692      1.0  0.12442  0.66427  0.09256  1.0000
  H   H693      1.0  0.17437  0.68451  0.04542  1.0000
  C   C575      1.0  0.11750  0.91830  0.26822  1.0000
  C   C576      1.0  0.11840  0.93197  0.24787  1.0000
  C   C577      1.0  0.13174  0.94443  0.23894  1.0000
  C   C578      1.0  0.14423  0.94339  0.25060  1.0000
  C   C579      1.0  0.14333  0.92971  0.27091  1.0000
  C   C580      1.0  0.13006  0.91721  0.27964  1.0000
  H   H694      1.0  0.10871  0.93295  0.23901  1.0000
  H   H695      1.0  0.13225  0.95493  0.22341  1.0000
  H   H696      1.0  0.12951  0.90683  0.29542  1.0000
  C   C581      1.0  0.99356  0.72437  0.13904  1.0000
  C   C582      1.0  0.02444  0.80761  0.27506  1.0000
  C   C583      1.0  0.03107  0.81291  0.29559  1.0000
  C   C584      1.0  0.04581  0.82331  0.28789  1.0000
  C   C585      1.0  0.05383  0.82835  0.25913  1.0000
  C   C586      1.0  0.04731  0.82284  0.23868  1.0000
  H   H697      1.0  0.02469  0.80889  0.31768  1.0000
  H   H698      1.0  0.06506  0.83645  0.25257  1.0000
  H   H699      1.0  0.05370  0.82675  0.21660  1.0000
  H   H700      1.0  0.09859  0.68965  0.03386  1.0000
  C   C587      1.0  0.07539  0.68043  0.08096  1.0000
  C   C588      1.0  0.10803  0.85403  0.45101  1.0000
  C   C589      1.0  0.09931  0.85771  0.43155  1.0000
  C   C590      1.0  0.08888  0.86663  0.43753  1.0000
  C   C591      1.0  0.98409  0.71192  0.13312  1.0000
  C   C592      1.0  0.12994  0.66878  0.07010  1.0000
  H   H701      1.0  0.11605  0.84704  0.44684  1.0000
  H   H702      1.0  0.08174  0.86917  0.42333  1.0000
  H   H703      1.0  0.01706  0.68229  0.04508  1.0000
  H   H704      1.0  0.04800  0.86506  0.00015  1.0000
  C   C593      1.0  0.02431  0.85898  0.06331  1.0000
  H   H705      1.0  0.19647  0.69331  0.00899  1.0000
  C   C594      1.0  0.12874  0.68318  0.05542  1.0000
  C   C595      1.0  0.13592  0.68892  0.02628  1.0000
  C   C596      1.0  0.14442  0.68039  0.01191  1.0000
  S   S169      1.0  0.99958  0.74839  0.16375  1.0000
  C   C597      1.0  0.01867  0.82675  0.07525  1.0000
  H   H706      1.0  0.13496  0.70002  0.01484  1.0000
  H   H707      1.0  0.17550  0.67331  0.41839  1.0000
  C   C598      1.0  0.03789  0.66978  0.14665  1.0000
  C   C599      1.0  0.02355  0.67321  0.14768  1.0000
  C   C600      1.0  0.21990  0.76897  0.35838  1.0000
  C   C601      1.0  0.15600  0.70442  0.08468  1.0000
  H   H708      1.0  0.03652  0.67617  0.01009  1.0000
  H   H709      1.0  0.02009  0.68102  0.15976  1.0000
  H   H710      1.0  0.20672  0.71950  0.01282  1.0000
  Fe  Fe80      1.0  0.16820  0.98088  0.20462  1.0000
  C   C602      1.0  0.20713  0.67126  0.44380  1.0000
  S   S170      1.0  0.21193  0.72037  0.47055  1.0000
  C   C603      1.0  0.98259  0.80576  0.08620  1.0000
  H   H711      1.0  0.15073  0.77225  0.36634  1.0000
  H   H712      1.0  0.01190  0.87767  0.99317  1.0000
  C   C604      1.0  0.19610  0.67765  0.43326  1.0000
  H   H713      1.0  0.14154  0.97413  0.12163  1.0000
  H   H714      1.0  0.08717  0.68077  0.08362  1.0000
  H   H715      1.0  0.19711  0.68996  0.42988  1.0000
  H   H716      1.0  0.15292  0.92884  0.28015  1.0000
  C   C605      1.0  0.20099  0.79866  0.37722  1.0000
  H   H717      1.0  0.20196  0.98088  0.08003  1.0000
  H   H718      1.0  0.02657  0.87142  0.05969  1.0000
  C   C606      1.0  0.21214  0.75023  0.33286  1.0000
  C   C607      1.0  0.21336  0.73837  0.35462  1.0000
  C   C608      1.0  0.21758  0.74175  0.37848  1.0000
  S   S171      1.0  0.05921  0.94519  0.98147  1.0000
  H   H719      1.0  0.19829  0.73501  0.00104  1.0000
  C   C609      1.0  0.21556  0.76558  0.33461  1.0000
  H   H720      1.0  0.21080  0.72648  0.35328  1.0000
  C   C610      1.0  0.23174  0.96574  0.15837  1.0000
  H   H721      1.0  0.06468  0.95080  0.04819  1.0000
  H   H722      1.0  0.21488  0.77484  0.31769  1.0000
  C   C611      1.0  0.15810  0.73682  0.19989  1.0000
  C   C612      1.0  0.15587  0.72601  0.18392  1.0000
  C   C613      1.0  0.14092  0.71869  0.18337  1.0000
  C   C614      1.0  0.12809  0.72217  0.19879  1.0000
  C   C615      1.0  0.13033  0.73288  0.21497  1.0000
  C   C616      1.0  0.14528  0.74016  0.21560  1.0000
  H   H723      1.0  0.16575  0.72337  0.17173  1.0000
  H   H724      1.0  0.13933  0.71049  0.17084  1.0000
  H   H725      1.0  0.12045  0.73562  0.22693  1.0000
  H   H726      1.0  0.14688  0.74846  0.22797  1.0000
  Fe  Fe81      1.0  0.99115  0.76672  0.18293  1.0000
  H   H727      1.0  0.08196  0.71577  0.03504  1.0000
  H   H728      1.0  0.19358  0.77491  0.39929  1.0000
  S   S172      1.0  0.08601  0.97959  0.00029  1.0000
  C   C617      1.0  0.18384  0.66814  0.42667  1.0000
  C   C618      1.0  0.22067  0.75704  0.38052  1.0000
  C   C619      1.0  0.03254  0.81246  0.24636  1.0000
  H   H729      1.0  0.00586  0.72711  0.13037  1.0000
  C   C620      1.0  0.14648  0.80073  0.29082  1.0000
  C   C621      1.0  0.15456  0.81241  0.26613  1.0000
  C   C622      1.0  0.14976  0.82615  0.25956  1.0000
  C   C623      1.0  0.13702  0.82838  0.27780  1.0000
  C   C624      1.0  0.12912  0.81682  0.30278  1.0000
  C   C625      1.0  0.13379  0.80298  0.30917  1.0000
  H   H730      1.0  0.16437  0.81077  0.25189  1.0000
  H   H731      1.0  0.15593  0.83506  0.24022  1.0000
  H   H732      1.0  0.11937  0.81848  0.31705  1.0000
  H   H733      1.0  0.12751  0.79397  0.32830  1.0000
  Fe  Fe82      1.0  0.98420  0.79817  0.16551  1.0000
  N   N40       1.0  0.17429  0.70789  0.27149  1.0000
  C   C626      1.0  0.17506  0.70059  0.24754  1.0000
  C   C627      1.0  0.16023  0.71373  0.27543  1.0000
  C   C628      1.0  0.18788  0.72147  0.26295  1.0000
  C   C629      1.0  0.17361  0.69645  0.29801  1.0000
  C   C630      1.0  0.18372  0.69934  0.31552  1.0000
  C   C631      1.0  0.16214  0.68212  0.30770  1.0000
  H   H734      1.0  0.14824  0.70247  0.10538  1.0000
  C   C632      1.0  0.16141  0.69228  0.07707  1.0000
  S   S173      1.0  0.22510  0.76142  0.41085  1.0000
  H   H735      1.0  0.16443  0.69147  0.25031  1.0000
  H   H736      1.0  0.17638  0.70926  0.22711  1.0000
  H   H737      1.0  0.18502  0.69527  0.24485  1.0000
  H   H738      1.0  0.16056  0.72283  0.25631  1.0000
  H   H739      1.0  0.15898  0.71896  0.29370  1.0000
  H   H740      1.0  0.14956  0.70440  0.27937  1.0000
  H   H741      1.0  0.18734  0.72843  0.27863  1.0000
  H   H742      1.0  0.19890  0.71788  0.26040  1.0000
  H   H743      1.0  0.18855  0.72958  0.24240  1.0000
  H   H744      1.0  0.19258  0.71004  0.31046  1.0000
  H   H745      1.0  0.15374  0.67929  0.29606  1.0000
  Fe  Fe83      1.0  0.22958  0.70750  0.45739  1.0000
  C   C633      1.0  0.03997  0.68095  0.02659  1.0000
  C   C634      1.0  0.19552  0.98213  0.06341  1.0000
  N   N41       1.0  0.08542  0.80153  0.28475  1.0000
  C   C635      1.0  0.07137  0.79532  0.27623  1.0000
  C   C636      1.0  0.08146  0.79852  0.31610  1.0000
  C   C637      1.0  0.09005  0.81864  0.27266  1.0000
  C   C638      1.0  0.09757  0.79381  0.27530  1.0000
  C   C639      1.0  0.11185  0.80195  0.25515  1.0000
  C   C640      1.0  0.09529  0.77759  0.28633  1.0000
  C   C641      1.0  0.12315  0.79430  0.24717  1.0000
  C   C642      1.0  0.10674  0.77009  0.27836  1.0000
  C   C643      1.0  0.12069  0.77846  0.25896  1.0000
  H   H746      1.0  0.07370  0.79763  0.25275  1.0000
  H   H747      1.0  0.06668  0.78261  0.28550  1.0000
  H   H748      1.0  0.06189  0.80071  0.28344  1.0000
  H   H749      1.0  0.07599  0.78610  0.32717  1.0000
  H   H750      1.0  0.07304  0.80500  0.32375  1.0000
  H   H751      1.0  0.09194  0.80212  0.32352  1.0000
  H   H752      1.0  0.09224  0.82190  0.24918  1.0000
  H   H753      1.0  0.08087  0.82413  0.28079  1.0000
  H   H754      1.0  0.10053  0.82406  0.27849  1.0000
  H   H755      1.0  0.11479  0.81432  0.24572  1.0000
  H   H756      1.0  0.08468  0.77060  0.30145  1.0000
  H   H757      1.0  0.13412  0.80078  0.23237  1.0000
  H   H758      1.0  0.10490  0.75776  0.28748  1.0000
  H   H759      1.0  0.12972  0.77272  0.25331  1.0000
  N   N42       1.0  0.06962  0.95526  0.08670  1.0000
  C   C644      1.0  0.05342  0.94839  0.10396  1.0000
  C   C645      1.0  0.22837  0.97277  0.18021  1.0000
  C   C646      1.0  0.08219  0.70729  0.05450  1.0000
  C   C647      1.0  0.07247  0.97231  0.07579  1.0000
  C   C648      1.0  0.08553  0.98301  0.07787  1.0000
  S   S174      1.0  0.17209  0.98043  0.15900  1.0000
  H   H760      1.0  0.04179  0.88048  0.01261  1.0000
  C   C649      1.0  0.16995  0.72146  0.03840  1.0000
  C   C650      1.0  0.16028  0.71899  0.06541  1.0000
  H   H761      1.0  0.14978  0.68478  0.98941  1.0000
  C   C651      1.0  0.02320  0.85018  0.09058  1.0000
  H   H762      1.0  0.08324  0.67541  0.03040  1.0000
  C   C652      1.0  0.17139  0.67428  0.34919  1.0000
  H   H763      1.0  0.98914  0.70513  0.12030  1.0000
  H   H764      1.0  0.06900  0.68342  0.09965  1.0000
  C   C653      1.0  0.07979  0.95068  0.10487  1.0000
  C   C654      1.0  0.17098  0.69457  0.05003  1.0000
  H   H765      1.0  0.09211  0.95405  0.09263  1.0000
  C   C655      1.0  0.08762  0.87219  0.46206  1.0000
  H   H766      1.0  0.18496  0.76038  0.33572  1.0000
  H   H767      1.0  0.98425  0.79690  0.04921  1.0000
  C   C656      1.0  0.12629  0.97997  0.06404  1.0000
  H   H768      1.0  0.04495  0.94912  0.09104  1.0000
  N   N43       1.0  0.03417  0.72649  0.17807  1.0000
  C   C657      1.0  0.02076  0.72629  0.20078  1.0000
  C   C658      1.0  0.03664  0.74005  0.15362  1.0000
  C   C659      1.0  0.03010  0.71223  0.16845  1.0000
  C   C660      1.0  0.04816  0.72783  0.18875  1.0000
  C   C661      1.0  0.05350  0.74082  0.19877  1.0000
  C   C662      1.0  0.05702  0.71667  0.18904  1.0000
  C   C663      1.0  0.06698  0.74261  0.20808  1.0000
  C   C664      1.0  0.07043  0.71856  0.19847  1.0000
  C   C665      1.0  0.07546  0.73152  0.20782  1.0000
  H   H769      1.0  0.02174  0.73757  0.20627  1.0000
  H   H770      1.0  0.00978  0.72404  0.19424  1.0000
  H   H771      1.0  0.01934  0.71710  0.22044  1.0000
  H   H772      1.0  0.03766  0.75114  0.15984  1.0000
  H   H773      1.0  0.02680  0.73907  0.14377  1.0000
  H   H774      1.0  0.04724  0.74124  0.13690  1.0000
  H   H775      1.0  0.01945  0.71151  0.16078  1.0000
  H   H776      1.0  0.03941  0.71184  0.15056  1.0000
  H   H777      1.0  0.02778  0.70155  0.18603  1.0000
  H   H778      1.0  0.04734  0.74976  0.19918  1.0000
  H   H779      1.0  0.05394  0.70640  0.18195  1.0000
  H   H780      1.0  0.07095  0.75271  0.21534  1.0000
  H   H781      1.0  0.07707  0.70995  0.19832  1.0000
  H   H782      1.0  0.08602  0.73293  0.21472  1.0000
  S   S175      1.0  0.11688  0.96884  0.04402  1.0000
  C   C666      1.0  0.18903  0.80760  0.34036  1.0000
  H   H783      1.0  0.18647  0.75160  0.38681  1.0000
  H   H784      1.0  0.20226  0.97947  0.04463  1.0000
  H   H785      1.0  0.23218  0.78282  0.16598  1.0000
  H   H786      1.0  0.02444  0.69280  0.08327  1.0000
  H   H787      1.0  0.15276  0.76871  0.40195  1.0000
  H   H788      1.0  0.15159  0.98217  0.01864  1.0000
  S   S176      1.0  0.02520  0.80563  0.21934  1.0000
  S   S177      1.0  0.16098  0.95893  0.24133  1.0000
  C   C667      1.0  0.17970  0.79261  0.34583  1.0000
  C   C668      1.0  0.17552  0.70930  0.02975  1.0000
  H   H789      1.0  0.22258  0.96110  0.14946  1.0000
  C   C669      1.0  0.05991  0.68917  0.05036  1.0000
  C   C670      1.0  0.20024  0.72385  0.99759  1.0000
  H   H790      1.0  0.12870  0.95967  0.09230  1.0000
  N   N44       1.0  0.13880  0.89068  0.21346  1.0000
  C   C671      1.0  0.12410  0.89487  0.21168  1.0000
  C   C672      1.0  0.13870  0.87648  0.20335  1.0000
  C   C673      1.0  0.13914  0.88666  0.24359  1.0000
  C   C674      1.0  0.15209  0.90399  0.19725  1.0000
  C   C675      1.0  0.15309  0.91868  0.20301  1.0000
  C   C676      1.0  0.16453  0.90277  0.17620  1.0000
  C   C677      1.0  0.16562  0.93139  0.18859  1.0000
  C   C678      1.0  0.17703  0.91559  0.16176  1.0000
  C   C679      1.0  0.17756  0.92987  0.16793  1.0000
  H   H791      1.0  0.12384  0.89910  0.18924  1.0000
  H   H792      1.0  0.11389  0.88484  0.22233  1.0000
  H   H793      1.0  0.12209  0.90402  0.22247  1.0000
  H   H794      1.0  0.12835  0.86687  0.21566  1.0000
  H   H795      1.0  0.14876  0.87180  0.20641  1.0000
  H   H796      1.0  0.13857  0.87868  0.18066  1.0000
  H   H797      1.0  0.12905  0.87705  0.25670  1.0000
  H   H798      1.0  0.14971  0.88285  0.24613  1.0000
  H   H799      1.0  0.13886  0.89655  0.25308  1.0000
  H   H800      1.0  0.14424  0.92042  0.21903  1.0000
  H   H801      1.0  0.16494  0.89203  0.17064  1.0000
  H   H802      1.0  0.16611  0.94244  0.19372  1.0000
  H   H803      1.0  0.18642  0.91442  0.14582  1.0000
  H   H804      1.0  0.18728  0.93976  0.15688  1.0000
  N   N45       1.0  0.10968  0.90809  0.37430  1.0000
  C   C680      1.0  0.10747  0.89551  0.35990  1.0000
  C   C681      1.0  0.11914  0.90417  0.39433  1.0000
  C   C682      1.0  0.09444  0.90833  0.39134  1.0000
  C   C683      1.0  0.11674  0.92317  0.35273  1.0000
  C   C684      1.0  0.10870  0.92888  0.33304  1.0000
  C   C685      1.0  0.13169  0.93243  0.35018  1.0000
  C   C686      1.0  0.11509  0.94305  0.31244  1.0000
  C   C687      1.0  0.13803  0.94652  0.32927  1.0000
  C   C688      1.0  0.12973  0.95184  0.31054  1.0000
  H   H805      1.0  0.11870  0.89507  0.34686  1.0000
  H   H806      1.0  0.10227  0.88390  0.37535  1.0000
  H   H807      1.0  0.09978  0.89703  0.34551  1.0000
  H   H808      1.0  0.13045  0.90284  0.38321  1.0000
  H   H809      1.0  0.11343  0.89287  0.41046  1.0000
  H   H810      1.0  0.12109  0.91306  0.40629  1.0000
  H   H811      1.0  0.08588  0.90903  0.37859  1.0000
  H   H812      1.0  0.08926  0.89762  0.40909  1.0000
  H   H813      1.0  0.09548  0.91838  0.40077  1.0000
  H   H814      1.0  0.09756  0.92223  0.33285  1.0000
  H   H815      1.0  0.13882  0.92897  0.36378  1.0000
  H   H816      1.0  0.10890  0.94696  0.29715  1.0000
  H   H817      1.0  0.14959  0.95325  0.32708  1.0000
  H   H818      1.0  0.13490  0.96253  0.29382  1.0000
  H   H819      1.0  0.16457  0.98079  0.05673  1.0000
  C   C689      1.0  0.98715  0.73336  0.15558  1.0000
  H   H820      1.0  0.14658  0.75276  0.38746  1.0000
  H   H821      1.0  0.17153  0.79094  0.33330  1.0000
  H   H822      1.0  0.16689  0.74053  0.39651  1.0000
  N   N46       1.0  0.17085  0.76430  0.37221  1.0000
  C   C690      1.0  0.15453  0.76450  0.38248  1.0000
  C   C691      1.0  0.17267  0.75939  0.34552  1.0000
  C   C692      1.0  0.17431  0.75232  0.39353  1.0000
  C   C693      1.0  0.18089  0.78008  0.36696  1.0000
  C   C694      1.0  0.19174  0.78360  0.38280  1.0000
  C   C695      1.0  0.02229  0.85184  0.04125  1.0000
  H   H823      1.0  0.08442  0.95302  0.04918  1.0000
  S   S178      1.0  0.22343  0.68276  0.45118  1.0000
  C   C696      1.0  0.13086  0.97217  0.08719  1.0000
  Fe  Fe84      1.0  0.10894  0.97458  0.00284  1.0000
  C   C697      1.0  0.13822  0.98036  0.10386  1.0000
  S   S179      1.0  0.00626  0.79112  0.16542  1.0000
  C   C698      1.0  0.03317  0.69038  0.06775  1.0000
  H   H824      1.0  0.22270  0.78086  0.35959  1.0000
  S   S180      1.0  0.22188  0.81320  0.19740  1.0000
  Fe  Fe85      1.0  0.00282  0.79255  0.21085  1.0000
  H   H825      1.0  0.20934  0.80099  0.38931  1.0000
  H   H826      1.0  0.07697  0.93788  0.11381  1.0000
  H   H827      1.0  0.07877  0.95603  0.12298  1.0000
  H   H828      1.0  0.02430  0.85578  0.10738  1.0000
  Fe  Fe86      1.0  0.22950  0.74155  0.44086  1.0000
  H   H829      1.0  0.15591  0.72835  0.07141  1.0000
  C   C699      1.0  0.06238  0.97866  0.06137  1.0000
  C   C700      1.0  0.02035  0.83410  0.09654  1.0000
  H   H830      1.0  0.16838  0.76650  0.32949  1.0000
  C   C701      1.0  0.08669  0.68775  0.03084  1.0000
  H   H831      1.0  0.02865  0.84511  0.98883  1.0000
  H   H832      1.0  0.17056  0.66578  0.36870  1.0000
  H   H833      1.0  0.08758  0.69544  0.00972  1.0000
  H   H834      1.0  0.02723  0.93022  0.98807  1.0000
  C   C702      1.0  0.01211  0.87108  0.01453  1.0000
  N   N47       1.0  0.02338  0.86145  0.01264  1.0000
  C   C703      1.0  0.18974  0.69811  0.99472  1.0000
  H   H835      1.0  0.00836  0.84440  0.99990  1.0000
  H   H836      1.0  0.07576  0.71028  0.07313  1.0000
  C   C704      1.0  0.16115  0.67120  0.33281  1.0000
  H   H837      1.0  0.15236  0.66028  0.33979  1.0000
  C   C705      1.0  0.02896  0.68446  0.04623  1.0000
  H   H838      1.0  0.07020  0.93550  0.06951  1.0000
  H   H839      1.0  0.05054  0.95433  0.12090  1.0000
  C   C706      1.0  0.07229  0.94834  0.06242  1.0000
  H   H840      1.0  0.09411  0.97934  0.08769  1.0000
  H   H841      1.0  0.16649  0.71054  0.98221  1.0000
  C   C707      1.0  0.01946  0.83539  0.04803  1.0000
  H   H842      1.0  0.05130  0.93580  0.11437  1.0000
  H   H843      1.0  0.16620  0.74716  0.34897  1.0000
  H   H844      1.0  0.05085  0.69656  0.08787  1.0000
  C   C708      1.0  0.13853  0.66032  0.05576  1.0000
  H   H845      1.0  0.05264  0.97128  0.05766  1.0000
  N   N48       1.0  0.18567  0.71223  0.00093  1.0000
  C   C709      1.0  0.18259  0.68833  0.34063  1.0000
  C   C710      1.0  0.05525  0.68328  0.02843  1.0000
  N   N49       1.0  0.07579  0.69112  0.05383  1.0000
  H   H846      1.0  0.17297  0.73299  0.02428  1.0000
  H   H847      1.0  0.15778  0.68088  0.09198  1.0000
  H   H848      1.0  0.09438  0.70922  0.05602  1.0000
  H   H849      1.0  0.21820  0.73248  0.39547  1.0000
  H   H850      1.0  0.05294  0.65642  0.13091  1.0000
  H   H851      1.0  0.00247  0.66919  0.13423  1.0000
  H   H852      1.0  0.01608  0.81419  0.08025  1.0000
  H   H853      1.0  0.19043  0.69072  0.35367  1.0000
  H   H854      1.0  0.17926  0.68891  0.99665  1.0000
  C   C711      1.0  0.14587  0.66615  0.02670  1.0000
  C   C712      1.0  0.10667  0.85947  0.47567  1.0000
  H   H855      1.0  0.01903  0.82724  0.11791  1.0000
  S   S181      1.0  0.98351  0.67929  0.07665  1.0000
  H   H856      1.0  0.01476  0.87990  0.02625  1.0000
  C   C713      1.0  0.01353  0.66651  0.13326  1.0000
  S   S182      1.0  0.08810  0.66294  0.13933  1.0000
  H   H857      1.0  0.06980  0.66823  0.08202  1.0000
  H   H858      1.0  0.01740  0.82882  0.03298  1.0000
  H   H859      1.0  0.06310  0.68015  0.01266  1.0000
  H   H860      1.0  0.21666  0.97349  0.18819  1.0000
  Fe  Fe87      1.0  0.09873  0.66106  0.17633  1.0000
  H   H861      1.0  0.07959  0.87917  0.46629  1.0000
  C   C714      1.0  0.02023  0.85220  0.99241  1.0000
  C   C715      1.0  0.98268  0.80662  0.05767  1.0000
  Fe  Fe88      1.0  0.17052  0.78498  0.67654  1.0000
  S   S183      1.0  0.17416  0.77102  0.71635  1.0000
  S   S184      1.0  0.15143  0.79726  0.68295  1.0000
  Fe  Fe89      1.0  0.19633  0.77687  0.63914  1.0000
  S   S185      1.0  0.20222  0.76245  0.67571  1.0000
  S   S186      1.0  0.20900  0.78122  0.59326  1.0000
  Fe  Fe90      1.0  0.17656  0.75292  0.69294  1.0000
  S   S187      1.0  0.16838  0.72734  0.71589  1.0000
  Fe  Fe91      1.0  0.19942  0.78165  0.69634  1.0000
  H   H862      1.0  0.17841  0.97396  0.80552  1.0000
  S   S188      1.0  0.17081  0.76585  0.65467  1.0000
  S   S189      1.0  0.19565  0.79708  0.65821  1.0000
  H   H863      1.0  0.15096  0.69174  0.64321  1.0000
  H   H864      1.0  0.99837  0.81273  0.56985  1.0000
  C   C716      1.0  0.06950  0.83283  0.52604  1.0000
  S   S190      1.0  0.10471  0.68463  0.71575  1.0000
  C   C717      1.0  0.06742  0.91136  0.85182  1.0000
  C   C718      1.0  0.23094  0.71080  0.96354  1.0000
  C   C719      1.0  0.07502  0.96044  0.88682  1.0000
  H   H865      1.0  0.05562  0.93618  0.88736  1.0000
  H   H866      1.0  0.06736  0.84196  0.50969  1.0000
  H   H867      1.0  0.16796  0.71562  0.81214  1.0000
  S   S191      1.0  0.19967  0.67715  0.88973  1.0000
  H   H868      1.0  0.16296  0.71259  0.58184  1.0000
  S   S192      1.0  0.17549  0.68886  0.93382  1.0000
  Fe  Fe92      1.0  0.17420  0.67555  0.90073  1.0000
  S   S193      1.0  0.16197  0.68286  0.86671  1.0000
  Fe  Fe93      1.0  0.20067  0.68895  0.92497  1.0000
  S   S194      1.0  0.21832  0.71218  0.91698  1.0000
  H   H869      1.0  0.05320  0.66787  0.81324  1.0000
  Fe  Fe94      1.0  0.10313  0.87162  0.55234  1.0000
  S   S195      1.0  0.10297  0.84761  0.57574  1.0000
  Fe  Fe95      1.0  0.11101  0.88540  0.60185  1.0000
  S   S196      1.0  0.11095  0.86203  0.62789  1.0000
  S   S197      1.0  0.11332  0.90692  0.61971  1.0000
  Fe  Fe96      1.0  0.12406  0.85909  0.58701  1.0000
  S   S198      1.0  0.14514  0.84947  0.58222  1.0000
  Fe  Fe97      1.0  0.08975  0.85263  0.61446  1.0000
  S   S199      1.0  0.07028  0.83352  0.64656  1.0000
  S   S200      1.0  0.12534  0.88310  0.56102  1.0000
  S   S201      1.0  0.08870  0.87607  0.59101  1.0000
  S   S202      1.0  0.99744  0.82170  0.66719  1.0000
  H   H870      1.0  0.16716  0.83118  0.58550  1.0000
  C   C720      1.0  0.14799  0.70313  0.63873  1.0000
  H   H871      1.0  0.22851  0.93579  0.73206  1.0000
  C   C721      1.0  0.21089  0.73754  0.59022  1.0000
  C   C722      1.0  0.14050  0.98105  0.81085  1.0000
  S   S203      1.0  0.99038  0.84490  0.86113  1.0000
  N   N50       1.0  0.17439  0.97536  0.60591  1.0000
  C   C723      1.0  0.13465  0.66347  0.82196  1.0000
  S   S204      1.0  0.19653  0.66652  0.95792  1.0000
  S   S205      1.0  0.09509  0.98048  0.93314  1.0000
  C   C724      1.0  0.13069  0.98545  0.85708  1.0000
  S   S206      1.0  0.16045  0.93834  0.68345  1.0000
  Fe  Fe98      1.0  0.00248  0.87432  0.93560  1.0000
  S   S207      1.0  0.02623  0.89069  0.93268  1.0000
  S   S208      1.0  0.00322  0.85010  0.93214  1.0000
  C   C725      1.0  0.15165  0.93714  0.57854  1.0000
  C   C726      1.0  0.05883  0.92255  0.95075  1.0000
  C   C727      1.0  0.05126  0.91059  0.94057  1.0000
  C   C728      1.0  0.03501  0.90573  0.94697  1.0000
  C   C729      1.0  0.16690  0.96220  0.59630  1.0000
  H   H872      1.0  0.18375  0.96255  0.63673  1.0000
  Fe  Fe99      1.0  0.22491  0.72547  0.50254  1.0000
  H   H873      1.0  0.05809  0.90505  0.92753  1.0000
  H   H874      1.0  0.06926  0.95241  0.90830  1.0000
  H   H875      1.0  0.12856  0.66750  0.80665  1.0000
  H   H876      1.0  0.14252  0.70435  0.65990  1.0000
  S   S209      1.0  0.21366  0.78756  0.72657  1.0000
  C   C730      1.0  0.20212  0.72183  0.85140  1.0000
  H   H877      1.0  0.04070  0.87860  0.97829  1.0000
  H   H878      1.0  0.10483  0.96355  0.83108  1.0000
  H   H879      1.0  0.19717  0.84361  0.73788  1.0000
  C   C731      1.0  0.17211  0.72705  0.79596  1.0000
  S   S210      1.0  0.13447  0.96863  0.90724  1.0000
  C   C732      1.0  0.19319  0.71879  0.77139  1.0000
  C   C733      1.0  0.05006  0.83083  0.65265  1.0000
  C   C734      1.0  0.04029  0.81698  0.67140  1.0000
  C   C735      1.0  0.02415  0.81411  0.67642  1.0000
  C   C736      1.0  0.01762  0.82511  0.66263  1.0000
  C   C737      1.0  0.02739  0.83909  0.64417  1.0000
  C   C738      1.0  0.04354  0.84199  0.63930  1.0000
  H   H880      1.0  0.04522  0.80832  0.68198  1.0000
  H   H881      1.0  0.01677  0.80332  0.69070  1.0000
  H   H882      1.0  0.02241  0.84769  0.63354  1.0000
  H   H883      1.0  0.05090  0.85287  0.62536  1.0000
  C   C739      1.0  0.12624  0.91514  0.63832  1.0000
  C   C740      1.0  0.12487  0.92899  0.64570  1.0000
  C   C741      1.0  0.13502  0.93617  0.65971  1.0000
  C   C742      1.0  0.14679  0.92961  0.66662  1.0000
  C   C743      1.0  0.14805  0.91567  0.65953  1.0000
  C   C744      1.0  0.13788  0.90848  0.64554  1.0000
  H   H884      1.0  0.11594  0.93429  0.64032  1.0000
  H   H885      1.0  0.13371  0.94677  0.66514  1.0000
  H   H886      1.0  0.15705  0.91041  0.66471  1.0000
  H   H887      1.0  0.13918  0.89786  0.64011  1.0000
  H   H888      1.0  0.14995  0.97341  0.58173  1.0000
  C   C745      1.0  0.18756  0.97264  0.61758  1.0000
  H   H889      1.0  0.14546  0.92734  0.57277  1.0000
  C   C746      1.0  0.09794  0.95152  0.88678  1.0000
  C   C747      1.0  0.02063  0.82003  0.53956  1.0000
  H   H890      1.0  0.10153  0.93756  0.83922  1.0000
  Fe  Fe100     1.0  0.98671  0.85111  0.90427  1.0000
  C   C748      1.0  0.98619  0.83138  0.81766  1.0000
  Fe  Fe101     1.0  0.19145  0.97181  0.73204  1.0000
  H   H891      1.0  0.14357  0.68631  0.82662  1.0000
  H   H892      1.0  0.21035  0.75753  0.78731  1.0000
  H   H893      1.0  0.20590  0.72119  0.76293  1.0000
  H   H894      1.0  0.17579  0.76889  0.57583  1.0000
  C   C749      1.0  0.05031  0.92991  0.96780  1.0000
  C   C750      1.0  0.21400  0.76594  0.55213  1.0000
  C   C751      1.0  0.16955  0.74438  0.59636  1.0000
  H   H895      1.0  0.18099  0.74355  0.58729  1.0000
  C   C752      1.0  0.16970  0.71201  0.59800  1.0000
  C   C753      1.0  0.16297  0.97831  0.62849  1.0000
  C   C754      1.0  0.06377  0.93191  0.87415  1.0000
  C   C755      1.0  0.03663  0.82477  0.53538  1.0000
  C   C756      1.0  0.21095  0.76478  0.58126  1.0000
  C   C757      1.0  0.20952  0.75058  0.60030  1.0000
  N   N51       1.0  0.08658  0.95421  0.87023  1.0000
  H   H896      1.0  0.20735  0.74968  0.62277  1.0000
  H   H897      1.0  0.18147  0.71968  0.58763  1.0000
  C   C758      1.0  0.15009  0.71604  0.71732  1.0000
  C   C759      1.0  0.13983  0.72236  0.70416  1.0000
  C   C760      1.0  0.12570  0.71272  0.70442  1.0000
  C   C761      1.0  0.12186  0.69673  0.71760  1.0000
  C   C762      1.0  0.13199  0.69051  0.73119  1.0000
  C   C763      1.0  0.14605  0.70013  0.73101  1.0000
  H   H898      1.0  0.14284  0.73463  0.69358  1.0000
  H   H899      1.0  0.11784  0.71761  0.69406  1.0000
  H   H900      1.0  0.12911  0.67822  0.74152  1.0000
  H   H901      1.0  0.15391  0.69516  0.74127  1.0000
  S   S211      1.0  0.09461  0.87637  0.51161  1.0000
  C   C764      1.0  0.19458  0.72050  0.83009  1.0000
  S   S212      1.0  0.10498  0.95577  0.98000  1.0000
  Fe  Fe102     1.0  0.16082  0.98003  0.74228  1.0000
  C   C765      1.0  0.14383  0.96515  0.85372  1.0000
  C   C766      1.0  0.14642  0.83456  0.61009  1.0000
  C   C767      1.0  0.13557  0.82975  0.63645  1.0000
  C   C768      1.0  0.13715  0.81819  0.65850  1.0000
  C   C769      1.0  0.14948  0.81122  0.65430  1.0000
  C   C770      1.0  0.16024  0.81585  0.62784  1.0000
  C   C771      1.0  0.15875  0.82755  0.60587  1.0000
  H   H902      1.0  0.12601  0.83501  0.63992  1.0000
  H   H903      1.0  0.12877  0.81463  0.67889  1.0000
  H   H904      1.0  0.16978  0.81056  0.62437  1.0000
  H   H905      1.0  0.20980  0.72657  0.60499  1.0000
  C   C772      1.0  0.22623  0.80618  0.71941  1.0000
  C   C773      1.0  0.05778  0.91802  0.86805  1.0000
  Fe  Fe103     1.0  0.16714  0.95933  0.70168  1.0000
  H   H906      1.0  0.17896  0.80350  0.74175  1.0000
  H   H907      1.0  0.06562  0.68412  0.73538  1.0000
  C   C774      1.0  0.14361  0.73388  0.62686  1.0000
  H   H908      1.0  0.06268  0.90050  0.84746  1.0000
  S   S213      1.0  0.19233  0.97227  0.68666  1.0000
  C   C775      1.0  0.01077  0.81624  0.56669  1.0000
  C   C776      1.0  0.07976  0.93958  0.86399  1.0000
  S   S214      1.0  0.16694  0.95711  0.74777  1.0000
  H   H909      1.0  0.20797  0.72673  0.97583  1.0000
  C   C777      1.0  0.20799  0.85342  0.63022  1.0000
  C   C778      1.0  0.20764  0.74723  0.80471  1.0000
  H   H910      1.0  0.16854  0.73588  0.80633  1.0000
  Fe  Fe104     1.0  0.11700  0.97476  0.93983  1.0000
  C   C779      1.0  0.21356  0.73862  0.56114  1.0000
  H   H911      1.0  0.04358  0.82776  0.51380  1.0000
  H   H912      1.0  0.18774  0.84117  0.62126  1.0000
  H   H913      1.0  0.04558  0.91221  0.87649  1.0000
  H   H914      1.0  0.18971  0.75549  0.76740  1.0000
  H   H915      1.0  0.08208  0.83659  0.52440  1.0000
  H   H916      1.0  0.22355  0.81460  0.67752  1.0000
  H   H917      1.0  0.98278  0.71374  0.83658  1.0000
  H   H918      1.0  0.21168  0.97196  0.89932  1.0000
  H   H919      1.0  0.18675  0.70943  0.83262  1.0000
  H   H920      1.0  0.19678  0.97059  0.60160  1.0000
  H   H921      1.0  0.07127  0.92593  0.94569  1.0000
  H   H922      1.0  0.14806  0.95574  0.86383  1.0000
  C   C780      1.0  0.13629  0.97344  0.87030  1.0000
  C   C781      1.0  0.16401  0.93582  0.59023  1.0000
  N   N52       1.0  0.07169  0.86830  0.69425  1.0000
  C   C782      1.0  0.07706  0.88187  0.70488  1.0000
  C   C783      1.0  0.08186  0.85766  0.69808  1.0000
  C   C784      1.0  0.07367  0.87416  0.66329  1.0000
  C   C785      1.0  0.05558  0.85998  0.71023  1.0000
  C   C786      1.0  0.04336  0.85740  0.69690  1.0000
  C   C787      1.0  0.05176  0.85390  0.74014  1.0000
  C   C788      1.0  0.02841  0.84897  0.71253  1.0000
  C   C789      1.0  0.03673  0.84565  0.75563  1.0000
  C   C790      1.0  0.02511  0.84311  0.74181  1.0000
  H   H923      1.0  0.06924  0.88976  0.70359  1.0000
  H   H924      1.0  0.07765  0.87843  0.72724  1.0000
  H   H925      1.0  0.08889  0.88881  0.69223  1.0000
  H   H926      1.0  0.08204  0.85358  0.72054  1.0000
  H   H927      1.0  0.09403  0.86336  0.68577  1.0000
  H   H928      1.0  0.07800  0.84716  0.69076  1.0000
  H   H929      1.0  0.06663  0.88255  0.65864  1.0000
  H   H930      1.0  0.08588  0.88042  0.65193  1.0000
  H   H931      1.0  0.07055  0.86448  0.65356  1.0000
  H   H932      1.0  0.04503  0.86160  0.67436  1.0000
  H   H933      1.0  0.06043  0.85535  0.75176  1.0000
  H   H934      1.0  0.01935  0.84681  0.70181  1.0000
  H   H935      1.0  0.03407  0.84107  0.77845  1.0000
  H   H936      1.0  0.01351  0.83653  0.75377  1.0000
  H   H937      1.0  0.09910  0.97776  0.84717  1.0000
  H   H938      1.0  0.02107  0.85977  0.97119  1.0000
  H   H939      1.0  0.09254  0.94208  0.90669  1.0000
  C   C791      1.0  0.21514  0.74841  0.82618  1.0000
  H   H940      1.0  0.15300  0.98129  0.62129  1.0000
  C   C792      1.0  0.15811  0.73131  0.61513  1.0000
  H   H941      1.0  0.18055  0.94593  0.60917  1.0000
  H   H942      1.0  0.19661  0.97053  0.80854  1.0000
  C   C793      1.0  0.19710  0.73314  0.80603  1.0000
  C   C794      1.0  0.02058  0.70181  0.77603  1.0000
  H   H943      1.0  0.01401  0.90936  0.96984  1.0000
  H   H944      1.0  0.09062  0.91333  0.82892  1.0000
  H   H945      1.0  0.10789  0.94829  0.87473  1.0000
  H   H946      1.0  0.12978  0.75036  0.62941  1.0000
  H   H947      1.0  0.17556  0.82650  0.67030  1.0000
  H   H948      1.0  0.21515  0.84972  0.69452  1.0000
  H   H949      1.0  0.06607  0.96270  0.87560  1.0000
  H   H950      1.0  0.00914  0.81436  0.61090  1.0000
  H   H951      1.0  0.16737  0.92495  0.59344  1.0000
  H   H952      1.0  0.19509  0.80809  0.71143  1.0000
  H   H953      1.0  0.13433  0.72478  0.64187  1.0000
  C   C795      1.0  0.16665  0.75902  0.58957  1.0000
  C   C796      1.0  0.14680  0.95078  0.57550  1.0000
  H   H954      1.0  0.15022  0.77257  0.59647  1.0000
  H   H955      1.0  0.05502  0.66740  0.76386  1.0000
  N   N53       1.0  0.18906  0.73133  0.78363  1.0000
  C   C797      1.0  0.19299  0.74564  0.75996  1.0000
  C   C798      1.0  0.02648  0.91287  0.96448  1.0000
  H   H956      1.0  0.18917  0.70726  0.78722  1.0000
  H   H957      1.0  0.98348  0.76574  0.81468  1.0000
  H   H958      1.0  0.18680  0.74392  0.74351  1.0000
  H   H959      1.0  0.22765  0.96120  0.79431  1.0000
  H   H960      1.0  0.21334  0.85978  0.60826  1.0000
  H   H961      1.0  0.18070  0.96517  0.83942  1.0000
  C   C799      1.0  0.09462  0.96633  0.84331  1.0000
  C   C800      1.0  0.21549  0.85567  0.65115  1.0000
  N   N54       1.0  0.06299  0.68799  0.77692  1.0000
  C   C801      1.0  0.06217  0.67909  0.80602  1.0000
  C   C802      1.0  0.06479  0.67786  0.75757  1.0000
  C   C803      1.0  0.07718  0.70098  0.76755  1.0000
  C   C804      1.0  0.04861  0.69305  0.77672  1.0000
  C   C805      1.0  0.03408  0.68196  0.78663  1.0000
  C   C806      1.0  0.04849  0.70881  0.76637  1.0000
  C   C807      1.0  0.08313  0.91857  0.84151  1.0000
  H   H962      1.0  0.18779  0.71751  0.75368  1.0000
  H   H963      1.0  0.20666  0.82838  0.73296  1.0000
  H   H964      1.0  0.07318  0.67597  0.80745  1.0000
  H   H965      1.0  0.05954  0.68585  0.82167  1.0000
  H   H966      1.0  0.19705  0.70063  0.97272  1.0000
  S   S215      1.0  0.09405  0.65649  0.78999  1.0000
  H   H967      1.0  0.07539  0.67367  0.75731  1.0000
  H   H968      1.0  0.21719  0.75378  0.51964  1.0000
  H   H969      1.0  0.07677  0.70903  0.78140  1.0000
  H   H970      1.0  0.08773  0.69667  0.76813  1.0000
  H   H971      1.0  0.07911  0.70761  0.74512  1.0000
  H   H972      1.0  0.03323  0.66978  0.79467  1.0000
  H   H973      1.0  0.05893  0.71807  0.75826  1.0000
  H   H974      1.0  0.16573  0.72606  0.77941  1.0000
  H   H975      1.0  0.11363  0.85665  0.49011  1.0000
  H   H976      1.0  0.03474  0.72511  0.75817  1.0000
  C   C808      1.0  0.14321  0.67412  0.83326  1.0000
  H   H977      1.0  0.22675  0.86377  0.64539  1.0000
  H   H978      1.0  0.10293  0.96208  0.89287  1.0000
  C   C809      1.0  0.21240  0.73573  0.84943  1.0000
  C   C810      1.0  0.14082  0.74858  0.61987  1.0000
  S   S216      1.0  0.20843  0.96416  0.75594  1.0000
  H   H979      1.0  0.16822  0.98820  0.63614  1.0000
  H   H980      1.0  0.01583  0.81943  0.52162  1.0000
  H   H981      1.0  0.17601  0.80672  0.70711  1.0000
  H   H982      1.0  0.15138  0.96221  0.81165  1.0000
  H   H983      1.0  0.06741  0.82164  0.52019  1.0000
  C   C811      1.0  0.17151  0.94806  0.59920  1.0000
  H   H984      1.0  0.08042  0.97167  0.89039  1.0000
  H   H985      1.0  0.20002  0.71200  0.86956  1.0000
  C   C812      1.0  0.18658  0.97421  0.81919  1.0000
  C   C813      1.0  0.15230  0.76112  0.60127  1.0000
  S   S217      1.0  0.21463  0.72192  0.54940  1.0000
  H   H986      1.0  0.17146  0.70010  0.60339  1.0000
  H   H987      1.0  0.21516  0.77693  0.53732  1.0000
  C   C814      1.0  0.22388  0.97773  0.76026  1.0000
  H   H988      1.0  0.00940  0.67750  0.79368  1.0000
  H   H989      1.0  0.13689  0.95154  0.56712  1.0000
  H   H990      1.0  0.20551  0.74926  0.74888  1.0000
  H   H991      1.0  0.99722  0.83929  0.80590  1.0000
  N   N55       1.0  0.16181  0.71615  0.62340  1.0000
  C   C815      1.0  0.17220  0.71733  0.64236  1.0000
  C   C816      1.0  0.08925  0.93246  0.84749  1.0000
  C   C817      1.0  0.15126  0.66910  0.85309  1.0000
  H   H992      1.0  0.13924  0.70225  0.62629  1.0000
  C   C818      1.0  0.01684  0.81710  0.58979  1.0000
  H   H993      1.0  0.16668  0.72042  0.66165  1.0000
  H   H994      1.0  0.17539  0.70625  0.64939  1.0000
  H   H995      1.0  0.18302  0.72655  0.63198  1.0000
  C   C819      1.0  0.03462  0.71305  0.76616  1.0000
  C   C820      1.0  0.21522  0.75286  0.54208  1.0000
  N   N56       1.0  0.05999  0.83130  0.55495  1.0000
  C   C821      1.0  0.06311  0.84680  0.56042  1.0000
  C   C822      1.0  0.06525  0.82051  0.57544  1.0000
  C   C823      1.0  0.04320  0.82569  0.55857  1.0000
  H   H996      1.0  0.18922  0.82421  0.75996  1.0000
  C   C824      1.0  0.03278  0.82172  0.58587  1.0000
  H   H997      1.0  0.08674  0.96794  0.82933  1.0000
  C   C825      1.0  0.14584  0.96887  0.82415  1.0000
  C   C826      1.0  0.15432  0.96318  0.58409  1.0000
  H   H998      1.0  0.05684  0.84651  0.58207  1.0000
  H   H999      1.0  0.07555  0.85145  0.55839  1.0000
  H   H1000     1.0  0.05965  0.85538  0.54513  1.0000
  H   H1001     1.0  0.06111  0.82100  0.59771  1.0000
  H   H1002     1.0  0.07805  0.82335  0.57113  1.0000
  H   H1003     1.0  0.06128  0.80830  0.57462  1.0000
  H   H1004     1.0  0.03686  0.82235  0.60445  1.0000
  Fe  Fe105     1.0  0.09888  0.65990  0.74292  1.0000
  H   H1005     1.0  0.00987  0.70511  0.77571  1.0000
  C   C827      1.0  0.02032  0.68629  0.78621  1.0000
  N   N57       1.0  0.18629  0.82757  0.71742  1.0000
  C   C828      1.0  0.17099  0.83071  0.72642  1.0000
  C   C829      1.0  0.18397  0.81077  0.71953  1.0000
  C   C830      1.0  0.19526  0.83118  0.73785  1.0000
  C   C831      1.0  0.19394  0.83659  0.68769  1.0000
  C   C832      1.0  0.20861  0.84745  0.67952  1.0000
  C   C833      1.0  0.18667  0.83460  0.66578  1.0000
  S   S218      1.0  0.15912  0.98131  0.69743  1.0000
  C   C834      1.0  0.19360  0.84292  0.63754  1.0000
  H   H1006     1.0  0.15831  0.96789  0.64700  1.0000
  H   H1007     1.0  0.17210  0.84337  0.72342  1.0000
  H   H1008     1.0  0.16290  0.82655  0.71418  1.0000
  H   H1009     1.0  0.16519  0.82468  0.74910  1.0000
  S   S219      1.0  0.14276  0.98614  0.77378  1.0000
  S   S220      1.0  0.98767  0.87607  0.90445  1.0000
  C   C835      1.0  0.21379  0.97980  0.87851  1.0000
  Fe  Fe106     1.0  0.17134  0.66556  0.96436  1.0000
  H   H1010     1.0  0.17300  0.98407  0.86198  1.0000
  Fe  Fe107     1.0  0.08314  0.96217  0.97414  1.0000
  H   H1011     1.0  0.19296  0.98281  0.62444  1.0000
  H   H1012     1.0  0.22365  0.93013  0.77018  1.0000
  C   C836      1.0  0.23029  0.71966  0.93744  1.0000
  C   C837      1.0  0.17798  0.71844  0.97925  1.0000
  C   C838      1.0  0.23152  0.97297  0.78090  1.0000
  C   C839      1.0  0.03406  0.92479  0.97479  1.0000
  H   H1013     1.0  0.18851  0.98767  0.56402  1.0000
  H   H1014     1.0  0.19073  0.97213  0.87594  1.0000
  C   C840      1.0  0.20188  0.98003  0.86497  1.0000
  S   S221      1.0  0.98278  0.79051  0.74273  1.0000
  H   H1015     1.0  0.18493  0.71982  0.95730  1.0000
  H   H1016     1.0  0.23142  0.80135  0.76004  1.0000
  H   H1017     1.0  0.22454  0.69876  0.97132  1.0000
  H   H1018     1.0  0.98322  0.82160  0.78257  1.0000
  C   C841      1.0  0.22894  0.81736  0.69375  1.0000
  H   H1019     1.0  0.98711  0.71750  0.76516  1.0000
  H   H1020     1.0  0.21828  0.73663  0.86599  1.0000
  H   H1021     1.0  0.22316  0.75922  0.82474  1.0000
  C   C842      1.0  0.09655  0.86873  0.48127  1.0000
  H   H1022     1.0  0.17623  0.73006  0.97992  1.0000
  Fe  Fe108     1.0  0.39190  0.21552  0.25784  1.0000
  S   S222      1.0  0.37545  0.21431  0.29877  1.0000
  S   S223      1.0  0.40126  0.23650  0.21972  1.0000
  Fe  Fe109     1.0  0.39571  0.18305  0.27965  1.0000
  S   S224      1.0  0.37960  0.17962  0.32235  1.0000
  S   S225      1.0  0.40768  0.16388  0.27491  1.0000
  Fe  Fe110     1.0  0.36447  0.18993  0.29766  1.0000
  S   S226      1.0  0.33809  0.18126  0.30979  1.0000
  Fe  Fe111     1.0  0.39208  0.20408  0.31955  1.0000
  S   S227      1.0  0.39872  0.21017  0.35831  1.0000
  S   S228      1.0  0.37990  0.19195  0.25499  1.0000
  S   S229      1.0  0.40918  0.20675  0.27859  1.0000
  H   H1023     1.0  0.30634  0.17425  0.30836  1.0000
  S   S230      1.0  0.46359  0.25018  0.36241  1.0000
  Fe  Fe112     1.0  0.41739  0.11838  0.15753  1.0000
  S   S231      1.0  0.40486  0.09472  0.18629  1.0000
  S   S232      1.0  0.41319  0.14145  0.16221  1.0000
  Fe  Fe113     1.0  0.43462  0.10526  0.11348  1.0000
  S   S233      1.0  0.42333  0.08052  0.13829  1.0000
  S   S234      1.0  0.45349  0.11031  0.07338  1.0000
  Fe  Fe114     1.0  0.40152  0.08835  0.14647  1.0000
  S   S235      1.0  0.37753  0.07457  0.14913  1.0000
  Fe  Fe115     1.0  0.42770  0.08885  0.17573  1.0000
  S   S236      1.0  0.43677  0.07308  0.20596  1.0000
  S   S237      1.0  0.41240  0.11245  0.11832  1.0000
  S   S238      1.0  0.44051  0.11305  0.15030  1.0000
  N   N58       1.0  0.43655  0.18317  0.32457  1.0000
  C   C843      1.0  0.41404  0.25655  0.28997  1.0000
  S   S239      1.0  0.40093  0.30438  0.23117  1.0000
  C   C844      1.0  0.26033  0.00538  0.09036  1.0000
  C   C845      1.0  0.44143  0.18742  0.37045  1.0000
  S   S240      1.0  0.47256  0.26795  0.42875  1.0000
  C   C846      1.0  0.37796  0.99863  0.15803  1.0000
  N   N59       1.0  0.39360  0.27511  0.13125  1.0000
  H   H1024     1.0  0.38678  0.28274  0.16875  1.0000
  Fe  Fe116     1.0  0.27626  0.29911  0.08774  1.0000
  S   S241      1.0  0.29707  0.29091  0.07111  1.0000
  S   S242      1.0  0.25240  0.28482  0.11425  1.0000
  H   H1025     1.0  0.33410  0.10385  0.21043  1.0000
  H   H1026     1.0  0.23682  0.05087  0.23522  1.0000
  H   H1027     1.0  0.36735  0.14804  0.19572  1.0000
  Fe  Fe117     1.0  0.30994  0.30839  0.08940  1.0000
  S   S243      1.0  0.32577  0.30157  0.11653  1.0000
  Fe  Fe118     1.0  0.47763  0.24849  0.45868  1.0000
  H   H1028     1.0  0.24682  0.16017  0.47851  1.0000
  Fe  Fe119     1.0  0.33904  0.02985  0.05567  1.0000
  S   S244      1.0  0.32127  0.01715  0.09627  1.0000
  S   S245      1.0  0.36253  0.04586  0.04961  1.0000
  Fe  Fe120     1.0  0.32149  0.01252  0.02116  1.0000
  Fe  Fe121     1.0  0.24200  0.13084  0.27567  1.0000
  Fe  Fe122     1.0  0.30366  0.02036  0.07183  1.0000
  S   S246      1.0  0.28390  0.02826  0.09464  1.0000
  Fe  Fe123     1.0  0.32124  0.99571  0.08108  1.0000
  H   H1029     1.0  0.25001  0.24054  0.07226  1.0000
  S   S247      1.0  0.32157  0.03519  0.03207  1.0000
  H   H1030     1.0  0.28560  0.99350  0.15501  1.0000
  Fe  Fe124     1.0  0.26974  0.11982  0.28829  1.0000
  S   S248      1.0  0.25514  0.13347  0.30874  1.0000
  S   S249      1.0  0.29597  0.12509  0.28047  1.0000
  H   H1031     1.0  0.28954  0.15245  0.29773  1.0000
  S   S250      1.0  0.25775  0.11864  0.25353  1.0000
  C   C847      1.0  0.24408  0.26632  0.11100  1.0000
  S   S251      1.0  0.34026  0.00819  0.04211  1.0000
  H   H1032     1.0  0.41865  0.19500  0.33088  1.0000
  H   H1033     1.0  0.23294  0.16967  0.19593  1.0000
  C   C848      1.0  0.42005  0.18300  0.33384  1.0000
  C   C849      1.0  0.25155  0.25990  0.09085  1.0000
  C   C850      1.0  0.46990  0.04802  0.19350  1.0000
  H   H1034     1.0  0.31345  0.11581  0.22518  1.0000
  H   H1035     1.0  0.26281  0.26621  0.07710  1.0000
  C   C851      1.0  0.38382  0.00368  0.17916  1.0000
  H   H1036     1.0  0.44139  0.00508  0.19679  1.0000
  S   S252      1.0  0.25466  0.09646  0.31506  1.0000
  C   C852      1.0  0.45297  0.99982  0.34093  1.0000
  H   H1037     1.0  0.46559  0.28804  0.22809  1.0000
  C   C853      1.0  0.37683  0.30890  0.07948  1.0000
  H   H1038     1.0  0.34599  0.15929  0.21057  1.0000
  H   H1039     1.0  0.36804  0.12709  0.14815  1.0000
  C   C854      1.0  0.47198  0.13706  0.15699  1.0000
  H   H1040     1.0  0.38491  0.12178  0.15568  1.0000
  H   H1041     1.0  0.26059  0.14166  0.41717  1.0000
  C   C855      1.0  0.34145  0.31561  0.11883  1.0000
  H   H1042     1.0  0.40127  0.25231  0.29805  1.0000
  H   H1043     1.0  0.38092  0.13915  0.16206  1.0000
  H   H1044     1.0  0.34762  0.29915  0.14955  1.0000
  C   C856      1.0  0.24859  0.12128  0.45142  1.0000
  C   C857      1.0  0.45911  0.12959  0.05241  1.0000
  C   C858      1.0  0.47151  0.13402  0.02813  1.0000
  H   H1045     1.0  0.23435  0.06166  0.35507  1.0000
  H   H1046     1.0  0.29659  0.31464  0.17177  1.0000
  C   C859      1.0  0.45652  0.15603  0.04304  1.0000
  C   C860      1.0  0.45163  0.14063  0.05990  1.0000
  H   H1047     1.0  0.41761  0.28287  0.10764  1.0000
  C   C861      1.0  0.48008  0.11175  0.13030  1.0000
  H   H1048     1.0  0.44214  0.13732  0.07874  1.0000
  C   C862      1.0  0.37355  0.06711  0.12082  1.0000
  C   C863      1.0  0.38512  0.06891  0.09634  1.0000
  C   C864      1.0  0.38155  0.06254  0.07447  1.0000
  C   C865      1.0  0.36643  0.05431  0.07692  1.0000
  C   C866      1.0  0.35486  0.05257  0.10135  1.0000
  C   C867      1.0  0.35843  0.05891  0.12322  1.0000
  H   H1049     1.0  0.39681  0.07520  0.09429  1.0000
  H   H1050     1.0  0.39057  0.06393  0.05565  1.0000
  H   H1051     1.0  0.34315  0.04638  0.10341  1.0000
  H   H1052     1.0  0.34942  0.05749  0.14208  1.0000
  C   C868      1.0  0.45804  0.01352  0.26648  1.0000
  C   C869      1.0  0.41400  0.28265  0.29275  1.0000
  H   H1053     1.0  0.36989  0.03528  0.99134  1.0000
  H   H1054     1.0  0.31904  0.14340  0.22484  1.0000
  H   H1055     1.0  0.25631  0.03098  0.13010  1.0000
  H   H1056     1.0  0.37519  0.03367  0.12109  1.0000
  H   H1057     1.0  0.47589  0.14918  0.08557  1.0000
  C   C870      1.0  0.45682  0.09762  0.21441  1.0000
  C   C871      1.0  0.45177  0.08152  0.21938  1.0000
  C   C872      1.0  0.45894  0.07186  0.23501  1.0000
  C   C873      1.0  0.47155  0.07824  0.24446  1.0000
  H   H1058     1.0  0.45108  0.10513  0.20310  1.0000
  H   H1059     1.0  0.45483  0.05939  0.23974  1.0000
  C   C874      1.0  0.23482  0.20703  0.15857  1.0000
  C   C875      1.0  0.35040  0.31110  0.13719  1.0000
  H   H1060     1.0  0.28279  0.11188  0.34079  1.0000
  H   H1061     1.0  0.38845  0.26306  0.17557  1.0000
  C   C876      1.0  0.41722  0.22028  0.35948  1.0000
  C   C877      1.0  0.42947  0.22662  0.33507  1.0000
  C   C878      1.0  0.44358  0.23558  0.33651  1.0000
  C   C879      1.0  0.44584  0.23794  0.36243  1.0000
  C   C880      1.0  0.43377  0.23116  0.38702  1.0000
  C   C881      1.0  0.41951  0.22249  0.38547  1.0000
  H   H1062     1.0  0.42801  0.22486  0.31499  1.0000
  H   H1063     1.0  0.45285  0.24072  0.31737  1.0000
  H   H1064     1.0  0.43530  0.23292  0.40710  1.0000
  H   H1065     1.0  0.41015  0.21760  0.40452  1.0000
  C   C882      1.0  0.40903  0.15757  0.24365  1.0000
  C   C883      1.0  0.41414  0.14415  0.24213  1.0000
  C   C884      1.0  0.41548  0.13899  0.21731  1.0000
  C   C885      1.0  0.41190  0.14739  0.19377  1.0000
  C   C886      1.0  0.40684  0.16081  0.19528  1.0000
  C   C887      1.0  0.40532  0.16584  0.22016  1.0000
  H   H1066     1.0  0.41702  0.13769  0.26024  1.0000
  H   H1067     1.0  0.41936  0.12862  0.21636  1.0000
  H   H1068     1.0  0.40407  0.16736  0.17712  1.0000
  H   H1069     1.0  0.40148  0.17623  0.22101  1.0000
  C   C888      1.0  0.40105  0.25519  0.22377  1.0000
  C   C889      1.0  0.39025  0.25748  0.24570  1.0000
  C   C890      1.0  0.39020  0.27262  0.24779  1.0000
  C   C891      1.0  0.40074  0.28553  0.22765  1.0000
  C   C892      1.0  0.41147  0.28322  0.20567  1.0000
  C   C893      1.0  0.41172  0.26810  0.20394  1.0000
  H   H1070     1.0  0.38187  0.24760  0.26091  1.0000
  H   H1071     1.0  0.38186  0.27434  0.26482  1.0000
  H   H1072     1.0  0.41979  0.29310  0.19028  1.0000
  H   H1073     1.0  0.42028  0.26638  0.18728  1.0000
  C   C894      1.0  0.32698  0.16630  0.29904  1.0000
  C   C895      1.0  0.33309  0.15470  0.29029  1.0000
  C   C896      1.0  0.32347  0.14222  0.28462  1.0000
  C   C897      1.0  0.30769  0.14125  0.28726  1.0000
  C   C898      1.0  0.30163  0.15297  0.29562  1.0000
  C   C899      1.0  0.31121  0.16537  0.30156  1.0000
  H   H1074     1.0  0.34515  0.15515  0.28849  1.0000
  H   H1075     1.0  0.32829  0.13317  0.27839  1.0000
  H   H1076     1.0  0.40119  0.27956  0.30027  1.0000
  H   H1077     1.0  0.41658  0.26019  0.26649  1.0000
  H   H1078     1.0  0.41894  0.24646  0.29556  1.0000
  H   H1079     1.0  0.36461  0.27243  0.12245  1.0000
  H   H1080     1.0  0.44599  0.19228  0.40877  1.0000
  H   H1081     1.0  0.26474  0.09374  0.43072  1.0000
  S   S253      1.0  0.23881  0.15125  0.24431  1.0000
  H   H1082     1.0  0.45368  0.18951  0.28438  1.0000
  C   C900      1.0  0.46351  0.27799  0.29838  1.0000
  N   N60       1.0  0.30495  0.13896  0.39875  1.0000
  C   C901      1.0  0.29607  0.14781  0.41450  1.0000
  C   C902      1.0  0.31481  0.13261  0.41585  1.0000
  C   C903      1.0  0.31532  0.15013  0.37228  1.0000
  C   C904      1.0  0.29414  0.12605  0.39369  1.0000
  C   C905      1.0  0.28351  0.11439  0.41690  1.0000
  C   C906      1.0  0.29371  0.12465  0.36607  1.0000
  C   C907      1.0  0.27302  0.10225  0.41267  1.0000
  C   C908      1.0  0.28306  0.11255  0.36210  1.0000
  C   C909      1.0  0.27269  0.10142  0.38531  1.0000
  H   H1083     1.0  0.28870  0.14058  0.43567  1.0000
  H   H1084     1.0  0.30378  0.15782  0.41823  1.0000
  H   H1085     1.0  0.28829  0.15245  0.40245  1.0000
  H   H1086     1.0  0.30802  0.12535  0.43736  1.0000
  H   H1087     1.0  0.32359  0.14201  0.41898  1.0000
  H   H1088     1.0  0.32108  0.12526  0.40521  1.0000
  H   H1089     1.0  0.30866  0.15586  0.35893  1.0000
  H   H1090     1.0  0.32340  0.15969  0.37655  1.0000
  H   H1091     1.0  0.32265  0.14443  0.35937  1.0000
  H   H1092     1.0  0.28293  0.11478  0.43856  1.0000
  H   H1093     1.0  0.30138  0.13281  0.34710  1.0000
  H   H1094     1.0  0.25736  0.19956  0.18041  1.0000
  C   C910      1.0  0.43771  0.14232  0.98591  1.0000
  H   H1095     1.0  0.25123  0.13136  0.37997  1.0000
  C   C911      1.0  0.46185  0.31837  0.05275  1.0000
  H   H1096     1.0  0.24212  0.09823  0.19594  1.0000
  C   C912      1.0  0.44962  0.19552  0.38580  1.0000
  H   H1097     1.0  0.38523  0.04204  0.15825  1.0000
  H   H1098     1.0  0.27920  0.29754  0.99664  1.0000
  H   H1099     1.0  0.24403  0.23397  0.19407  1.0000
  H   H1100     1.0  0.39678  0.26238  0.09985  1.0000
  S   S254      1.0  0.28007  0.31797  0.04786  1.0000
  H   H1101     1.0  0.46621  0.00965  0.19562  1.0000
  H   H1102     1.0  0.34751  0.00409  0.09932  1.0000
  C   C913      1.0  0.47227  0.14772  0.10814  1.0000
  H   H1103     1.0  0.23430  0.18047  0.46217  1.0000
  C   C914      1.0  0.23753  0.10958  0.40870  1.0000
  C   C915      1.0  0.25644  0.21174  0.17824  1.0000
  C   C916      1.0  0.46051  0.28398  0.25080  1.0000
  H   H1104     1.0  0.47664  0.22236  0.33146  1.0000
  H   H1105     1.0  0.35527  0.05454  0.98630  1.0000
  C   C917      1.0  0.45792  0.99849  0.26337  1.0000
  H   H1106     1.0  0.47026  0.03390  0.27599  1.0000
  H   H1107     1.0  0.44722  0.16024  0.15293  1.0000
  H   H1108     1.0  0.24784  0.23656  0.15630  1.0000
  H   H1109     1.0  0.43586  0.03995  0.15497  1.0000
  H   H1110     1.0  0.24671  0.19434  0.22870  1.0000
  H   H1111     1.0  0.28141  0.99587  0.12122  1.0000
  H   H1112     1.0  0.47288  0.11640  0.22127  1.0000
  H   H1113     1.0  0.46286  0.20873  0.30383  1.0000
  H   H1114     1.0  0.26902  0.00239  0.07584  1.0000
  H   H1115     1.0  0.47714  0.07068  0.25614  1.0000
  C   C918      1.0  0.46915  0.10399  0.22463  1.0000
  H   H1116     1.0  0.37406  0.00924  0.06811  1.0000
  H   H1117     1.0  0.48004  0.32185  0.01492  1.0000
  C   C919      1.0  0.23755  0.01328  0.12744  1.0000
  C   C920      1.0  0.46150  0.15574  0.11722  1.0000
  Fe  Fe125     1.0  0.23948  0.11016  0.33426  1.0000
  H   H1118     1.0  0.45062  0.16452  0.04879  1.0000
  N   N61       1.0  0.44736  0.03019  0.18555  1.0000
  H   H1119     1.0  0.39565  0.25159  0.13521  1.0000
  H   H1120     1.0  0.41900  0.25329  0.34148  1.0000
  H   H1121     1.0  0.41463  0.17680  0.35649  1.0000
  H   H1122     1.0  0.41418  0.27078  0.14267  1.0000
  H   H1123     1.0  0.43435  0.18354  0.28216  1.0000
  C   C921      1.0  0.46282  0.03319  0.19110  1.0000
  S   S255      1.0  0.28878  0.31509  0.10890  1.0000
  H   H1124     1.0  0.37859  0.25484  0.12622  1.0000
  C   C922      1.0  0.46884  0.16044  0.01861  1.0000
  C   C923      1.0  0.39203  0.31264  0.08123  1.0000
  C   C924      1.0  0.46694  0.21239  0.34220  1.0000
  H   H1125     1.0  0.45657  0.04465  0.14271  1.0000
  C   C925      1.0  0.41029  0.28003  0.12975  1.0000
  H   H1126     1.0  0.44706  0.05392  0.16704  1.0000
  H   H1127     1.0  0.39023  0.01097  0.08360  1.0000
  C   C926      1.0  0.44561  0.19177  0.34032  1.0000
  H   H1128     1.0  0.34459  0.19835  0.45385  1.0000
  C   C927      1.0  0.44167  0.18997  0.29334  1.0000
  H   H1129     1.0  0.24552  0.12339  0.19247  1.0000
  H   H1130     1.0  0.26148  0.21637  0.19411  1.0000
  H   H1131     1.0  0.46845  0.21453  0.38357  1.0000
  C   C928      1.0  0.24761  0.12436  0.40172  1.0000
  C   C929      1.0  0.46232  0.20800  0.37169  1.0000
  C   C930      1.0  0.23336  0.00113  0.11538  1.0000
  H   H1132     1.0  0.26393  0.21869  0.15694  1.0000
  C   C931      1.0  0.45592  0.15437  0.14598  1.0000
  C   C932      1.0  0.47641  0.14942  0.01132  1.0000
  H   H1133     1.0  0.43165  0.01354  0.17295  1.0000
  H   H1134     1.0  0.26420  0.09231  0.38207  1.0000
  H   H1135     1.0  0.23528  0.05979  0.32003  1.0000
  C   C933      1.0  0.44676  0.04269  0.16153  1.0000
  H   H1136     1.0  0.45172  0.01440  0.16013  1.0000
  H   H1137     1.0  0.43167  0.17783  0.38241  1.0000
  S   S256      1.0  0.23564  0.07521  0.26369  1.0000
  H   H1138     1.0  0.43759  0.28033  0.24631  1.0000
  H   H1139     1.0  0.45720  0.16282  0.10186  1.0000
  H   H1140     1.0  0.41681  0.28706  0.26932  1.0000
  C   C934      1.0  0.43785  0.16691  0.33037  1.0000
  H   H1141     1.0  0.44084  0.20221  0.28754  1.0000
  C   C935      1.0  0.47672  0.09433  0.23921  1.0000
  C   C936      1.0  0.38645  0.01927  0.17924  1.0000
  H   H1142     1.0  0.45011  0.16648  0.32424  1.0000
  H   H1143     1.0  0.43304  0.16061  0.35317  1.0000
  H   H1144     1.0  0.43138  0.16022  0.31831  1.0000
  Fe  Fe126     1.0  0.30186  0.31106  0.03265  1.0000
  C   C937      1.0  0.24427  0.24538  0.08815  1.0000
  N   N62       1.0  0.36612  0.11811  0.19255  1.0000
  C   C938      1.0  0.37609  0.11922  0.21232  1.0000
  C   C939      1.0  0.36142  0.10154  0.19257  1.0000
  C   C940      1.0  0.37533  0.12693  0.16340  1.0000
  C   C941      1.0  0.35301  0.12481  0.20115  1.0000
  C   C942      1.0  0.35575  0.14066  0.20156  1.0000
  C   C943      1.0  0.33737  0.11599  0.20974  1.0000
  C   C944      1.0  0.34362  0.14725  0.20991  1.0000
  C   C945      1.0  0.32532  0.12273  0.21808  1.0000
  C   C946      1.0  0.32844  0.13832  0.21798  1.0000
  H   H1145     1.0  0.36962  0.11273  0.23448  1.0000
  H   H1146     1.0  0.38627  0.11456  0.20635  1.0000
  H   H1147     1.0  0.38085  0.13139  0.21243  1.0000
  H   H1148     1.0  0.35504  0.09400  0.21412  1.0000
  H   H1149     1.0  0.37158  0.09696  0.18568  1.0000
  H   H1150     1.0  0.35421  0.09987  0.17752  1.0000
  N   N63       1.0  0.24019  0.21268  0.18147  1.0000
  H   H1151     1.0  0.47008  0.10901  0.12113  1.0000
  H   H1152     1.0  0.42397  0.02857  0.20761  1.0000
  H   H1153     1.0  0.44334  0.26948  0.33214  1.0000
  C   C947      1.0  0.47041  0.02240  0.27368  1.0000
  H   H1154     1.0  0.44852  0.01840  0.26341  1.0000
  C   C948      1.0  0.26453  0.01761  0.10229  1.0000
  H   H1155     1.0  0.40203  0.25985  0.34048  1.0000
  H   H1156     1.0  0.41866  0.29254  0.30091  1.0000
  H   H1157     1.0  0.41298  0.29033  0.13813  1.0000
  C   C949      1.0  0.37849  0.01289  0.08545  1.0000
  S   S257      1.0  0.31198  0.31156  0.98690  1.0000
  H   H1158     1.0  0.35377  0.02060  0.11144  1.0000
  S   S258      1.0  0.47383  0.17953  0.99686  1.0000
  N   N64       1.0  0.42041  0.26926  0.30182  1.0000
  H   H1159     1.0  0.29372  0.00727  0.98936  1.0000
  C   C950      1.0  0.45877  0.20446  0.32659  1.0000
  H   H1160     1.0  0.24254  0.21346  0.13717  1.0000
  H   H1161     1.0  0.41301  0.17714  0.32161  1.0000
  C   C951      1.0  0.47032  0.99240  0.26798  1.0000
  C   C952      1.0  0.25297  0.13016  0.42294  1.0000
  C   C953      1.0  0.25311  0.02152  0.12083  1.0000
  H   H1162     1.0  0.47737  0.12551  0.02235  1.0000
  C   C954      1.0  0.38488  0.27202  0.16124  1.0000
  H   H1163     1.0  0.37225  0.26769  0.16450  1.0000
  C   C955      1.0  0.47001  0.28318  0.26922  1.0000
  C   C956      1.0  0.41486  0.26358  0.33321  1.0000
  C   C957      1.0  0.44748  0.27353  0.30932  1.0000
  C   C958      1.0  0.43744  0.27405  0.29111  1.0000
  H   H1164     1.0  0.24168  0.07571  0.17705  1.0000
  C   C959      1.0  0.44292  0.01518  0.17846  1.0000
  Fe  Fe127     1.0  0.24114  0.09650  0.28190  1.0000
  S   S259      1.0  0.30229  0.99790  0.05933  1.0000
  C   C960      1.0  0.44447  0.27950  0.26148  1.0000
  H   H1165     1.0  0.41870  0.27275  0.34364  1.0000
  H   H1166     1.0  0.37003  0.31822  0.15331  1.0000
  C   C961      1.0  0.35289  0.00796  0.11545  1.0000
  C   C962      1.0  0.37752  0.02498  0.13687  1.0000
  C   C963      1.0  0.23485  0.19483  0.23117  1.0000
  Fe  Fe128     1.0  0.47522  0.25296  0.39820  1.0000
  H   H1167     1.0  0.44016  0.13081  0.98637  1.0000
  C   C964      1.0  0.39102  0.26037  0.12270  1.0000
  C   C965      1.0  0.38815  0.28678  0.11303  1.0000
  H   H1168     1.0  0.43840  0.04069  0.21811  1.0000
  C   C966      1.0  0.43568  0.02986  0.21122  1.0000
  C   C967      1.0  0.37269  0.28341  0.11084  1.0000
  C   C968      1.0  0.47088  0.02146  0.19582  1.0000
  C   C969      1.0  0.38332  0.02990  0.15810  1.0000
  H   H1169     1.0  0.46275  0.30687  0.06228  1.0000
  H   H1170     1.0  0.37970  0.02562  0.08091  1.0000
  H   H1171     1.0  0.23430  0.19450  0.16129  1.0000
  H   H1172     1.0  0.23808  0.13045  0.16292  1.0000
  H   H1173     1.0  0.43503  0.02000  0.22932  1.0000
  C   C970      1.0  0.24013  0.22927  0.17722  1.0000
  H   H1174     1.0  0.47552  0.10818  0.15378  1.0000
  H   H1175     1.0  0.40958  0.30550  0.09792  1.0000
  N   N65       1.0  0.36804  0.00432  0.11379  1.0000
  C   C971      1.0  0.39772  0.30175  0.09752  1.0000
  H   H1176     1.0  0.47091  0.27721  0.31275  1.0000
  H   H1177     1.0  0.46432  0.05740  0.19099  1.0000
  S   S260      1.0  0.47864  0.23288  0.42920  1.0000
  C   C972      1.0  0.24477  0.99720  0.09685  1.0000
  H   H1178     1.0  0.31572  0.31670  0.21268  1.0000
  H   H1179     1.0  0.42513  0.14071  0.99458  1.0000
  H   H1180     1.0  0.47535  0.12965  0.17321  1.0000
  C   C973      1.0  0.46124  0.14514  0.16583  1.0000
  C   C974      1.0  0.23566  0.12735  0.18645  1.0000
  H   H1181     1.0  0.39079  0.02311  0.19584  1.0000
  C   C975      1.0  0.23853  0.10648  0.45843  1.0000
  H   H1182     1.0  0.45664  0.14389  0.18824  1.0000
  H   H1183     1.0  0.44350  0.14680  0.00110  1.0000
  H   H1184     1.0  0.34469  0.00206  0.13662  1.0000
  C   C976      1.0  0.37456  0.00919  0.13621  1.0000
  C   C977      1.0  0.36722  0.29427  0.09405  1.0000
  C   C978      1.0  0.47771  0.13793  0.12788  1.0000
  H   H1185     1.0  0.31581  0.31251  0.16739  1.0000
  H   H1186     1.0  0.23581  0.13823  0.19328  1.0000
  H   H1187     1.0  0.35528  0.29156  0.09307  1.0000
  S   S261      1.0  0.44054  0.31491  0.10246  1.0000
  S   S262      1.0  0.40342  0.31816  0.15223  1.0000
  H   H1188     1.0  0.38014  0.06119  0.98814  1.0000
  H   H1189     1.0  0.38619  0.99540  0.19575  1.0000
  H   H1190     1.0  0.44885  0.00995  0.33388  1.0000
  C   C979      1.0  0.34010  0.19510  0.47673  1.0000
  H   H1191     1.0  0.37236  0.31748  0.06730  1.0000
  C   C980      1.0  0.46674  0.00163  0.34896  1.0000
  S   S263      1.0  0.25650  0.12913  0.47680  1.0000
  H   H1192     1.0  0.32268  0.17523  0.47732  1.0000
  H   H1193     1.0  0.44177  0.23766  0.47702  1.0000
  C   C981      1.0  0.23295  0.10076  0.43726  1.0000
  C   C982      1.0  0.36315  0.32186  0.13924  1.0000
  H   H1194     1.0  0.23282  0.27030  0.04073  1.0000
  H   H1195     1.0  0.29700  0.32066  0.21851  1.0000
  H   H1196     1.0  0.47328  0.01312  0.34812  1.0000
  C   C983      1.0  0.30893  0.32121  0.16389  1.0000
  C   C984      1.0  0.23254  0.09441  0.18743  1.0000
  Fe  Fe129     1.0  0.37962  0.18265  0.65152  1.0000
  S   S264      1.0  0.35901  0.18788  0.67715  1.0000
  S   S265      1.0  0.39103  0.16310  0.66186  1.0000
  Fe  Fe130     1.0  0.38308  0.20888  0.60002  1.0000
  S   S266      1.0  0.36301  0.21643  0.62183  1.0000
  S   S267      1.0  0.39360  0.21877  0.55276  1.0000
  Fe  Fe131     1.0  0.37292  0.21290  0.65966  1.0000
  S   S268      1.0  0.37161  0.22881  0.68927  1.0000
  Fe  Fe132     1.0  0.35077  0.19102  0.63721  1.0000
  S   S269      1.0  0.32576  0.18472  0.63419  1.0000
  S   S270      1.0  0.39410  0.20733  0.63642  1.0000
  S   S271      1.0  0.37029  0.18373  0.61321  1.0000
  H   H1197     1.0  0.29601  0.17717  0.62332  1.0000
  Fe  Fe133     1.0  0.28787  0.00191  0.85669  1.0000
  Fe  Fe134     1.0  0.40777  0.11856  0.79540  1.0000
  S   S272      1.0  0.40252  0.10463  0.84064  1.0000
  S   S273      1.0  0.39491  0.13710  0.78752  1.0000
  Fe  Fe135     1.0  0.43012  0.10042  0.77507  1.0000
  S   S274      1.0  0.42631  0.08493  0.81867  1.0000
  S   S275      1.0  0.44761  0.10080  0.73565  1.0000
  Fe  Fe136     1.0  0.40116  0.08395  0.82267  1.0000
  S   S276      1.0  0.38117  0.06286  0.84655  1.0000
  Fe  Fe137     1.0  0.42804  0.10705  0.83249  1.0000
  S   S277      1.0  0.44163  0.11081  0.86492  1.0000
  S   S278      1.0  0.40484  0.09782  0.77779  1.0000
  S   S279      1.0  0.43341  0.12261  0.78861  1.0000
  S   S280      1.0  0.26452  0.01226  0.77196  1.0000
  Fe  Fe138     1.0  0.27144  0.29317  0.80362  1.0000
  H   H1198     1.0  0.29659  0.27034  0.88214  1.0000
  C   C985      1.0  0.26462  0.05050  0.71097  1.0000
  H   H1199     1.0  0.46127  0.30573  0.88585  1.0000
  C   C986      1.0  0.43175  0.15293  0.88823  1.0000
  Fe  Fe139     1.0  0.28088  0.30106  0.85561  1.0000
  H   H1200     1.0  0.25889  0.22859  0.69457  1.0000
  S   S281      1.0  0.27960  0.28000  0.83860  1.0000
  C   C987      1.0  0.41019  0.08307  0.93316  1.0000
  Fe  Fe140     1.0  0.31389  0.01424  0.80272  1.0000
  H   H1201     1.0  0.33890  0.28269  0.73304  1.0000
  S   S282      1.0  0.33768  0.03036  0.78027  1.0000
  Fe  Fe141     1.0  0.28028  0.00494  0.79926  1.0000
  H   H1202     1.0  0.36421  0.19440  0.54593  1.0000
  S   S283      1.0  0.27898  0.00380  0.90129  1.0000
  H   H1203     1.0  0.36404  0.29950  0.86928  1.0000
  H   H1204     1.0  0.28702  0.05698  0.71797  1.0000
  S   S284      1.0  0.29281  0.02214  0.81854  1.0000
  H   H1205     1.0  0.44294  0.26833  0.94166  1.0000
  S   S285      1.0  0.29539  0.30417  0.77551  1.0000
  Fe  Fe142     1.0  0.27141  0.13023  0.56876  1.0000
  S   S286      1.0  0.29587  0.13539  0.57437  1.0000
  C   C988      1.0  0.29244  0.00635  0.92175  1.0000
  C   C989      1.0  0.32210  0.17775  0.51924  1.0000
  H   H1206     1.0  0.26740  0.10515  0.67312  1.0000
  Fe  Fe143     1.0  0.24067  0.13922  0.57235  1.0000
  H   H1207     1.0  0.36679  0.28499  0.71530  1.0000
  H   H1208     1.0  0.36086  0.32021  0.82282  1.0000
  H   H1209     1.0  0.46842  0.29168  0.95548  1.0000
  C   C990      1.0  0.42141  0.13842  0.89517  1.0000
  H   H1210     1.0  0.38946  0.06291  0.89836  1.0000
  H   H1211     1.0  0.24283  0.00685  0.82790  1.0000
  C   C991      1.0  0.28390  0.07422  0.68403  1.0000
  H   H1212     1.0  0.33071  0.32105  0.77390  1.0000
  C   C992      1.0  0.26849  0.20905  0.73104  1.0000
  Fe  Fe144     1.0  0.25228  0.12385  0.52558  1.0000
  S   S287      1.0  0.45052  0.31103  0.72717  1.0000
  S   S288      1.0  0.27110  0.29761  0.90274  1.0000
  C   C993      1.0  0.25549  0.25843  0.77241  1.0000
  C   C994      1.0  0.25129  0.24542  0.76202  1.0000
  C   C995      1.0  0.48117  0.25963  0.87907  1.0000
  C   C996      1.0  0.41061  0.18195  0.58191  1.0000
  C   C997      1.0  0.28240  0.30263  0.92564  1.0000
  H   H1213     1.0  0.26559  0.26011  0.78052  1.0000
  H   H1214     1.0  0.25826  0.23714  0.76224  1.0000
  C   C998      1.0  0.36920  0.29300  0.78937  1.0000
  S   S289      1.0  0.26301  0.10904  0.55423  1.0000
  H   H1215     1.0  0.24121  0.16370  0.51297  1.0000
  C   C999      1.0  0.36883  0.03351  0.97041  1.0000
  H   H1216     1.0  0.43578  0.16321  0.60560  1.0000
  C   C1000     1.0  0.45406  0.12885  0.86304  1.0000
  C   C1001     1.0  0.46204  0.12986  0.88405  1.0000
  C   C1002     1.0  0.23806  0.24296  0.75179  1.0000
  H   H1217     1.0  0.43018  0.20269  0.59832  1.0000
  C   C1003     1.0  0.46584  0.15633  0.84072  1.0000
  C   C1004     1.0  0.45614  0.14214  0.84118  1.0000
  H   H1218     1.0  0.46065  0.11961  0.90088  1.0000
  C   C1005     1.0  0.47110  0.06109  0.73236  1.0000
  C   C1006     1.0  0.35385  0.29627  0.88701  1.0000
  H   H1219     1.0  0.45010  0.14155  0.82484  1.0000
  C   C1007     1.0  0.36942  0.05341  0.82805  1.0000
  C   C1008     1.0  0.35525  0.04279  0.84323  1.0000
  C   C1009     1.0  0.34539  0.03560  0.82892  1.0000
  C   C1010     1.0  0.34977  0.03878  0.79933  1.0000
  C   C1011     1.0  0.36409  0.04912  0.78427  1.0000
  C   C1012     1.0  0.37379  0.05655  0.79849  1.0000
  H   H1220     1.0  0.35175  0.04025  0.86611  1.0000
  H   H1221     1.0  0.33440  0.02764  0.84081  1.0000
  H   H1222     1.0  0.36764  0.05157  0.76141  1.0000
  H   H1223     1.0  0.38470  0.06460  0.78654  1.0000
  C   C1013     1.0  0.45411  0.18750  0.56075  1.0000
  S   S290      1.0  0.26262  0.14531  0.53772  1.0000
  H   H1224     1.0  0.40994  0.19412  0.57430  1.0000
  C   C1014     1.0  0.46725  0.27747  0.89692  1.0000
  C   C1015     1.0  0.43873  0.18767  0.56006  1.0000
  C   C1016     1.0  0.45907  0.05975  0.75596  1.0000
  C   C1017     1.0  0.45147  0.07167  0.75693  1.0000
  C   C1018     1.0  0.45598  0.08506  0.73434  1.0000
  C   C1019     1.0  0.46794  0.08635  0.71064  1.0000
  C   C1020     1.0  0.47354  0.15745  0.86209  1.0000
  H   H1225     1.0  0.45562  0.04945  0.77358  1.0000
  H   H1226     1.0  0.44220  0.07049  0.77518  1.0000
  H   H1227     1.0  0.47146  0.09667  0.69308  1.0000
  C   C1021     1.0  0.41381  0.22561  0.53978  1.0000
  C   C1022     1.0  0.42053  0.22974  0.51044  1.0000
  C   C1023     1.0  0.44614  0.23520  0.51822  1.0000
  C   C1024     1.0  0.43940  0.23121  0.54752  1.0000
  C   C1025     1.0  0.42329  0.22655  0.55827  1.0000
  H   H1228     1.0  0.44671  0.23177  0.56192  1.0000
  H   H1229     1.0  0.41821  0.22370  0.58083  1.0000
  C   C1026     1.0  0.39180  0.15587  0.69697  1.0000
  C   C1027     1.0  0.38381  0.16051  0.71934  1.0000
  C   C1028     1.0  0.38477  0.15461  0.74711  1.0000
  C   C1029     1.0  0.39375  0.14409  0.75259  1.0000
  C   C1030     1.0  0.40169  0.13940  0.73025  1.0000
  C   C1031     1.0  0.40068  0.14525  0.70252  1.0000
  H   H1230     1.0  0.37691  0.16867  0.71524  1.0000
  H   H1231     1.0  0.37863  0.15830  0.76434  1.0000
  H   H1232     1.0  0.40866  0.13131  0.73429  1.0000
  H   H1233     1.0  0.40687  0.14161  0.68529  1.0000
  C   C1032     1.0  0.38675  0.24372  0.69142  1.0000
  C   C1033     1.0  0.40180  0.24693  0.67446  1.0000
  C   C1034     1.0  0.41362  0.25837  0.67777  1.0000
  C   C1035     1.0  0.41062  0.26664  0.69818  1.0000
  C   C1036     1.0  0.39551  0.26370  0.71470  1.0000
  C   C1037     1.0  0.38365  0.25227  0.71133  1.0000
  H   H1234     1.0  0.40433  0.24054  0.65891  1.0000
  H   H1235     1.0  0.42525  0.26066  0.66470  1.0000
  H   H1236     1.0  0.39302  0.26991  0.73056  1.0000
  H   H1237     1.0  0.37204  0.24988  0.72453  1.0000
  C   C1038     1.0  0.31742  0.17039  0.61874  1.0000
  C   C1039     1.0  0.32553  0.16035  0.60864  1.0000
  C   C1040     1.0  0.31871  0.14967  0.59531  1.0000
  C   C1041     1.0  0.30368  0.14878  0.59211  1.0000
  C   C1042     1.0  0.29549  0.15867  0.60253  1.0000
  C   C1043     1.0  0.30235  0.16942  0.61570  1.0000
  H   H1238     1.0  0.33709  0.16088  0.61093  1.0000
  H   H1239     1.0  0.32516  0.14210  0.58729  1.0000
  H   H1240     1.0  0.28394  0.15816  0.60016  1.0000
  C   C1044     1.0  0.24908  0.99867  0.76753  1.0000
  C   C1045     1.0  0.42528  0.16473  0.59874  1.0000
  N   N66       1.0  0.35226  0.09398  0.80371  1.0000
  C   C1046     1.0  0.36604  0.09570  0.81505  1.0000
  C   C1047     1.0  0.34623  0.10791  0.80392  1.0000
  C   C1048     1.0  0.34029  0.08032  0.82340  1.0000
  C   C1049     1.0  0.35663  0.09260  0.77430  1.0000
  C   C1050     1.0  0.35006  0.07938  0.76590  1.0000
  C   C1051     1.0  0.36799  0.10471  0.75305  1.0000
  C   C1052     1.0  0.35478  0.07838  0.73805  1.0000
  C   C1053     1.0  0.37256  0.10363  0.72523  1.0000
  C   C1054     1.0  0.36601  0.09046  0.71777  1.0000
  H   H1241     1.0  0.37487  0.10674  0.80369  1.0000
  H   H1242     1.0  0.36318  0.09557  0.83785  1.0000
  H   H1243     1.0  0.37164  0.08612  0.81298  1.0000
  H   H1244     1.0  0.33635  0.10747  0.79412  1.0000
  H   H1245     1.0  0.35516  0.11887  0.79204  1.0000
  H   H1246     1.0  0.34227  0.10898  0.82586  1.0000
  H   H1247     1.0  0.34440  0.06953  0.82496  1.0000
  H   H1248     1.0  0.33730  0.08162  0.84536  1.0000
  H   H1249     1.0  0.32940  0.07851  0.81656  1.0000
  H   H1250     1.0  0.34150  0.06944  0.78051  1.0000
  H   H1251     1.0  0.37355  0.11506  0.75790  1.0000
  H   H1252     1.0  0.34984  0.06798  0.73241  1.0000
  H   H1253     1.0  0.38135  0.11304  0.70949  1.0000
  H   H1254     1.0  0.36973  0.08956  0.69628  1.0000
  H   H1255     1.0  0.36072  0.20461  0.57250  1.0000
  H   H1256     1.0  0.46873  0.27244  0.95323  1.0000
  H   H1257     1.0  0.46378  0.31016  0.91788  1.0000
  C   C1055     1.0  0.23983  0.18689  0.68556  1.0000
  H   H1258     1.0  0.43945  0.18888  0.61408  1.0000
  C   C1056     1.0  0.47181  0.14406  0.88350  1.0000
  H   H1259     1.0  0.41326  0.22910  0.49600  1.0000
  H   H1260     1.0  0.34138  0.22043  0.57261  1.0000
  H   H1261     1.0  0.47974  0.30765  0.89337  1.0000
  H   H1262     1.0  0.38572  0.30989  0.70758  1.0000
  C   C1057     1.0  0.25454  0.05453  0.69500  1.0000
  Fe  Fe145     1.0  0.42680  0.29637  0.73136  1.0000
  H   H1263     1.0  0.36273  0.05363  0.91010  1.0000
  C   C1058     1.0  0.34107  0.29856  0.93263  1.0000
  H   H1264     1.0  0.40763  0.17542  0.56654  1.0000
  H   H1265     1.0  0.27786  0.23772  0.69478  1.0000
  C   C1059     1.0  0.34681  0.20389  0.49291  1.0000
  H   H1266     1.0  0.45683  0.18276  0.58030  1.0000
  S   S291      1.0  0.42036  0.29108  0.77910  1.0000
  S   S292      1.0  0.25020  0.12547  0.60409  1.0000
  H   H1267     1.0  0.34121  0.30368  0.95034  1.0000
  C   C1060     1.0  0.28728  0.00595  0.95047  1.0000
  H   H1268     1.0  0.43472  0.16038  0.86684  1.0000
  C   C1061     1.0  0.31871  0.01051  0.92652  1.0000
  N   N67       1.0  0.42582  0.23144  0.74595  1.0000
  C   C1062     1.0  0.43422  0.23726  0.76557  1.0000
  C   C1063     1.0  0.43512  0.23966  0.71660  1.0000
  C   C1064     1.0  0.41085  0.23567  0.75081  1.0000
  C   C1065     1.0  0.42304  0.21449  0.74968  1.0000
  C   C1066     1.0  0.41497  0.20728  0.73258  1.0000
  C   C1067     1.0  0.42830  0.20471  0.76979  1.0000
  C   C1068     1.0  0.41242  0.19135  0.73527  1.0000
  C   C1069     1.0  0.42559  0.18875  0.77239  1.0000
  C   C1070     1.0  0.41770  0.18210  0.75516  1.0000
  H   H1269     1.0  0.44591  0.23508  0.76232  1.0000
  H   H1270     1.0  0.43603  0.25008  0.76204  1.0000
  H   H1271     1.0  0.42765  0.23191  0.78812  1.0000
  H   H1272     1.0  0.43791  0.25250  0.71309  1.0000
  H   H1273     1.0  0.42900  0.23714  0.70047  1.0000
  H   H1274     1.0  0.44622  0.23633  0.71178  1.0000
  H   H1275     1.0  0.40309  0.22892  0.77194  1.0000
  H   H1276     1.0  0.41242  0.24823  0.74986  1.0000
  H   H1277     1.0  0.40458  0.23358  0.73462  1.0000
  H   H1278     1.0  0.41054  0.21394  0.71691  1.0000
  H   H1279     1.0  0.43452  0.20908  0.78375  1.0000
  H   H1280     1.0  0.40628  0.18613  0.72189  1.0000
  H   H1281     1.0  0.42962  0.18143  0.78787  1.0000
  H   H1282     1.0  0.41565  0.16972  0.75730  1.0000
  H   H1283     1.0  0.31893  0.31962  0.92625  1.0000
  C   C1071     1.0  0.33628  0.21334  0.55962  1.0000
  C   C1072     1.0  0.47844  0.99926  0.63271  1.0000
  H   H1284     1.0  0.31237  0.00937  0.88770  1.0000
  C   C1073     1.0  0.32765  0.28812  0.93255  1.0000
  H   H1285     1.0  0.36527  0.00261  0.75683  1.0000
  H   H1286     1.0  0.35216  0.27504  0.78269  1.0000
  N   N68       1.0  0.27828  0.09347  0.64471  1.0000
  S   S293      1.0  0.30541  0.31284  0.83132  1.0000
  C   C1074     1.0  0.43886  0.15760  0.90827  1.0000
  C   C1075     1.0  0.27387  0.07874  0.66737  1.0000
  C   C1076     1.0  0.46014  0.15439  0.94707  1.0000
  C   C1077     1.0  0.25903  0.06845  0.67357  1.0000
  C   C1078     1.0  0.42885  0.19010  0.60731  1.0000
  N   N69       1.0  0.34824  0.20854  0.54094  1.0000
  H   H1287     1.0  0.32433  0.25769  0.88330  1.0000
  H   H1288     1.0  0.45799  0.10508  0.81021  1.0000
  H   H1289     1.0  0.47808  0.19381  0.53744  1.0000
  H   H1290     1.0  0.41543  0.15938  0.61800  1.0000
  C   C1079     1.0  0.24126  0.00347  0.74719  1.0000
  C   C1080     1.0  0.35405  0.28495  0.79135  1.0000
  H   H1291     1.0  0.29726  0.11368  0.62323  1.0000
  H   H1292     1.0  0.44736  0.16866  0.90136  1.0000
  C   C1081     1.0  0.36060  0.22276  0.52460  1.0000
  H   H1293     1.0  0.28105  0.10097  0.59955  1.0000
  N   N70       1.0  0.27374  0.21299  0.69964  1.0000
  H   H1294     1.0  0.45249  0.28509  0.87042  1.0000
  H   H1295     1.0  0.30481  0.28917  0.88551  1.0000
  H   H1296     1.0  0.24021  0.16949  0.66256  1.0000
  C   C1082     1.0  0.26484  0.20102  0.68916  1.0000
  C   C1083     1.0  0.46701  0.09922  0.80285  1.0000
  H   H1297     1.0  0.24234  0.20456  0.70708  1.0000
  C   C1084     1.0  0.46639  0.99005  0.62519  1.0000
  C   C1085     1.0  0.24704  0.17821  0.66988  1.0000
  H   H1298     1.0  0.25076  0.07111  0.66188  1.0000
  S   S294      1.0  0.30977  0.99512  0.84202  1.0000
  H   H1299     1.0  0.43944  0.28347  0.91614  1.0000
  H   H1300     1.0  0.26116  0.03976  0.72771  1.0000
  C   C1086     1.0  0.30734  0.27796  0.88365  1.0000
  H   H1301     1.0  0.35292  0.03438  0.93119  1.0000
  C   C1087     1.0  0.36399  0.04349  0.92554  1.0000
  H   H1302     1.0  0.32401  0.18251  0.55826  1.0000
  H   H1303     1.0  0.36448  0.31082  0.90997  1.0000
  C   C1088     1.0  0.46637  0.19375  0.53635  1.0000
  C   C1089     1.0  0.37169  0.30583  0.80052  1.0000
  C   C1090     1.0  0.30015  0.30880  0.96375  1.0000
  H   H1304     1.0  0.46722  0.16659  0.82392  1.0000
  H   H1305     1.0  0.32754  0.20327  0.57527  1.0000
  H   H1306     1.0  0.46219  0.09203  0.78982  1.0000
  H   H1307     1.0  0.40131  0.17675  0.60195  1.0000
  C   C1091     1.0  0.43640  0.19445  0.53338  1.0000
  C   C1092     1.0  0.34122  0.19984  0.52295  1.0000
  N   N71       1.0  0.31274  0.27084  0.90805  1.0000
  N   N72       1.0  0.46321  0.28637  0.91770  1.0000
  H   H1308     1.0  0.47327  0.20564  0.49190  1.0000
  H   H1309     1.0  0.41917  0.18608  0.62695  1.0000
  C   C1093     1.0  0.31355  0.00989  0.95528  1.0000
  H   H1310     1.0  0.42382  0.15781  0.58319  1.0000
  H   H1311     1.0  0.34327  0.04426  0.96906  1.0000
  H   H1312     1.0  0.42525  0.19564  0.53077  1.0000
  H   H1313     1.0  0.27510  0.00414  0.95982  1.0000
  H   H1314     1.0  0.48127  0.08759  0.75916  1.0000
  S   S295      1.0  0.45988  0.30112  0.80043  1.0000
  H   H1315     1.0  0.32981  0.30486  0.74236  1.0000
  C   C1094     1.0  0.34138  0.28996  0.80367  1.0000
  C   C1095     1.0  0.35516  0.19838  0.55896  1.0000
  H   H1316     1.0  0.28931  0.25896  0.93228  1.0000
  N   N73       1.0  0.42602  0.18126  0.58637  1.0000
  Fe  Fe146     1.0  0.30361  0.29273  0.81195  1.0000
  H   H1317     1.0  0.25563  0.09793  0.65180  1.0000
  H   H1318     1.0  0.29539  0.08122  0.68101  1.0000
  C   C1096     1.0  0.34044  0.28594  0.88661  1.0000
  C   C1097     1.0  0.39203  0.06647  0.91647  1.0000
  C   C1098     1.0  0.32778  0.18207  0.48987  1.0000
  C   C1099     1.0  0.34205  0.30664  0.73369  1.0000
  C   C1100     1.0  0.29979  0.26697  0.93393  1.0000
  H   H1319     1.0  0.26354  0.29214  0.96309  1.0000
  S   S296      1.0  0.48080  0.04622  0.73244  1.0000
  H   H1320     1.0  0.24496  0.01525  0.73398  1.0000
  C   C1101     1.0  0.42489  0.13320  0.94271  1.0000
  C   C1102     1.0  0.36284  0.29505  0.71877  1.0000
  C   C1103     1.0  0.44643  0.28105  0.93150  1.0000
  H   H1321     1.0  0.47756  0.01037  0.63630  1.0000
  H   H1322     1.0  0.44684  0.20621  0.48917  1.0000
  H   H1323     1.0  0.36545  0.22910  0.53889  1.0000
  Fe  Fe147     1.0  0.24106  0.10492  0.58828  1.0000
  H   H1324     1.0  0.23681  0.14446  0.50877  1.0000
  N   N74       1.0  0.44343  0.15310  0.95695  1.0000
  C   C1104     1.0  0.32869  0.18647  0.53556  1.0000
  S   S297      1.0  0.39031  0.31633  0.79896  1.0000
  H   H1325     1.0  0.33434  0.30631  0.82553  1.0000
  H   H1326     1.0  0.45894  0.27066  0.83603  1.0000
  H   H1327     1.0  0.31798  0.28565  0.95081  1.0000
  H   H1328     1.0  0.41319  0.08255  0.88969  1.0000
  H   H1329     1.0  0.46230  0.14298  0.94555  1.0000
  H   H1330     1.0  0.44306  0.28702  0.94819  1.0000
  C   C1105     1.0  0.46402  0.26969  0.85391  1.0000
  C   C1106     1.0  0.27116  0.22834  0.68774  1.0000
  H   H1331     1.0  0.46653  0.15852  0.96177  1.0000
  H   H1332     1.0  0.31598  0.28031  0.86307  1.0000
  S   S298      1.0  0.46639  0.24015  0.50578  1.0000
  H   H1333     1.0  0.26966  0.19732  0.74081  1.0000
  H   H1334     1.0  0.23777  0.98926  0.87559  1.0000
  S   S299      1.0  0.25057  0.28513  0.78719  1.0000
  H   H1335     1.0  0.35840  0.00458  0.79147  1.0000
  C   C1107     1.0  0.44133  0.16855  0.95932  1.0000
  H   H1336     1.0  0.29700  0.22364  0.70004  1.0000
  H   H1337     1.0  0.44629  0.17226  0.97613  1.0000
  C   C1108     1.0  0.46043  0.27799  0.87379  1.0000
  H   H1338     1.0  0.29350  0.20355  0.70094  1.0000
  C   C1109     1.0  0.29065  0.21456  0.69186  1.0000
  H   H1339     1.0  0.29579  0.10637  0.65989  1.0000
  C   C1110     1.0  0.44875  0.20058  0.50909  1.0000
  C   C1111     1.0  0.24854  0.19814  0.69502  1.0000
  C   C1112     1.0  0.35447  0.05294  0.96516  1.0000
  C   C1113     1.0  0.26768  0.10324  0.65179  1.0000
  C   C1114     1.0  0.47040  0.31377  0.81626  1.0000
  C   C1115     1.0  0.47441  0.26057  0.85649  1.0000
  C   C1116     1.0  0.40078  0.07701  0.96075  1.0000
  C   C1117     1.0  0.41797  0.12859  0.92233  1.0000
  N   N75       1.0  0.36764  0.04773  0.95098  1.0000
  C   C1118     1.0  0.43556  0.14794  0.93625  1.0000
  H   H1340     1.0  0.41005  0.11724  0.92743  1.0000
  S   S300      1.0  0.32251  0.28028  0.80449  1.0000
  C   C1119     1.0  0.38215  0.06002  0.94436  1.0000
  H   H1341     1.0  0.42097  0.09179  0.92873  1.0000
  C   C1120     1.0  0.30682  0.31363  0.93437  1.0000
  H   H1342     1.0  0.27127  0.11484  0.63613  1.0000
  Fe  Fe148     1.0  0.41172  0.31270  0.77209  1.0000
  H   H1343     1.0  0.33087  0.01224  0.91709  1.0000
  H   H1344     1.0  0.28424  0.08214  0.61191  1.0000
  H   H1345     1.0  0.47734  0.25432  0.84084  1.0000
  H   H1346     1.0  0.37300  0.03867  0.91449  1.0000
  H   H1347     1.0  0.42890  0.16843  0.96459  1.0000
  C   C1121     1.0  0.46369  0.20032  0.51060  1.0000
  C   C1122     1.0  0.29427  0.10275  0.64053  1.0000
  C   C1123     1.0  0.38697  0.06565  0.96635  1.0000
  C   C1124     1.0  0.47988  0.11958  0.76000  1.0000
  Fe  Fe149     1.0  0.44328  0.30756  0.77434  1.0000
  C   C1125     1.0  0.30822  0.00879  0.90982  1.0000
  S   S301      1.0  0.23296  0.22609  0.74002  1.0000
  H   H1348     1.0  0.37893  0.28929  0.77930  1.0000
  H   H1349     1.0  0.33290  0.99751  0.78690  1.0000
  S   S302      1.0  0.42645  0.27910  0.70424  1.0000
  C   C1126     1.0  0.27711  0.09016  0.61731  1.0000
  C   C1127     1.0  0.43666  0.23459  0.49965  1.0000
  C   C1128     1.0  0.32688  0.28158  0.90932  1.0000
  C   C1129     1.0  0.46710  0.30314  0.90305  1.0000
  H   H1350     1.0  0.30556  0.24739  0.90475  1.0000
  H   H1351     1.0  0.23621  0.25191  0.83133  1.0000
  H   H1352     1.0  0.35371  0.06410  0.95197  1.0000
  H   H1353     1.0  0.29616  0.27751  0.93740  1.0000
  C   C1130     1.0  0.34393  0.30259  0.81525  1.0000
  C   C1131     1.0  0.29780  0.00772  0.96723  1.0000
  C   C1132     1.0  0.31615  0.25607  0.90417  1.0000
  H   H1354     1.0  0.30292  0.09626  0.63434  1.0000
  H   H1355     1.0  0.46549  0.16278  0.92585  1.0000
  H   H1356     1.0  0.40422  0.08102  0.97797  1.0000
  H   H1357     1.0  0.29552  0.21801  0.66843  1.0000
  C   C1133     1.0  0.40580  0.07783  0.91112  1.0000
  C   C1134     1.0  0.35254  0.32126  0.72883  1.0000
  C   C1135     1.0  0.27562  0.29823  0.95500  1.0000
  H   H1358     1.0  0.37899  0.02958  0.96108  1.0000
  S   S303      1.0  0.27077  0.31337  0.82280  1.0000
  H   H1359     1.0  0.34075  0.28151  0.86814  1.0000
  H   H1360     1.0  0.27517  0.21759  0.73982  1.0000
  H   H1361     1.0  0.35624  0.23102  0.51045  1.0000
  H   H1362     1.0  0.32127  0.25086  0.92104  1.0000
  C   C1136     1.0  0.27925  0.06029  0.70546  1.0000
  C   C1137     1.0  0.29799  0.31060  0.91535  1.0000
  H   H1363     1.0  0.37064  0.21993  0.51185  1.0000
  C   C1138     1.0  0.24645  0.26910  0.77269  1.0000
  H   H1364     1.0  0.27450  0.23153  0.66414  1.0000
  C   C1139     1.0  0.34715  0.29381  0.72849  1.0000
  H   H1365     1.0  0.47050  0.12559  0.76394  1.0000
  C   C1140     1.0  0.35900  0.31043  0.81380  1.0000
  C   C1141     1.0  0.26301  0.18071  0.66370  1.0000
  C   C1142     1.0  0.23330  0.26671  0.76218  1.0000
  H   H1366     1.0  0.47808  0.14463  0.89947  1.0000
  C   C1143     1.0  0.35414  0.30264  0.90991  1.0000
  C   C1144     1.0  0.47146  0.28468  0.94041  1.0000
  H   H1367     1.0  0.34649  0.18795  0.57356  1.0000
  C   C1145     1.0  0.28445  0.30132  0.97403  1.0000
  H   H1368     1.0  0.31263  0.16748  0.52956  1.0000
  H   H1369     1.0  0.25619  0.20905  0.73868  1.0000
  S   S304      1.0  0.41662  0.31693  0.72474  1.0000
  H   H1370     1.0  0.47666  0.11207  0.74621  1.0000
  S   S305      1.0  0.30186  0.99872  0.77996  1.0000
  H   H1371     1.0  0.33010  0.22026  0.54700  1.0000
  C   C1146     1.0  0.23750  0.15674  0.49862  1.0000
  H   H1372     1.0  0.26506  0.08478  0.61750  1.0000
  H   H1373     1.0  0.35840  0.02376  0.97494  1.0000
  H   H1374     1.0  0.33850  0.99353  0.75319  1.0000
  H   H1375     1.0  0.35643  0.21371  0.48140  1.0000
  C   C1147     1.0  0.47772  0.26792  0.89906  1.0000
  H   H1376     1.0  0.30292  0.26126  0.95316  1.0000
  C   C1148     1.0  0.37349  0.30911  0.71443  1.0000
  H   H1377     1.0  0.42182  0.12493  0.96320  1.0000
  H   H1378     1.0  0.47588  0.12727  0.80916  1.0000
  C   C1149     1.0  0.47549  0.07440  0.70962  1.0000
  H   H1379     1.0  0.44732  0.17789  0.93952  1.0000
  H   H1380     1.0  0.41635  0.13462  0.87923  1.0000
  H   H1381     1.0  0.30327  0.31442  0.89279  1.0000
  H   H1382     1.0  0.28418  0.19315  0.66764  1.0000
  H   H1383     1.0  0.46828  0.09125  0.82198  1.0000
  C   C1150     1.0  0.27188  0.19192  0.67315  1.0000
  C   C1151     1.0  0.36148  0.99606  0.77963  1.0000
  H   H1384     1.0  0.37141  0.99255  0.78630  1.0000
  H   H1385     1.0  0.26854  0.17386  0.65155  1.0000
  S   S306      1.0  0.32726  0.01182  0.97531  1.0000
  H   H1386     1.0  0.45639  0.99429  0.62276  1.0000
  H   H1387     1.0  0.24316  0.04683  0.69920  1.0000
  N   N76       1.0  0.48189  0.11058  0.78682  1.0000
  H   H1388     1.0  0.25125  0.32204  0.75846  1.0000
  C   C1152     1.0  0.36852  0.32205  0.71946  1.0000
  H   H1389     1.0  0.23505  0.09943  0.48014  1.0000
  H   H1390     1.0  0.40759  0.56453  0.40582  1.0000
  H   H1391     1.0  0.27659  0.41489  0.18588  1.0000
  Fe  Fe150     1.0  0.43042  0.51993  0.24642  1.0000
  S   S307      1.0  0.43328  0.52958  0.19983  1.0000
  S   S308      1.0  0.44417  0.50525  0.26755  1.0000
  Fe  Fe151     1.0  0.40616  0.53668  0.26414  1.0000
  S   S309      1.0  0.40697  0.54781  0.21914  1.0000
  S   S310      1.0  0.38932  0.53965  0.30154  1.0000
  Fe  Fe152     1.0  0.40740  0.52455  0.21115  1.0000
  S   S311      1.0  0.39396  0.51912  0.17958  1.0000
  Fe  Fe153     1.0  0.43261  0.55206  0.21084  1.0000
  S   S312      1.0  0.44730  0.57394  0.17813  1.0000
  S   S313      1.0  0.40446  0.51291  0.25711  1.0000
  S   S314      1.0  0.43189  0.54297  0.25660  1.0000
  Fe  Fe154     1.0  0.36274  0.58628  0.43919  1.0000
  S   S315      1.0  0.37975  0.60676  0.40618  1.0000
  S   S316      1.0  0.33687  0.57982  0.44078  1.0000
  S   S317      1.0  0.40681  0.59822  0.43635  1.0000
  Fe  Fe155     1.0  0.38976  0.61272  0.44146  1.0000
  H   H1392     1.0  0.41203  0.59604  0.03022  1.0000
  Fe  Fe156     1.0  0.39568  0.59107  0.40350  1.0000
  S   S318      1.0  0.41145  0.59097  0.36207  1.0000
  S   S319      1.0  0.37818  0.57032  0.43414  1.0000
  S   S320      1.0  0.26172  0.49224  0.41136  1.0000
  S   S321      1.0  0.24952  0.52248  0.38912  1.0000
  Fe  Fe157     1.0  0.26744  0.51729  0.41263  1.0000
  S   S322      1.0  0.29359  0.52884  0.40058  1.0000
  S   S323      1.0  0.42580  0.35238  0.11623  1.0000
  C   C1153     1.0  0.29238  0.34461  0.15847  1.0000
  Fe  Fe158     1.0  0.43177  0.35517  0.15664  1.0000
  S   S324      1.0  0.44822  0.37867  0.15029  1.0000
  Fe  Fe159     1.0  0.30799  0.44280  0.15911  1.0000
  S   S325      1.0  0.32168  0.42697  0.17646  1.0000
  S   S326      1.0  0.28689  0.44740  0.18538  1.0000
  Fe  Fe160     1.0  0.33119  0.45511  0.10177  1.0000
  S   S327      1.0  0.34673  0.44032  0.11454  1.0000
  S   S328      1.0  0.33975  0.47108  0.05746  1.0000
  Fe  Fe161     1.0  0.32500  0.42135  0.13427  1.0000
  S   S329      1.0  0.32723  0.39728  0.13214  1.0000
  Fe  Fe162     1.0  0.34244  0.44714  0.15536  1.0000
  S   S330      1.0  0.36179  0.45080  0.17728  1.0000
  S   S331      1.0  0.30956  0.43559  0.11835  1.0000
  S   S332      1.0  0.32858  0.46353  0.14109  1.0000
  H   H1393     1.0  0.25959  0.44810  0.22432  1.0000
  C   C1154     1.0  0.34523  0.58144  0.02138  1.0000
  H   H1394     1.0  0.25177  0.39517  0.21063  1.0000
  C   C1155     1.0  0.42954  0.65297  0.47933  1.0000
  N   N77       1.0  0.23673  0.44150  0.42583  1.0000
  H   H1395     1.0  0.27274  0.34094  0.99699  1.0000
  Fe  Fe163     1.0  0.43294  0.63640  0.01380  1.0000
  S   S333      1.0  0.44246  0.62859  0.05166  1.0000
  S   S334      1.0  0.40719  0.63281  0.02247  1.0000
  C   C1156     1.0  0.35768  0.34194  0.10552  1.0000
  S   S335      1.0  0.29173  0.35766  0.06421  1.0000
  C   C1157     1.0  0.40917  0.58915  0.24968  1.0000
  H   H1396     1.0  0.45416  0.62605  0.10120  1.0000
  H   H1397     1.0  0.44905  0.40515  0.20711  1.0000
  C   C1158     1.0  0.45954  0.63759  0.08738  1.0000
  C   C1159     1.0  0.43480  0.60586  0.23970  1.0000
  H   H1398     1.0  0.23951  0.44738  0.18103  1.0000
  H   H1399     1.0  0.47945  0.62643  0.16068  1.0000
  H   H1400     1.0  0.45702  0.63344  0.22845  1.0000
  H   H1401     1.0  0.44116  0.64183  0.23800  1.0000
  H   H1402     1.0  0.29837  0.33675  0.98681  1.0000
  Fe  Fe164     1.0  0.40133  0.34269  0.14275  1.0000
  H   H1403     1.0  0.36336  0.59140  0.03840  1.0000
  C   C1160     1.0  0.32654  0.47957  0.04302  1.0000
  C   C1161     1.0  0.33131  0.48882  0.01495  1.0000
  C   C1162     1.0  0.32117  0.49616  0.00307  1.0000
  C   C1163     1.0  0.30626  0.49441  0.01938  1.0000
  C   C1164     1.0  0.30140  0.48497  0.04734  1.0000
  C   C1165     1.0  0.31153  0.47756  0.05918  1.0000
  H   H1404     1.0  0.34290  0.49030  0.00239  1.0000
  H   H1405     1.0  0.30290  0.52780  0.03776  1.0000
  H   H1406     1.0  0.28988  0.48361  0.06005  1.0000
  H   H1407     1.0  0.30782  0.47046  0.08087  1.0000
  C   C1166     1.0  0.31800  0.38718  0.11128  1.0000
  C   C1167     1.0  0.32182  0.37351  0.10730  1.0000
  C   C1168     1.0  0.31391  0.36440  0.09278  1.0000
  C   C1169     1.0  0.30222  0.36907  0.08178  1.0000
  C   C1170     1.0  0.29871  0.38301  0.08498  1.0000
  C   C1171     1.0  0.30654  0.39203  0.09977  1.0000
  H   H1408     1.0  0.33091  0.36996  0.11558  1.0000
  H   H1409     1.0  0.31683  0.35378  0.09014  1.0000
  H   H1410     1.0  0.28974  0.38672  0.07639  1.0000
  H   H1411     1.0  0.30355  0.40257  0.10266  1.0000
  Fe  Fe165     1.0  0.38803  0.57866  0.46759  1.0000
  H   H1412     1.0  0.42626  0.38538  0.21121  1.0000
  H   H1413     1.0  0.46305  0.53173  0.22244  1.0000
  C   C1172     1.0  0.42430  0.59476  0.23298  1.0000
  H   H1414     1.0  0.30795  0.54821  0.02351  1.0000
  C   C1173     1.0  0.46847  0.49064  0.20526  1.0000
  H   H1415     1.0  0.36041  0.35392  0.09331  1.0000
  H   H1416     1.0  0.45937  0.35988  0.01921  1.0000
  C   C1174     1.0  0.32485  0.56457  0.43179  1.0000
  C   C1175     1.0  0.33063  0.55361  0.41998  1.0000
  C   C1176     1.0  0.32076  0.54238  0.41169  1.0000
  C   C1177     1.0  0.30497  0.54181  0.41520  1.0000
  C   C1178     1.0  0.29911  0.55248  0.42778  1.0000
  C   C1179     1.0  0.30899  0.56378  0.43588  1.0000
  H   H1417     1.0  0.34276  0.55402  0.41659  1.0000
  H   H1418     1.0  0.32548  0.53425  0.40199  1.0000
  C   C1180     1.0  0.39633  0.55278  0.31997  1.0000
  C   C1181     1.0  0.38662  0.55369  0.34491  1.0000
  C   C1182     1.0  0.39129  0.56514  0.35839  1.0000
  C   C1183     1.0  0.40586  0.57552  0.34735  1.0000
  C   C1184     1.0  0.41594  0.57397  0.32349  1.0000
  C   C1185     1.0  0.41114  0.56273  0.30964  1.0000
  H   H1419     1.0  0.37530  0.54578  0.35355  1.0000
  H   H1420     1.0  0.38343  0.56619  0.37680  1.0000
  H   H1421     1.0  0.42730  0.58182  0.31508  1.0000
  H   H1422     1.0  0.41875  0.56212  0.29053  1.0000
  C   C1186     1.0  0.38481  0.49998  0.18005  1.0000
  C   C1187     1.0  0.37494  0.49787  0.16234  1.0000
  C   C1188     1.0  0.36765  0.48287  0.16166  1.0000
  C   C1189     1.0  0.37032  0.46982  0.17844  1.0000
  C   C1190     1.0  0.38025  0.47192  0.19610  1.0000
  C   C1191     1.0  0.38739  0.48694  0.19706  1.0000
  H   H1423     1.0  0.37288  0.50787  0.14909  1.0000
  H   H1424     1.0  0.36010  0.48142  0.14789  1.0000
  H   H1425     1.0  0.38236  0.46190  0.20917  1.0000
  H   H1426     1.0  0.39498  0.48841  0.21076  1.0000
  C   C1192     1.0  0.45912  0.58851  0.18788  1.0000
  H   H1427     1.0  0.23551  0.63299  0.39733  1.0000
  S   S336      1.0  0.38236  0.35125  0.12651  1.0000
  N   N78       1.0  0.40956  0.54211  0.42624  1.0000
  C   C1193     1.0  0.26586  0.44762  0.12279  1.0000
  C   C1194     1.0  0.46258  0.58570  0.21418  1.0000
  C   C1195     1.0  0.45400  0.61516  0.27900  1.0000
  C   C1196     1.0  0.41097  0.65015  0.45095  1.0000
  H   H1428     1.0  0.45776  0.57447  0.22930  1.0000
  C   C1197     1.0  0.24128  0.60866  0.43557  1.0000
  H   H1429     1.0  0.39449  0.57186  0.02960  1.0000
  C   C1198     1.0  0.46436  0.48693  0.26338  1.0000
  C   C1199     1.0  0.45634  0.49606  0.24878  1.0000
  C   C1200     1.0  0.45838  0.49785  0.21966  1.0000
  H   H1430     1.0  0.46282  0.48551  0.28592  1.0000
  C   C1201     1.0  0.47165  0.32682  0.02597  1.0000
  C   C1202     1.0  0.41490  0.60578  0.28005  1.0000
  H   H1431     1.0  0.45212  0.50472  0.20831  1.0000
  H   H1432     1.0  0.46025  0.61138  0.26128  1.0000
  H   H1433     1.0  0.25999  0.60523  0.45426  1.0000
  S   S337      1.0  0.40700  0.34715  0.18241  1.0000
  C   C1203     1.0  0.45835  0.37304  0.19917  1.0000
  C   C1204     1.0  0.45972  0.38335  0.17318  1.0000
  C   C1205     1.0  0.47036  0.39795  0.16515  1.0000
  C   C1206     1.0  0.45134  0.32497  0.06763  1.0000
  H   H1434     1.0  0.45022  0.36176  0.20557  1.0000
  H   H1435     1.0  0.30499  0.34926  0.00705  1.0000
  H   H1436     1.0  0.31341  0.33432  0.22095  1.0000
  H   H1437     1.0  0.43080  0.54065  0.43795  1.0000
  H   H1438     1.0  0.27790  0.45308  0.11189  1.0000
  C   C1207     1.0  0.25789  0.43654  0.22132  1.0000
  C   C1208     1.0  0.26976  0.43281  0.20343  1.0000
  C   C1209     1.0  0.26753  0.41784  0.19969  1.0000
  C   C1210     1.0  0.25346  0.40672  0.21369  1.0000
  H   H1439     1.0  0.42629  0.63440  0.29070  1.0000
  C   C1211     1.0  0.39284  0.53623  0.44087  1.0000
  H   H1440     1.0  0.38997  0.53968  0.46104  1.0000
  C   C1212     1.0  0.29759  0.36924  0.18313  1.0000
  H   H1441     1.0  0.46666  0.42900  0.18340  1.0000
  N   N79       1.0  0.33756  0.54138  0.32082  1.0000
  C   C1213     1.0  0.32086  0.53420  0.32556  1.0000
  C   C1214     1.0  0.34495  0.54479  0.29003  1.0000
  C   C1215     1.0  0.34411  0.52971  0.33650  1.0000
  C   C1216     1.0  0.34064  0.55570  0.33047  1.0000
  C   C1217     1.0  0.35604  0.56433  0.32619  1.0000
  C   C1218     1.0  0.32874  0.56113  0.34534  1.0000
  C   C1219     1.0  0.35934  0.57713  0.33718  1.0000
  C   C1220     1.0  0.33217  0.57405  0.35595  1.0000
  C   C1221     1.0  0.34743  0.58188  0.35228  1.0000
  H   H1442     1.0  0.31512  0.54241  0.31461  1.0000
  H   H1443     1.0  0.31887  0.52368  0.31756  1.0000
  H   H1444     1.0  0.31478  0.53029  0.34859  1.0000
  H   H1445     1.0  0.35777  0.54813  0.28509  1.0000
  H   H1446     1.0  0.34124  0.55438  0.27764  1.0000
  H   H1447     1.0  0.34201  0.53446  0.28178  1.0000
  H   H1448     1.0  0.33931  0.52727  0.35983  1.0000
  H   H1449     1.0  0.34159  0.51852  0.33068  1.0000
  H   H1450     1.0  0.35687  0.53361  0.33196  1.0000
  H   H1451     1.0  0.36567  0.56092  0.31502  1.0000
  H   H1452     1.0  0.31666  0.55526  0.35018  1.0000
  H   H1453     1.0  0.37121  0.58316  0.33465  1.0000
  H   H1454     1.0  0.32293  0.57755  0.36835  1.0000
  H   H1455     1.0  0.34998  0.59144  0.36171  1.0000
  N   N80       1.0  0.42243  0.57301  0.11469  1.0000
  C   C1222     1.0  0.41846  0.58487  0.12910  1.0000
  C   C1223     1.0  0.41844  0.55800  0.13676  1.0000
  C   C1224     1.0  0.43936  0.57736  0.10215  1.0000
  C   C1225     1.0  0.41438  0.57244  0.09195  1.0000
  C   C1226     1.0  0.34507  0.33110  0.10309  1.0000
  C   C1227     1.0  0.41696  0.58588  0.06937  1.0000
  H   H1456     1.0  0.47401  0.54505  0.23663  1.0000
  H   H1457     1.0  0.40576  0.58241  0.13783  1.0000
  H   H1458     1.0  0.42395  0.58521  0.14698  1.0000
  H   H1459     1.0  0.42250  0.59681  0.11458  1.0000
  H   H1460     1.0  0.42162  0.54858  0.12772  1.0000
  H   H1461     1.0  0.40591  0.55422  0.14783  1.0000
  H   H1462     1.0  0.42465  0.55879  0.15352  1.0000
  H   H1463     1.0  0.44355  0.58923  0.08738  1.0000
  H   H1464     1.0  0.44581  0.57739  0.11875  1.0000
  H   H1465     1.0  0.44280  0.56912  0.09007  1.0000
  H   H1466     1.0  0.39277  0.59007  0.28635  1.0000
  H   H1467     1.0  0.42466  0.59674  0.06844  1.0000
  H   H1468     1.0  0.39875  0.51974  0.35357  1.0000
  H   H1469     1.0  0.31437  0.35949  0.19864  1.0000
  Fe  Fe166     1.0  0.29436  0.33326  0.06779  1.0000
  C   C1228     1.0  0.40445  0.59475  0.27298  1.0000
  H   H1470     1.0  0.42800  0.59031  0.21494  1.0000
  H   H1471     1.0  0.43833  0.54941  0.38945  1.0000
  H   H1472     1.0  0.30434  0.57213  0.44503  1.0000
  C   C1229     1.0  0.40732  0.52595  0.36202  1.0000
  C   C1230     1.0  0.42267  0.53085  0.34636  1.0000
  N   N81       1.0  0.44211  0.62280  0.27101  1.0000
  N   N82       1.0  0.31264  0.33360  0.17828  1.0000
  C   C1231     1.0  0.30591  0.35799  0.18664  1.0000
  H   H1473     1.0  0.33351  0.35005  0.17754  1.0000
  Fe  Fe167     1.0  0.40884  0.62328  0.98413  1.0000
  H   H1474     1.0  0.47559  0.44136  0.20178  1.0000
  H   H1475     1.0  0.40027  0.38976  0.22500  1.0000
  C   C1232     1.0  0.47631  0.34447  0.10221  1.0000
  S   S338      1.0  0.31651  0.32783  0.04970  1.0000
  C   C1233     1.0  0.47648  0.48151  0.21989  1.0000
  N   N83       1.0  0.32708  0.53869  0.03089  1.0000
  C   C1234     1.0  0.33147  0.53807  0.00100  1.0000
  C   C1235     1.0  0.32861  0.52415  0.04902  1.0000
  C   C1236     1.0  0.31057  0.53881  0.03846  1.0000
  C   C1237     1.0  0.33680  0.55296  0.03402  1.0000
  C   C1238     1.0  0.34761  0.55268  0.05077  1.0000
  C   C1239     1.0  0.33592  0.56779  0.01936  1.0000
  C   C1240     1.0  0.35691  0.56643  0.05252  1.0000
  H   H1476     1.0  0.46269  0.60547  0.14821  1.0000
  C   C1241     1.0  0.35580  0.58077  0.03771  1.0000
  H   H1477     1.0  0.32412  0.52771  0.99764  1.0000
  H   H1478     1.0  0.47155  0.40596  0.14498  1.0000
  H   H1479     1.0  0.40116  0.58024  0.24487  1.0000
  H   H1480     1.0  0.39072  0.52550  0.39859  1.0000
  H   H1481     1.0  0.32081  0.51370  0.04684  1.0000
  H   H1482     1.0  0.32549  0.52383  0.07190  1.0000
  H   H1483     1.0  0.23564  0.42067  0.11917  1.0000
  C   C1242     1.0  0.30956  0.32601  0.20894  1.0000
  H   H1484     1.0  0.42523  0.65200  0.06811  1.0000
  H   H1485     1.0  0.34921  0.54199  0.06252  1.0000
  H   H1486     1.0  0.32837  0.56898  0.00545  1.0000
  H   H1487     1.0  0.41590  0.52281  0.44975  1.0000
  H   H1488     1.0  0.33819  0.33474  0.08901  1.0000
  C   C1243     1.0  0.30344  0.34906  0.98559  1.0000
  H   H1489     1.0  0.26096  0.44224  0.41587  1.0000
  C   C1244     1.0  0.32937  0.34120  0.16681  1.0000
  H   H1490     1.0  0.46144  0.36755  0.09842  1.0000
  C   C1245     1.0  0.24359  0.43756  0.37618  1.0000
  H   H1491     1.0  0.46700  0.42148  0.21988  1.0000
  H   H1492     1.0  0.38911  0.52334  0.44655  1.0000
  N   N84       1.0  0.37206  0.40301  0.14103  1.0000
  C   C1246     1.0  0.36503  0.41405  0.15400  1.0000
  C   C1247     1.0  0.37192  0.40665  0.11075  1.0000
  C   C1248     1.0  0.36205  0.38714  0.15557  1.0000
  C   C1249     1.0  0.38808  0.40375  0.14308  1.0000
  C   C1250     1.0  0.39578  0.39279  0.13448  1.0000
  C   C1251     1.0  0.39661  0.41536  0.15293  1.0000
  C   C1252     1.0  0.41079  0.39305  0.13665  1.0000
  C   C1253     1.0  0.41172  0.41562  0.15466  1.0000
  C   C1254     1.0  0.41874  0.40441  0.14677  1.0000
  H   H1493     1.0  0.37102  0.42638  0.14257  1.0000
  H   H1494     1.0  0.35278  0.41273  0.15322  1.0000
  H   H1495     1.0  0.36503  0.41223  0.17672  1.0000
  H   H1496     1.0  0.37945  0.41841  0.09897  1.0000
  H   H1497     1.0  0.36009  0.40649  0.10821  1.0000
  H   H1498     1.0  0.37598  0.39815  0.10000  1.0000
  H   H1499     1.0  0.36281  0.38348  0.17782  1.0000
  H   H1500     1.0  0.34973  0.38650  0.15611  1.0000
  H   H1501     1.0  0.36508  0.37829  0.14470  1.0000
  H   H1502     1.0  0.39027  0.38392  0.12589  1.0000
  H   H1503     1.0  0.39189  0.42442  0.15928  1.0000
  H   H1504     1.0  0.41632  0.38439  0.13033  1.0000
  H   H1505     1.0  0.41801  0.42455  0.16224  1.0000
  H   H1506     1.0  0.43039  0.40452  0.14835  1.0000
  S   S339      1.0  0.37136  0.59343  0.47511  1.0000
  C   C1255     1.0  0.46741  0.37741  0.21714  1.0000
  H   H1507     1.0  0.27607  0.35548  0.14197  1.0000
  Fe  Fe168     1.0  0.42841  0.32819  0.12918  1.0000
  H   H1508     1.0  0.27799  0.35336  0.01834  1.0000
  Fe  Fe169     1.0  0.24244  0.49676  0.39212  1.0000
  S   S340      1.0  0.25135  0.51222  0.45599  1.0000
  C   C1256     1.0  0.23952  0.43102  0.35501  1.0000
  C   C1257     1.0  0.30362  0.34533  0.17431  1.0000
  C   C1258     1.0  0.39699  0.55857  0.06887  1.0000
  C   C1259     1.0  0.41382  0.53799  0.39905  1.0000
  H   H1509     1.0  0.44216  0.34498  0.06641  1.0000
  C   C1260     1.0  0.40980  0.58561  0.04731  1.0000
  H   H1510     1.0  0.47199  0.64487  0.11667  1.0000
  H   H1511     1.0  0.34368  0.53752  0.99458  1.0000
  H   H1512     1.0  0.40127  0.54789  0.10738  1.0000
  C   C1261     1.0  0.40286  0.52944  0.38796  1.0000
  H   H1513     1.0  0.38567  0.54107  0.42759  1.0000
  H   H1514     1.0  0.47801  0.38258  0.07660  1.0000
  C   C1262     1.0  0.40405  0.55871  0.09115  1.0000
  H   H1515     1.0  0.31171  0.32605  0.14047  1.0000
  H   H1516     1.0  0.30061  0.37418  0.00259  1.0000
  C   C1263     1.0  0.46004  0.34826  0.02853  1.0000
  C   C1264     1.0  0.47086  0.34187  0.01397  1.0000
  C   C1265     1.0  0.28677  0.36825  0.16731  1.0000
  H   H1517     1.0  0.44562  0.54311  0.34421  1.0000
  H   H1518     1.0  0.34046  0.52251  0.04303  1.0000
  C   C1266     1.0  0.41900  0.64348  0.46916  1.0000
  S   S341      1.0  0.29388  0.50482  0.00629  1.0000
  C   C1267     1.0  0.45605  0.64193  0.06117  1.0000
  H   H1519     1.0  0.42611  0.56464  0.41195  1.0000
  H   H1520     1.0  0.33017  0.54834  0.98597  1.0000
  H   H1521     1.0  0.46707  0.55117  0.16512  1.0000
  C   C1268     1.0  0.47243  0.59749  0.22088  1.0000
  C   C1269     1.0  0.36685  0.33733  0.12338  1.0000
  C   C1270     1.0  0.24622  0.58362  0.45254  1.0000
  C   C1271     1.0  0.41357  0.55923  0.42098  1.0000
  H   H1522     1.0  0.28706  0.55234  0.43050  1.0000
  H   H1523     1.0  0.46296  0.62313  0.28485  1.0000
  H   H1524     1.0  0.44876  0.60473  0.29734  1.0000
  Fe  Fe170     1.0  0.41098  0.32311  0.18989  1.0000
  S   S342      1.0  0.43627  0.33152  0.16764  1.0000
  C   C1272     1.0  0.23466  0.43267  0.15265  1.0000
  H   H1525     1.0  0.26600  0.45984  0.15497  1.0000
  C   C1273     1.0  0.46534  0.60320  0.16859  1.0000
  H   H1526     1.0  0.28075  0.37729  0.16383  1.0000
  H   H1527     1.0  0.34461  0.59261  0.00941  1.0000
  H   H1528     1.0  0.46098  0.45894  0.18920  1.0000
  C   C1274     1.0  0.45032  0.33986  0.05528  1.0000
  N   N85       1.0  0.45065  0.43528  0.21439  1.0000
  H   H1529     1.0  0.30701  0.54025  0.06021  1.0000
  C   C1275     1.0  0.45038  0.44943  0.19348  1.0000
  C   C1276     1.0  0.45039  0.43886  0.24205  1.0000
  C   C1277     1.0  0.43699  0.42257  0.21760  1.0000
  C   C1278     1.0  0.42189  0.42461  0.22571  1.0000
  C   C1279     1.0  0.43815  0.40796  0.21281  1.0000
  C   C1280     1.0  0.40882  0.41289  0.22838  1.0000
  C   C1281     1.0  0.42502  0.39635  0.21538  1.0000
  C   C1282     1.0  0.41039  0.39880  0.22314  1.0000
  H   H1530     1.0  0.33209  0.34707  0.14383  1.0000
  C   C1283     1.0  0.46992  0.54396  0.21755  1.0000
  H   H1531     1.0  0.46196  0.55160  0.21507  1.0000
  H   H1532     1.0  0.23996  0.52662  0.98453  1.0000
  H   H1533     1.0  0.25497  0.44529  0.37057  1.0000
  H   H1534     1.0  0.44059  0.45432  0.20093  1.0000
  H   H1535     1.0  0.45018  0.42841  0.25855  1.0000
  H   H1536     1.0  0.46077  0.44808  0.24057  1.0000
  H   H1537     1.0  0.44024  0.44318  0.24989  1.0000
  H   H1538     1.0  0.42008  0.43532  0.23010  1.0000
  H   H1539     1.0  0.47003  0.49207  0.18272  1.0000
  H   H1540     1.0  0.39740  0.41476  0.23448  1.0000
  C   C1284     1.0  0.25910  0.45147  0.14705  1.0000
  C   C1285     1.0  0.43547  0.62863  0.29516  1.0000
  C   C1286     1.0  0.24377  0.44413  0.16193  1.0000
  H   H1541     1.0  0.29995  0.37914  0.19181  1.0000
  H   H1542     1.0  0.47049  0.36636  0.06414  1.0000
  H   H1543     1.0  0.44963  0.44699  0.17286  1.0000
  H   H1544     1.0  0.26259  0.43361  0.09406  1.0000
  C   C1287     1.0  0.47943  0.40231  0.18312  1.0000
  C   C1288     1.0  0.43369  0.53923  0.35660  1.0000
  C   C1289     1.0  0.43050  0.61164  0.26358  1.0000
  C   C1290     1.0  0.24155  0.41050  0.23138  1.0000
  Fe  Fe171     1.0  0.24468  0.48763  0.45325  1.0000
  C   C1291     1.0  0.47491  0.61508  0.17554  1.0000
  H   H1545     1.0  0.41057  0.60907  0.29908  1.0000
  H   H1546     1.0  0.47532  0.59518  0.24101  1.0000
  H   H1547     1.0  0.46447  0.34093  0.11667  1.0000
  C   C1292     1.0  0.39989  0.57198  0.04697  1.0000
  H   H1548     1.0  0.41020  0.56284  0.44083  1.0000
  H   H1549     1.0  0.38930  0.54795  0.06850  1.0000
  C   C1293     1.0  0.28415  0.35595  0.15506  1.0000
  S   S343      1.0  0.39645  0.63876  0.43948  1.0000
  C   C1294     1.0  0.42939  0.54276  0.38254  1.0000
  H   H1550     1.0  0.23482  0.42844  0.24907  1.0000
  H   H1551     1.0  0.24762  0.43381  0.33436  1.0000
  C   C1295     1.0  0.47852  0.61225  0.20168  1.0000
  H   H1552     1.0  0.44643  0.60971  0.22626  1.0000
  C   C1296     1.0  0.23352  0.57642  0.44466  1.0000
  H   H1553     1.0  0.27002  0.36023  0.98952  1.0000
  S   S344      1.0  0.23806  0.48660  0.35538  1.0000
  C   C1297     1.0  0.46555  0.43153  0.20443  1.0000
  H   H1554     1.0  0.41684  0.63098  0.47590  1.0000
  H   H1555     1.0  0.43053  0.61908  0.31514  1.0000
  H   H1556     1.0  0.36516  0.56601  0.06519  1.0000
  C   C1298     1.0  0.25008  0.59969  0.44805  1.0000
  C   C1299     1.0  0.24384  0.42544  0.23528  1.0000
  C   C1300     1.0  0.41814  0.53563  0.44600  1.0000
  C   C1301     1.0  0.27792  0.35320  0.99613  1.0000
  H   H1557     1.0  0.45786  0.64552  0.25168  1.0000
  C   C1302     1.0  0.47436  0.47961  0.24902  1.0000
  H   H1558     1.0  0.47522  0.34061  0.08297  1.0000
  C   C1303     1.0  0.44978  0.63645  0.24625  1.0000
  H   H1559     1.0  0.25647  0.46015  0.40056  1.0000
  C   C1304     1.0  0.25320  0.44998  0.41946  1.0000
  H   H1560     1.0  0.42597  0.52826  0.32609  1.0000
  H   H1561     1.0  0.41472  0.53815  0.46700  1.0000
  H   H1562     1.0  0.23613  0.47048  0.31215  1.0000
  C   C1305     1.0  0.47288  0.36982  0.08309  1.0000
  C   C1306     1.0  0.23303  0.43440  0.40320  1.0000
  H   H1563     1.0  0.33650  0.33265  0.16903  1.0000
  H   H1564     1.0  0.32495  0.50326  0.98143  1.0000
  C   C1307     1.0  0.25722  0.43660  0.11291  1.0000
  H   H1565     1.0  0.24494  0.62102  0.43274  1.0000
  H   H1566     1.0  0.25570  0.45481  0.43720  1.0000
  C   C1308     1.0  0.24183  0.42924  0.12750  1.0000
  C   C1309     1.0  0.47591  0.54463  0.16834  1.0000
  H   H1567     1.0  0.46988  0.53211  0.17321  1.0000
  H   H1568     1.0  0.48122  0.39158  0.34277  1.0000
  S   S345      1.0  0.39501  0.59947  0.98341  1.0000
  H   H1569     1.0  0.25309  0.57672  0.46214  1.0000
  H   H1570     1.0  0.23901  0.42008  0.45062  1.0000
  H   H1571     1.0  0.46622  0.36940  0.23731  1.0000
  H   H1572     1.0  0.28998  0.33567  0.14777  1.0000
  C   C1310     1.0  0.47787  0.39210  0.20935  1.0000
  C   C1311     1.0  0.23309  0.42942  0.45311  1.0000
  H   H1573     1.0  0.39942  0.32413  0.07020  1.0000
  H   H1574     1.0  0.23676  0.43440  0.46994  1.0000
  C   C1312     1.0  0.46972  0.64821  0.09614  1.0000
  H   H1575     1.0  0.47195  0.36192  0.13773  1.0000
  H   H1576     1.0  0.44436  0.63727  0.29980  1.0000
  Fe  Fe172     1.0  0.23314  0.51592  0.43268  1.0000
  H   H1577     1.0  0.48048  0.47259  0.26047  1.0000
  C   C1313     1.0  0.30019  0.37482  0.98021  1.0000
  Fe  Fe173     1.0  0.43686  0.52742  0.65881  1.0000
  S   S346      1.0  0.42765  0.52476  0.70535  1.0000
  S   S347      1.0  0.45382  0.51538  0.63831  1.0000
  Fe  Fe174     1.0  0.42015  0.55205  0.64106  1.0000
  S   S348      1.0  0.41015  0.55158  0.68627  1.0000
  S   S349      1.0  0.41382  0.56966  0.60892  1.0000
  Fe  Fe175     1.0  0.43342  0.55090  0.69322  1.0000
  S   S350      1.0  0.44247  0.56277  0.72442  1.0000
  Fe  Fe176     1.0  0.40501  0.52571  0.69495  1.0000
  S   S351      1.0  0.38152  0.51401  0.72598  1.0000
  S   S352      1.0  0.44404  0.55360  0.64718  1.0000
  S   S353      1.0  0.41366  0.52611  0.64916  1.0000
  C   C1314     1.0  0.26973  0.55362  0.84645  1.0000
  S   S354      1.0  0.39332  0.55958  0.49874  1.0000
  C   C1315     1.0  0.26235  0.34384  0.76422  1.0000
  H   H1578     1.0  0.41610  0.58985  0.82214  1.0000
  H   H1579     1.0  0.37479  0.61621  0.95795  1.0000
  H   H1580     1.0  0.46536  0.58112  0.67169  1.0000
  H   H1581     1.0  0.24122  0.44376  0.64777  1.0000
  H   H1582     1.0  0.38983  0.64318  0.51255  1.0000
  S   S355      1.0  0.45135  0.35354  0.68944  1.0000
  H   H1583     1.0  0.28303  0.33447  0.95661  1.0000
  Fe  Fe177     1.0  0.43984  0.33118  0.72408  1.0000
  C   C1316     1.0  0.32854  0.46768  0.83062  1.0000
  H   H1584     1.0  0.23696  0.46223  0.63789  1.0000
  H   H1585     1.0  0.23933  0.49756  0.52246  1.0000
  H   H1586     1.0  0.29306  0.38303  0.97496  1.0000
  Fe  Fe178     1.0  0.30620  0.45582  0.73580  1.0000
  S   S356      1.0  0.30568  0.44705  0.78179  1.0000
  S   S357      1.0  0.32847  0.46649  0.70128  1.0000
  Fe  Fe179     1.0  0.27136  0.44654  0.74583  1.0000
  S   S358      1.0  0.26834  0.43751  0.79234  1.0000
  S   S359      1.0  0.24878  0.44575  0.73318  1.0000
  Fe  Fe180     1.0  0.28642  0.45870  0.78964  1.0000
  S   S360      1.0  0.27998  0.46951  0.82583  1.0000
  Fe  Fe181     1.0  0.28765  0.42652  0.78087  1.0000
  S   S361      1.0  0.28209  0.40207  0.80889  1.0000
  S   S362      1.0  0.28800  0.46887  0.74376  1.0000
  S   S363      1.0  0.28962  0.43417  0.73419  1.0000
  Fe  Fe182     1.0  0.31376  0.53024  0.89961  1.0000
  S   S364      1.0  0.29023  0.51960  0.92968  1.0000
  S   S365      1.0  0.32222  0.52348  0.85883  1.0000
  Fe  Fe183     1.0  0.32247  0.55487  0.93159  1.0000
  S   S366      1.0  0.33824  0.57767  0.93237  1.0000
  H   H1587     1.0  0.42124  0.60152  0.92015  1.0000
  Fe  Fe184     1.0  0.28881  0.54406  0.92732  1.0000
  S   S367      1.0  0.26814  0.55361  0.92213  1.0000
  S   S368      1.0  0.32647  0.53106  0.93383  1.0000
  S   S369      1.0  0.31160  0.55474  0.89498  1.0000
  H   H1588     1.0  0.24088  0.56207  0.91218  1.0000
  H   H1589     1.0  0.38146  0.49540  0.82629  1.0000
  S   S370      1.0  0.43436  0.62525  0.97752  1.0000
  H   H1590     1.0  0.26495  0.39094  0.71497  1.0000
  C   C1317     1.0  0.47496  0.62974  0.88425  1.0000
  S   S371      1.0  0.30587  0.34771  0.76865  1.0000
  C   C1318     1.0  0.23518  0.46161  0.58540  1.0000
  H   H1591     1.0  0.28114  0.53804  0.88243  1.0000
  C   C1319     1.0  0.48170  0.63631  0.85512  1.0000
  C   C1320     1.0  0.46637  0.63754  0.90031  1.0000
  C   C1321     1.0  0.34107  0.47291  0.80681  1.0000
  C   C1322     1.0  0.29527  0.55194  0.82623  1.0000
  H   H1592     1.0  0.46119  0.63239  0.92274  1.0000
  C   C1323     1.0  0.35429  0.58342  0.94614  1.0000
  C   C1324     1.0  0.37482  0.57817  0.96797  1.0000
  C   C1325     1.0  0.29775  0.37331  0.92466  1.0000
  C   C1326     1.0  0.37150  0.60421  0.95751  1.0000
  C   C1327     1.0  0.35907  0.59906  0.94631  1.0000
  C   C1328     1.0  0.46101  0.49911  0.68536  1.0000
  H   H1593     1.0  0.35294  0.60723  0.93807  1.0000
  C   C1329     1.0  0.25049  0.54232  0.92025  1.0000
  C   C1330     1.0  0.46949  0.53963  0.68858  1.0000
  H   H1594     1.0  0.34150  0.46704  0.79003  1.0000
  H   H1595     1.0  0.41926  0.64256  0.89467  1.0000
  C   C1331     1.0  0.24778  0.52630  0.92383  1.0000
  S   S372      1.0  0.29935  0.54606  0.96350  1.0000
  H   H1596     1.0  0.25650  0.52046  0.92846  1.0000
  C   C1332     1.0  0.29241  0.48407  0.83472  1.0000
  C   C1333     1.0  0.28805  0.48656  0.86166  1.0000
  C   C1334     1.0  0.29727  0.49834  0.86946  1.0000
  C   C1335     1.0  0.31075  0.50806  0.85008  1.0000
  C   C1336     1.0  0.31506  0.50568  0.82297  1.0000
  C   C1337     1.0  0.30601  0.49362  0.81538  1.0000
  H   H1597     1.0  0.27754  0.47921  0.87673  1.0000
  H   H1598     1.0  0.29390  0.49988  0.89049  1.0000
  H   H1599     1.0  0.32539  0.51316  0.80772  1.0000
  H   H1600     1.0  0.30946  0.49183  0.79452  1.0000
  C   C1338     1.0  0.28940  0.38736  0.79753  1.0000
  C   C1339     1.0  0.29964  0.39027  0.77094  1.0000
  C   C1340     1.0  0.30481  0.37805  0.76239  1.0000
  C   C1341     1.0  0.29972  0.36290  0.78034  1.0000
  C   C1342     1.0  0.28951  0.36002  0.80695  1.0000
  C   C1343     1.0  0.28435  0.37223  0.81547  1.0000
  H   H1601     1.0  0.30357  0.40191  0.75698  1.0000
  H   H1602     1.0  0.31268  0.38033  0.74174  1.0000
  H   H1603     1.0  0.28547  0.34838  0.82086  1.0000
  H   H1604     1.0  0.27627  0.36991  0.83591  1.0000
  C   C1344     1.0  0.36237  0.57302  0.95680  1.0000
  H   H1605     1.0  0.36790  0.34933  0.73657  1.0000
  H   H1606     1.0  0.43787  0.37812  0.71943  1.0000
  H   H1607     1.0  0.27185  0.33965  0.77002  1.0000
  H   H1608     1.0  0.47519  0.35621  0.63781  1.0000
  C   C1345     1.0  0.23369  0.51777  0.92161  1.0000
  H   H1609     1.0  0.42088  0.64185  0.85846  1.0000
  H   H1610     1.0  0.23971  0.42596  0.61548  1.0000
  C   C1346     1.0  0.24788  0.38290  0.78536  1.0000
  H   H1611     1.0  0.36338  0.51781  0.77834  1.0000
  C   C1347     1.0  0.26336  0.39220  0.73698  1.0000
  H   H1612     1.0  0.37196  0.53193  0.79417  1.0000
  H   H1613     1.0  0.26014  0.46649  0.56870  1.0000
  H   H1614     1.0  0.31782  0.47154  0.87005  1.0000
  C   C1348     1.0  0.26045  0.53530  0.81021  1.0000
  C   C1349     1.0  0.23868  0.33938  0.74985  1.0000
  H   H1615     1.0  0.25274  0.47959  0.83739  1.0000
  S   S373      1.0  0.41225  0.64662  0.95430  1.0000
  H   H1616     1.0  0.47157  0.38263  0.65407  1.0000
  H   H1617     1.0  0.39731  0.60281  0.90538  1.0000
  H   H1618     1.0  0.25361  0.54307  0.81588  1.0000
  C   C1350     1.0  0.40923  0.56691  0.57736  1.0000
  C   C1351     1.0  0.40531  0.57894  0.55989  1.0000
  C   C1352     1.0  0.40070  0.57697  0.53545  1.0000
  C   C1353     1.0  0.39990  0.56287  0.52835  1.0000
  C   C1354     1.0  0.40391  0.55084  0.54571  1.0000
  C   C1355     1.0  0.40864  0.55287  0.57005  1.0000
  H   H1619     1.0  0.40573  0.58984  0.56540  1.0000
  H   H1620     1.0  0.39761  0.58629  0.52228  1.0000
  H   H1621     1.0  0.40327  0.53988  0.54041  1.0000
  H   H1622     1.0  0.41169  0.54353  0.58326  1.0000
  C   C1356     1.0  0.36693  0.50116  0.71799  1.0000
  C   C1357     1.0  0.37008  0.49464  0.69523  1.0000
  C   C1358     1.0  0.35817  0.48412  0.69008  1.0000
  C   C1359     1.0  0.34313  0.47989  0.70790  1.0000
  C   C1360     1.0  0.33996  0.48661  0.73036  1.0000
  C   C1361     1.0  0.35177  0.49735  0.73512  1.0000
  H   H1623     1.0  0.38171  0.49749  0.68187  1.0000
  H   H1624     1.0  0.36066  0.47899  0.67258  1.0000
  H   H1625     1.0  0.32836  0.48359  0.74396  1.0000
  H   H1626     1.0  0.34908  0.50270  0.75220  1.0000
  C   C1362     1.0  0.45838  0.57910  0.71638  1.0000
  C   C1363     1.0  0.33949  0.48850  0.84931  1.0000
  C   C1364     1.0  0.46182  0.58524  0.73853  1.0000
  C   C1365     1.0  0.36405  0.51402  0.84707  1.0000
  H   H1627     1.0  0.45446  0.58022  0.75983  1.0000
  H   H1628     1.0  0.35908  0.56105  0.95632  1.0000
  H   H1629     1.0  0.25308  0.40966  0.67288  1.0000
  H   H1630     1.0  0.36217  0.48966  0.78493  1.0000
  C   C1366     1.0  0.24552  0.41526  0.68436  1.0000
  C   C1367     1.0  0.46642  0.36652  0.72428  1.0000
  C   C1368     1.0  0.46451  0.36803  0.69693  1.0000
  H   H1631     1.0  0.23583  0.39794  0.74717  1.0000
  H   H1632     1.0  0.46775  0.48713  0.72106  1.0000
  H   H1633     1.0  0.45982  0.35637  0.74115  1.0000
  H   H1634     1.0  0.30056  0.38363  0.88014  1.0000
  C   C1369     1.0  0.32780  0.47540  0.85189  1.0000
  C   C1370     1.0  0.25146  0.42546  0.69932  1.0000
  C   C1371     1.0  0.24181  0.43281  0.71412  1.0000
  C   C1372     1.0  0.44858  0.61137  0.83098  1.0000
  H   H1635     1.0  0.47737  0.42183  0.70045  1.0000
  H   H1636     1.0  0.26353  0.42779  0.69912  1.0000
  H   H1637     1.0  0.26697  0.52354  0.87575  1.0000
  C   C1373     1.0  0.35246  0.49417  0.82523  1.0000
  H   H1638     1.0  0.47978  0.43872  0.71333  1.0000
  C   C1374     1.0  0.35896  0.34957  0.72449  1.0000
  N   N86       1.0  0.45785  0.43185  0.70378  1.0000
  C   C1375     1.0  0.45082  0.44080  0.72206  1.0000
  C   C1376     1.0  0.47114  0.42808  0.71393  1.0000
  C   C1377     1.0  0.46399  0.44193  0.67433  1.0000
  C   C1378     1.0  0.44609  0.41796  0.70431  1.0000
  C   C1379     1.0  0.44758  0.40256  0.71331  1.0000
  C   C1380     1.0  0.43269  0.41964  0.69516  1.0000
  C   C1381     1.0  0.43642  0.38977  0.71280  1.0000
  C   C1382     1.0  0.42159  0.40676  0.69479  1.0000
  C   C1383     1.0  0.42349  0.39185  0.70350  1.0000
  H   H1639     1.0  0.24729  0.45457  0.83492  1.0000
  H   H1640     1.0  0.44172  0.44548  0.71427  1.0000
  H   H1641     1.0  0.23795  0.44231  0.81698  1.0000
  H   H1642     1.0  0.46749  0.42081  0.73626  1.0000
  H   H1643     1.0  0.30240  0.38453  0.92755  1.0000
  C   C1384     1.0  0.47314  0.38133  0.67522  1.0000
  C   C1385     1.0  0.24204  0.45352  0.62937  1.0000
  H   H1644     1.0  0.39756  0.62097  0.91324  1.0000
  N   N87       1.0  0.23399  0.44813  0.60905  1.0000
  H   H1645     1.0  0.45731  0.40001  0.72063  1.0000
  H   H1646     1.0  0.43077  0.43098  0.68798  1.0000
  H   H1647     1.0  0.46105  0.61444  0.82272  1.0000
  H   H1648     1.0  0.41151  0.40834  0.68752  1.0000
  H   H1649     1.0  0.36463  0.35224  0.70145  1.0000
  H   H1650     1.0  0.47203  0.33140  0.62473  1.0000
  H   H1651     1.0  0.47852  0.37666  0.75105  1.0000
  H   H1652     1.0  0.29135  0.52098  0.81912  1.0000
  H   H1653     1.0  0.24828  0.48247  0.76862  1.0000
  H   H1654     1.0  0.44446  0.59706  0.80292  1.0000
  H   H1655     1.0  0.29639  0.55976  0.80512  1.0000
  H   H1656     1.0  0.46938  0.53215  0.70938  1.0000
  N   N88       1.0  0.24902  0.38113  0.75623  1.0000
  C   C1386     1.0  0.47446  0.49743  0.63956  1.0000
  C   C1387     1.0  0.35289  0.48591  0.80413  1.0000
  H   H1657     1.0  0.23607  0.38497  0.72499  1.0000
  H   H1658     1.0  0.45657  0.33027  0.81384  1.0000
  H   H1659     1.0  0.47748  0.60212  0.75074  1.0000
  H   H1660     1.0  0.47200  0.34754  0.83586  1.0000
  C   C1388     1.0  0.29285  0.35948  0.94728  1.0000
  H   H1661     1.0  0.47690  0.54791  0.63356  1.0000
  H   H1662     1.0  0.38956  0.51596  0.81129  1.0000
  H   H1663     1.0  0.44970  0.62475  0.86070  1.0000
  C   C1389     1.0  0.28594  0.34531  0.91314  1.0000
  N   N89       1.0  0.36436  0.53739  0.64707  1.0000
  C   C1390     1.0  0.36931  0.55363  0.64883  1.0000
  C   C1391     1.0  0.35331  0.52831  0.67461  1.0000
  C   C1392     1.0  0.37799  0.53091  0.64371  1.0000
  C   C1393     1.0  0.35788  0.53689  0.62238  1.0000
  C   C1394     1.0  0.36595  0.54686  0.59514  1.0000
  C   C1395     1.0  0.34396  0.52603  0.62416  1.0000
  C   C1396     1.0  0.36024  0.54638  0.57141  1.0000
  C   C1397     1.0  0.33836  0.52563  0.60024  1.0000
  C   C1398     1.0  0.34644  0.53583  0.57396  1.0000
  H   H1664     1.0  0.35977  0.55950  0.64869  1.0000
  H   H1665     1.0  0.37323  0.55415  0.66835  1.0000
  H   H1666     1.0  0.37940  0.56078  0.63111  1.0000
  H   H1667     1.0  0.34246  0.53218  0.67785  1.0000
  H   H1668     1.0  0.35824  0.52951  0.69288  1.0000
  H   H1669     1.0  0.35045  0.51563  0.67629  1.0000
  H   H1670     1.0  0.38737  0.53800  0.62470  1.0000
  H   H1671     1.0  0.38288  0.53050  0.66241  1.0000
  H   H1672     1.0  0.37499  0.51889  0.64136  1.0000
  H   H1673     1.0  0.37690  0.55497  0.59177  1.0000
  H   H1674     1.0  0.33726  0.51758  0.64368  1.0000
  H   H1675     1.0  0.36666  0.55412  0.55080  1.0000
  H   H1676     1.0  0.32775  0.51725  0.60203  1.0000
  H   H1677     1.0  0.34214  0.53546  0.55541  1.0000
  H   H1678     1.0  0.37377  0.52428  0.84384  1.0000
  H   H1679     1.0  0.35414  0.35952  0.72794  1.0000
  C   C1399     1.0  0.23824  0.48784  0.54021  1.0000
  N   N90       1.0  0.34678  0.33472  0.73421  1.0000
  H   H1680     1.0  0.45247  0.50316  0.69820  1.0000
  C   C1400     1.0  0.38021  0.50592  0.81183  1.0000
  H   H1681     1.0  0.26318  0.40444  0.73624  1.0000
  H   H1682     1.0  0.46875  0.43542  0.65963  1.0000
  H   H1683     1.0  0.28257  0.50582  0.78817  1.0000
  H   H1684     1.0  0.25453  0.45897  0.61947  1.0000
  H   H1685     1.0  0.30343  0.54451  0.82330  1.0000
  H   H1686     1.0  0.24744  0.39488  0.78649  1.0000
  H   H1687     1.0  0.33086  0.34763  0.72119  1.0000
  H   H1688     1.0  0.39703  0.61952  0.87837  1.0000
  H   H1689     1.0  0.25943  0.47627  0.79243  1.0000
  C   C1401     1.0  0.36277  0.52103  0.79872  1.0000
  H   H1690     1.0  0.40413  0.59967  0.86027  1.0000
  Fe  Fe185     1.0  0.43757  0.64920  0.95007  1.0000
  Fe  Fe186     1.0  0.30256  0.52230  0.96351  1.0000
  H   H1691     1.0  0.26987  0.56241  0.82713  1.0000
  H   H1692     1.0  0.35337  0.51792  0.85345  1.0000
  C   C1402     1.0  0.25565  0.52659  0.79225  1.0000
  H   H1693     1.0  0.46307  0.53193  0.67808  1.0000
  C   C1403     1.0  0.43927  0.60157  0.81991  1.0000
  C   C1404     1.0  0.46446  0.65193  0.88724  1.0000
  H   H1694     1.0  0.33781  0.49424  0.86608  1.0000
  C   C1405     1.0  0.24128  0.43663  0.59828  1.0000
  C   C1406     1.0  0.26172  0.35909  0.76353  1.0000
  H   H1695     1.0  0.27422  0.56022  0.86069  1.0000
  S   S374      1.0  0.43416  0.32874  0.77092  1.0000
  H   H1696     1.0  0.25391  0.44115  0.58900  1.0000
  C   C1407     1.0  0.26369  0.51613  0.78410  1.0000
  C   C1408     1.0  0.27854  0.53180  0.86647  1.0000
  C   C1409     1.0  0.24974  0.46991  0.56649  1.0000
  H   H1697     1.0  0.38277  0.50457  0.78985  1.0000
  C   C1410     1.0  0.29096  0.35901  0.89145  1.0000
  C   C1411     1.0  0.46797  0.58566  0.68891  1.0000
  C   C1412     1.0  0.47710  0.37805  0.72982  1.0000
  C   C1413     1.0  0.27362  0.53379  0.82038  1.0000
  H   H1698     1.0  0.24766  0.49844  0.86366  1.0000
  H   H1699     1.0  0.45955  0.45105  0.72280  1.0000
  C   C1414     1.0  0.25117  0.48272  0.54409  1.0000
  H   H1700     1.0  0.38087  0.56998  0.97637  1.0000
  H   H1701     1.0  0.25222  0.46378  0.77272  1.0000
  H   H1702     1.0  0.41966  0.61883  0.93071  1.0000
  N   N91       1.0  0.41915  0.62000  0.88738  1.0000
  C   C1415     1.0  0.40202  0.61558  0.89628  1.0000
  C   C1416     1.0  0.42462  0.61443  0.91269  1.0000
  C   C1417     1.0  0.42424  0.63721  0.87809  1.0000
  C   C1418     1.0  0.42576  0.61350  0.86431  1.0000
  C   C1419     1.0  0.41655  0.60333  0.85273  1.0000
  C   C1420     1.0  0.44197  0.61724  0.85282  1.0000
  C   C1421     1.0  0.23890  0.54968  0.91486  1.0000
  H   H1703     1.0  0.34914  0.33080  0.77675  1.0000
  C   C1422     1.0  0.47485  0.59766  0.73344  1.0000
  H   H1704     1.0  0.31921  0.45781  0.83237  1.0000
  H   H1705     1.0  0.28715  0.52488  0.86381  1.0000
  C   C1423     1.0  0.28140  0.52289  0.81188  1.0000
  H   H1706     1.0  0.26230  0.48854  0.52926  1.0000
  H   H1707     1.0  0.29950  0.55925  0.83969  1.0000
  H   H1708     1.0  0.43735  0.61829  0.90854  1.0000
  H   H1709     1.0  0.27384  0.39060  0.74390  1.0000
  C   C1424     1.0  0.24951  0.36501  0.75601  1.0000
  H   H1710     1.0  0.43693  0.64166  0.87363  1.0000
  C   C1425     1.0  0.24931  0.47237  0.78438  1.0000
  C   C1426     1.0  0.29679  0.37298  0.89718  1.0000
  H   H1711     1.0  0.47645  0.50040  0.61672  1.0000
  C   C1427     1.0  0.48082  0.34151  0.61090  1.0000
  H   H1712     1.0  0.47338  0.45217  0.67283  1.0000
  H   H1713     1.0  0.44555  0.43345  0.74418  1.0000
  H   H1714     1.0  0.27088  0.36624  0.76908  1.0000
  H   H1715     1.0  0.25995  0.50945  0.77014  1.0000
  C   C1428     1.0  0.24225  0.48329  0.83743  1.0000
  N   N92       1.0  0.29364  0.35929  0.97666  1.0000
  H   H1716     1.0  0.41498  0.38185  0.70297  1.0000
  C   C1429     1.0  0.46635  0.32727  0.82048  1.0000
  H   H1717     1.0  0.36461  0.50478  0.86512  1.0000
  H   H1718     1.0  0.24558  0.52792  0.78474  1.0000
  H   H1719     1.0  0.35144  0.52373  0.80516  1.0000
  C   C1430     1.0  0.47508  0.33700  0.83310  1.0000
  H   H1720     1.0  0.47628  0.61852  0.89436  1.0000
  H   H1721     1.0  0.25757  0.54734  0.85804  1.0000
  C   C1431     1.0  0.23577  0.38572  0.74706  1.0000
  H   H1722     1.0  0.45507  0.44671  0.66604  1.0000
  C   C1432     1.0  0.33454  0.33686  0.71944  1.0000
  C   C1433     1.0  0.47999  0.65082  0.84215  1.0000
  N   N93       1.0  0.27909  0.54271  0.83948  1.0000
  N   N94       1.0  0.36464  0.50849  0.82104  1.0000
  C   C1434     1.0  0.42329  0.59754  0.83078  1.0000
  H   H1723     1.0  0.29034  0.35879  0.87012  1.0000
  C   C1435     1.0  0.46348  0.50299  0.65588  1.0000
  C   C1436     1.0  0.34017  0.33188  0.76504  1.0000
  H   H1724     1.0  0.37745  0.33244  0.71622  1.0000
  H   H1725     1.0  0.25799  0.38075  0.79313  1.0000
  H   H1726     1.0  0.33855  0.33753  0.69653  1.0000
  H   H1727     1.0  0.46272  0.54820  0.69239  1.0000
  C   C1437     1.0  0.27646  0.51417  0.79409  1.0000
  C   C1438     1.0  0.46966  0.48999  0.69826  1.0000
  H   H1728     1.0  0.28130  0.33447  0.90857  1.0000
  H   H1729     1.0  0.33527  0.34151  0.77004  1.0000
  H   H1730     1.0  0.47486  0.64288  0.64360  1.0000
  C   C1439     1.0  0.28692  0.34547  0.94062  1.0000
  C   C1440     1.0  0.48073  0.48456  0.68187  1.0000
  H   H1731     1.0  0.23742  0.37461  0.80070  1.0000
  C   C1441     1.0  0.37945  0.59377  0.96846  1.0000
  C   C1442     1.0  0.48113  0.59793  0.68388  1.0000
  H   H1732     1.0  0.47888  0.56561  0.64447  1.0000
  H   H1733     1.0  0.31227  0.37987  0.96695  1.0000
  H   H1734     1.0  0.23612  0.43293  0.58179  1.0000
  H   H1735     1.0  0.36922  0.64096  0.48775  1.0000
  H   H1736     1.0  0.43546  0.64760  0.49375  1.0000
  H   H1737     1.0  0.47683  0.55380  0.72420  1.0000
  H   H1738     1.0  0.23614  0.43765  0.52931  1.0000
  C   C1443     1.0  0.23676  0.45186  0.82725  1.0000
  H   H1739     1.0  0.48038  0.32781  0.74961  1.0000
  C   C1444     1.0  0.25079  0.33395  0.75758  1.0000
  Fe  Fe187     1.0  0.29527  0.32340  0.79703  1.0000
  C   C1445     1.0  0.38577  0.65332  0.50520  1.0000
  S   S375      1.0  0.24442  0.46621  0.48604  1.0000
  H   H1740     1.0  0.23822  0.55372  0.97691  1.0000
  H   H1741     1.0  0.31510  0.35257  0.97051  1.0000
  N   N95       1.0  0.23487  0.46558  0.80742  1.0000
  C   C1446     1.0  0.23946  0.49412  0.85256  1.0000
  C   C1447     1.0  0.23798  0.35468  0.74896  1.0000
  C   C1448     1.0  0.37413  0.65204  0.49119  1.0000
  H   H1742     1.0  0.32381  0.32734  0.72874  1.0000
  Fe  Fe188     1.0  0.43678  0.96297  0.24887  1.0000
  S   S376      1.0  0.43210  0.95756  0.20899  1.0000
  N   N96       1.0  0.27895  0.77609  0.38187  1.0000
  Fe  Fe189     1.0  0.42959  0.92844  0.27914  1.0000
  S   S377      1.0  0.42475  0.92011  0.24182  1.0000
  S   S378      1.0  0.43039  0.91351  0.32107  1.0000
  Fe  Fe190     1.0  0.44541  0.93956  0.21640  1.0000
  S   S379      1.0  0.46223  0.93758  0.17823  1.0000
  Fe  Fe191     1.0  0.41163  0.93844  0.23663  1.0000
  S   S380      1.0  0.38861  0.93541  0.22484  1.0000
  S   S381      1.0  0.45168  0.94631  0.25399  1.0000
  S   S382      1.0  0.41489  0.94541  0.27619  1.0000
  H   H1743     1.0  0.44909  0.94233  0.37990  1.0000
  S   S383      1.0  0.25941  0.74114  0.99143  1.0000
  H   H1744     1.0  0.24858  0.81715  0.14662  1.0000
  S   S384      1.0  0.36675  0.81684  0.43790  1.0000
  H   H1745     1.0  0.44471  0.66822  0.08320  1.0000
  H   H1746     1.0  0.46078  0.66028  0.02305  1.0000
  H   H1747     1.0  0.30864  0.70891  0.02007  1.0000
  Fe  Fe192     1.0  0.37206  0.84204  0.43745  1.0000
  S   S385      1.0  0.37240  0.85914  0.39678  1.0000
  S   S386      1.0  0.33051  0.76012  0.99021  1.0000
  Fe  Fe193     1.0  0.38429  0.81518  0.46334  1.0000
  Fe  Fe194     1.0  0.25682  0.73400  0.46114  1.0000
  S   S387      1.0  0.44534  0.72450  0.45316  1.0000
  C   C1449     1.0  0.25631  0.77076  0.32727  1.0000
  H   H1748     1.0  0.25687  0.81822  0.11030  1.0000
  C   C1450     1.0  0.46610  0.71242  0.38190  1.0000
  C   C1451     1.0  0.26119  0.78537  0.30804  1.0000
  S   S388      1.0  0.24663  0.72865  0.42564  1.0000
  Fe  Fe195     1.0  0.44289  0.79029  0.03067  1.0000
  S   S389      1.0  0.45046  0.79760  0.06762  1.0000
  H   H1749     1.0  0.43562  0.96577  0.30880  1.0000
  S   S390      1.0  0.42003  0.77271  0.04102  1.0000
  Fe  Fe196     1.0  0.33833  0.87806  0.15574  1.0000
  S   S391      1.0  0.33822  0.88307  0.10970  1.0000
  S   S392      1.0  0.36030  0.88232  0.17103  1.0000
  Fe  Fe197     1.0  0.30420  0.86009  0.17503  1.0000
  S   S393      1.0  0.30136  0.86399  0.13072  1.0000
  S   S394      1.0  0.28660  0.84434  0.21480  1.0000
  Fe  Fe198     1.0  0.32417  0.85844  0.11928  1.0000
  S   S395      1.0  0.33000  0.84318  0.09022  1.0000
  Fe  Fe199     1.0  0.31542  0.88836  0.12436  1.0000
  S   S396      1.0  0.30904  0.90771  0.09623  1.0000
  S   S397      1.0  0.32620  0.85286  0.16408  1.0000
  S   S398      1.0  0.31632  0.88503  0.16992  1.0000
  C   C1452     1.0  0.31659  0.83259  0.07589  1.0000
  C   C1453     1.0  0.30128  0.83361  0.08053  1.0000
  C   C1454     1.0  0.29103  0.82515  0.06848  1.0000
  C   C1455     1.0  0.29587  0.81535  0.05222  1.0000
  C   C1456     1.0  0.31116  0.81429  0.04767  1.0000
  C   C1457     1.0  0.32148  0.82296  0.05930  1.0000
  H   H1750     1.0  0.29731  0.84072  0.09371  1.0000
  H   H1751     1.0  0.45023  0.71749  0.10797  1.0000
  H   H1752     1.0  0.33329  0.82206  0.05568  1.0000
  C   C1458     1.0  0.31344  0.92655  0.10102  1.0000
  C   C1459     1.0  0.31116  0.93892  0.08158  1.0000
  C   C1460     1.0  0.31441  0.95404  0.08502  1.0000
  C   C1461     1.0  0.31976  0.95680  0.10817  1.0000
  C   C1462     1.0  0.32202  0.94444  0.12764  1.0000
  C   C1463     1.0  0.31896  0.92936  0.12400  1.0000
  H   H1753     1.0  0.30693  0.93682  0.06373  1.0000
  H   H1754     1.0  0.32616  0.94651  0.14559  1.0000
  H   H1755     1.0  0.32076  0.91991  0.13906  1.0000
  H   H1756     1.0  0.27161  0.95339  0.12567  1.0000
  H   H1757     1.0  0.28651  0.79947  0.38516  1.0000
  H   H1758     1.0  0.44170  0.93217  0.35667  1.0000
  Fe  Fe200     1.0  0.34936  0.81260  0.47945  1.0000
  H   H1759     1.0  0.47079  0.70137  0.43277  1.0000
  N   N97       1.0  0.42026  0.84071  0.37253  1.0000
  C   C1464     1.0  0.46211  0.81586  0.06625  1.0000
  H   H1760     1.0  0.26397  0.98384  0.18962  1.0000
  C   C1465     1.0  0.47343  0.83328  0.09182  1.0000
  C   C1466     1.0  0.46348  0.81935  0.09182  1.0000
  C   C1467     1.0  0.41067  0.69258  0.00367  1.0000
  C   C1468     1.0  0.24414  0.81557  0.22761  1.0000
  H   H1761     1.0  0.45688  0.81116  0.11177  1.0000
  H   H1762     1.0  0.24157  0.98782  0.08743  1.0000
  C   C1469     1.0  0.45036  0.97179  0.34862  1.0000
  H   H1763     1.0  0.29527  0.78598  0.40292  1.0000
  H   H1764     1.0  0.33141  0.77391  0.46628  1.0000
  C   C1470     1.0  0.24879  0.83574  0.18437  1.0000
  S   S399      1.0  0.44214  0.98800  0.25340  1.0000
  H   H1765     1.0  0.37180  0.68928  0.47565  1.0000
  S   S400      1.0  0.45556  0.77636  0.00716  1.0000
  C   C1471     1.0  0.30049  0.70484  0.00786  1.0000
  C   C1472     1.0  0.27303  0.77955  0.35641  1.0000
  C   C1473     1.0  0.42343  0.66275  0.07253  1.0000
  H   H1766     1.0  0.35997  0.90875  0.26470  1.0000
  C   C1474     1.0  0.48052  0.84054  0.04058  1.0000
  C   C1475     1.0  0.47652  0.66328  0.07868  1.0000
  S   S401      1.0  0.40062  0.67528  0.99800  1.0000
  C   C1476     1.0  0.38836  0.87478  0.37702  1.0000
  C   C1477     1.0  0.38756  0.88399  0.35127  1.0000
  C   C1478     1.0  0.40027  0.89608  0.33414  1.0000
  C   C1479     1.0  0.41394  0.89896  0.34264  1.0000
  C   C1480     1.0  0.41469  0.88989  0.36860  1.0000
  C   C1481     1.0  0.40191  0.87788  0.38583  1.0000
  H   H1767     1.0  0.37705  0.88171  0.34457  1.0000
  H   H1768     1.0  0.39957  0.90304  0.31424  1.0000
  H   H1769     1.0  0.42522  0.89210  0.37531  1.0000
  H   H1770     1.0  0.40253  0.87101  0.40586  1.0000
  H   H1771     1.0  0.31918  0.86848  0.06506  1.0000
  C   C1482     1.0  0.46446  0.97404  0.35678  1.0000
  H   H1772     1.0  0.32111  0.88850  0.06358  1.0000
  C   C1483     1.0  0.31004  0.76088  0.46121  1.0000
  S   S402      1.0  0.28902  0.76584  0.01791  1.0000
  C   C1484     1.0  0.38122  0.92087  0.20895  1.0000
  C   C1485     1.0  0.36811  0.92161  0.19868  1.0000
  C   C1486     1.0  0.36159  0.91000  0.18681  1.0000
  C   C1487     1.0  0.36805  0.89744  0.18533  1.0000
  C   C1488     1.0  0.38108  0.89665  0.19578  1.0000
  C   C1489     1.0  0.38768  0.90831  0.20741  1.0000
  H   H1773     1.0  0.36298  0.93122  0.19991  1.0000
  H   H1774     1.0  0.35159  0.91079  0.17880  1.0000
  H   H1775     1.0  0.38600  0.88687  0.19510  1.0000
  H   H1776     1.0  0.39758  0.90746  0.21563  1.0000
  H   H1777     1.0  0.36266  0.86590  0.31632  1.0000
  H   H1778     1.0  0.48171  0.79641  0.08461  1.0000
  H   H1779     1.0  0.24868  0.96007  0.12966  1.0000
  C   C1490     1.0  0.26826  0.83603  0.21080  1.0000
  H   H1780     1.0  0.26234  0.81747  0.24911  1.0000
  N   N98       1.0  0.25462  0.79629  0.13939  1.0000
  C   C1491     1.0  0.43313  0.70783  0.01280  1.0000
  C   C1492     1.0  0.41396  0.66647  0.44260  1.0000
  C   C1493     1.0  0.44492  0.98517  0.34056  1.0000
  C   C1494     1.0  0.27062  0.80078  0.14201  1.0000
  C   C1495     1.0  0.27411  0.80991  0.16068  1.0000
  C   C1496     1.0  0.28310  0.79637  0.12643  1.0000
  C   C1497     1.0  0.28917  0.81484  0.16282  1.0000
  C   C1498     1.0  0.29810  0.80118  0.12906  1.0000
  C   C1499     1.0  0.30117  0.81057  0.14689  1.0000
  C   C1500     1.0  0.44158  0.95712  0.31758  1.0000
  H   H1781     1.0  0.43852  0.82904  0.36447  1.0000
  Fe  Fe201     1.0  0.31175  0.77262  0.98524  1.0000
  H   H1782     1.0  0.25653  0.78759  0.28974  1.0000
  N   N99       1.0  0.27546  0.97209  0.14573  1.0000
  H   H1783     1.0  0.28477  0.87333  0.00965  1.0000
  C   C1501     1.0  0.28793  0.77124  0.47178  1.0000
  H   H1784     1.0  0.27688  0.75158  0.38551  1.0000
  H   H1785     1.0  0.25630  0.77613  0.12398  1.0000
  H   H1786     1.0  0.26520  0.81345  0.17357  1.0000
  H   H1787     1.0  0.28174  0.78965  0.11134  1.0000
  H   H1788     1.0  0.29157  0.82218  0.17668  1.0000
  H   H1789     1.0  0.30755  0.79816  0.11625  1.0000
  H   H1790     1.0  0.31293  0.81478  0.14788  1.0000
  H   H1791     1.0  0.29298  0.96199  0.15927  1.0000
  C   C1502     1.0  0.40334  0.70458  0.00593  1.0000
  H   H1792     1.0  0.40970  0.70369  0.45737  1.0000
  H   H1793     1.0  0.27557  0.80851  0.29749  1.0000
  C   C1503     1.0  0.48204  0.84391  0.06617  1.0000
  C   C1504     1.0  0.28088  0.96253  0.16766  1.0000
  H   H1794     1.0  0.31512  0.75201  0.45486  1.0000
  Fe  Fe202     1.0  0.27797  0.76397  0.98192  1.0000
  H   H1795     1.0  0.37045  0.89463  0.30086  1.0000
  S   S403      1.0  0.43849  0.66058  0.98554  1.0000
  C   C1505     1.0  0.29420  0.75955  0.46367  1.0000
  C   C1506     1.0  0.25922  0.97204  0.15746  1.0000
  H   H1796     1.0  0.27047  0.85307  0.17211  1.0000
  H   H1797     1.0  0.39904  0.82587  0.40159  1.0000
  C   C1507     1.0  0.40315  0.83569  0.38205  1.0000
  C   C1508     1.0  0.42626  0.85345  0.34602  1.0000
  C   C1509     1.0  0.41651  0.86079  0.33212  1.0000
  C   C1510     1.0  0.44240  0.85915  0.33365  1.0000
  C   C1511     1.0  0.42265  0.87305  0.30749  1.0000
  C   C1512     1.0  0.44840  0.87142  0.30902  1.0000
  C   C1513     1.0  0.43854  0.87842  0.29608  1.0000
  H   H1798     1.0  0.39814  0.84515  0.38748  1.0000
  H   H1799     1.0  0.42237  0.85652  0.39865  1.0000
  H   H1800     1.0  0.40412  0.85757  0.34021  1.0000
  H   H1801     1.0  0.41505  0.87877  0.29768  1.0000
  H   H1802     1.0  0.46077  0.87569  0.30009  1.0000
  H   H1803     1.0  0.44321  0.88820  0.27742  1.0000
  N   N100      1.0  0.44519  0.69659  0.09408  1.0000
  C   C1514     1.0  0.45927  0.70218  0.07014  1.0000
  C   C1515     1.0  0.44096  0.71044  0.10128  1.0000
  C   C1516     1.0  0.44896  0.68760  0.11909  1.0000
  C   C1517     1.0  0.43288  0.68658  0.08605  1.0000
  H   H1804     1.0  0.47783  0.69976  0.33427  1.0000
  C   C1518     1.0  0.41920  0.69087  0.08219  1.0000
  H   H1805     1.0  0.43550  0.94575  0.31556  1.0000
  H   H1806     1.0  0.30545  0.69687  0.99682  1.0000
  C   C1519     1.0  0.47067  0.82652  0.04058  1.0000
  C   C1520     1.0  0.34860  0.76987  0.99327  1.0000
  C   C1521     1.0  0.31412  0.84849  0.99992  1.0000
  H   H1807     1.0  0.29146  0.76041  0.39963  1.0000
  H   H1808     1.0  0.43917  0.71841  0.08262  1.0000
  C   C1522     1.0  0.24010  0.97918  0.19125  1.0000
  H   H1809     1.0  0.46081  0.84317  0.98950  1.0000
  H   H1810     1.0  0.47047  0.89011  0.23373  1.0000
  H   H1811     1.0  0.26999  0.76952  0.42737  1.0000
  C   C1523     1.0  0.40793  0.78760  0.46454  1.0000
  H   H1812     1.0  0.26044  0.78201  0.40818  1.0000
  H   H1813     1.0  0.41706  0.70184  0.08437  1.0000
  C   C1524     1.0  0.24915  0.81038  0.13063  1.0000
  C   C1525     1.0  0.37822  0.78529  0.99527  1.0000
  H   H1814     1.0  0.42531  0.95271  0.38717  1.0000
  C   C1526     1.0  0.46931  0.68637  0.39384  1.0000
  H   H1815     1.0  0.43463  0.98451  0.33302  1.0000
  Fe  Fe203     1.0  0.41741  0.78621  0.99968  1.0000
  C   C1527     1.0  0.27779  0.96586  0.12045  1.0000
  H   H1816     1.0  0.28601  0.80398  0.33857  1.0000
  H   H1817     1.0  0.41912  0.94077  0.36510  1.0000
  H   H1818     1.0  0.23724  0.80744  0.12791  1.0000
  C   C1528     1.0  0.48041  0.91944  0.16002  1.0000
  H   H1819     1.0  0.28259  0.87729  0.05341  1.0000
  H   H1820     1.0  0.30126  0.79246  0.36504  1.0000
  H   H1821     1.0  0.39791  0.68495  0.07022  1.0000
  H   H1822     1.0  0.43844  0.68208  0.13691  1.0000
  H   H1823     1.0  0.46993  0.82379  0.02082  1.0000
  H   H1824     1.0  0.40490  0.72702  0.01469  1.0000
  Fe  Fe204     1.0  0.43260  0.75974  0.01445  1.0000
  C   C1529     1.0  0.27781  0.79435  0.33632  1.0000
  H   H1825     1.0  0.39171  0.70328  0.00361  1.0000
  H   H1826     1.0  0.45349  0.96030  0.30361  1.0000
  H   H1827     1.0  0.39232  0.71015  0.46130  1.0000
  S   S404      1.0  0.39099  0.84090  0.45946  1.0000
  H   H1828     1.0  0.24781  0.76166  0.32394  1.0000
  C   C1530     1.0  0.23924  0.82211  0.20413  1.0000
  C   C1531     1.0  0.31300  0.78478  0.47657  1.0000
  H   H1829     1.0  0.28134  0.85397  0.98284  1.0000
  Fe  Fe205     1.0  0.28971  0.79123  0.00634  1.0000
  C   C1532     1.0  0.36019  0.76191  0.99470  1.0000
  H   H1830     1.0  0.46040  0.94513  0.34392  1.0000
  H   H1831     1.0  0.42973  0.79184  0.43400  1.0000
  H   H1832     1.0  0.41908  0.96070  0.35667  1.0000
  S   S405      1.0  0.43462  0.73494  0.02821  1.0000
  H   H1833     1.0  0.29448  0.76437  0.36188  1.0000
  C   C1533     1.0  0.29103  0.78915  0.38360  1.0000
  C   C1534     1.0  0.47061  0.92184  0.18334  1.0000
  C   C1535     1.0  0.48111  0.70548  0.41422  1.0000
  H   H1834     1.0  0.46148  0.71026  0.36385  1.0000
  H   H1835     1.0  0.45444  0.67830  0.11421  1.0000
  H   H1836     1.0  0.35781  0.74980  0.99479  1.0000
  H   H1837     1.0  0.45749  0.69504  0.12676  1.0000
  C   C1536     1.0  0.42563  0.71954  0.01617  1.0000
  H   H1838     1.0  0.42911  0.85849  0.09949  1.0000
  H   H1839     1.0  0.28949  0.69817  0.02385  1.0000
  C   C1537     1.0  0.42462  0.76973  0.46475  1.0000
  H   H1840     1.0  0.43028  0.70707  0.11893  1.0000
  H   H1841     1.0  0.28074  0.96726  0.18641  1.0000
  H   H1842     1.0  0.42090  0.81688  0.38781  1.0000
  N   N101      1.0  0.44179  0.95648  0.34732  1.0000
  H   H1843     1.0  0.47751  0.67903  0.39685  1.0000
  C   C1538     1.0  0.29184  0.72809  0.00388  1.0000
  C   C1539     1.0  0.30925  0.89575  0.01995  1.0000
  C   C1540     1.0  0.40157  0.70798  0.47168  1.0000
  H   H1844     1.0  0.40175  0.66020  0.06147  1.0000
  H   H1845     1.0  0.31969  0.89905  0.00177  1.0000
  C   C1541     1.0  0.47321  0.89827  0.21311  1.0000
  C   C1542     1.0  0.40800  0.68123  0.07403  1.0000
  H   H1846     1.0  0.27351  0.95041  0.17521  1.0000
  S   S406      1.0  0.28284  0.74295  0.45693  1.0000
  H   H1847     1.0  0.33154  0.88339  0.03429  1.0000
  C   C1543     1.0  0.46319  0.65684  0.04341  1.0000
  C   C1544     1.0  0.47343  0.66741  0.05208  1.0000
  C   C1545     1.0  0.29317  0.86659  0.00741  1.0000
  H   H1848     1.0  0.40780  0.67178  0.42860  1.0000
  H   H1849     1.0  0.31069  0.90448  0.03247  1.0000
  H   H1850     1.0  0.29036  0.86368  0.07397  1.0000
  C   C1546     1.0  0.25302  0.78727  0.11819  1.0000
  H   H1851     1.0  0.46416  0.68370  0.37664  1.0000
  H   H1852     1.0  0.38381  0.76337  0.99674  1.0000
  H   H1853     1.0  0.25688  0.76203  0.40891  1.0000
  H   H1854     1.0  0.43513  0.76697  0.45533  1.0000
  C   C1547     1.0  0.26606  0.77228  0.40768  1.0000
  H   H1855     1.0  0.45604  0.70987  0.40056  1.0000
  C   C1548     1.0  0.47249  0.98880  0.35680  1.0000
  H   H1856     1.0  0.26028  0.79403  0.09657  1.0000
  C   C1549     1.0  0.32032  0.88000  0.05061  1.0000
  H   H1857     1.0  0.47438  0.83580  0.11166  1.0000
  C   C1550     1.0  0.25529  0.97872  0.18030  1.0000
  H   H1858     1.0  0.24093  0.78423  0.11645  1.0000
  H   H1859     1.0  0.24374  0.79319  0.18372  1.0000
  C   C1551     1.0  0.42154  0.78382  0.45269  1.0000
  C   C1552     1.0  0.42572  0.69445  0.00655  1.0000
  H   H1860     1.0  0.43152  0.68538  0.00497  1.0000
  H   H1861     1.0  0.29924  0.89699  0.01116  1.0000
  C   C1553     1.0  0.36657  0.79319  0.99407  1.0000
  C   C1554     1.0  0.26200  0.76789  0.35122  1.0000
  H   H1862     1.0  0.32596  0.85983  0.02478  1.0000
  H   H1863     1.0  0.45960  0.68240  0.41352  1.0000
  C   C1555     1.0  0.42565  0.95254  0.36485  1.0000
  C   C1556     1.0  0.30564  0.86862  0.02022  1.0000
  C   C1557     1.0  0.42463  0.67596  0.45253  1.0000
  N   N102      1.0  0.43616  0.89603  0.15059  1.0000
  C   C1558     1.0  0.43927  0.89196  0.17885  1.0000
  C   C1559     1.0  0.44458  0.91240  0.13589  1.0000
  C   C1560     1.0  0.41940  0.89509  0.15533  1.0000
  C   C1561     1.0  0.44149  0.88567  0.13369  1.0000
  C   C1562     1.0  0.43144  0.87568  0.12316  1.0000
  C   C1563     1.0  0.45726  0.88533  0.12734  1.0000
  C   C1564     1.0  0.43694  0.86606  0.10731  1.0000
  C   C1565     1.0  0.46262  0.87568  0.11146  1.0000
  C   C1566     1.0  0.45249  0.86607  0.10145  1.0000
  H   H1864     1.0  0.45173  0.89315  0.17734  1.0000
  H   H1865     1.0  0.43563  0.89966  0.19208  1.0000
  H   H1866     1.0  0.43317  0.87972  0.19063  1.0000
  H   H1867     1.0  0.45719  0.91446  0.13324  1.0000
  H   H1868     1.0  0.44088  0.92057  0.14799  1.0000
  H   H1869     1.0  0.44270  0.91589  0.11438  1.0000
  H   H1870     1.0  0.41224  0.88321  0.16730  1.0000
  H   H1871     1.0  0.41586  0.90309  0.16798  1.0000
  H   H1872     1.0  0.41623  0.89850  0.13497  1.0000
  H   H1873     1.0  0.41927  0.87506  0.12686  1.0000
  H   H1874     1.0  0.46561  0.89251  0.13467  1.0000
  H   H1875     1.0  0.44464  0.70892  0.01552  1.0000
  H   H1876     1.0  0.24504  0.84094  0.16628  1.0000
  C   C1567     1.0  0.43458  0.67219  0.08106  1.0000
  N   N103      1.0  0.33068  0.86247  0.25489  1.0000
  C   C1568     1.0  0.32471  0.87228  0.23417  1.0000
  C   C1569     1.0  0.33877  0.85282  0.23986  1.0000
  C   C1570     1.0  0.31711  0.85214  0.27743  1.0000
  C   C1571     1.0  0.34137  0.87152  0.26754  1.0000
  C   C1572     1.0  0.34604  0.88803  0.25942  1.0000
  C   C1573     1.0  0.34770  0.86378  0.28837  1.0000
  C   C1574     1.0  0.35637  0.89615  0.27149  1.0000
  C   C1575     1.0  0.35799  0.87204  0.30037  1.0000
  C   C1576     1.0  0.36235  0.88820  0.29184  1.0000
  H   H1877     1.0  0.33420  0.87980  0.21571  1.0000
  H   H1878     1.0  0.31656  0.86511  0.22534  1.0000
  H   H1879     1.0  0.31828  0.87974  0.24405  1.0000
  H   H1880     1.0  0.34955  0.86013  0.22390  1.0000
  H   H1881     1.0  0.33152  0.84666  0.22827  1.0000
  H   H1882     1.0  0.34211  0.84385  0.25446  1.0000
  H   H1883     1.0  0.31116  0.85897  0.28999  1.0000
  H   H1884     1.0  0.30852  0.84574  0.26833  1.0000
  H   H1885     1.0  0.32029  0.84322  0.29239  1.0000
  H   H1886     1.0  0.34210  0.89499  0.24347  1.0000
  H   H1887     1.0  0.34485  0.85127  0.29538  1.0000
  N   N104      1.0  0.30711  0.87982  0.03766  1.0000
  H   H1888     1.0  0.45054  0.85428  0.34316  1.0000
  H   H1889     1.0  0.42685  0.68843  0.44575  1.0000
  H   H1890     1.0  0.39807  0.83162  0.36574  1.0000
  C   C1577     1.0  0.30151  0.84648  0.98837  1.0000
  H   H1891     1.0  0.24823  0.77619  0.17510  1.0000
  C   C1578     1.0  0.46709  0.91129  0.20995  1.0000
  C   C1579     1.0  0.42587  0.84585  0.39565  1.0000
  C   C1580     1.0  0.25858  0.82259  0.23101  1.0000
  H   H1892     1.0  0.45960  0.91312  0.22804  1.0000
  H   H1893     1.0  0.29392  0.88348  0.07572  1.0000
  C   C1581     1.0  0.27191  0.79714  0.31253  1.0000
  H   H1894     1.0  0.46336  0.69246  0.06381  1.0000
  H   H1895     1.0  0.45716  0.70946  0.05117  1.0000
  S   S407      1.0  0.43953  0.80477  0.99109  1.0000
  H   H1896     1.0  0.25747  0.75648  0.36592  1.0000
  H   H1897     1.0  0.40788  0.71955  0.47273  1.0000
  H   H1898     1.0  0.27928  0.82613  0.07185  1.0000
  C   C1582     1.0  0.28571  0.76257  0.38213  1.0000
  S   S408      1.0  0.40464  0.80543  0.44820  1.0000
  C   C1583     1.0  0.44861  0.94354  0.35749  1.0000
  H   H1899     1.0  0.29938  0.73200  0.01721  1.0000
  C   C1584     1.0  0.31622  0.85933  0.01568  1.0000
  C   C1585     1.0  0.41083  0.71808  0.01202  1.0000
  H   H1900     1.0  0.42110  0.83680  0.41628  1.0000
  H   H1901     1.0  0.43862  0.84844  0.39145  1.0000
  C   C1586     1.0  0.26326  0.84260  0.18754  1.0000
  H   H1902     1.0  0.24023  0.71067  0.99993  1.0000
  H   H1903     1.0  0.28007  0.72206  0.01785  1.0000
  Fe  Fe206     1.0  0.46975  0.73839  0.44566  1.0000
  C   C1587     1.0  0.31937  0.77337  0.46757  1.0000
  H   H1904     1.0  0.31271  0.96351  0.06981  1.0000
  S   S409      1.0  0.32329  0.97544  0.11392  1.0000
  H   H1905     1.0  0.46904  0.70922  0.07568  1.0000
  S   S410      1.0  0.47682  0.71985  0.47385  1.0000
  H   H1906     1.0  0.35717  0.98030  0.13626  1.0000
  S   S411      1.0  0.28234  0.80433  0.03872  1.0000
  C   C1588     1.0  0.29288  0.87588  0.06111  1.0000
  C   C1589     1.0  0.42580  0.82689  0.36854  1.0000
  H   H1907     1.0  0.31502  0.80673  0.03533  1.0000
  H   H1908     1.0  0.29018  0.96653  0.11165  1.0000
  H   H1909     1.0  0.42241  0.82310  0.35047  1.0000
  C   C1590     1.0  0.36557  0.98745  0.11595  1.0000
  H   H1910     1.0  0.36023  0.66401  0.46967  1.0000
  H   H1911     1.0  0.32204  0.84118  0.99749  1.0000
  C   C1591     1.0  0.43232  0.66925  0.47137  1.0000
  H   H1912     1.0  0.47349  0.77052  0.07917  1.0000
  N   N105      1.0  0.47714  0.70308  0.38788  1.0000
  H   H1913     1.0  0.37608  0.98639  0.15942  1.0000
  H   H1914     1.0  0.45673  0.85862  0.08911  1.0000
  C   C1592     1.0  0.24429  0.78669  0.16721  1.0000
  C   C1593     1.0  0.41016  0.66728  0.06899  1.0000
  H   H1915     1.0  0.47176  0.72508  0.37642  1.0000
  C   C1594     1.0  0.29113  0.85560  0.99190  1.0000
  C   C1595     1.0  0.37493  0.76956  0.99584  1.0000
  H   H1916     1.0  0.47063  0.98102  0.26524  1.0000
  C   C1596     1.0  0.35180  0.78550  0.99329  1.0000
  H   H1917     1.0  0.46971  0.96468  0.36273  1.0000
  H   H1918     1.0  0.47884  0.67892  0.03818  1.0000
  S   S412      1.0  0.39687  0.79587  0.99412  1.0000
  H   H1919     1.0  0.28079  0.68810  0.99039  1.0000
  H   H1920     1.0  0.29071  0.73880  0.98998  1.0000
  H   H1921     1.0  0.47747  0.86831  0.98852  1.0000
  H   H1922     1.0  0.47472  0.87561  0.10683  1.0000
  S   S413      1.0  0.24056  0.74798  0.47424  1.0000
  C   C1597     1.0  0.24690  0.96536  0.14701  1.0000
  Fe  Fe207     1.0  0.41294  0.65648  0.99180  1.0000
  H   H1923     1.0  0.23688  0.80507  0.24296  1.0000
  S   S414      1.0  0.35378  0.83815  0.47774  1.0000
  H   H1924     1.0  0.34293  0.79169  0.99268  1.0000
  H   H1925     1.0  0.36903  0.80535  0.99369  1.0000
  H   H1926     1.0  0.36052  0.98421  0.09888  1.0000
  C   C1598     1.0  0.29726  0.78370  0.47815  1.0000
  C   C1599     1.0  0.28538  0.98818  0.13707  1.0000
  H   H1927     1.0  0.37657  0.98385  0.11401  1.0000
  H   H1928     1.0  0.27399  0.97261  0.10304  1.0000
  H   H1929     1.0  0.27586  0.77065  0.47362  1.0000
  S   S415      1.0  0.48177  0.75043  0.39980  1.0000
  N   N106      1.0  0.29818  0.71804  0.98739  1.0000
  H   H1930     1.0  0.23743  0.98476  0.20810  1.0000
  S   S416      1.0  0.46398  0.75104  0.47890  1.0000
  H   H1931     1.0  0.32212  0.72976  0.98081  1.0000
  H   H1932     1.0  0.29757  0.98863  0.12742  1.0000
  Fe  Fe208     1.0  0.44050  0.93874  0.61742  1.0000
  S   S417      1.0  0.42800  0.92596  0.66249  1.0000
  S   S418      1.0  0.45198  0.96476  0.60952  1.0000
  Fe  Fe209     1.0  0.42606  0.91060  0.59572  1.0000
  S   S419      1.0  0.41319  0.89643  0.63983  1.0000
  S   S420      1.0  0.42286  0.90179  0.55679  1.0000
  Fe  Fe210     1.0  0.40752  0.91841  0.64633  1.0000
  S   S421      1.0  0.38428  0.92088  0.66808  1.0000
  Fe  Fe211     1.0  0.43502  0.90533  0.65174  1.0000
  S   S422      1.0  0.44130  0.88895  0.68570  1.0000
  S   S423      1.0  0.41922  0.93239  0.60168  1.0000
  S   S424      1.0  0.44873  0.91822  0.60708  1.0000
  S   S425      1.0  0.37464  0.84526  0.53851  1.0000
  H   H1933     1.0  0.24384  0.73357  0.58622  1.0000
  H   H1934     1.0  0.25450  0.91088  0.74333  1.0000
  H   H1935     1.0  0.43457  0.74668  0.56447  1.0000
  C   C1600     1.0  0.47342  0.93866  0.70403  1.0000
  S   S426      1.0  0.44503  0.71642  0.52004  1.0000
  S   S427      1.0  0.31330  0.79814  0.97623  1.0000
  Fe  Fe212     1.0  0.46932  0.73150  0.50804  1.0000
  C   C1601     1.0  0.24850  0.73321  0.96986  1.0000
  H   H1936     1.0  0.39228  0.75498  0.51938  1.0000
  C   C1602     1.0  0.40851  0.69682  0.51359  1.0000
  H   H1937     1.0  0.27304  0.72917  0.91610  1.0000
  C   C1603     1.0  0.37869  0.92516  0.57208  1.0000
  H   H1938     1.0  0.44344  0.76748  0.50715  1.0000
  H   H1939     1.0  0.40216  0.66785  0.51846  1.0000
  C   C1604     1.0  0.25530  0.78055  0.56085  1.0000
  C   C1605     1.0  0.43273  0.70687  0.93547  1.0000
  H   H1940     1.0  0.45348  0.76905  0.91133  1.0000
  C   C1606     1.0  0.23899  0.73522  0.92752  1.0000
  H   H1941     1.0  0.29651  0.96471  0.76858  1.0000
  H   H1942     1.0  0.41215  0.80688  0.92183  1.0000
  H   H1943     1.0  0.37431  0.89696  0.73978  1.0000
  H   H1944     1.0  0.34719  0.84153  0.78373  1.0000
  N   N107      1.0  0.45796  0.74694  0.92780  1.0000
  Fe  Fe213     1.0  0.27189  0.86203  0.73256  1.0000
  S   S428      1.0  0.26524  0.87294  0.76804  1.0000
  S   S429      1.0  0.25734  0.85504  0.70334  1.0000
  Fe  Fe214     1.0  0.30522  0.86698  0.73658  1.0000
  S   S430      1.0  0.30159  0.87819  0.77247  1.0000
  S   S431      1.0  0.32732  0.86207  0.71575  1.0000
  Fe  Fe215     1.0  0.27952  0.85925  0.78968  1.0000
  S   S432      1.0  0.27002  0.84635  0.83594  1.0000
  Fe  Fe216     1.0  0.28774  0.89101  0.74825  1.0000
  S   S433      1.0  0.28938  0.91685  0.73768  1.0000
  S   S434      1.0  0.28430  0.84690  0.75574  1.0000
  S   S435      1.0  0.29332  0.88130  0.71083  1.0000
  S   S436      1.0  0.32357  0.79966  0.48873  1.0000
  H   H1945     1.0  0.28721  0.74519  0.52441  1.0000
  C   C1607     1.0  0.24413  0.98336  0.78443  1.0000
  Fe  Fe217     1.0  0.30051  0.79430  0.94340  1.0000
  H   H1946     1.0  0.36478  0.91958  0.62603  1.0000
  S   S437      1.0  0.31104  0.81015  0.89900  1.0000
  H   H1947     1.0  0.25505  0.72006  0.58217  1.0000
  C   C1608     1.0  0.46706  0.97536  0.62099  1.0000
  H   H1948     1.0  0.25946  0.70172  0.92434  1.0000
  H   H1949     1.0  0.46995  0.66974  0.84800  1.0000
  S   S438      1.0  0.47487  0.85628  0.83246  1.0000
  S   S439      1.0  0.30083  0.76923  0.95002  1.0000
  H   H1950     1.0  0.35019  0.91552  0.60788  1.0000
  C   C1609     1.0  0.44349  0.69925  0.92520  1.0000
  C   C1610     1.0  0.47236  0.84374  0.94710  1.0000
  H   H1951     1.0  0.41558  0.87559  0.74569  1.0000
  C   C1611     1.0  0.24808  0.74196  0.94354  1.0000
  H   H1952     1.0  0.40149  0.86942  0.49943  1.0000
  C   C1612     1.0  0.26744  0.70483  0.93673  1.0000
  H   H1953     1.0  0.25461  0.75397  0.93565  1.0000
  H   H1954     1.0  0.40100  0.87859  0.77274  1.0000
  C   C1613     1.0  0.28155  0.83627  0.85303  1.0000
  C   C1614     1.0  0.27544  0.82743  0.88133  1.0000
  C   C1615     1.0  0.28434  0.81931  0.89557  1.0000
  C   C1616     1.0  0.29946  0.82004  0.88164  1.0000
  C   C1617     1.0  0.30561  0.82893  0.85334  1.0000
  C   C1618     1.0  0.29667  0.83698  0.83902  1.0000
  H   H1955     1.0  0.26375  0.82685  0.89225  1.0000
  H   H1956     1.0  0.27949  0.81254  0.91735  1.0000
  H   H1957     1.0  0.31730  0.82955  0.84243  1.0000
  H   H1958     1.0  0.30145  0.84376  0.81722  1.0000
  C   C1619     1.0  0.29312  0.92770  0.76195  1.0000
  C   C1620     1.0  0.29418  0.94370  0.75463  1.0000
  C   C1621     1.0  0.29606  0.95247  0.77421  1.0000
  C   C1622     1.0  0.29717  0.94531  0.80108  1.0000
  C   C1623     1.0  0.29681  0.92946  0.80797  1.0000
  C   C1624     1.0  0.29465  0.92064  0.78856  1.0000
  H   H1959     1.0  0.29342  0.94936  0.73383  1.0000
  H   H1960     1.0  0.29779  0.92389  0.82868  1.0000
  H   H1961     1.0  0.29391  0.90833  0.79438  1.0000
  H   H1962     1.0  0.47620  0.72777  0.90835  1.0000
  H   H1963     1.0  0.24240  0.75761  0.56607  1.0000
  H   H1964     1.0  0.45208  0.74812  0.53906  1.0000
  C   C1625     1.0  0.36464  0.89885  0.57570  1.0000
  C   C1626     1.0  0.39742  0.77714  0.48869  1.0000
  H   H1965     1.0  0.26343  0.93327  0.84756  1.0000
  H   H1966     1.0  0.41369  0.70860  0.51518  1.0000
  H   H1967     1.0  0.35212  0.96984  0.82360  1.0000
  H   H1968     1.0  0.33342  0.93591  0.76146  1.0000
  C   C1627     1.0  0.25968  0.94151  0.72564  1.0000
  S   S440      1.0  0.45277  0.66150  0.90603  1.0000
  C   C1628     1.0  0.33551  0.98836  0.77651  1.0000
  H   H1969     1.0  0.39430  0.85587  0.72161  1.0000
  H   H1970     1.0  0.23449  0.90711  0.76271  1.0000
  C   C1629     1.0  0.38819  0.68132  0.49766  1.0000
  S   S441      1.0  0.36667  0.80928  0.50544  1.0000
  C   C1630     1.0  0.45876  0.81982  0.90246  1.0000
  C   C1631     1.0  0.46004  0.83312  0.88094  1.0000
  H   H1971     1.0  0.44834  0.81509  0.91961  1.0000
  H   H1972     1.0  0.45060  0.83863  0.88166  1.0000
  H   H1973     1.0  0.39552  0.89815  0.70343  1.0000
  H   H1974     1.0  0.41362  0.89647  0.70983  1.0000
  H   H1975     1.0  0.24986  0.97961  0.80051  1.0000
  H   H1976     1.0  0.45269  0.74985  0.57358  1.0000
  C   C1632     1.0  0.43748  0.72226  0.93641  1.0000
  C   C1633     1.0  0.34908  0.88973  0.58488  1.0000
  C   C1634     1.0  0.37762  0.87330  0.74846  1.0000
  C   C1635     1.0  0.38298  0.90329  0.60323  1.0000
  H   H1977     1.0  0.43008  0.77111  0.57823  1.0000
  C   C1636     1.0  0.36830  0.88670  0.53626  1.0000
  H   H1978     1.0  0.23861  0.74220  0.90737  1.0000
  C   C1637     1.0  0.40994  0.88533  0.55263  1.0000
  C   C1638     1.0  0.39848  0.87472  0.57541  1.0000
  C   C1639     1.0  0.38800  0.86246  0.57071  1.0000
  C   C1640     1.0  0.38892  0.86037  0.54331  1.0000
  H   H1979     1.0  0.40936  0.87211  0.69999  1.0000
  H   H1980     1.0  0.40013  0.90114  0.73565  1.0000
  H   H1981     1.0  0.39765  0.87598  0.59663  1.0000
  H   H1982     1.0  0.37911  0.85451  0.58847  1.0000
  H   H1983     1.0  0.33308  0.86191  0.78408  1.0000
  C   C1641     1.0  0.36914  0.88474  0.74951  1.0000
  C   C1642     1.0  0.35160  0.97077  0.76997  1.0000
  C   C1643     1.0  0.36847  0.90448  0.68060  1.0000
  C   C1644     1.0  0.37003  0.88998  0.67739  1.0000
  C   C1645     1.0  0.35730  0.87701  0.68800  1.0000
  C   C1646     1.0  0.34293  0.87854  0.70168  1.0000
  C   C1647     1.0  0.34125  0.89312  0.70427  1.0000
  C   C1648     1.0  0.35404  0.90606  0.69384  1.0000
  H   H1984     1.0  0.38103  0.88874  0.66684  1.0000
  H   H1985     1.0  0.35860  0.86575  0.68589  1.0000
  H   H1986     1.0  0.33016  0.89438  0.71471  1.0000
  H   H1987     1.0  0.35272  0.91728  0.69618  1.0000
  H   H1988     1.0  0.41971  0.89122  0.50744  1.0000
  C   C1649     1.0  0.40289  0.87258  0.75562  1.0000
  H   H1989     1.0  0.24545  0.74214  0.53545  1.0000
  C   C1650     1.0  0.24568  0.83605  0.70995  1.0000
  C   C1651     1.0  0.35307  0.87790  0.54584  1.0000
  H   H1990     1.0  0.27087  0.80288  0.55342  1.0000
  H   H1991     1.0  0.24850  0.82764  0.75172  1.0000
  C   C1652     1.0  0.45906  0.93790  0.69821  1.0000
  H   H1992     1.0  0.37815  0.89109  0.61637  1.0000
  C   C1653     1.0  0.46003  0.89392  0.69029  1.0000
  C   C1654     1.0  0.40110  0.89396  0.72029  1.0000
  H   H1993     1.0  0.45222  0.92696  0.69715  1.0000
  C   C1655     1.0  0.31358  0.72693  0.96852  1.0000
  H   H1994     1.0  0.39192  0.78239  0.93541  1.0000
  H   H1995     1.0  0.43979  0.68721  0.92498  1.0000
  C   C1656     1.0  0.44003  0.77263  0.52498  1.0000
  H   H1996     1.0  0.39308  0.90347  0.58634  1.0000
  H   H1997     1.0  0.45418  0.87677  0.73046  1.0000
  H   H1998     1.0  0.48107  0.95906  0.62023  1.0000
  H   H1999     1.0  0.44116  0.74414  0.96703  1.0000
  C   C1657     1.0  0.44280  0.77592  0.57001  1.0000
  H   H2000     1.0  0.31332  0.73832  0.95538  1.0000
  H   H2001     1.0  0.28679  0.74027  0.56170  1.0000
  C   C1658     1.0  0.46996  0.84964  0.97066  1.0000
  H   H2002     1.0  0.27043  0.93748  0.72416  1.0000
  N   N108      1.0  0.26518  0.74279  0.55300  1.0000
  H   H2003     1.0  0.25867  0.90840  0.83452  1.0000
  C   C1659     1.0  0.25693  0.73961  0.53150  1.0000
  C   C1660     1.0  0.26706  0.75927  0.55332  1.0000
  C   C1661     1.0  0.28173  0.77003  0.54627  1.0000
  C   C1662     1.0  0.28300  0.78556  0.54641  1.0000
  C   C1663     1.0  0.38945  0.79315  0.92582  1.0000
  C   C1664     1.0  0.39768  0.82092  0.90683  1.0000
  H   H2004     1.0  0.26112  0.73531  0.59832  1.0000
  H   H2005     1.0  0.33222  0.96603  0.82289  1.0000
  H   H2006     1.0  0.38995  0.87081  0.69724  1.0000
  S   S442      1.0  0.47813  0.73420  0.54687  1.0000
  H   H2007     1.0  0.29244  0.76693  0.53986  1.0000
  H   H2008     1.0  0.32879  0.95473  0.78797  1.0000
  H   H2009     1.0  0.44771  0.77277  0.58834  1.0000
  N   N109      1.0  0.35524  0.80787  0.90864  1.0000
  C   C1665     1.0  0.34918  0.81791  0.92557  1.0000
  C   C1666     1.0  0.35591  0.81446  0.87847  1.0000
  C   C1667     1.0  0.34393  0.79244  0.91841  1.0000
  C   C1668     1.0  0.37089  0.80725  0.91157  1.0000
  C   C1669     1.0  0.37463  0.79319  0.92276  1.0000
  C   C1670     1.0  0.38294  0.82110  0.90340  1.0000
  H   H2010     1.0  0.48016  0.88375  0.73858  1.0000
  H   H2011     1.0  0.37882  0.69435  0.53914  1.0000
  H   H2012     1.0  0.37425  0.70407  0.50792  1.0000
  H   H2013     1.0  0.35621  0.83011  0.91811  1.0000
  H   H2014     1.0  0.33724  0.81833  0.92440  1.0000
  H   H2015     1.0  0.34890  0.81356  0.94831  1.0000
  H   H2016     1.0  0.36295  0.82666  0.87015  1.0000
  H   H2017     1.0  0.34420  0.81459  0.87546  1.0000
  H   H2018     1.0  0.36089  0.80752  0.86491  1.0000
  H   H2019     1.0  0.34229  0.78709  0.94135  1.0000
  H   H2020     1.0  0.33233  0.79329  0.91582  1.0000
  H   H2021     1.0  0.34750  0.78432  0.90618  1.0000
  H   H2022     1.0  0.36622  0.78209  0.93023  1.0000
  Fe  Fe218     1.0  0.29606  0.98015  0.82081  1.0000
  C   C1671     1.0  0.36857  0.96173  0.73568  1.0000
  H   H2023     1.0  0.42750  0.76705  0.53450  1.0000
  C   C1672     1.0  0.47700  0.96617  0.69975  1.0000
  H   H2024     1.0  0.29434  0.79363  0.54016  1.0000
  H   H2025     1.0  0.38098  0.83223  0.89483  1.0000
  H   H2026     1.0  0.26252  0.95371  0.72700  1.0000
  C   C1673     1.0  0.28003  0.73843  0.54606  1.0000
  C   C1674     1.0  0.35343  0.85360  0.77441  1.0000
  N   N110      1.0  0.39434  0.87717  0.73440  1.0000
  C   C1675     1.0  0.39281  0.66770  0.50835  1.0000
  N   N111      1.0  0.37120  0.90942  0.59141  1.0000
  H   H2027     1.0  0.37496  0.84829  0.76185  1.0000
  C   C1676     1.0  0.44700  0.75296  0.55633  1.0000
  H   H2028     1.0  0.37962  0.96351  0.72080  1.0000
  C   C1677     1.0  0.46320  0.88590  0.71476  1.0000
  C   C1678     1.0  0.46254  0.96525  0.69424  1.0000
  N   N112      1.0  0.44923  0.76995  0.54596  1.0000
  H   H2029     1.0  0.35440  0.90001  0.63210  1.0000
  C   C1679     1.0  0.26983  0.79081  0.55364  1.0000
  C   C1680     1.0  0.27514  0.72030  0.93203  1.0000
  H   H2030     1.0  0.25491  0.72722  0.53110  1.0000
  C   C1681     1.0  0.47477  0.75420  0.91613  1.0000
  C   C1682     1.0  0.47351  0.83937  0.85864  1.0000
  C   C1683     1.0  0.26970  0.69346  0.95781  1.0000
  C   C1684     1.0  0.40089  0.80697  0.91820  1.0000
  C   C1685     1.0  0.34325  0.97521  0.81631  1.0000
  C   C1686     1.0  0.44979  0.75659  0.91154  1.0000
  Fe  Fe219     1.0  0.45037  0.78932  0.96833  1.0000
  C   C1687     1.0  0.23868  0.83220  0.68904  1.0000
  H   H2031     1.0  0.38757  0.91032  0.61670  1.0000
  C   C1688     1.0  0.40049  0.76301  0.50072  1.0000
  H   H2032     1.0  0.40661  0.83165  0.90122  1.0000
  C   C1689     1.0  0.25986  0.93267  0.82836  1.0000
  C   C1690     1.0  0.24401  0.91547  0.74528  1.0000
  C   C1691     1.0  0.25391  0.76503  0.56065  1.0000
  N   N113      1.0  0.39548  0.69682  0.50020  1.0000
  H   H2033     1.0  0.38691  0.77993  0.49799  1.0000
  H   H2034     1.0  0.27820  0.72600  0.54596  1.0000
  H   H2035     1.0  0.38910  0.71410  0.52047  1.0000
  H   H2036     1.0  0.46511  0.83264  0.94772  1.0000
  H   H2037     1.0  0.37581  0.88524  0.51770  1.0000
  N   N114      1.0  0.24720  0.93117  0.75019  1.0000
  H   H2038     1.0  0.42870  0.72746  0.94544  1.0000
  C   C1692     1.0  0.25720  0.91869  0.82093  1.0000
  H   H2039     1.0  0.31823  0.72030  0.95398  1.0000
  S   S443      1.0  0.27679  0.78901  0.97282  1.0000
  H   H2040     1.0  0.34107  0.89017  0.60366  1.0000
  C   C1693     1.0  0.34346  0.87946  0.57000  1.0000
  H   H2041     1.0  0.24499  0.78462  0.56642  1.0000
  C   C1694     1.0  0.45906  0.70704  0.91551  1.0000
  S   S444      1.0  0.24171  0.71148  0.49140  1.0000
  H   H2042     1.0  0.46943  0.91185  0.65104  1.0000
  C   C1695     1.0  0.47092  0.81266  0.90167  1.0000
  H   H2043     1.0  0.43709  0.75298  0.92079  1.0000
  Fe  Fe220     1.0  0.37248  0.83533  0.50017  1.0000
  C   C1696     1.0  0.34004  0.95704  0.77362  1.0000
  H   H2044     1.0  0.44275  0.95075  0.68778  1.0000
  H   H2045     1.0  0.38892  0.92531  0.55546  1.0000
  C   C1697     1.0  0.48019  0.97016  0.62387  1.0000
  H   H2046     1.0  0.32459  0.97910  0.78232  1.0000
  C   C1698     1.0  0.41091  0.88317  0.52528  1.0000
  H   H2047     1.0  0.25185  0.90688  0.79082  1.0000
  H   H2048     1.0  0.26133  0.95702  0.81579  1.0000
  C   C1699     1.0  0.36930  0.85761  0.76165  1.0000
  C   C1700     1.0  0.45383  0.74760  0.95769  1.0000
  N   N115      1.0  0.29920  0.83806  0.66898  1.0000
  C   C1701     1.0  0.29831  0.85384  0.67113  1.0000
  C   C1702     1.0  0.28430  0.83033  0.66464  1.0000
  C   C1703     1.0  0.30059  0.82909  0.69643  1.0000
  C   C1704     1.0  0.31287  0.83921  0.64606  1.0000
  C   C1705     1.0  0.32790  0.84625  0.64742  1.0000
  C   C1706     1.0  0.31180  0.83344  0.62204  1.0000
  C   C1707     1.0  0.34102  0.84735  0.62624  1.0000
  C   C1708     1.0  0.32502  0.83459  0.60098  1.0000
  C   C1709     1.0  0.33958  0.84147  0.60314  1.0000
  H   H2049     1.0  0.29725  0.86103  0.65099  1.0000
  H   H2050     1.0  0.28814  0.85337  0.68818  1.0000
  H   H2051     1.0  0.30852  0.86016  0.67645  1.0000
  H   H2052     1.0  0.28212  0.83680  0.64494  1.0000
  H   H2053     1.0  0.27432  0.82979  0.68228  1.0000
  H   H2054     1.0  0.28384  0.81814  0.66392  1.0000
  H   H2055     1.0  0.31047  0.83507  0.70314  1.0000
  H   H2056     1.0  0.29015  0.82734  0.71398  1.0000
  H   H2057     1.0  0.30218  0.81745  0.69526  1.0000
  H   H2058     1.0  0.32964  0.85087  0.66505  1.0000
  H   H2059     1.0  0.30091  0.82791  0.61906  1.0000
  H   H2060     1.0  0.35239  0.85272  0.62777  1.0000
  H   H2061     1.0  0.32405  0.83003  0.58289  1.0000
  H   H2062     1.0  0.34979  0.84226  0.58681  1.0000
  C   C1710     1.0  0.35331  0.88059  0.76260  1.0000
  S   S445      1.0  0.46966  0.79591  0.92815  1.0000
  H   H2063     1.0  0.29215  0.79247  0.48483  1.0000
  H   H2064     1.0  0.41793  0.69306  0.50103  1.0000
  H   H2065     1.0  0.39935  0.85989  0.76576  1.0000
  C   C1711     1.0  0.47794  0.88980  0.71934  1.0000
  S   S446      1.0  0.42820  0.77183  0.97374  1.0000
  C   C1712     1.0  0.35687  0.94848  0.73958  1.0000
  C   C1713     1.0  0.39705  0.86861  0.71245  1.0000
  C   C1714     1.0  0.40059  0.87076  0.52064  1.0000
  C   C1715     1.0  0.34545  0.86507  0.77476  1.0000
  H   H2066     1.0  0.34695  0.88944  0.76254  1.0000
  C   C1716     1.0  0.34262  0.94614  0.75855  1.0000
  C   C1717     1.0  0.46593  0.77752  0.53427  1.0000
  H   H2067     1.0  0.25651  0.94175  0.70526  1.0000
  S   S447      1.0  0.29929  0.95579  0.82649  1.0000
  C   C1718     1.0  0.25871  0.94608  0.81036  1.0000
  C   C1719     1.0  0.25594  0.73253  0.58117  1.0000
  H   H2068     1.0  0.34885  0.86965  0.53469  1.0000
  C   C1720     1.0  0.25479  0.94554  0.78496  1.0000
  H   H2069     1.0  0.26361  0.74676  0.50992  1.0000
  S   S448      1.0  0.41765  0.74151  0.50487  1.0000
  C   C1721     1.0  0.36605  0.97278  0.75055  1.0000
  C   C1722     1.0  0.35955  0.91114  0.61530  1.0000
  C   C1723     1.0  0.45325  0.73063  0.92654  1.0000
  H   H2070     1.0  0.29024  0.73670  0.94476  1.0000
  C   C1724     1.0  0.25328  0.91801  0.79554  1.0000
  H   H2071     1.0  0.44117  0.78521  0.51620  1.0000
  C   C1725     1.0  0.47140  0.65860  0.85821  1.0000
  C   C1726     1.0  0.25178  0.93146  0.77686  1.0000
  C   C1727     1.0  0.28502  0.72448  0.94856  1.0000
  C   C1728     1.0  0.24315  0.82482  0.73545  1.0000
  H   H2072     1.0  0.24073  0.84078  0.66912  1.0000
  C   C1729     1.0  0.38388  0.70255  0.51768  1.0000
  C   C1730     1.0  0.45368  0.95120  0.69313  1.0000
  C   C1731     1.0  0.28767  0.71322  0.97017  1.0000
  H   H2073     1.0  0.47985  0.68773  0.57414  1.0000
  C   C1732     1.0  0.46396  0.72252  0.91604  1.0000
  H   H2074     1.0  0.45843  0.97564  0.68972  1.0000
  N   N116      1.0  0.34820  0.98244  0.78524  1.0000
  H   H2075     1.0  0.25434  0.95630  0.77147  1.0000
  H   H2076     1.0  0.24052  0.91560  0.72521  1.0000
  H   H2077     1.0  0.45205  0.75591  0.88915  1.0000
  H   H2078     1.0  0.42063  0.70065  0.94336  1.0000
  H   H2079     1.0  0.35882  0.94005  0.72776  1.0000
  C   C1733     1.0  0.37409  0.89691  0.55104  1.0000
  H   H2080     1.0  0.33164  0.87247  0.57748  1.0000
  C   C1734     1.0  0.47177  0.90566  0.67005  1.0000
  H   H2081     1.0  0.45883  0.73971  0.97126  1.0000
  H   H2082     1.0  0.37047  0.92982  0.56127  1.0000
  H   H2083     1.0  0.40474  0.68917  0.53562  1.0000
  H   H2084     1.0  0.38310  0.93349  0.58373  1.0000
  C   C1735     1.0  0.23345  0.80994  0.74014  1.0000
  H   H2085     1.0  0.38621  0.90292  0.54339  1.0000
  H   H2086     1.0  0.45797  0.75954  0.95982  1.0000
  H   H2087     1.0  0.47712  0.92806  0.70763  1.0000
  Fe  Fe221     1.0  0.44018  0.73543  0.48910  1.0000
  H   H2088     1.0  0.34112  0.98385  0.82844  1.0000
  C   C1736     1.0  0.47933  0.86383  0.96999  1.0000
  H   H2089     1.0  0.46734  0.70091  0.90773  1.0000
  C   C1737     1.0  0.37601  0.67951  0.48412  1.0000
  H   H2090     1.0  0.29967  0.83766  0.97701  1.0000
  H   H2091     1.0  0.47780  0.76651  0.91720  1.0000
  S   S449      1.0  0.27359  0.98526  0.83884  1.0000
  H   H2092     1.0  0.44515  0.78881  0.56340  1.0000
  H   H2093     1.0  0.47866  0.75441  0.89341  1.0000
  C   C1738     1.0  0.41407  0.75924  0.48877  1.0000
  C   C1739     1.0  0.23302  0.93678  0.75081  1.0000
  C   C1740     1.0  0.48200  0.65666  0.68275  1.0000
  H   H2094     1.0  0.46601  0.78601  0.48958  1.0000
  Fe  Fe222     1.0  0.45191  0.70657  0.48312  1.0000
  H   H2095     1.0  0.48115  0.66352  0.60399  1.0000
  C   C1741     1.0  0.47267  0.78529  0.50506  1.0000
  H   H2096     1.0  0.37555  0.98283  0.74630  1.0000
  H   H2097     1.0  0.26355  0.68145  0.96151  1.0000
  H   H2098     1.0  0.47198  0.77077  0.57440  1.0000
  H   H2099     1.0  0.48162  0.74806  0.92844  1.0000
  S   S450      1.0  0.44539  0.68059  0.48570  1.0000
  H   H2100     1.0  0.23501  0.94923  0.75061  1.0000
  C   C1742     1.0  0.27967  0.69750  0.97435  1.0000
  C   C1743     1.0  0.47607  0.77702  0.55224  1.0000
  C   C1744     1.0  0.23988  0.71759  0.97972  1.0000
  H   H2101     1.0  0.46970  0.65569  0.68273  1.0000
  C   C1745     1.0  0.36920  0.66508  0.48080  1.0000
  Fe  Fe223     1.0  0.50802  0.05224  0.28330  1.0000
  S   S451      1.0  0.51201  0.06832  0.24028  1.0000
  C   C1746     1.0  0.53101  0.07405  0.47434  1.0000
  Fe  Fe224     1.0  0.52607  0.07852  0.30474  1.0000
  S   S452      1.0  0.53122  0.09593  0.26267  1.0000
  S   S453      1.0  0.53305  0.08474  0.34350  1.0000
  Fe  Fe225     1.0  0.50659  0.08582  0.26359  1.0000
  H   H2102     1.0  0.63906  0.23761  0.42470  1.0000
  Fe  Fe226     1.0  0.53616  0.07678  0.24349  1.0000
  S   S454      1.0  0.55530  0.07967  0.20481  1.0000
  S   S455      1.0  0.50084  0.06931  0.30691  1.0000
  S   S456      1.0  0.53278  0.05978  0.28531  1.0000
  Fe  Fe227     1.0  0.57805  0.15357  0.39923  1.0000
  S   S457      1.0  0.55959  0.14641  0.44034  1.0000
  S   S458      1.0  0.57437  0.14684  0.35869  1.0000
  Fe  Fe228     1.0  0.60233  0.17207  0.42421  1.0000
  S   S459      1.0  0.58522  0.16565  0.46687  1.0000
  S   S460      1.0  0.62837  0.18311  0.41790  1.0000
  Fe  Fe229     1.0  0.57833  0.14171  0.46111  1.0000
  H   H2103     1.0  0.52521  0.05433  0.45803  1.0000
  Fe  Fe230     1.0  0.56785  0.17107  0.44252  1.0000
  S   S461      1.0  0.55060  0.18327  0.46194  1.0000
  S   S462      1.0  0.59646  0.14751  0.41986  1.0000
  S   S463      1.0  0.58529  0.17884  0.39987  1.0000
  Fe  Fe231     1.0  0.50395  0.24497  0.41460  1.0000
  S   S464      1.0  0.50067  0.26425  0.38196  1.0000
  S   S465      1.0  0.52358  0.23510  0.39637  1.0000
  H   H2104     1.0  0.67175  0.03271  0.08645  1.0000
  H   H2105     1.0  0.54482  0.30103  0.40226  1.0000
  Fe  Fe232     1.0  0.49849  0.27749  0.41517  1.0000
  S   S466      1.0  0.51225  0.30318  0.40089  1.0000
  H   H2106     1.0  0.71724  0.24189  0.98510  1.0000
  S   S467      1.0  0.50335  0.25883  0.44679  1.0000
  H   H2107     1.0  0.70866  0.08283  0.12557  1.0000
  Fe  Fe233     1.0  0.69355  0.25219  0.44109  1.0000
  S   S468      1.0  0.71514  0.26929  0.41129  1.0000
  S   S469      1.0  0.66983  0.24568  0.43153  1.0000
  Fe  Fe234     1.0  0.71935  0.27898  0.44802  1.0000
  S   S470      1.0  0.70578  0.23411  0.45487  1.0000
  C   C1747     1.0  0.72802  0.25938  0.33027  1.0000
  S   S471      1.0  0.62577  0.02179  0.10577  1.0000
  H   H2108     1.0  0.56269  0.23129  0.43183  1.0000
  Fe  Fe235     1.0  0.67611  0.12385  0.16768  1.0000
  S   S472      1.0  0.68177  0.11379  0.13069  1.0000
  S   S473      1.0  0.69206  0.13053  0.19467  1.0000
  Fe  Fe236     1.0  0.64187  0.11667  0.17021  1.0000
  S   S474      1.0  0.64435  0.10603  0.13332  1.0000
  S   S475      1.0  0.62127  0.11844  0.20166  1.0000
  Fe  Fe237     1.0  0.66057  0.09436  0.15272  1.0000
  S   S476      1.0  0.66135  0.06906  0.16143  1.0000
  Fe  Fe238     1.0  0.66533  0.12626  0.11365  1.0000
  S   S477      1.0  0.67314  0.13927  0.06720  1.0000
  S   S478      1.0  0.65628  0.10335  0.19114  1.0000
  S   S479      1.0  0.66145  0.13791  0.14902  1.0000
  C   C1748     1.0  0.64385  0.16892  0.02931  1.0000
  C   C1749     1.0  0.63824  0.15945  0.05721  1.0000
  C   C1750     1.0  0.64717  0.15036  0.06917  1.0000
  C   C1751     1.0  0.66172  0.15065  0.05317  1.0000
  C   C1752     1.0  0.66732  0.16012  0.02527  1.0000
  C   C1753     1.0  0.65845  0.16930  0.01341  1.0000
  H   H2109     1.0  0.62696  0.15914  0.06966  1.0000
  H   H2110     1.0  0.64277  0.14306  0.09070  1.0000
  H   H2111     1.0  0.67861  0.16041  0.01290  1.0000
  H   H2112     1.0  0.66824  0.24745  0.00113  1.0000
  C   C1754     1.0  0.63678  0.03497  0.11965  1.0000
  C   C1755     1.0  0.63712  0.05078  0.11146  1.0000
  C   C1756     1.0  0.64486  0.06142  0.12371  1.0000
  C   C1757     1.0  0.65200  0.05623  0.14473  1.0000
  C   C1758     1.0  0.65162  0.04040  0.15300  1.0000
  C   C1759     1.0  0.64423  0.02984  0.14022  1.0000
  H   H2113     1.0  0.63130  0.05479  0.09566  1.0000
  H   H2114     1.0  0.64511  0.07358  0.11711  1.0000
  H   H2115     1.0  0.65700  0.03625  0.16940  1.0000
  H   H2116     1.0  0.64389  0.01765  0.14684  1.0000
  H   H2117     1.0  0.56285  0.05082  0.17605  1.0000
  H   H2118     1.0  0.70881  0.21222  0.36646  1.0000
  H   H2119     1.0  0.51631  0.10431  0.32071  1.0000
  C   C1760     1.0  0.63931  0.20036  0.42335  1.0000
  C   C1761     1.0  0.63391  0.21372  0.42279  1.0000
  C   C1762     1.0  0.64338  0.22736  0.42541  1.0000
  C   C1763     1.0  0.65839  0.22795  0.42869  1.0000
  C   C1764     1.0  0.66377  0.21456  0.42943  1.0000
  C   C1765     1.0  0.65432  0.20093  0.42671  1.0000
  H   H2120     1.0  0.62251  0.21362  0.41994  1.0000
  H   H2121     1.0  0.69898  0.06099  0.17032  1.0000
  H   H2122     1.0  0.67527  0.21476  0.43178  1.0000
  H   H2123     1.0  0.65868  0.19073  0.42718  1.0000
  C   C1766     1.0  0.54262  0.19702  0.44304  1.0000
  C   C1767     1.0  0.54815  0.20335  0.41371  1.0000
  C   C1768     1.0  0.54201  0.21483  0.39973  1.0000
  C   C1769     1.0  0.53022  0.22001  0.41484  1.0000
  C   C1770     1.0  0.52450  0.21349  0.44410  1.0000
  C   C1771     1.0  0.53073  0.20210  0.45812  1.0000
  C   C1772     1.0  0.55756  0.24002  0.43886  1.0000
  H   H2124     1.0  0.72253  0.24355  0.27648  1.0000
  H   H2125     1.0  0.51550  0.21744  0.45598  1.0000
  C   C1773     1.0  0.54302  0.24816  0.47640  1.0000
  C   C1774     1.0  0.69327  0.25828  0.03859  1.0000
  C   C1775     1.0  0.51879  0.31176  0.44863  1.0000
  H   H2126     1.0  0.55012  0.29420  0.43427  1.0000
  H   H2127     1.0  0.69683  0.21367  0.32206  1.0000
  H   H2128     1.0  0.64177  0.22304  0.05455  1.0000
  N   N117      1.0  0.70653  0.05845  0.12811  1.0000
  C   C1776     1.0  0.55022  0.23733  0.46739  1.0000
  H   H2129     1.0  0.69896  0.24319  0.07185  1.0000
  H   H2130     1.0  0.68906  0.01669  0.07118  1.0000
  C   C1777     1.0  0.66807  0.21443  0.00575  1.0000
  H   H2131     1.0  0.64538  0.14031  0.00123  1.0000
  H   H2132     1.0  0.53028  0.26797  0.39754  1.0000
  H   H2133     1.0  0.67959  0.05163  0.11185  1.0000
  C   C1778     1.0  0.68171  0.23058  0.05576  1.0000
  C   C1779     1.0  0.50657  0.10947  0.31761  1.0000
  C   C1780     1.0  0.54501  0.10198  0.34696  1.0000
  C   C1781     1.0  0.54645  0.10296  0.37410  1.0000
  C   C1782     1.0  0.55547  0.11645  0.37807  1.0000
  C   C1783     1.0  0.56316  0.12927  0.35489  1.0000
  C   C1784     1.0  0.56183  0.12825  0.32770  1.0000
  C   C1785     1.0  0.55286  0.11473  0.32372  1.0000
  H   H2134     1.0  0.54051  0.09320  0.39225  1.0000
  H   H2135     1.0  0.55637  0.11697  0.39910  1.0000
  H   H2136     1.0  0.56774  0.13803  0.30958  1.0000
  H   H2137     1.0  0.55209  0.11415  0.30268  1.0000
  C   C1786     1.0  0.55764  0.25348  0.41918  1.0000
  C   C1787     1.0  0.57334  0.09126  0.20346  1.0000
  C   C1788     1.0  0.57581  0.09676  0.22662  1.0000
  C   C1789     1.0  0.59053  0.10537  0.22561  1.0000
  C   C1790     1.0  0.60283  0.10842  0.20154  1.0000
  C   C1791     1.0  0.60029  0.10318  0.17819  1.0000
  C   C1792     1.0  0.58558  0.09454  0.17921  1.0000
  H   H2138     1.0  0.56643  0.09421  0.24544  1.0000
  H   H2139     1.0  0.59242  0.10947  0.24369  1.0000
  H   H2140     1.0  0.60965  0.10578  0.15933  1.0000
  H   H2141     1.0  0.58368  0.09034  0.16122  1.0000
  S   S480      1.0  0.72618  0.20434  0.31935  1.0000
  C   C1793     1.0  0.68765  0.04512  0.10528  1.0000
  C   C1794     1.0  0.70059  0.14995  0.19318  1.0000
  C   C1795     1.0  0.71065  0.15278  0.21026  1.0000
  C   C1796     1.0  0.71756  0.16803  0.21005  1.0000
  C   C1797     1.0  0.71441  0.18060  0.19282  1.0000
  C   C1798     1.0  0.70415  0.17779  0.17605  1.0000
  C   C1799     1.0  0.69727  0.16250  0.17617  1.0000
  H   H2142     1.0  0.71324  0.14312  0.22352  1.0000
  H   H2143     1.0  0.49759  0.10601  0.33811  1.0000
  H   H2144     1.0  0.68954  0.16045  0.16292  1.0000
  C   C1800     1.0  0.70427  0.07383  0.11522  1.0000
  H   H2145     1.0  0.65173  0.19297  0.05419  1.0000
  H   H2146     1.0  0.67513  0.17307  0.35752  1.0000
  C   C1801     1.0  0.68455  0.99787  0.14459  1.0000
  C   C1802     1.0  0.70219  0.04727  0.11171  1.0000
  S   S481      1.0  0.63255  0.18052  0.01534  1.0000
  H   H2147     1.0  0.57297  0.20459  0.99315  1.0000
  H   H2148     1.0  0.67352  0.00028  0.14383  1.0000
  H   H2149     1.0  0.54651  0.21981  0.37710  1.0000
  H   H2150     1.0  0.70149  0.26855  0.03898  1.0000
  H   H2151     1.0  0.53718  0.26952  0.46534  1.0000
  H   H2152     1.0  0.69142  0.01616  0.16388  1.0000
  C   C1803     1.0  0.50184  0.13135  0.13124  1.0000
  C   C1804     1.0  0.67631  0.19217  0.30797  1.0000
  C   C1805     1.0  0.69093  0.19288  0.29060  1.0000
  C   C1806     1.0  0.66328  0.18779  0.29737  1.0000
  C   C1807     1.0  0.69251  0.18973  0.26414  1.0000
  C   C1808     1.0  0.66499  0.18468  0.27077  1.0000
  C   C1809     1.0  0.67960  0.18577  0.25412  1.0000
  H   H2153     1.0  0.71026  0.07794  0.09220  1.0000
  H   H2154     1.0  0.65374  0.20308  0.33857  1.0000
  H   H2155     1.0  0.68047  0.22059  0.31585  1.0000
  H   H2156     1.0  0.70135  0.19600  0.29722  1.0000
  H   H2157     1.0  0.72165  0.26042  0.35036  1.0000
  H   H2158     1.0  0.70389  0.19054  0.25118  1.0000
  H   H2159     1.0  0.65493  0.18160  0.26291  1.0000
  H   H2160     1.0  0.68101  0.18361  0.23332  1.0000
  N   N118      1.0  0.55100  0.27910  0.40629  1.0000
  C   C1810     1.0  0.70713  0.02711  0.08788  1.0000
  H   H2161     1.0  0.53786  0.17097  0.32604  1.0000
  C   C1811     1.0  0.54414  0.29037  0.41877  1.0000
  C   C1812     1.0  0.55065  0.26490  0.42763  1.0000
  C   C1813     1.0  0.48408  0.05092  0.20025  1.0000
  H   H2162     1.0  0.65155  0.18296  0.35668  1.0000
  H   H2163     1.0  0.72546  0.17003  0.22300  1.0000
  H   H2164     1.0  0.50039  0.14413  0.07823  1.0000
  H   H2165     1.0  0.70795  0.24661  0.32170  1.0000
  C   C1814     1.0  0.56716  0.28726  0.39032  1.0000
  H   H2166     1.0  0.54147  0.28508  0.37049  1.0000
  C   C1815     1.0  0.54320  0.26178  0.45695  1.0000
  S   S482      1.0  0.49757  0.02608  0.29141  1.0000
  C   C1816     1.0  0.68130  0.18538  0.35427  1.0000
  H   H2167     1.0  0.53387  0.12622  0.28096  1.0000
  C   C1817     1.0  0.69277  0.02531  0.08198  1.0000
  H   H2168     1.0  0.69928  0.99751  0.22220  1.0000
  S   S483      1.0  0.65532  0.00084  0.07270  1.0000
  H   H2169     1.0  0.57430  0.28995  0.40502  1.0000
  C   C1818     1.0  0.70933  0.00423  0.15628  1.0000
  H   H2170     1.0  0.60032  0.03487  0.13511  1.0000
  C   C1819     1.0  0.64635  0.21982  0.03482  1.0000
  H   H2171     1.0  0.71445  0.01973  0.08187  1.0000
  H   H2172     1.0  0.48979  0.13043  0.32204  1.0000
  C   C1820     1.0  0.67251  0.23127  0.03602  1.0000
  H   H2173     1.0  0.56284  0.25462  0.39713  1.0000
  S   S484      1.0  0.72301  0.19990  0.19199  1.0000
  H   H2174     1.0  0.49176  0.99607  0.28028  1.0000
  H   H2175     1.0  0.66067  0.20388  0.00312  1.0000
  H   H2176     1.0  0.51059  0.12528  0.12345  1.0000
  H   H2177     1.0  0.72824  0.23975  0.04840  1.0000
  C   C1821     1.0  0.73200  0.21591  0.34117  1.0000
  C   C1822     1.0  0.67428  0.24607  0.01759  1.0000
  H   H2178     1.0  0.68139  0.21984  0.07030  1.0000
  N   N119      1.0  0.66200  0.21733  0.03344  1.0000
  H   H2179     1.0  0.68012  0.18767  0.37554  1.0000
  N   N120      1.0  0.51195  0.12660  0.30610  1.0000
  C   C1823     1.0  0.49423  0.13169  0.08805  1.0000
  H   H2180     1.0  0.66295  0.17666  0.99205  1.0000
  H   H2181     1.0  0.53753  0.08174  0.45376  1.0000
  C   C1824     1.0  0.51913  0.13452  0.32492  1.0000
  C   C1825     1.0  0.52545  0.15086  0.31633  1.0000
  C   C1826     1.0  0.52013  0.12648  0.35192  1.0000
  C   C1827     1.0  0.53272  0.15856  0.33329  1.0000
  H   H2182     1.0  0.72506  0.05007  0.14150  1.0000
  C   C1828     1.0  0.53369  0.15030  0.35943  1.0000
  H   H2183     1.0  0.51597  0.11403  0.36019  1.0000
  C   C1829     1.0  0.71182  0.03785  0.10264  1.0000
  H   H2184     1.0  0.67989  0.21270  0.00365  1.0000
  H   H2185     1.0  0.50758  0.14398  0.12538  1.0000
  C   C1830     1.0  0.73169  0.23047  0.08943  1.0000
  H   H2186     1.0  0.68416  0.05063  0.15818  1.0000
  H   H2187     1.0  0.48473  0.12859  0.07789  1.0000
  S   S485      1.0  0.49257  0.10257  0.25070  1.0000
  H   H2188     1.0  0.72282  0.03815  0.10741  1.0000
  H   H2189     1.0  0.52504  0.15778  0.29622  1.0000
  C   C1831     1.0  0.69660  0.05261  0.15754  1.0000
  C   C1832     1.0  0.68438  0.25934  0.01915  1.0000
  H   H2190     1.0  0.66864  0.22421  0.98757  1.0000
  H   H2191     1.0  0.53972  0.15620  0.37223  1.0000
  H   H2192     1.0  0.67126  0.19943  0.05455  1.0000
  H   H2193     1.0  0.69381  0.18658  0.34556  1.0000
  C   C1833     1.0  0.66027  0.20304  0.05598  1.0000
  C   C1834     1.0  0.49840  0.13237  0.30151  1.0000
  H   H2194     1.0  0.57380  0.03821  0.14004  1.0000
  H   H2195     1.0  0.51840  0.12356  0.26395  1.0000
  H   H2196     1.0  0.49252  0.12630  0.28796  1.0000
  H   H2197     1.0  0.50132  0.10384  0.30294  1.0000
  H   H2198     1.0  0.65606  0.20456  0.07749  1.0000
  H   H2199     1.0  0.48905  0.06223  0.20270  1.0000
  C   C1835     1.0  0.72517  0.22731  0.38035  1.0000
  H   H2200     1.0  0.63800  0.20920  0.03441  1.0000
  C   C1836     1.0  0.48511  0.02452  0.20238  1.0000
  C   C1837     1.0  0.52041  0.31612  0.41935  1.0000
  H   H2201     1.0  0.71245  0.99190  0.25631  1.0000
  C   C1838     1.0  0.52722  0.13435  0.36886  1.0000
  C   C1839     1.0  0.52324  0.12986  0.27825  1.0000
  H   H2202     1.0  0.55731  0.19957  0.40189  1.0000
  H   H2203     1.0  0.51216  0.30021  0.46094  1.0000
  H   H2204     1.0  0.49082  0.01528  0.20684  1.0000
  C   C1840     1.0  0.72083  0.21787  0.36303  1.0000
  H   H2205     1.0  0.57270  0.28030  0.37757  1.0000
  H   H2206     1.0  0.50244  0.04131  0.21082  1.0000
  C   C1841     1.0  0.69191  0.24394  0.05691  1.0000
  H   H2207     1.0  0.64616  0.22906  0.01648  1.0000
  H   H2208     1.0  0.73094  0.06485  0.10803  1.0000
  C   C1842     1.0  0.72030  0.25153  0.31420  1.0000
  H   H2209     1.0  0.69845  0.04142  0.16849  1.0000
  H   H2210     1.0  0.53163  0.28545  0.42939  1.0000
  S   S486      1.0  0.72936  0.30538  0.43978  1.0000
  Fe  Fe239     1.0  0.63242  0.99965  0.10104  1.0000
  C   C1843     1.0  0.68428  0.21221  0.33085  1.0000
  H   H2211     1.0  0.70166  0.18746  0.16267  1.0000
  N   N121      1.0  0.65231  0.13556  0.25279  1.0000
  C   C1844     1.0  0.64945  0.11891  0.25309  1.0000
  C   C1845     1.0  0.65439  0.14488  0.22343  1.0000
  C   C1846     1.0  0.66710  0.13987  0.26052  1.0000
  C   C1847     1.0  0.63898  0.13810  0.27210  1.0000
  C   C1848     1.0  0.64034  0.14442  0.29545  1.0000
  C   C1849     1.0  0.62397  0.13406  0.26798  1.0000
  C   C1850     1.0  0.62738  0.14630  0.31358  1.0000
  C   C1851     1.0  0.61112  0.13597  0.28626  1.0000
  C   C1852     1.0  0.61281  0.14204  0.30905  1.0000
  H   H2212     1.0  0.63967  0.11514  0.24405  1.0000
  H   H2213     1.0  0.65966  0.11643  0.24011  1.0000
  H   H2214     1.0  0.64679  0.11137  0.27504  1.0000
  H   H2215     1.0  0.64428  0.14139  0.21500  1.0000
  H   H2216     1.0  0.66451  0.14342  0.20844  1.0000
  H   H2217     1.0  0.65622  0.15745  0.22223  1.0000
  H   H2218     1.0  0.66651  0.13296  0.28211  1.0000
  H   H2219     1.0  0.67680  0.13761  0.24579  1.0000
  H   H2220     1.0  0.67050  0.15245  0.25926  1.0000
  H   H2221     1.0  0.65123  0.14787  0.30034  1.0000
  H   H2222     1.0  0.62200  0.12928  0.25065  1.0000
  H   H2223     1.0  0.62853  0.15092  0.33152  1.0000
  H   H2224     1.0  0.59973  0.13262  0.28286  1.0000
  H   H2225     1.0  0.60277  0.14337  0.32331  1.0000
  N   N122      1.0  0.60813  0.05841  0.20709  1.0000
  C   C1853     1.0  0.59964  0.06372  0.23036  1.0000
  C   C1854     1.0  0.61498  0.04616  0.22017  1.0000
  C   C1855     1.0  0.62078  0.07176  0.18867  1.0000
  C   C1856     1.0  0.59832  0.05250  0.18960  1.0000
  C   C1857     1.0  0.58306  0.05423  0.19184  1.0000
  C   C1858     1.0  0.60424  0.04539  0.16857  1.0000
  C   C1859     1.0  0.57438  0.04912  0.17411  1.0000
  C   C1860     1.0  0.59545  0.04022  0.15108  1.0000
  C   C1861     1.0  0.58054  0.04210  0.15382  1.0000
  H   H2226     1.0  0.58964  0.05430  0.24459  1.0000
  H   H2227     1.0  0.60716  0.06768  0.24366  1.0000
  H   H2228     1.0  0.59535  0.07388  0.22200  1.0000
  H   H2229     1.0  0.60588  0.03532  0.23198  1.0000
  H   H2230     1.0  0.62143  0.04991  0.23515  1.0000
  H   H2231     1.0  0.62355  0.04324  0.20423  1.0000
  H   H2232     1.0  0.61616  0.08109  0.17797  1.0000
  H   H2233     1.0  0.62840  0.07681  0.20084  1.0000
  H   H2234     1.0  0.62823  0.06846  0.17165  1.0000
  H   H2235     1.0  0.57755  0.05966  0.20685  1.0000
  H   H2236     1.0  0.61583  0.04395  0.16516  1.0000
  C   C1862     1.0  0.49166  0.03918  0.20474  1.0000
  H   H2237     1.0  0.72596  0.06975  0.14108  1.0000
  C   C1863     1.0  0.68304  0.03429  0.09069  1.0000
  H   H2238     1.0  0.52681  0.14234  0.26661  1.0000
  C   C1864     1.0  0.64353  0.13291  0.98653  1.0000
  H   H2239     1.0  0.56784  0.29839  0.37506  1.0000
  H   H2240     1.0  0.69188  0.07363  0.11757  1.0000
  C   C1865     1.0  0.72285  0.06087  0.12960  1.0000
  C   C1866     1.0  0.65905  0.19499  0.35095  1.0000
  H   H2241     1.0  0.52824  0.12797  0.38905  1.0000
  S   S487      1.0  0.72211  0.01643  0.16937  1.0000
  H   H2242     1.0  0.54739  0.26728  0.37398  1.0000
  N   N123      1.0  0.67511  0.19608  0.33553  1.0000
  H   H2243     1.0  0.68316  0.21577  0.35104  1.0000
  H   H2244     1.0  0.71649  0.22905  0.39677  1.0000
  H   H2245     1.0  0.65166  0.18682  0.30906  1.0000
  H   H2246     1.0  0.65858  0.19815  0.37135  1.0000
  H   H2247     1.0  0.63130  0.12594  0.99413  1.0000
  C   C1867     1.0  0.54226  0.27474  0.38610  1.0000
  C   C1868     1.0  0.69476  0.00690  0.15590  1.0000
  H   H2248     1.0  0.72556  0.21868  0.09124  1.0000
  H   H2249     1.0  0.48771  0.10416  0.12482  1.0000
  C   C1869     1.0  0.71336  0.99204  0.14617  1.0000
  H   H2250     1.0  0.65099  0.12478  0.98934  1.0000
  H   H2251     1.0  0.49868  0.12706  0.15476  1.0000
  H   H2252     1.0  0.68574  0.27046  0.00447  1.0000
  H   H2253     1.0  0.50245  0.12470  0.08220  1.0000
  H   H2254     1.0  0.72453  0.98985  0.14627  1.0000
  N   N124      1.0  0.48831  0.12844  0.11930  1.0000
  Fe  Fe240     1.0  0.72740  0.25171  0.42745  1.0000
  H   H2255     1.0  0.50163  0.14497  0.29067  1.0000
  C   C1870     1.0  0.72851  0.24982  0.28881  1.0000
  H   H2256     1.0  0.48601  0.15274  0.99270  1.0000
  C   C1871     1.0  0.48264  0.01617  0.27883  1.0000
  H   H2257     1.0  0.54598  0.20171  0.99002  1.0000
  S   S488      1.0  0.69636  0.26377  0.47618  1.0000
  C   C1872     1.0  0.52408  0.05858  0.47685  1.0000
  C   C1873     1.0  0.56958  0.21435  0.98186  1.0000
  S   S489      1.0  0.73227  0.27219  0.98733  1.0000
  H   H2258     1.0  0.48345  0.99042  0.36225  1.0000
  H   H2259     1.0  0.48244  0.28654  0.26095  1.0000
  C   C1874     1.0  0.48243  0.00107  0.27613  1.0000
  C   C1875     1.0  0.55442  0.21274  0.98002  1.0000
  Fe  Fe241     1.0  0.51126  0.02901  0.65443  1.0000
  S   S490      1.0  0.49544  0.04488  0.65205  1.0000
  S   S491      1.0  0.50753  0.00538  0.64379  1.0000
  Fe  Fe242     1.0  0.53411  0.05175  0.67492  1.0000
  S   S492      1.0  0.51960  0.06886  0.67414  1.0000
  S   S493      1.0  0.55747  0.05599  0.68553  1.0000
  Fe  Fe243     1.0  0.49946  0.04807  0.69357  1.0000
  Fe  Fe244     1.0  0.51717  0.06424  0.63265  1.0000
  S   S494      1.0  0.51800  0.08415  0.59602  1.0000
  S   S495      1.0  0.51408  0.03098  0.69743  1.0000
  S   S496      1.0  0.53290  0.04832  0.63196  1.0000
  Fe  Fe245     1.0  0.49644  0.18388  0.89381  1.0000
  S   S497      1.0  0.50076  0.16944  0.93238  1.0000
  C   C1876     1.0  0.51418  0.05390  0.52839  1.0000
  Fe  Fe246     1.0  0.50970  0.21465  0.90724  1.0000
  S   S498      1.0  0.51485  0.20251  0.94690  1.0000
  S   S499      1.0  0.51613  0.24086  0.88884  1.0000
  Fe  Fe247     1.0  0.52366  0.18721  0.92115  1.0000
  S   S500      1.0  0.54506  0.17885  0.92520  1.0000
  H   H2260     1.0  0.59244  0.22943  0.96919  1.0000
  S   S501      1.0  0.52015  0.20039  0.88061  1.0000
  H   H2261     1.0  0.70610  0.22347  0.59153  1.0000
  H   H2262     1.0  0.56521  0.27558  0.90563  1.0000
  H   H2263     1.0  0.59562  0.03782  0.74076  1.0000
  S   S502      1.0  0.62656  0.01599  0.79122  1.0000
  H   H2264     1.0  0.50773  0.02167  0.54887  1.0000
  S   S503      1.0  0.66541  0.20139  0.94284  1.0000
  Fe  Fe248     1.0  0.62975  0.21493  0.92540  1.0000
  S   S504      1.0  0.65319  0.22229  0.89436  1.0000
  S   S505      1.0  0.61002  0.22403  0.91306  1.0000
  Fe  Fe249     1.0  0.65356  0.19730  0.90873  1.0000
  S   S506      1.0  0.66165  0.18274  0.87982  1.0000
  Fe  Fe250     1.0  0.66292  0.22588  0.93127  1.0000
  S   S507      1.0  0.67990  0.24892  0.92751  1.0000
  S   S508      1.0  0.62957  0.18979  0.93735  1.0000
  S   S509      1.0  0.63931  0.22028  0.96116  1.0000
  Fe  Fe251     1.0  0.60446  0.11173  0.76198  1.0000
  S   S510      1.0  0.60307  0.10661  0.80862  1.0000
  S   S511      1.0  0.58164  0.10554  0.74980  1.0000
  Fe  Fe252     1.0  0.63911  0.12732  0.74675  1.0000
  S   S512      1.0  0.64031  0.12292  0.79212  1.0000
  S   S513      1.0  0.65937  0.14026  0.70880  1.0000
  Fe  Fe253     1.0  0.62505  0.09937  0.79726  1.0000
  S   S514      1.0  0.62707  0.07826  0.82798  1.0000
  Fe  Fe254     1.0  0.61839  0.13054  0.79992  1.0000
  S   S515      1.0  0.61255  0.14616  0.82836  1.0000
  S   S516      1.0  0.62557  0.10292  0.75110  1.0000
  S   S517      1.0  0.61799  0.13651  0.75407  1.0000
  C   C1877     1.0  0.64770  0.17168  0.86734  1.0000
  C   C1878     1.0  0.63270  0.17351  0.87174  1.0000
  C   C1879     1.0  0.62197  0.16516  0.86054  1.0000
  C   C1880     1.0  0.62619  0.15526  0.84407  1.0000
  C   C1881     1.0  0.64111  0.15311  0.84022  1.0000
  C   C1882     1.0  0.65177  0.16117  0.85212  1.0000
  H   H2265     1.0  0.62937  0.18156  0.88336  1.0000
  H   H2266     1.0  0.61042  0.16664  0.86427  1.0000
  H   H2267     1.0  0.64449  0.14535  0.82795  1.0000
  H   H2268     1.0  0.66325  0.15938  0.84915  1.0000
  C   C1883     1.0  0.69464  0.25506  0.94406  1.0000
  H   H2269     1.0  0.50078  0.07371  0.74790  1.0000
  H   H2270     1.0  0.49784  0.06139  0.57424  1.0000
  C   C1884     1.0  0.63659  0.11256  0.90276  1.0000
  S   S518      1.0  0.70339  0.23369  0.53475  1.0000
  C   C1885     1.0  0.70022  0.27104  0.94098  1.0000
  C   C1886     1.0  0.68611  0.98982  0.79516  1.0000
  H   H2271     1.0  0.52684  0.03883  0.56538  1.0000
  H   H2272     1.0  0.69545  0.27925  0.92873  1.0000
  C   C1887     1.0  0.62772  0.03338  0.80144  1.0000
  C   C1888     1.0  0.62899  0.04712  0.78109  1.0000
  C   C1889     1.0  0.62942  0.06110  0.78878  1.0000
  C   C1890     1.0  0.62833  0.06136  0.81697  1.0000
  C   C1891     1.0  0.62722  0.04764  0.83726  1.0000
  C   C1892     1.0  0.62693  0.03367  0.82953  1.0000
  H   H2273     1.0  0.62973  0.04696  0.75928  1.0000
  H   H2274     1.0  0.63053  0.07165  0.77293  1.0000
  H   H2275     1.0  0.62639  0.04778  0.85911  1.0000
  H   H2276     1.0  0.62595  0.02312  0.84535  1.0000
  C   C1893     1.0  0.56248  0.19185  0.92389  1.0000
  C   C1894     1.0  0.56584  0.20767  0.91030  1.0000
  C   C1895     1.0  0.58045  0.21740  0.90715  1.0000
  C   C1896     1.0  0.59174  0.21144  0.91780  1.0000
  C   C1897     1.0  0.58826  0.19568  0.93181  1.0000
  C   C1898     1.0  0.57371  0.18594  0.93478  1.0000
  H   H2277     1.0  0.55731  0.21231  0.90166  1.0000
  H   H2278     1.0  0.58308  0.22958  0.89630  1.0000
  H   H2279     1.0  0.59679  0.19097  0.94027  1.0000
  H   H2280     1.0  0.57119  0.17371  0.94534  1.0000
  C   C1899     1.0  0.51369  0.25444  0.90888  1.0000
  C   C1900     1.0  0.51858  0.27038  0.89496  1.0000
  C   C1901     1.0  0.51700  0.28158  0.91013  1.0000
  C   C1902     1.0  0.51063  0.27692  0.93947  1.0000
  H   H2281     1.0  0.53334  0.24702  0.95984  1.0000
  C   C1903     1.0  0.50713  0.24977  0.93817  1.0000
  H   H2282     1.0  0.52357  0.27409  0.87226  1.0000
  H   H2283     1.0  0.52082  0.29381  0.89916  1.0000
  Fe  Fe255     1.0  0.64124  0.19564  0.97037  1.0000
  C   C1904     1.0  0.63382  0.17355  0.51254  1.0000
  C   C1905     1.0  0.67752  0.20346  0.50583  1.0000
  H   H2284     1.0  0.48351  0.26670  0.91583  1.0000
  H   H2285     1.0  0.58667  0.11950  0.63326  1.0000
  H   H2286     1.0  0.61631  0.99682  0.75646  1.0000
  C   C1906     1.0  0.72986  0.13209  0.74094  1.0000
  H   H2287     1.0  0.66674  0.15729  0.92427  1.0000
  C   C1907     1.0  0.53477  0.09413  0.56835  1.0000
  C   C1908     1.0  0.53470  0.10790  0.54939  1.0000
  H   H2288     1.0  0.60302  0.01475  0.76214  1.0000
  C   C1909     1.0  0.56062  0.09611  0.54095  1.0000
  C   C1910     1.0  0.54775  0.08821  0.56398  1.0000
  H   H2289     1.0  0.52464  0.11248  0.55248  1.0000
  H   H2290     1.0  0.57063  0.09147  0.53758  1.0000
  H   H2291     1.0  0.54783  0.07745  0.57808  1.0000
  H   H2292     1.0  0.55004  0.12541  0.63091  1.0000
  C   C1911     1.0  0.56432  0.07043  0.70202  1.0000
  C   C1912     1.0  0.55501  0.07949  0.71235  1.0000
  C   C1913     1.0  0.56066  0.09041  0.72631  1.0000
  C   C1914     1.0  0.57566  0.09244  0.73012  1.0000
  C   C1915     1.0  0.58510  0.08364  0.71921  1.0000
  C   C1916     1.0  0.57942  0.07266  0.70534  1.0000
  H   H2293     1.0  0.54337  0.07791  0.70998  1.0000
  H   H2294     1.0  0.55332  0.09722  0.73452  1.0000
  H   H2295     1.0  0.59672  0.08519  0.72165  1.0000
  H   H2296     1.0  0.58678  0.06583  0.69724  1.0000
  C   C1917     1.0  0.69048  0.16244  0.74374  1.0000
  C   C1918     1.0  0.67754  0.15243  0.74057  1.0000
  C   C1919     1.0  0.67595  0.15203  0.71351  1.0000
  C   C1920     1.0  0.68763  0.16147  0.68965  1.0000
  C   C1921     1.0  0.70058  0.17156  0.69281  1.0000
  H   H2297     1.0  0.69145  0.16275  0.76479  1.0000
  H   H2298     1.0  0.66869  0.14524  0.75908  1.0000
  H   H2299     1.0  0.68648  0.16121  0.66864  1.0000
  H   H2300     1.0  0.57639  0.03609  0.71253  1.0000
  H   H2301     1.0  0.50323  0.23754  0.94911  1.0000
  C   C1922     1.0  0.57967  0.02576  0.72186  1.0000
  H   H2302     1.0  0.58373  0.11850  0.56244  1.0000
  N   N125      1.0  0.55642  0.25213  0.93255  1.0000
  C   C1923     1.0  0.51956  0.09774  0.78024  1.0000
  S   S519      1.0  0.71721  0.18556  0.72501  1.0000
  H   H2303     1.0  0.67902  0.20569  0.48251  1.0000
  C   C1924     1.0  0.55018  0.22515  0.96458  1.0000
  H   H2304     1.0  0.52154  0.05439  0.57846  1.0000
  C   C1925     1.0  0.62441  0.18106  0.49916  1.0000
  C   C1926     1.0  0.72548  0.15033  0.65758  1.0000
  H   H2305     1.0  0.68806  0.21042  0.50941  1.0000
  H   H2306     1.0  0.48473  0.07553  0.69132  1.0000
  C   C1927     1.0  0.49166  0.99415  0.63513  1.0000
  C   C1928     1.0  0.57646  0.24082  0.95260  1.0000
  C   C1929     1.0  0.57713  0.99808  0.73006  1.0000
  H   H2307     1.0  0.53702  0.24585  0.49855  1.0000
  H   H2308     1.0  0.53046  0.10052  0.78570  1.0000
  H   H2309     1.0  0.58041  0.14078  0.53059  1.0000
  C   C1930     1.0  0.59466  0.01339  0.74986  1.0000
  H   H2310     1.0  0.57389  0.27139  0.93428  1.0000
  C   C1931     1.0  0.56060  0.10996  0.52213  1.0000
  C   C1932     1.0  0.54758  0.11582  0.52640  1.0000
  H   H2311     1.0  0.72757  0.12106  0.73453  1.0000
  C   C1933     1.0  0.62725  0.19714  0.49311  1.0000
  C   C1934     1.0  0.71172  0.27653  0.95396  1.0000
  C   C1935     1.0  0.50295  0.08269  0.75888  1.0000
  H   H2312     1.0  0.67135  0.21011  0.55631  1.0000
  C   C1936     1.0  0.72852  0.21883  0.58778  1.0000
  C   C1937     1.0  0.49885  0.02748  0.55710  1.0000
  H   H2313     1.0  0.62565  0.14927  0.96406  1.0000
  H   H2314     1.0  0.54686  0.14749  0.59725  1.0000
  C   C1938     1.0  0.64624  0.18213  0.51957  1.0000
  H   H2315     1.0  0.51084  0.03673  0.50381  1.0000
  C   C1939     1.0  0.48315  0.31008  0.82502  1.0000
  H   H2316     1.0  0.56458  0.01088  0.70568  1.0000
  H   H2317     1.0  0.58569  0.25113  0.94203  1.0000
  C   C1940     1.0  0.50568  0.26098  0.95339  1.0000
  N   N126      1.0  0.58163  0.05703  0.81286  1.0000
  C   C1941     1.0  0.59429  0.06791  0.78932  1.0000
  C   C1942     1.0  0.57295  0.06620  0.82817  1.0000
  C   C1943     1.0  0.58871  0.04827  0.83305  1.0000
  C   C1944     1.0  0.57134  0.04697  0.80107  1.0000
  C   C1945     1.0  0.56299  0.05354  0.78281  1.0000
  C   C1946     1.0  0.56966  0.03068  0.80641  1.0000
  C   C1947     1.0  0.55341  0.04437  0.77097  1.0000
  C   C1948     1.0  0.55998  0.02161  0.79451  1.0000
  C   C1949     1.0  0.55188  0.02845  0.77685  1.0000
  H   H2318     1.0  0.60053  0.06158  0.77606  1.0000
  H   H2319     1.0  0.59006  0.07628  0.77515  1.0000
  H   H2320     1.0  0.60288  0.07499  0.79736  1.0000
  H   H2321     1.0  0.56899  0.07475  0.81378  1.0000
  H   H2322     1.0  0.58024  0.07318  0.83864  1.0000
  H   H2323     1.0  0.56265  0.05849  0.84484  1.0000
  H   H2324     1.0  0.59651  0.04209  0.82246  1.0000
  H   H2325     1.0  0.59602  0.05612  0.84218  1.0000
  H   H2326     1.0  0.57981  0.03976  0.85130  1.0000
  H   H2327     1.0  0.56397  0.06588  0.77726  1.0000
  H   H2328     1.0  0.57575  0.02465  0.81956  1.0000
  H   H2329     1.0  0.54723  0.04967  0.75689  1.0000
  H   H2330     1.0  0.55888  0.00922  0.79879  1.0000
  H   H2331     1.0  0.54451  0.02144  0.76740  1.0000
  C   C1950     1.0  0.51580  0.04857  0.50343  1.0000
  C   C1951     1.0  0.71647  0.22303  0.57708  1.0000
  N   N127      1.0  0.68423  0.20242  0.77899  1.0000
  C   C1952     1.0  0.67561  0.20990  0.79840  1.0000
  C   C1953     1.0  0.69019  0.19074  0.79599  1.0000
  C   C1954     1.0  0.69771  0.21464  0.75937  1.0000
  C   C1955     1.0  0.67399  0.19454  0.76410  1.0000
  C   C1956     1.0  0.65938  0.18440  0.77952  1.0000
  C   C1957     1.0  0.67849  0.19584  0.73453  1.0000
  C   C1958     1.0  0.64996  0.17600  0.76632  1.0000
  C   C1959     1.0  0.66889  0.18753  0.72146  1.0000
  C   C1960     1.0  0.65473  0.17753  0.73735  1.0000
  H   H2332     1.0  0.64125  0.16174  0.97101  1.0000
  H   H2333     1.0  0.66951  0.21754  0.78706  1.0000
  H   H2334     1.0  0.66700  0.20133  0.81700  1.0000
  H   H2335     1.0  0.68071  0.18138  0.81170  1.0000
  H   H2336     1.0  0.69773  0.19603  0.80807  1.0000
  H   H2337     1.0  0.69712  0.18515  0.78214  1.0000
  H   H2338     1.0  0.69401  0.22338  0.74490  1.0000
  H   H2339     1.0  0.70479  0.22094  0.77101  1.0000
  H   H2340     1.0  0.70579  0.20963  0.74634  1.0000
  H   H2341     1.0  0.65529  0.18254  0.80208  1.0000
  H   H2342     1.0  0.68963  0.20271  0.72113  1.0000
  H   H2343     1.0  0.63907  0.16792  0.77877  1.0000
  H   H2344     1.0  0.67279  0.18826  0.69909  1.0000
  H   H2345     1.0  0.64769  0.17057  0.72730  1.0000
  H   H2346     1.0  0.70933  0.17906  0.67430  1.0000
  Fe  Fe256     1.0  0.49172  0.18592  0.95491  1.0000
  N   N128      1.0  0.57691  0.17349  0.84848  1.0000
  C   C1961     1.0  0.57446  0.16335  0.87734  1.0000
  C   C1962     1.0  0.56502  0.18244  0.84919  1.0000
  C   C1963     1.0  0.57435  0.16321  0.82959  1.0000
  C   C1964     1.0  0.59250  0.18429  0.83937  1.0000
  C   C1965     1.0  0.60412  0.18427  0.81556  1.0000
  C   C1966     1.0  0.59659  0.19505  0.85497  1.0000
  C   C1967     1.0  0.61887  0.19433  0.80826  1.0000
  C   C1968     1.0  0.61136  0.20500  0.84759  1.0000
  C   C1969     1.0  0.62250  0.20462  0.82431  1.0000
  H   H2347     1.0  0.58304  0.15626  0.87774  1.0000
  H   H2348     1.0  0.57545  0.17008  0.89322  1.0000
  H   H2349     1.0  0.56272  0.15527  0.88519  1.0000
  H   H2350     1.0  0.56680  0.19070  0.82821  1.0000
  H   H2351     1.0  0.56508  0.18928  0.86513  1.0000
  H   H2352     1.0  0.55313  0.17471  0.85529  1.0000
  H   H2353     1.0  0.57577  0.17004  0.80752  1.0000
  H   H2354     1.0  0.58246  0.15555  0.82922  1.0000
  H   H2355     1.0  0.56251  0.15534  0.83689  1.0000
  H   H2356     1.0  0.60231  0.17627  0.80275  1.0000
  H   H2357     1.0  0.58843  0.19569  0.87334  1.0000
  H   H2358     1.0  0.62762  0.19388  0.79040  1.0000
  H   H2359     1.0  0.61421  0.21294  0.86024  1.0000
  H   H2360     1.0  0.63399  0.21222  0.81891  1.0000
  C   C1970     1.0  0.66598  0.22453  0.50960  1.0000
  H   H2361     1.0  0.49592  0.13108  0.79281  1.0000
  H   H2362     1.0  0.54735  0.25590  0.89570  1.0000
  H   H2363     1.0  0.64115  0.16252  0.93511  1.0000
  H   H2364     1.0  0.48679  0.11543  0.82491  1.0000
  C   C1971     1.0  0.71250  0.25009  0.97281  1.0000
  H   H2365     1.0  0.51120  0.11446  0.79817  1.0000
  C   C1972     1.0  0.66141  0.20337  0.55061  1.0000
  H   H2366     1.0  0.65194  0.10029  0.91903  1.0000
  H   H2367     1.0  0.57871  0.26391  0.90364  1.0000
  H   H2368     1.0  0.71913  0.13619  0.74334  1.0000
  S   S520      1.0  0.63901  0.99111  0.85794  1.0000
  H   H2369     1.0  0.71788  0.14844  0.70150  1.0000
  C   C1973     1.0  0.58822  0.99866  0.74623  1.0000
  S   S521      1.0  0.57725  0.11978  0.49418  1.0000
  H   H2370     1.0  0.61376  0.99007  0.72616  1.0000
  H   H2371     1.0  0.52548  0.08001  0.76093  1.0000
  C   C1974     1.0  0.52960  0.07962  0.49834  1.0000
  H   H2372     1.0  0.53999  0.23686  0.91865  1.0000
  Fe  Fe257     1.0  0.62692  0.99450  0.82302  1.0000
  H   H2373     1.0  0.65612  0.22856  0.51987  1.0000
  H   H2374     1.0  0.71471  0.15224  0.65364  1.0000
  C   C1975     1.0  0.49400  0.10232  0.78019  1.0000
  C   C1976     1.0  0.58053  0.22839  0.96842  1.0000
  N   N129      1.0  0.66338  0.20743  0.51951  1.0000
  H   H2375     1.0  0.70017  0.00837  0.75897  1.0000
  C   C1977     1.0  0.52124  0.06975  0.52489  1.0000
  N   N130      1.0  0.64700  0.14231  0.95672  1.0000
  C   C1978     1.0  0.51683  0.08622  0.76620  1.0000
  H   H2376     1.0  0.48537  0.05163  0.55658  1.0000
  H   H2377     1.0  0.52640  0.19727  0.48081  1.0000
  H   H2378     1.0  0.65074  0.20591  0.56174  1.0000
  H   H2379     1.0  0.54044  0.26643  0.93826  1.0000
  C   C1979     1.0  0.64979  0.19860  0.51284  1.0000
  C   C1980     1.0  0.70192  0.17220  0.71992  1.0000
  H   H2380     1.0  0.71568  0.28883  0.95172  1.0000
  Fe  Fe258     1.0  0.70971  0.24636  0.48826  1.0000
  C   C1981     1.0  0.66367  0.15032  0.94681  1.0000
  C   C1982     1.0  0.70103  0.24462  0.95975  1.0000
  H   H2381     1.0  0.53509  0.09165  0.49643  1.0000
  C   C1983     1.0  0.51685  0.04289  0.57510  1.0000
  H   H2382     1.0  0.66799  0.22843  0.48620  1.0000
  H   H2383     1.0  0.62745  0.14404  0.91965  1.0000
  C   C1984     1.0  0.48540  0.12154  0.80415  1.0000
  H   H2384     1.0  0.72743  0.21605  0.61036  1.0000
  H   H2385     1.0  0.54746  0.12650  0.51207  1.0000
  C   C1985     1.0  0.71804  0.22719  0.54774  1.0000
  H   H2386     1.0  0.65148  0.99893  0.94777  1.0000
  C   C1986     1.0  0.56918  0.26634  0.91847  1.0000
  H   H2387     1.0  0.65787  0.11704  0.94959  1.0000
  C   C1987     1.0  0.71283  0.99172  0.77171  1.0000
  C   C1988     1.0  0.59047  0.02671  0.73774  1.0000
  S   S522      1.0  0.50869  0.29053  0.95962  1.0000
  C   C1989     1.0  0.56111  0.23951  0.95002  1.0000
  C   C1990     1.0  0.64662  0.10987  0.91963  1.0000
  H   H2388     1.0  0.66065  0.19091  0.55948  1.0000
  C   C1991     1.0  0.69976  0.99768  0.77387  1.0000
  H   H2389     1.0  0.67108  0.14207  0.94820  1.0000
  N   N131      1.0  0.50591  0.04365  0.55705  1.0000
  H   H2390     1.0  0.69726  0.23237  0.96156  1.0000
  H   H2391     1.0  0.63156  0.16102  0.51713  1.0000
  C   C1992     1.0  0.49337  0.04998  0.57029  1.0000
  C   C1993     1.0  0.63834  0.15444  0.95665  1.0000
  H   H2392     1.0  0.56192  0.15528  0.54703  1.0000
  H   H2393     1.0  0.67738  0.19114  0.51424  1.0000
  N   N132      1.0  0.56855  0.10582  0.62084  1.0000
  C   C1994     1.0  0.55313  0.09498  0.63478  1.0000
  C   C1995     1.0  0.57852  0.09689  0.60764  1.0000
  C   C1996     1.0  0.57523  0.11099  0.64290  1.0000
  C   C1997     1.0  0.56711  0.11949  0.60036  1.0000
  C   C1998     1.0  0.57578  0.12452  0.57147  1.0000
  C   C1999     1.0  0.55687  0.12838  0.60923  1.0000
  C   C2000     1.0  0.57400  0.13741  0.55274  1.0000
  C   C2001     1.0  0.55504  0.14113  0.59019  1.0000
  C   C2002     1.0  0.56354  0.14559  0.56195  1.0000
  H   H2394     1.0  0.54706  0.09195  0.61881  1.0000
  H   H2395     1.0  0.55392  0.08396  0.64843  1.0000
  H   H2396     1.0  0.54549  0.09983  0.64883  1.0000
  H   H2397     1.0  0.57407  0.09268  0.59080  1.0000
  H   H2398     1.0  0.57896  0.08642  0.62346  1.0000
  H   H2399     1.0  0.59064  0.10395  0.59834  1.0000
  H   H2400     1.0  0.56771  0.11664  0.65548  1.0000
  H   H2401     1.0  0.57688  0.10107  0.65835  1.0000
  C   C2003     1.0  0.57299  0.01148  0.71810  1.0000
  S   S523      1.0  0.48501  0.17584  0.86103  1.0000
  C   C2004     1.0  0.50835  0.10571  0.78726  1.0000
  H   H2402     1.0  0.67604  0.99440  0.79656  1.0000
  C   C2005     1.0  0.55056  0.24661  0.90997  1.0000
  H   H2403     1.0  0.48927  0.25250  0.88096  1.0000
  H   H2404     1.0  0.67634  0.23086  0.51461  1.0000
  H   H2405     1.0  0.55933  0.24247  0.89665  1.0000
  H   H2406     1.0  0.52042  0.07463  0.54280  1.0000
  C   C2006     1.0  0.49192  0.31984  0.83745  1.0000
  C   C2007     1.0  0.64989  0.11951  0.93713  1.0000
  H   H2407     1.0  0.61502  0.17445  0.49303  1.0000
  Fe  Fe259     1.0  0.51244  0.31655  0.94101  1.0000
  C   C2008     1.0  0.72737  0.14797  0.68508  1.0000
  H   H2408     1.0  0.66323  0.99094  0.90929  1.0000
  C   C2009     1.0  0.71787  0.26606  0.97014  1.0000
  C   C2010     1.0  0.63980  0.20587  0.49954  1.0000
  C   C2011     1.0  0.49175  0.09064  0.76561  1.0000
  H   H2409     1.0  0.50198  0.31706  0.84327  1.0000
  H   H2410     1.0  0.66699  0.15839  0.95965  1.0000
  C   C2012     1.0  0.63296  0.13459  0.92073  1.0000
  H   H2411     1.0  0.65318  0.17577  0.52998  1.0000
  H   H2412     1.0  0.62205  0.12698  0.88998  1.0000
  H   H2413     1.0  0.61996  0.20292  0.48246  1.0000
  C   C2013     1.0  0.62975  0.12486  0.90337  1.0000
  H   H2414     1.0  0.51125  0.03477  0.59653  1.0000
  H   H2415     1.0  0.68337  0.21709  0.80783  1.0000
  C   C2014     1.0  0.64313  0.13215  0.93831  1.0000
  H   H2416     1.0  0.64161  0.21832  0.49317  1.0000
  H   H2417     1.0  0.63415  0.10514  0.88904  1.0000
  H   H2418     1.0  0.53832  0.22330  0.96360  1.0000
  H   H2419     1.0  0.49069  0.12845  0.74743  1.0000
  S   S524      1.0  0.48580  0.19927  0.91716  1.0000
  C   C2015     1.0  0.64049  0.99047  0.95687  1.0000
  C   C2016     1.0  0.54398  0.25664  0.95056  1.0000
  H   H2420     1.0  0.48647  0.29974  0.82166  1.0000
  H   H2421     1.0  0.54980  0.22662  0.48236  1.0000
  H   H2422     1.0  0.63545  0.99072  0.91654  1.0000
  H   H2423     1.0  0.52438  0.31880  0.48468  1.0000
  S   S525      1.0  0.72969  0.00168  0.74458  1.0000
  H   H2424     1.0  0.59471  0.99160  0.79765  1.0000
  C   C2017     1.0  0.73143  0.22658  0.52915  1.0000
  H   H2425     1.0  0.49019  0.02711  0.54443  1.0000
  H   H2426     1.0  0.49268  0.02013  0.57893  1.0000
  H   H2427     1.0  0.48648  0.04217  0.59137  1.0000
  H   H2428     1.0  0.54772  0.26035  0.96843  1.0000
  H   H2429     1.0  0.68200  0.99248  0.88768  1.0000
  H   H2430     1.0  0.48418  0.28890  0.93138  1.0000
  H   H2431     1.0  0.50069  0.25728  0.97608  1.0000
  H   H2432     1.0  0.73167  0.12937  0.76261  1.0000
  H   H2433     1.0  0.65691  0.56958  0.02907  1.0000
  H   H2434     1.0  0.70938  0.60978  0.13317  1.0000
  S   S526      1.0  0.56359  0.42367  0.37165  1.0000
  Fe  Fe260     1.0  0.50994  0.43877  0.27376  1.0000
  S   S527      1.0  0.52199  0.42511  0.24858  1.0000
  S   S528      1.0  0.50707  0.43372  0.32118  1.0000
  Fe  Fe261     1.0  0.55472  0.37663  0.45284  1.0000
  S   S529      1.0  0.51199  0.44297  0.19415  1.0000
  Fe  Fe262     1.0  0.50135  0.42174  0.23065  1.0000
  C   C2018     1.0  0.49157  0.57616  0.16122  1.0000
  Fe  Fe263     1.0  0.53146  0.44771  0.21473  1.0000
  S   S530      1.0  0.55662  0.45422  0.19000  1.0000
  S   S531      1.0  0.52077  0.46176  0.24125  1.0000
  C   C2019     1.0  0.56393  0.63237  0.14462  1.0000
  Fe  Fe264     1.0  0.65993  0.53338  0.17304  1.0000
  S   S532      1.0  0.64095  0.54570  0.17408  1.0000
  S   S533      1.0  0.67535  0.53440  0.20359  1.0000
  Fe  Fe265     1.0  0.65053  0.51763  0.12801  1.0000
  S   S534      1.0  0.63125  0.52915  0.12553  1.0000
  S   S535      1.0  0.65688  0.50156  0.10082  1.0000
  Fe  Fe266     1.0  0.64792  0.55063  0.12663  1.0000
  S   S536      1.0  0.65069  0.57326  0.09415  1.0000
  Fe  Fe267     1.0  0.62595  0.52314  0.17294  1.0000
  S   S537      1.0  0.60123  0.51459  0.19976  1.0000
  S   S538      1.0  0.66787  0.53962  0.12544  1.0000
  S   S539      1.0  0.64426  0.51024  0.17574  1.0000
  H   H2435     1.0  0.64779  0.56427  0.00301  1.0000
  N   N133      1.0  0.68541  0.48666  0.36980  1.0000
  H   H2436     1.0  0.49749  0.53832  0.21509  1.0000
  S   S540      1.0  0.61439  0.47113  0.03058  1.0000
  S   S541      1.0  0.61814  0.43062  0.01365  1.0000
  H   H2437     1.0  0.67350  0.49223  0.40705  1.0000
  H   H2438     1.0  0.49912  0.60043  0.13847  1.0000
  S   S542      1.0  0.57566  0.39234  0.41925  1.0000
  C   C2020     1.0  0.71315  0.33360  0.47049  1.0000
  C   C2021     1.0  0.61054  0.62964  0.12537  1.0000
  H   H2439     1.0  0.58367  0.45355  0.31413  1.0000
  C   C2022     1.0  0.71666  0.34758  0.44979  1.0000
  H   H2440     1.0  0.68212  0.60638  0.15204  1.0000
  C   C2023     1.0  0.50718  0.39319  0.30832  1.0000
  C   C2024     1.0  0.61838  0.43742  0.45753  1.0000
  S   S543      1.0  0.65239  0.63427  0.13646  1.0000
  C   C2025     1.0  0.49981  0.36268  0.04783  1.0000
  H   H2441     1.0  0.66688  0.56201  0.00228  1.0000
  C   C2026     1.0  0.71532  0.52551  0.39107  1.0000
  S   S544      1.0  0.70092  0.46284  0.44937  1.0000
  H   H2442     1.0  0.63083  0.54273  0.99822  1.0000
  S   S545      1.0  0.49014  0.62704  0.21129  1.0000
  H   H2443     1.0  0.60981  0.63874  0.10725  1.0000
  C   C2027     1.0  0.65923  0.54220  0.05435  1.0000
  S   S546      1.0  0.54276  0.35046  0.46483  1.0000
  C   C2028     1.0  0.50661  0.59619  0.17665  1.0000
  S   S547      1.0  0.60798  0.40621  0.45881  1.0000
  C   C2029     1.0  0.64471  0.49290  0.08204  1.0000
  C   C2030     1.0  0.64961  0.48269  0.06679  1.0000
  C   C2031     1.0  0.64050  0.47595  0.05086  1.0000
  C   C2032     1.0  0.62645  0.47953  0.04980  1.0000
  C   C2033     1.0  0.62151  0.48968  0.06515  1.0000
  C   C2034     1.0  0.63054  0.49628  0.08130  1.0000
  H   H2444     1.0  0.66055  0.47999  0.06727  1.0000
  H   H2445     1.0  0.64439  0.46807  0.03933  1.0000
  H   H2446     1.0  0.61069  0.49256  0.06440  1.0000
  H   H2447     1.0  0.62658  0.50402  0.09306  1.0000
  C   C2035     1.0  0.65093  0.59020  0.10597  1.0000
  C   C2036     1.0  0.64863  0.58958  0.13475  1.0000
  C   C2037     1.0  0.64887  0.60317  0.14374  1.0000
  C   C2038     1.0  0.65158  0.61753  0.12403  1.0000
  C   C2039     1.0  0.65384  0.61823  0.09522  1.0000
  C   C2040     1.0  0.65348  0.60457  0.08623  1.0000
  H   H2448     1.0  0.64664  0.57863  0.15012  1.0000
  H   H2449     1.0  0.64706  0.60253  0.16608  1.0000
  H   H2450     1.0  0.65598  0.62926  0.07984  1.0000
  H   H2451     1.0  0.65528  0.60514  0.06391  1.0000
  H   H2452     1.0  0.52079  0.36870  0.41731  1.0000
  H   H2453     1.0  0.62717  0.64757  0.14795  1.0000
  H   H2454     1.0  0.61242  0.65049  0.17376  1.0000
  C   C2041     1.0  0.56890  0.47160  0.19089  1.0000
  C   C2042     1.0  0.58495  0.47415  0.18117  1.0000
  C   C2043     1.0  0.59501  0.48761  0.18274  1.0000
  C   C2044     1.0  0.58905  0.49851  0.19434  1.0000
  C   C2045     1.0  0.57301  0.49607  0.20367  1.0000
  C   C2046     1.0  0.56297  0.48273  0.20176  1.0000
  H   H2455     1.0  0.58967  0.46557  0.17296  1.0000
  H   H2456     1.0  0.60737  0.48936  0.17564  1.0000
  H   H2457     1.0  0.56833  0.50452  0.21249  1.0000
  H   H2458     1.0  0.55067  0.48106  0.20882  1.0000
  C   C2047     1.0  0.54741  0.42523  0.35826  1.0000
  C   C2048     1.0  0.53276  0.42286  0.37615  1.0000
  C   C2049     1.0  0.52043  0.42536  0.36452  1.0000
  C   C2050     1.0  0.52263  0.43003  0.33500  1.0000
  C   C2051     1.0  0.53716  0.43189  0.31712  1.0000
  C   C2052     1.0  0.54950  0.42954  0.32876  1.0000
  H   H2459     1.0  0.53102  0.41951  0.39890  1.0000
  H   H2460     1.0  0.50922  0.42390  0.37848  1.0000
  H   H2461     1.0  0.53898  0.43551  0.29438  1.0000
  H   H2462     1.0  0.56075  0.43113  0.31490  1.0000
  H   H2463     1.0  0.54313  0.35314  0.40480  1.0000
  C   C2053     1.0  0.72745  0.41826  0.01531  1.0000
  H   H2464     1.0  0.51471  0.36334  0.00790  1.0000
  C   C2054     1.0  0.53264  0.46818  0.33083  1.0000
  H   H2465     1.0  0.68437  0.62423  0.12690  1.0000
  C   C2055     1.0  0.58842  0.63400  0.15803  1.0000
  S   S548      1.0  0.54028  0.39378  0.44827  1.0000
  C   C2056     1.0  0.71391  0.57549  0.20410  1.0000
  C   C2057     1.0  0.70710  0.57641  0.18123  1.0000
  C   C2058     1.0  0.69510  0.56410  0.18091  1.0000
  C   C2059     1.0  0.68992  0.55059  0.20337  1.0000
  C   C2060     1.0  0.69689  0.54960  0.22606  1.0000
  C   C2061     1.0  0.70875  0.56197  0.22651  1.0000
  H   H2466     1.0  0.71120  0.58664  0.16355  1.0000
  H   H2467     1.0  0.68999  0.56494  0.16315  1.0000
  H   H2468     1.0  0.69301  0.53919  0.24347  1.0000
  H   H2469     1.0  0.71377  0.56108  0.24434  1.0000
  C   C2062     1.0  0.53436  0.33753  0.44654  1.0000
  C   C2063     1.0  0.70338  0.64237  0.15148  1.0000
  H   H2470     1.0  0.72351  0.62514  0.13730  1.0000
  H   H2471     1.0  0.70221  0.53412  0.14701  1.0000
  H   H2472     1.0  0.71720  0.40682  0.08722  1.0000
  H   H2473     1.0  0.58108  0.49451  0.25641  1.0000
  Fe  Fe268     1.0  0.71329  0.48810  0.43847  1.0000
  C   C2064     1.0  0.72031  0.39218  0.04495  1.0000
  H   H2474     1.0  0.48765  0.41353  0.17667  1.0000
  H   H2475     1.0  0.68381  0.64743  0.13534  1.0000
  C   C2065     1.0  0.52342  0.37487  0.39508  1.0000
  C   C2066     1.0  0.72437  0.36133  0.45432  1.0000
  C   C2067     1.0  0.69627  0.47689  0.36418  1.0000
  C   C2068     1.0  0.69778  0.42280  0.04941  1.0000
  H   H2476     1.0  0.69170  0.61993  0.19956  1.0000
  C   C2069     1.0  0.69132  0.50301  0.35252  1.0000
  C   C2070     1.0  0.70645  0.50902  0.33409  1.0000
  C   C2071     1.0  0.68196  0.51362  0.35447  1.0000
  C   C2072     1.0  0.71168  0.52459  0.31841  1.0000
  C   C2073     1.0  0.68734  0.52917  0.33875  1.0000
  C   C2074     1.0  0.70217  0.53464  0.32075  1.0000
  H   H2477     1.0  0.70722  0.48104  0.36987  1.0000
  H   H2478     1.0  0.53870  0.37384  0.02046  1.0000
  H   H2479     1.0  0.69904  0.47668  0.34154  1.0000
  H   H2480     1.0  0.67512  0.62147  0.16388  1.0000
  C   C2075     1.0  0.54218  0.39022  0.35183  1.0000
  H   H2481     1.0  0.72540  0.42602  0.06379  1.0000
  H   H2482     1.0  0.66130  0.48485  0.37106  1.0000
  N   N134      1.0  0.50206  0.38356  0.33819  1.0000
  H   H2483     1.0  0.72340  0.52905  0.30511  1.0000
  H   H2484     1.0  0.71468  0.50208  0.33202  1.0000
  H   H2485     1.0  0.67048  0.51003  0.36854  1.0000
  H   H2486     1.0  0.51179  0.58882  0.21649  1.0000
  H   H2487     1.0  0.71296  0.62915  0.11119  1.0000
  C   C2076     1.0  0.48368  0.36526  0.12286  1.0000
  C   C2077     1.0  0.51412  0.36574  0.02843  1.0000
  H   H2488     1.0  0.53409  0.39728  0.31583  1.0000
  H   H2489     1.0  0.70953  0.53304  0.47599  1.0000
  C   C2078     1.0  0.62172  0.42297  0.45954  1.0000
  H   H2490     1.0  0.65988  0.41309  0.05005  1.0000
  H   H2491     1.0  0.66344  0.52040  0.03197  1.0000
  C   C2079     1.0  0.62915  0.45006  0.46042  1.0000
  H   H2492     1.0  0.62290  0.62939  0.12170  1.0000
  H   H2493     1.0  0.70626  0.43305  0.04886  1.0000
  S   S549      1.0  0.72720  0.56972  0.34225  1.0000
  C   C2080     1.0  0.49463  0.36756  0.33815  1.0000
  N   N135      1.0  0.57943  0.47243  0.28502  1.0000
  C   C2081     1.0  0.65561  0.52186  0.01873  1.0000
  C   C2082     1.0  0.61483  0.64776  0.15296  1.0000
  H   H2494     1.0  0.54773  0.38252  0.39128  1.0000
  H   H2495     1.0  0.70144  0.51827  0.19394  1.0000
  H   H2496     1.0  0.57364  0.46901  0.24656  1.0000
  C   C2083     1.0  0.71050  0.54320  0.45814  1.0000
  H   H2497     1.0  0.66637  0.46689  0.37597  1.0000
  H   H2498     1.0  0.66970  0.45414  0.99763  1.0000
  H   H2499     1.0  0.71127  0.61887  0.18726  1.0000
  C   C2084     1.0  0.69017  0.39652  0.04537  1.0000
  H   H2500     1.0  0.70820  0.53895  0.43979  1.0000
  C   C2085     1.0  0.52761  0.37171  0.03543  1.0000
  H   H2501     1.0  0.65946  0.50198  0.00428  1.0000
  C   C2086     1.0  0.52919  0.33120  0.40381  1.0000
  H   H2502     1.0  0.48531  0.36739  0.32692  1.0000
  S   S550      1.0  0.57033  0.42107  0.44870  1.0000
  C   C2087     1.0  0.63729  0.53404  0.00009  1.0000
  H   H2503     1.0  0.56153  0.64397  0.20505  1.0000
  S   S551      1.0  0.48874  0.39716  0.23297  1.0000
  H   H2504     1.0  0.62791  0.53180  0.06653  1.0000
  C   C2088     1.0  0.68269  0.42410  0.05127  1.0000
  H   H2505     1.0  0.72645  0.56312  0.40661  1.0000
  C   C2089     1.0  0.55840  0.46560  0.33127  1.0000
  H   H2506     1.0  0.65482  0.53050  0.06961  1.0000
  H   H2507     1.0  0.67123  0.54337  0.04225  1.0000
  C   C2090     1.0  0.64355  0.44856  0.46483  1.0000
  C   C2091     1.0  0.71533  0.54093  0.37936  1.0000
  C   C2092     1.0  0.67141  0.41178  0.04987  1.0000
  H   H2508     1.0  0.59837  0.60898  0.17675  1.0000
  H   H2509     1.0  0.72616  0.39103  0.45960  1.0000
  C   C2093     1.0  0.68474  0.61918  0.14902  1.0000
  Fe  Fe269     1.0  0.50061  0.45572  0.22289  1.0000
  H   H2510     1.0  0.69139  0.46463  0.37717  1.0000
  H   H2511     1.0  0.67834  0.47409  0.41407  1.0000
  H   H2512     1.0  0.48450  0.38252  0.37555  1.0000
  H   H2513     1.0  0.51272  0.37444  0.10132  1.0000
  C   C2094     1.0  0.55256  0.47546  0.28679  1.0000
  C   C2095     1.0  0.53735  0.47389  0.30145  1.0000
  C   C2096     1.0  0.49114  0.56457  0.18569  1.0000
  H   H2514     1.0  0.55563  0.47999  0.26401  1.0000
  H   H2515     1.0  0.52906  0.47681  0.28994  1.0000
  H   H2516     1.0  0.53936  0.45939  0.36853  1.0000
  C   C2097     1.0  0.49852  0.36545  0.07503  1.0000
  C   C2098     1.0  0.57910  0.46394  0.26282  1.0000
  H   H2517     1.0  0.70646  0.54681  0.30917  1.0000
  C   C2099     1.0  0.72732  0.55037  0.35618  1.0000
  H   H2518     1.0  0.71297  0.38376  0.06507  1.0000
  C   C2100     1.0  0.71197  0.62225  0.13305  1.0000
  C   C2101     1.0  0.71210  0.53643  0.15567  1.0000
  H   H2519     1.0  0.57254  0.45159  0.27215  1.0000
  H   H2520     1.0  0.48732  0.52540  0.19929  1.0000
  C   C2102     1.0  0.54317  0.46419  0.34571  1.0000
  H   H2521     1.0  0.58778  0.64078  0.19755  1.0000
  C   C2103     1.0  0.64743  0.53360  0.01807  1.0000
  H   H2522     1.0  0.48815  0.37796  0.11967  1.0000
  N   N136      1.0  0.48272  0.54809  0.19153  1.0000
  C   C2104     1.0  0.51250  0.37181  0.08134  1.0000
  C   C2105     1.0  0.55769  0.63718  0.16807  1.0000
  H   H2523     1.0  0.48493  0.54744  0.14802  1.0000
  C   C2106     1.0  0.69969  0.61678  0.18301  1.0000
  H   H2524     1.0  0.60075  0.46688  0.29004  1.0000
  H   H2525     1.0  0.59091  0.46424  0.25093  1.0000
  Fe  Fe270     1.0  0.56157  0.41003  0.41660  1.0000
  S   S552      1.0  0.66059  0.42462  0.98447  1.0000
  H   H2526     1.0  0.51541  0.38863  0.29472  1.0000
  C   C2107     1.0  0.51480  0.38322  0.35220  1.0000
  Fe  Fe271     1.0  0.62118  0.45650  0.00071  1.0000
  H   H2527     1.0  0.48349  0.33768  0.11233  1.0000
  N   N137      1.0  0.58314  0.44629  0.11221  1.0000
  C   C2108     1.0  0.58263  0.46272  0.10903  1.0000
  C   C2109     1.0  0.57451  0.43708  0.14146  1.0000
  C   C2110     1.0  0.59950  0.44571  0.10882  1.0000
  C   C2111     1.0  0.57598  0.44022  0.09145  1.0000
  C   C2112     1.0  0.56019  0.43944  0.09278  1.0000
  C   C2113     1.0  0.58430  0.43524  0.06926  1.0000
  C   C2114     1.0  0.55315  0.43380  0.07342  1.0000
  C   C2115     1.0  0.57712  0.42960  0.05005  1.0000
  C   C2116     1.0  0.56160  0.42886  0.05212  1.0000
  H   H2528     1.0  0.57064  0.46395  0.11507  1.0000
  H   H2529     1.0  0.58889  0.46816  0.12274  1.0000
  H   H2530     1.0  0.58804  0.46972  0.08667  1.0000
  H   H2531     1.0  0.56242  0.43804  0.14700  1.0000
  H   H2532     1.0  0.57979  0.44111  0.15762  1.0000
  H   H2533     1.0  0.57413  0.42455  0.14436  1.0000
  H   H2534     1.0  0.60072  0.43364  0.11121  1.0000
  H   H2535     1.0  0.60688  0.45302  0.08781  1.0000
  H   H2536     1.0  0.60450  0.45028  0.12481  1.0000
  H   H2537     1.0  0.55323  0.44335  0.10869  1.0000
  H   H2538     1.0  0.59645  0.43583  0.06591  1.0000
  H   H2539     1.0  0.54110  0.43338  0.07479  1.0000
  H   H2540     1.0  0.58366  0.42591  0.03317  1.0000
  H   H2541     1.0  0.55623  0.42458  0.03692  1.0000
  N   N138      1.0  0.60464  0.63292  0.15291  1.0000
  C   C2117     1.0  0.49322  0.53785  0.19598  1.0000
  C   C2118     1.0  0.60605  0.62032  0.17571  1.0000
  H   H2542     1.0  0.55718  0.63052  0.12961  1.0000
  H   H2543     1.0  0.69231  0.38568  0.04247  1.0000
  H   H2544     1.0  0.67226  0.48027  0.34116  1.0000
  C   C2119     1.0  0.49927  0.59169  0.15686  1.0000
  H   H2545     1.0  0.59065  0.47256  0.31898  1.0000
  C   C2120     1.0  0.67870  0.43614  0.98395  1.0000
  N   N139      1.0  0.71820  0.40807  0.04337  1.0000
  C   C2121     1.0  0.67074  0.47940  0.36417  1.0000
  S   S553      1.0  0.48880  0.47248  0.20105  1.0000
  C   C2122     1.0  0.71681  0.64989  0.15803  1.0000
  C   C2123     1.0  0.49877  0.56958  0.20539  1.0000
  H   H2546     1.0  0.49079  0.35891  0.13410  1.0000
  H   H2547     1.0  0.70593  0.54551  0.38799  1.0000
  H   H2548     1.0  0.62627  0.46106  0.45943  1.0000
  H   H2549     1.0  0.71777  0.38797  0.02666  1.0000
  C   C2124     1.0  0.72733  0.51947  0.37968  1.0000
  C   C2125     1.0  0.56641  0.64008  0.18696  1.0000
  C   C2126     1.0  0.72449  0.41350  0.06567  1.0000
  H   H2550     1.0  0.54617  0.63898  0.17119  1.0000
  H   H2551     1.0  0.60743  0.43880  0.45397  1.0000
  C   C2127     1.0  0.53050  0.39070  0.33779  1.0000
  N   N140      1.0  0.64897  0.54488  0.03535  1.0000
  C   C2128     1.0  0.65540  0.56086  0.01655  1.0000
  C   C2129     1.0  0.63359  0.54392  0.05347  1.0000
  H   H2552     1.0  0.51208  0.60835  0.17361  1.0000
  H   H2553     1.0  0.60298  0.62255  0.19691  1.0000
  H   H2554     1.0  0.65812  0.43286  0.46914  1.0000
  C   C2130     1.0  0.53863  0.38251  0.38045  1.0000
  N   N141      1.0  0.69989  0.62545  0.15410  1.0000
  S   S554      1.0  0.72876  0.59148  0.20385  1.0000
  H   H2555     1.0  0.66005  0.55072  0.06728  1.0000
  H   H2556     1.0  0.69588  0.60397  0.18638  1.0000
  H   H2557     1.0  0.70091  0.54850  0.46508  1.0000
  C   C2131     1.0  0.68246  0.48621  0.40025  1.0000
  S   S555      1.0  0.72762  0.50017  0.39389  1.0000
  S   S556      1.0  0.48862  0.43411  0.25801  1.0000
  H   H2558     1.0  0.53071  0.33470  0.38112  1.0000
  Fe  Fe272     1.0  0.58333  0.40261  0.45302  1.0000
  C   C2132     1.0  0.50636  0.58516  0.20086  1.0000
  C   C2133     1.0  0.70196  0.40889  0.04676  1.0000
  H   H2559     1.0  0.49864  0.56153  0.22478  1.0000
  C   C2134     1.0  0.64713  0.43426  0.46579  1.0000
  H   H2560     1.0  0.60418  0.61808  0.12448  1.0000
  C   C2135     1.0  0.71171  0.52745  0.18219  1.0000
  H   H2561     1.0  0.48931  0.35985  0.35994  1.0000
  H   H2562     1.0  0.62568  0.54774  0.04100  1.0000
  H   H2563     1.0  0.52071  0.46647  0.34201  1.0000
  C   C2136     1.0  0.53616  0.34178  0.41723  1.0000
  H   H2564     1.0  0.51269  0.40544  0.30704  1.0000
  C   C2137     1.0  0.51166  0.37510  0.38121  1.0000
  H   H2565     1.0  0.58322  0.62744  0.12048  1.0000
  H   H2566     1.0  0.66638  0.38866  0.04502  1.0000
  H   H2567     1.0  0.50007  0.36890  0.39344  1.0000
  C   C2138     1.0  0.52680  0.37485  0.06171  1.0000
  H   H2568     1.0  0.69319  0.49184  0.40504  1.0000
  C   C2139     1.0  0.67514  0.39804  0.04689  1.0000
  H   H2569     1.0  0.71365  0.34765  0.42991  1.0000
  H   H2570     1.0  0.55405  0.39631  0.34074  1.0000
  H   H2571     1.0  0.55248  0.39860  0.98214  1.0000
  H   H2572     1.0  0.59917  0.49065  0.25810  1.0000
  H   H2573     1.0  0.67988  0.43498  0.05255  1.0000
  C   C2140     1.0  0.58150  0.63838  0.18227  1.0000
  C   C2141     1.0  0.57906  0.63080  0.13950  1.0000
  C   C2142     1.0  0.58723  0.48903  0.27112  1.0000
  H   H2574     1.0  0.56572  0.46176  0.34419  1.0000
  H   H2575     1.0  0.53737  0.37956  0.06691  1.0000
  H   H2576     1.0  0.63442  0.55148  0.06820  1.0000
  S   S557      1.0  0.65632  0.46478  0.46971  1.0000
  H   H2577     1.0  0.58791  0.49586  0.28699  1.0000
  H   H2578     1.0  0.72681  0.43051  0.01290  1.0000
  C   C2143     1.0  0.56351  0.47108  0.30118  1.0000
  C   C2144     1.0  0.58899  0.46606  0.30291  1.0000
  H   H2579     1.0  0.70593  0.51830  0.40862  1.0000
  H   H2580     1.0  0.49586  0.40165  0.35592  1.0000
  C   C2145     1.0  0.69410  0.65195  0.14136  1.0000
  H   H2581     1.0  0.68007  0.53713  0.34079  1.0000
  H   H2582     1.0  0.72460  0.64344  0.16520  1.0000
  H   H2583     1.0  0.72340  0.41433  0.99788  1.0000
  H   H2584     1.0  0.50343  0.54108  0.17739  1.0000
  S   S558      1.0  0.69327  0.49526  0.46116  1.0000
  H   H2585     1.0  0.72701  0.37183  0.43745  1.0000
  H   H2586     1.0  0.61811  0.61900  0.17215  1.0000
  H   H2587     1.0  0.50320  0.36218  0.32734  1.0000
  S   S559      1.0  0.72435  0.48576  0.47474  1.0000
  S   S560      1.0  0.72543  0.46498  0.98638  1.0000
  H   H2588     1.0  0.63902  0.41048  0.46479  1.0000
  Fe  Fe273     1.0  0.68118  0.46968  0.47436  1.0000
  C   C2146     1.0  0.63625  0.42156  0.46333  1.0000
  C   C2147     1.0  0.65341  0.51108  0.00286  1.0000
  H   H2589     1.0  0.72510  0.55567  0.12028  1.0000
  C   C2148     1.0  0.49040  0.39003  0.35385  1.0000
  C   C2149     1.0  0.72495  0.54861  0.14078  1.0000
  H   H2590     1.0  0.49736  0.39353  0.29842  1.0000
  H   H2591     1.0  0.72278  0.52345  0.21507  1.0000
  C   C2150     1.0  0.72409  0.53067  0.19419  1.0000
  S   S561      1.0  0.58291  0.41435  0.98209  1.0000
  Fe  Fe274     1.0  0.50238  0.64927  0.17671  1.0000
  C   C2151     1.0  0.67992  0.45017  0.99144  1.0000
  H   H2592     1.0  0.69513  0.46952  0.99830  1.0000
  H   H2593     1.0  0.63482  0.64429  0.98648  1.0000
  H   H2594     1.0  0.48570  0.57367  0.14546  1.0000
  S   S562      1.0  0.50957  0.65026  0.13053  1.0000
  C   C2152     1.0  0.69434  0.45882  0.99196  1.0000
  H   H2595     1.0  0.48975  0.35793  0.04135  1.0000
  C   C2153     1.0  0.63501  0.52304  0.98467  1.0000
  H   H2596     1.0  0.71647  0.57243  0.43006  1.0000
  N   N142      1.0  0.48321  0.36140  0.09557  1.0000
  Fe  Fe275     1.0  0.64078  0.43574  0.98078  1.0000
  C   C2154     1.0  0.70770  0.45361  0.98490  1.0000
  H   H2597     1.0  0.59275  0.65096  0.98820  1.0000
  C   C2155     1.0  0.64296  0.51150  0.98625  1.0000
  C   C2156     1.0  0.72682  0.56085  0.47525  1.0000
  C   C2157     1.0  0.72647  0.56727  0.42602  1.0000
  N   N143      1.0  0.72584  0.55446  0.45051  1.0000
  H   H2598     1.0  0.72564  0.52488  0.44140  1.0000
  H   H2599     1.0  0.70758  0.32288  0.46656  1.0000
  S   S563      1.0  0.48394  0.35356  0.98209  1.0000
  C   C2158     1.0  0.52573  0.32238  0.46206  1.0000
  C   C2159     1.0  0.72889  0.36144  0.47981  1.0000
  H   H2600     1.0  0.59896  0.39858  0.94394  1.0000
  Fe  Fe276     1.0  0.53931  0.45515  0.68391  1.0000
  S   S564      1.0  0.53304  0.47225  0.65166  1.0000
  S   S565      1.0  0.55669  0.45926  0.70964  1.0000
  Fe  Fe277     1.0  0.51212  0.42839  0.68586  1.0000
  S   S566      1.0  0.50378  0.44338  0.65355  1.0000
  H   H2601     1.0  0.51708  0.58924  0.71394  1.0000
  Fe  Fe278     1.0  0.52912  0.45249  0.63091  1.0000
  S   S567      1.0  0.53879  0.45742  0.58341  1.0000
  Fe  Fe279     1.0  0.50832  0.46177  0.67674  1.0000
  C   C2160     1.0  0.50895  0.33759  0.53478  1.0000
  S   S568      1.0  0.53713  0.43611  0.66175  1.0000
  S   S569      1.0  0.51500  0.44606  0.71032  1.0000
  H   H2602     1.0  0.50991  0.65038  0.66713  1.0000
  S   S570      1.0  0.68943  0.46604  0.51425  1.0000
  H   H2603     1.0  0.72676  0.55167  0.49390  1.0000
  H   H2604     1.0  0.71477  0.47821  0.56697  1.0000
  C   C2161     1.0  0.66493  0.57766  0.73611  1.0000
  H   H2605     1.0  0.48872  0.60266  0.66273  1.0000
  Fe  Fe280     1.0  0.70332  0.49099  0.49856  1.0000
  S   S571      1.0  0.70371  0.50647  0.52890  1.0000
  C   C2162     1.0  0.72791  0.38769  0.48118  1.0000
  H   H2606     1.0  0.63156  0.45655  0.54735  1.0000
  C   C2163     1.0  0.52364  0.35778  0.77737  1.0000
  C   C2164     1.0  0.73102  0.45633  0.57457  1.0000
  H   H2607     1.0  0.48749  0.52691  0.65740  1.0000
  S   S572      1.0  0.56170  0.65066  0.74262  1.0000
  S   S573      1.0  0.53502  0.40270  0.52288  1.0000
  C   C2165     1.0  0.68591  0.47383  0.86894  1.0000
  H   H2608     1.0  0.64493  0.43634  0.53896  1.0000
  C   C2166     1.0  0.58553  0.44488  0.51178  1.0000
  N   N144      1.0  0.58618  0.43044  0.53144  1.0000
  C   C2167     1.0  0.70701  0.45339  0.88225  1.0000
  C   C2168     1.0  0.57646  0.39999  0.96485  1.0000
  H   H2609     1.0  0.66260  0.55129  0.85836  1.0000
  Fe  Fe281     1.0  0.50825  0.34108  0.89350  1.0000
  C   C2169     1.0  0.49653  0.57105  0.72182  1.0000
  S   S574      1.0  0.50008  0.34704  0.85314  1.0000
  Fe  Fe282     1.0  0.49982  0.34339  0.95470  1.0000
  H   H2610     1.0  0.54572  0.61759  0.78882  1.0000
  Fe  Fe283     1.0  0.53376  0.34954  0.92428  1.0000
  S   S575      1.0  0.55841  0.36384  0.91892  1.0000
  S   S576      1.0  0.51485  0.36023  0.91413  1.0000
  Fe  Fe284     1.0  0.64436  0.53541  0.74146  1.0000
  S   S577      1.0  0.63490  0.55060  0.71180  1.0000
  S   S578      1.0  0.66864  0.53247  0.73164  1.0000
  Fe  Fe285     1.0  0.61396  0.52394  0.78633  1.0000
  S   S579      1.0  0.60198  0.53829  0.76023  1.0000
  S   S580      1.0  0.60078  0.50840  0.82948  1.0000
  Fe  Fe286     1.0  0.61412  0.53032  0.72436  1.0000
  S   S581      1.0  0.60377  0.52442  0.68942  1.0000
  Fe  Fe287     1.0  0.62372  0.55721  0.75030  1.0000
  S   S582      1.0  0.62397  0.58257  0.74479  1.0000
  S   S583      1.0  0.62446  0.51451  0.75117  1.0000
  S   S584      1.0  0.63479  0.54345  0.77929  1.0000
  H   H2611     1.0  0.56914  0.61372  0.75970  1.0000
  H   H2612     1.0  0.59123  0.61133  0.77891  1.0000
  H   H2613     1.0  0.66983  0.47795  0.91610  1.0000
  Fe  Fe288     1.0  0.64452  0.64168  0.83284  1.0000
  H   H2614     1.0  0.65341  0.57804  0.74798  1.0000
  Fe  Fe289     1.0  0.63153  0.45820  0.93778  1.0000
  S   S585      1.0  0.64193  0.47302  0.89285  1.0000
  S   S586      1.0  0.62937  0.43262  0.94581  1.0000
  H   H2615     1.0  0.54451  0.61959  0.83762  1.0000
  Fe  Fe290     1.0  0.50383  0.63768  0.78940  1.0000
  S   S587      1.0  0.51848  0.62450  0.76715  1.0000
  H   H2616     1.0  0.50380  0.48445  0.75285  1.0000
  S   S588      1.0  0.49184  0.32512  0.93354  1.0000
  S   S589      1.0  0.49993  0.40475  0.71588  1.0000
  Fe  Fe291     1.0  0.50810  0.63167  0.73100  1.0000
  S   S590      1.0  0.50189  0.61862  0.69916  1.0000
  S   S591      1.0  0.49210  0.64303  0.75450  1.0000
  Fe  Fe292     1.0  0.71017  0.46107  0.48805  1.0000
  S   S592      1.0  0.64754  0.61784  0.83024  1.0000
  N   N145      1.0  0.58900  0.43908  0.89061  1.0000
  H   H2617     1.0  0.72189  0.55521  0.67406  1.0000
  H   H2618     1.0  0.57875  0.43851  0.56843  1.0000
  H   H2619     1.0  0.67216  0.59499  0.79817  1.0000
  H   H2620     1.0  0.70097  0.53517  0.71155  1.0000
  C   C2170     1.0  0.48791  0.33335  0.84166  1.0000
  H   H2621     1.0  0.58988  0.62369  0.86553  1.0000
  H   H2622     1.0  0.61819  0.62483  0.82295  1.0000
  S   S593      1.0  0.72001  0.44216  0.50939  1.0000
  H   H2623     1.0  0.51345  0.37654  0.51722  1.0000
  H   H2624     1.0  0.56866  0.42516  0.88387  1.0000
  H   H2625     1.0  0.60503  0.40972  0.52450  1.0000
  C   C2171     1.0  0.61243  0.49920  0.84758  1.0000
  C   C2172     1.0  0.60610  0.48981  0.87540  1.0000
  C   C2173     1.0  0.61516  0.48199  0.88974  1.0000
  C   C2174     1.0  0.63052  0.48337  0.87615  1.0000
  C   C2175     1.0  0.63688  0.49288  0.84841  1.0000
  C   C2176     1.0  0.62790  0.50086  0.83421  1.0000
  H   H2626     1.0  0.59417  0.48857  0.88583  1.0000
  H   H2627     1.0  0.61025  0.47488  0.91122  1.0000
  H   H2628     1.0  0.64876  0.49401  0.83778  1.0000
  H   H2629     1.0  0.63286  0.50808  0.81274  1.0000
  C   C2177     1.0  0.63039  0.59228  0.76875  1.0000
  C   C2178     1.0  0.63270  0.58411  0.79388  1.0000
  C   C2179     1.0  0.63793  0.59215  0.81252  1.0000
  C   C2180     1.0  0.64092  0.60837  0.80617  1.0000
  C   C2181     1.0  0.63869  0.61656  0.78098  1.0000
  C   C2182     1.0  0.63333  0.60851  0.76240  1.0000
  H   H2630     1.0  0.63035  0.57160  0.79912  1.0000
  H   H2631     1.0  0.63951  0.58574  0.83210  1.0000
  H   H2632     1.0  0.64116  0.62910  0.77575  1.0000
  H   H2633     1.0  0.63161  0.61490  0.74290  1.0000
  C   C2183     1.0  0.56494  0.37755  0.93737  1.0000
  H   H2634     1.0  0.53747  0.38002  0.72842  1.0000
  C   C2184     1.0  0.59935  0.47288  0.80974  1.0000
  C   C2185     1.0  0.56853  0.61403  0.78146  1.0000
  C   C2186     1.0  0.58666  0.39442  0.94707  1.0000
  C   C2187     1.0  0.58092  0.38336  0.93333  1.0000
  H   H2635     1.0  0.70030  0.44788  0.87004  1.0000
  H   H2636     1.0  0.51530  0.50240  0.75504  1.0000
  H   H2637     1.0  0.58892  0.37916  0.91962  1.0000
  S   S594      1.0  0.49148  0.47337  0.69902  1.0000
  H   H2638     1.0  0.56615  0.61774  0.85781  1.0000
  H   H2639     1.0  0.69530  0.58949  0.71020  1.0000
  C   C2188     1.0  0.57970  0.42414  0.88900  1.0000
  H   H2640     1.0  0.63122  0.41289  0.52845  1.0000
  H   H2641     1.0  0.51445  0.56708  0.64737  1.0000
  C   C2189     1.0  0.56727  0.61627  0.83670  1.0000
  H   H2642     1.0  0.49155  0.57259  0.74237  1.0000
  C   C2190     1.0  0.71094  0.46978  0.91372  1.0000
  C   C2191     1.0  0.61006  0.41997  0.53027  1.0000
  C   C2192     1.0  0.59281  0.45068  0.86283  1.0000
  H   H2643     1.0  0.57276  0.51201  0.79323  1.0000
  H   H2644     1.0  0.61027  0.44686  0.90160  1.0000
  C   C2193     1.0  0.71840  0.52759  0.55281  1.0000
  C   C2194     1.0  0.56365  0.50675  0.78476  1.0000
  H   H2645     1.0  0.53022  0.34960  0.56022  1.0000
  C   C2195     1.0  0.48721  0.64534  0.64393  1.0000
  C   C2196     1.0  0.58416  0.46643  0.82579  1.0000
  H   H2646     1.0  0.68961  0.48767  0.90988  1.0000
  H   H2647     1.0  0.68784  0.46650  0.85409  1.0000
  H   H2648     1.0  0.58192  0.60278  0.87603  1.0000
  H   H2649     1.0  0.66428  0.56534  0.73648  1.0000
  C   C2197     1.0  0.69208  0.43103  0.97641  1.0000
  C   C2198     1.0  0.58017  0.41723  0.52033  1.0000
  C   C2199     1.0  0.62523  0.42162  0.53251  1.0000
  C   C2200     1.0  0.66823  0.55070  0.81472  1.0000
  C   C2201     1.0  0.49720  0.34621  0.75552  1.0000
  C   C2202     1.0  0.53728  0.44215  0.56674  1.0000
  C   C2203     1.0  0.53034  0.42675  0.58230  1.0000
  C   C2204     1.0  0.52959  0.41482  0.56846  1.0000
  C   C2205     1.0  0.53592  0.41815  0.53908  1.0000
  C   C2206     1.0  0.54275  0.43355  0.52347  1.0000
  C   C2207     1.0  0.54344  0.44551  0.53729  1.0000
  H   H2650     1.0  0.52553  0.42406  0.60497  1.0000
  H   H2651     1.0  0.52420  0.40294  0.58066  1.0000
  H   H2652     1.0  0.54735  0.43625  0.50074  1.0000
  H   H2653     1.0  0.54869  0.45742  0.52512  1.0000
  H   H2654     1.0  0.57653  0.41509  0.90950  1.0000
  H   H2655     1.0  0.57624  0.41789  0.57525  1.0000
  C   C2208     1.0  0.57009  0.47729  0.70314  1.0000
  C   C2209     1.0  0.57219  0.48941  0.67910  1.0000
  C   C2210     1.0  0.58269  0.50375  0.67500  1.0000
  C   C2211     1.0  0.59105  0.50611  0.69496  1.0000
  C   C2212     1.0  0.58902  0.49396  0.71892  1.0000
  C   C2213     1.0  0.57858  0.47960  0.72295  1.0000
  H   H2656     1.0  0.56577  0.48772  0.66364  1.0000
  H   H2657     1.0  0.58425  0.51309  0.65638  1.0000
  H   H2658     1.0  0.59538  0.49566  0.73445  1.0000
  H   H2659     1.0  0.57698  0.47027  0.74161  1.0000
  C   C2214     1.0  0.72003  0.51997  0.53112  1.0000
  C   C2215     1.0  0.49364  0.53533  0.66709  1.0000
  H   H2660     1.0  0.49701  0.33388  0.53267  1.0000
  H   H2661     1.0  0.70753  0.47703  0.92710  1.0000
  C   C2216     1.0  0.70683  0.56927  0.66199  1.0000
  C   C2217     1.0  0.69160  0.57065  0.66698  1.0000
  C   C2218     1.0  0.67972  0.55913  0.68754  1.0000
  C   C2219     1.0  0.68308  0.54643  0.70400  1.0000
  C   C2220     1.0  0.69831  0.54502  0.69898  1.0000
  C   C2221     1.0  0.71017  0.55636  0.67786  1.0000
  H   H2662     1.0  0.68897  0.58055  0.65451  1.0000
  H   H2663     1.0  0.66802  0.56019  0.69070  1.0000
  C   C2222     1.0  0.57577  0.42840  0.55967  1.0000
  H   H2664     1.0  0.60045  0.65198  0.95131  1.0000
  C   C2223     1.0  0.67220  0.55931  0.78639  1.0000
  H   H2665     1.0  0.49551  0.56045  0.62684  1.0000
  H   H2666     1.0  0.68065  0.47051  0.93926  1.0000
  H   H2667     1.0  0.49465  0.34059  0.77782  1.0000
  H   H2668     1.0  0.56839  0.41696  0.51752  1.0000
  H   H2669     1.0  0.52846  0.58621  0.66676  1.0000
  H   H2670     1.0  0.61062  0.62634  0.79254  1.0000
  H   H2671     1.0  0.53132  0.35305  0.76307  1.0000
  S   S595      1.0  0.63585  0.65217  0.92758  1.0000
  H   H2672     1.0  0.66209  0.45288  0.91007  1.0000
  H   H2673     1.0  0.59464  0.44792  0.49154  1.0000
  C   C2224     1.0  0.48469  0.60390  0.70615  1.0000
  S   S596      1.0  0.52693  0.65371  0.71184  1.0000
  H   H2674     1.0  0.51166  0.37820  0.56264  1.0000
  H   H2675     1.0  0.53206  0.36949  0.54273  1.0000
  C   C2225     1.0  0.66587  0.55803  0.83641  1.0000
  H   H2676     1.0  0.70160  0.58725  0.74233  1.0000
  N   N146      1.0  0.67713  0.58426  0.74873  1.0000
  H   H2677     1.0  0.58849  0.58751  0.83966  1.0000
  C   C2226     1.0  0.51725  0.57881  0.67913  1.0000
  H   H2678     1.0  0.53053  0.36356  0.78990  1.0000
  H   H2679     1.0  0.52404  0.39191  0.73367  1.0000
  S   S597      1.0  0.72129  0.58386  0.63566  1.0000
  C   C2227     1.0  0.55530  0.61622  0.79784  1.0000
  C   C2228     1.0  0.72524  0.34692  0.50041  1.0000
  H   H2680     1.0  0.67523  0.44351  0.89360  1.0000
  H   H2681     1.0  0.60808  0.59589  0.83934  1.0000
  H   H2682     1.0  0.58615  0.41959  0.87256  1.0000
  C   C2229     1.0  0.61016  0.44458  0.54135  1.0000
  H   H2683     1.0  0.53630  0.35646  0.52216  1.0000
  C   C2230     1.0  0.68140  0.47599  0.91670  1.0000
  H   H2684     1.0  0.71765  0.46927  0.53818  1.0000
  H   H2685     1.0  0.56839  0.44523  0.90982  1.0000
  C   C2231     1.0  0.50905  0.56793  0.66815  1.0000
  C   C2232     1.0  0.52831  0.35734  0.54153  1.0000
  N   N147      1.0  0.65365  0.52979  0.64448  1.0000
  C   C2233     1.0  0.64952  0.52339  0.67572  1.0000
  C   C2234     1.0  0.64435  0.54108  0.63817  1.0000
  C   C2235     1.0  0.64901  0.51701  0.63150  1.0000
  C   C2236     1.0  0.67052  0.53667  0.63376  1.0000
  C   C2237     1.0  0.68098  0.52747  0.63884  1.0000
  C   C2238     1.0  0.67706  0.55250  0.61829  1.0000
  C   C2239     1.0  0.69695  0.53375  0.62937  1.0000
  C   C2240     1.0  0.69305  0.55861  0.60884  1.0000
  C   C2241     1.0  0.70295  0.54930  0.61449  1.0000
  H   H2686     1.0  0.65453  0.51352  0.68245  1.0000
  H   H2687     1.0  0.65382  0.53240  0.68605  1.0000
  H   H2688     1.0  0.63679  0.51905  0.68483  1.0000
  H   H2689     1.0  0.64638  0.54597  0.61495  1.0000
  H   H2690     1.0  0.64681  0.55072  0.64831  1.0000
  H   H2691     1.0  0.63174  0.53556  0.64649  1.0000
  H   H2692     1.0  0.65446  0.50736  0.63727  1.0000
  H   H2693     1.0  0.63628  0.51184  0.63860  1.0000
  H   H2694     1.0  0.65232  0.52124  0.60794  1.0000
  H   H2695     1.0  0.67688  0.51540  0.65059  1.0000
  H   H2696     1.0  0.67014  0.56052  0.61372  1.0000
  H   H2697     1.0  0.70474  0.52663  0.63403  1.0000
  H   H2698     1.0  0.69789  0.57083  0.59800  1.0000
  H   H2699     1.0  0.71531  0.55432  0.60804  1.0000
  H   H2700     1.0  0.66678  0.58410  0.71360  1.0000
  H   H2701     1.0  0.56892  0.45073  0.86348  1.0000
  H   H2702     1.0  0.60522  0.63678  0.81791  1.0000
  H   H2703     1.0  0.60977  0.43099  0.88499  1.0000
  H   H2704     1.0  0.49774  0.36195  0.51510  1.0000
  N   N148      1.0  0.52757  0.48483  0.75166  1.0000
  C   C2242     1.0  0.52450  0.46774  0.76232  1.0000
  C   C2243     1.0  0.51326  0.48955  0.76168  1.0000
  C   C2244     1.0  0.53119  0.48863  0.72020  1.0000
  C   C2245     1.0  0.54005  0.49255  0.76253  1.0000
  C   C2246     1.0  0.55393  0.50306  0.74447  1.0000
  C   C2247     1.0  0.53845  0.48968  0.79221  1.0000
  C   C2248     1.0  0.56546  0.51009  0.75558  1.0000
  H   H2705     1.0  0.49505  0.37949  0.60655  1.0000
  H   H2706     1.0  0.50548  0.54024  0.65288  1.0000
  H   H2707     1.0  0.52054  0.46359  0.78577  1.0000
  H   H2708     1.0  0.51532  0.46157  0.75423  1.0000
  H   H2709     1.0  0.53508  0.46376  0.75549  1.0000
  C   C2249     1.0  0.61131  0.46830  0.81961  1.0000
  C   C2250     1.0  0.51094  0.58045  0.70582  1.0000
  S   S598      1.0  0.49137  0.62574  0.83519  1.0000
  H   H2710     1.0  0.52165  0.48253  0.71275  1.0000
  H   H2711     1.0  0.53308  0.50125  0.71055  1.0000
  H   H2712     1.0  0.54156  0.48493  0.71122  1.0000
  H   H2713     1.0  0.55635  0.50593  0.72163  1.0000
  H   H2714     1.0  0.52816  0.48198  0.80729  1.0000
  C   C2251     1.0  0.64291  0.65552  0.97680  1.0000
  C   C2252     1.0  0.67140  0.58272  0.80156  1.0000
  H   H2715     1.0  0.68715  0.60697  0.75270  1.0000
  Fe  Fe293     1.0  0.55032  0.40305  0.48068  1.0000
  H   H2716     1.0  0.71690  0.56578  0.48180  1.0000
  S   S599      1.0  0.51900  0.33358  0.96611  1.0000
  H   H2717     1.0  0.58768  0.41798  0.49923  1.0000
  C   C2253     1.0  0.55468  0.61737  0.82535  1.0000
  C   C2254     1.0  0.67389  0.45108  0.90813  1.0000
  C   C2255     1.0  0.72354  0.47753  0.54848  1.0000
  S   S600      1.0  0.62424  0.64170  0.86655  1.0000
  C   C2256     1.0  0.60213  0.43157  0.53421  1.0000
  H   H2718     1.0  0.60188  0.48172  0.78992  1.0000
  C   C2257     1.0  0.58089  0.45542  0.85185  1.0000
  C   C2258     1.0  0.60820  0.45741  0.84577  1.0000
  C   C2259     1.0  0.50521  0.37325  0.78136  1.0000
  C   C2260     1.0  0.66756  0.57401  0.82983  1.0000
  H   H2719     1.0  0.72557  0.44293  0.86967  1.0000
  H   H2720     1.0  0.50881  0.48571  0.78513  1.0000
  Fe  Fe294     1.0  0.60695  0.42968  0.97744  1.0000
  H   H2721     1.0  0.68033  0.60720  0.72165  1.0000
  H   H2722     1.0  0.58608  0.45615  0.91365  1.0000
  C   C2261     1.0  0.70125  0.46309  0.89828  1.0000
  C   C2262     1.0  0.58114  0.61277  0.79264  1.0000
  C   C2263     1.0  0.60280  0.43606  0.89978  1.0000
  C   C2264     1.0  0.49409  0.55852  0.68347  1.0000
  H   H2723     1.0  0.70736  0.52491  0.56813  1.0000
  C   C2265     1.0  0.62542  0.44622  0.54304  1.0000
  C   C2266     1.0  0.69217  0.58286  0.73294  1.0000
  H   H2724     1.0  0.57762  0.43643  0.93445  1.0000
  H   H2725     1.0  0.60275  0.59761  0.80693  1.0000
  H   H2726     1.0  0.69507  0.48492  0.86039  1.0000
  H   H2727     1.0  0.56357  0.42706  0.55875  1.0000
  C   C2267     1.0  0.67787  0.60105  0.74450  1.0000
  H   H2728     1.0  0.57916  0.40583  0.53505  1.0000
  H   H2729     1.0  0.67465  0.47658  0.86821  1.0000
  H   H2730     1.0  0.67380  0.55304  0.77037  1.0000
  C   C2268     1.0  0.55476  0.38310  0.95522  1.0000
  H   H2731     1.0  0.67419  0.44441  0.92930  1.0000
  H   H2732     1.0  0.62314  0.47364  0.80732  1.0000
  H   H2733     1.0  0.60214  0.61099  0.87028  1.0000
  C   C2269     1.0  0.49022  0.34051  0.58577  1.0000
  H   H2734     1.0  0.59954  0.42759  0.92102  1.0000
  C   C2270     1.0  0.57988  0.44448  0.91298  1.0000
  C   C2271     1.0  0.49138  0.34560  0.71070  1.0000
  C   C2272     1.0  0.50175  0.35366  0.56725  1.0000
  H   H2735     1.0  0.69210  0.57065  0.73294  1.0000
  C   C2273     1.0  0.63296  0.43481  0.53847  1.0000
  C   C2274     1.0  0.52879  0.38269  0.74454  1.0000
  C   C2275     1.0  0.67367  0.57557  0.77890  1.0000
  H   H2736     1.0  0.71632  0.38308  0.49652  1.0000
  N   N149      1.0  0.68592  0.46601  0.89818  1.0000
  C   C2276     1.0  0.55015  0.49661  0.80305  1.0000
  H   H2737     1.0  0.51499  0.34781  0.79335  1.0000
  S   S601      1.0  0.52865  0.33164  0.89969  1.0000
  C   C2277     1.0  0.50320  0.36772  0.57560  1.0000
  C   C2278     1.0  0.50821  0.36074  0.74324  1.0000
  C   C2279     1.0  0.51040  0.36741  0.71379  1.0000
  H   H2738     1.0  0.53504  0.38798  0.75844  1.0000
  C   C2280     1.0  0.57132  0.65420  0.76875  1.0000
  N   N150      1.0  0.51640  0.36855  0.76108  1.0000
  C   C2281     1.0  0.72148  0.45052  0.88181  1.0000
  N   N151      1.0  0.48542  0.54749  0.67090  1.0000
  H   H2739     1.0  0.61809  0.45479  0.85239  1.0000
  H   H2740     1.0  0.71684  0.43603  0.96993  1.0000
  H   H2741     1.0  0.57599  0.51802  0.74136  1.0000
  H   H2742     1.0  0.49453  0.64636  0.62254  1.0000
  C   C2282     1.0  0.50997  0.36434  0.51612  1.0000
  H   H2743     1.0  0.60478  0.45369  0.54525  1.0000
  C   C2283     1.0  0.56049  0.39428  0.96872  1.0000
  H   H2744     1.0  0.66675  0.53823  0.81982  1.0000
  H   H2745     1.0  0.72132  0.45494  0.59323  1.0000
  H   H2746     1.0  0.50354  0.36538  0.67570  1.0000
  H   H2747     1.0  0.54879  0.49414  0.82576  1.0000
  H   H2748     1.0  0.58696  0.45500  0.52091  1.0000
  H   H2749     1.0  0.57493  0.47020  0.81810  1.0000
  H   H2750     1.0  0.51069  0.37841  0.79628  1.0000
  H   H2751     1.0  0.66667  0.60289  0.75514  1.0000
  N   N152      1.0  0.51198  0.35311  0.54049  1.0000
  C   C2284     1.0  0.50210  0.35985  0.69787  1.0000
  H   H2752     1.0  0.66558  0.57971  0.84673  1.0000
  Fe  Fe295     1.0  0.53584  0.64765  0.75023  1.0000
  H   H2753     1.0  0.57427  0.44375  0.50636  1.0000
  N   N153      1.0  0.59440  0.61237  0.83202  1.0000
  C   C2285     1.0  0.59186  0.61243  0.86233  1.0000
  C   C2286     1.0  0.59855  0.59772  0.82937  1.0000
  C   C2287     1.0  0.60767  0.62561  0.81556  1.0000
  C   C2288     1.0  0.58086  0.61372  0.82073  1.0000
  H   H2754     1.0  0.72715  0.48915  0.53309  1.0000
  H   H2755     1.0  0.64086  0.50271  0.97495  1.0000
  H   H2756     1.0  0.48850  0.63481  0.65838  1.0000
  H   H2757     1.0  0.73007  0.36980  0.52959  1.0000
  H   H2758     1.0  0.51802  0.37870  0.70274  1.0000
  H   H2759     1.0  0.72953  0.54453  0.57155  1.0000
  H   H2760     1.0  0.49074  0.40294  0.66382  1.0000
  C   C2289     1.0  0.48815  0.56025  0.71095  1.0000
  H   H2761     1.0  0.54246  0.37886  0.95840  1.0000
  C   C2290     1.0  0.48303  0.48822  0.65247  1.0000
  C   C2291     1.0  0.72547  0.46696  0.91286  1.0000
  S   S602      1.0  0.64448  0.46157  0.97042  1.0000
  H   H2762     1.0  0.49461  0.52864  0.68777  1.0000
  S   S603      1.0  0.60844  0.45531  0.96688  1.0000
  H   H2763     1.0  0.51682  0.33764  0.51448  1.0000
  H   H2764     1.0  0.49153  0.48412  0.63961  1.0000
  H   H2765     1.0  0.51722  0.36389  0.49557  1.0000
  H   H2766     1.0  0.55113  0.65462  0.79919  1.0000
  H   H2767     1.0  0.62686  0.52329  0.97174  1.0000
  H   H2768     1.0  0.50006  0.38196  0.77007  1.0000
  H   H2769     1.0  0.72639  0.44846  0.56229  1.0000
  C   C2292     1.0  0.73070  0.45730  0.89710  1.0000
  C   C2293     1.0  0.48604  0.39113  0.70804  1.0000
  C   C2294     1.0  0.48418  0.55576  0.64277  1.0000
  H   H2770     1.0  0.72868  0.34566  0.51999  1.0000
  H   H2771     1.0  0.49557  0.36326  0.79471  1.0000
  C   C2295     1.0  0.48258  0.35550  0.61837  1.0000
  C   C2296     1.0  0.73093  0.53875  0.55481  1.0000
  C   C2297     1.0  0.71739  0.33328  0.49574  1.0000
  H   H2772     1.0  0.48458  0.34004  0.69854  1.0000
  C   C2298     1.0  0.48895  0.33878  0.73948  1.0000
  H   H2773     1.0  0.48817  0.32931  0.58135  1.0000
  S   S604      1.0  0.56377  0.38519  0.48691  1.0000
  H   H2774     1.0  0.51090  0.32863  0.55164  1.0000
  C   C2299     1.0  0.70657  0.43982  0.97656  1.0000
  C   C2300     1.0  0.48393  0.39287  0.68073  1.0000
  H   H2775     1.0  0.69124  0.42024  0.97040  1.0000
  C   C2301     1.0  0.49376  0.36858  0.60076  1.0000
  H   H2776     1.0  0.59349  0.65454  0.74317  1.0000
  H   H2777     1.0  0.71507  0.32225  0.51133  1.0000
  H   H2778     1.0  0.48265  0.64576  0.69713  1.0000
  Fe  Fe296     1.0  0.59801  0.77704  0.27285  1.0000
  S   S605      1.0  0.57986  0.78735  0.29288  1.0000
  S   S606      1.0  0.62235  0.78199  0.27891  1.0000
  Fe  Fe297     1.0  0.57500  0.75736  0.24804  1.0000
  S   S607      1.0  0.55515  0.76639  0.26678  1.0000
  S   S608      1.0  0.57512  0.74105  0.21907  1.0000
  Fe  Fe298     1.0  0.57273  0.78958  0.25213  1.0000
  S   S609      1.0  0.57188  0.81318  0.22810  1.0000
  Fe  Fe299     1.0  0.56423  0.76332  0.30567  1.0000
  S   S610      1.0  0.55191  0.75227  0.35188  1.0000
  S   S611      1.0  0.59202  0.78079  0.23099  1.0000
  S   S612      1.0  0.58287  0.75266  0.28806  1.0000
  Fe  Fe300     1.0  0.51966  0.84808  0.14596  1.0000
  S   S613      1.0  0.52924  0.86008  0.09957  1.0000
  S   S614      1.0  0.52037  0.82343  0.16460  1.0000
  Fe  Fe301     1.0  0.50411  0.87332  0.15732  1.0000
  S   S615      1.0  0.51205  0.88717  0.11173  1.0000
  C   C2302     1.0  0.51276  0.78302  0.09649  1.0000
  Fe  Fe302     1.0  0.50575  0.86421  0.10149  1.0000
  S   S616      1.0  0.49492  0.86137  0.06523  1.0000
  Fe  Fe303     1.0  0.53493  0.88200  0.11361  1.0000
  S   S617      1.0  0.55665  0.90126  0.08982  1.0000
  S   S618      1.0  0.49577  0.85086  0.14698  1.0000
  S   S619      1.0  0.52734  0.86952  0.16005  1.0000
  S   S620      1.0  0.51658  0.70353  0.18935  1.0000
  S   S621      1.0  0.52362  0.68794  0.11958  1.0000
  C   C2303     1.0  0.72128  0.91750  0.26972  1.0000
  C   C2304     1.0  0.70306  0.98287  0.13523  1.0000
  S   S622      1.0  0.52538  0.66343  0.17746  1.0000
  H   H2779     1.0  0.48585  0.71800  0.41225  1.0000
  H   H2780     1.0  0.72051  0.98646  0.20818  1.0000
  S   S623      1.0  0.61847  0.98422  0.08059  1.0000
  Fe  Fe304     1.0  0.62151  0.96438  0.11262  1.0000
  S   S624      1.0  0.60353  0.94231  0.13976  1.0000
  C   C2305     1.0  0.48269  0.89566  0.18965  1.0000
  S   S625      1.0  0.64366  0.96316  0.08501  1.0000
  H   H2781     1.0  0.48983  0.75198  0.08484  1.0000
  S   S626      1.0  0.65400  0.67600  0.13157  1.0000
  Fe  Fe305     1.0  0.66163  0.68133  0.05045  1.0000
  S   S627      1.0  0.65965  0.70083  0.07071  1.0000
  S   S628      1.0  0.66830  0.68913  0.00241  1.0000
  Fe  Fe306     1.0  0.67433  0.69162  0.09748  1.0000
  S   S629      1.0  0.69498  0.70914  0.10031  1.0000
  Fe  Fe307     1.0  0.63948  0.68371  0.10303  1.0000
  C   C2306     1.0  0.51612  0.71674  0.31416  1.0000
  S   S630      1.0  0.67775  0.67310  0.07519  1.0000
  C   C2307     1.0  0.64835  0.85104  0.47834  1.0000
  Fe  Fe308     1.0  0.67266  0.84832  0.32836  1.0000
  S   S631      1.0  0.68262  0.83447  0.35931  1.0000
  S   S632      1.0  0.64900  0.84102  0.32014  1.0000
  Fe  Fe309     1.0  0.70092  0.87646  0.31067  1.0000
  S   S633      1.0  0.71303  0.86440  0.34046  1.0000
  S   S634      1.0  0.71040  0.89839  0.27345  1.0000
  Fe  Fe310     1.0  0.70490  0.84340  0.32520  1.0000
  C   C2308     1.0  0.49769  0.81196  0.12020  1.0000
  Fe  Fe311     1.0  0.68985  0.85639  0.37276  1.0000
  S   S635      1.0  0.68441  0.85184  0.42144  1.0000
  S   S636      1.0  0.69449  0.85581  0.29343  1.0000
  S   S637      1.0  0.67817  0.86979  0.34383  1.0000
  S   S638      1.0  0.71303  0.73692  0.19908  1.0000
  C   C2309     1.0  0.67519  0.95342  0.24766  1.0000
  H   H2782     1.0  0.71411  0.68736  0.14274  1.0000
  H   H2783     1.0  0.71429  0.97317  0.27075  1.0000
  H   H2784     1.0  0.51681  0.82021  0.05067  1.0000
  H   H2785     1.0  0.72076  0.96742  0.22600  1.0000
  C   C2310     1.0  0.67770  0.76626  0.24251  1.0000
  C   C2311     1.0  0.69184  0.86029  0.44654  1.0000
  H   H2786     1.0  0.69083  0.67508  0.13049  1.0000
  C   C2312     1.0  0.70281  0.87457  0.43865  1.0000
  H   H2787     1.0  0.70725  0.88080  0.41647  1.0000
  Fe  Fe312     1.0  0.65545  0.97995  0.10579  1.0000
  C   C2313     1.0  0.69963  0.71626  0.12860  1.0000
  C   C2314     1.0  0.71250  0.72893  0.12224  1.0000
  C   C2315     1.0  0.71667  0.73528  0.14367  1.0000
  C   C2316     1.0  0.70800  0.72901  0.17181  1.0000
  C   C2317     1.0  0.69509  0.71631  0.17831  1.0000
  C   C2318     1.0  0.69094  0.70989  0.15680  1.0000
  H   H2788     1.0  0.71932  0.73392  0.10051  1.0000
  H   H2789     1.0  0.68840  0.71132  0.20009  1.0000
  H   H2790     1.0  0.68119  0.69994  0.16207  1.0000
  Fe  Fe313     1.0  0.65602  0.65809  0.10721  1.0000
  H   H2791     1.0  0.69639  0.97803  0.28271  1.0000
  C   C2319     1.0  0.72423  0.82190  0.28455  1.0000
  H   H2792     1.0  0.57815  0.78051  0.47050  1.0000
  H   H2793     1.0  0.52583  0.72027  0.29554  1.0000
  S   S639      1.0  0.64872  0.98835  0.00666  1.0000
  H   H2794     1.0  0.69397  0.81369  0.47365  1.0000
  C   C2320     1.0  0.55501  0.76923  0.42982  1.0000
  C   C2321     1.0  0.70788  0.88094  0.45955  1.0000
  C   C2322     1.0  0.48938  0.78889  0.08702  1.0000
  H   H2795     1.0  0.48568  0.80974  0.11811  1.0000
  H   H2796     1.0  0.52374  0.78572  0.10145  1.0000
  H   H2797     1.0  0.61702  0.96878  0.02091  1.0000
  H   H2798     1.0  0.49727  0.82006  0.06538  1.0000
  H   H2799     1.0  0.66502  0.91487  0.28179  1.0000
  C   C2323     1.0  0.69063  0.78306  0.26708  1.0000
  H   H2800     1.0  0.65500  0.93480  0.25454  1.0000
  H   H2801     1.0  0.65328  0.85084  0.45674  1.0000
  C   C2324     1.0  0.55955  0.77129  0.45397  1.0000
  H   H2802     1.0  0.63492  0.69297  0.01209  1.0000
  S   S640      1.0  0.67636  0.97423  0.11939  1.0000
  C   C2325     1.0  0.57007  0.91197  0.10404  1.0000
  C   C2326     1.0  0.56930  0.90824  0.13301  1.0000
  C   C2327     1.0  0.57969  0.91757  0.14361  1.0000
  C   C2328     1.0  0.59101  0.93064  0.12535  1.0000
  C   C2329     1.0  0.59205  0.93411  0.09629  1.0000
  C   C2330     1.0  0.58162  0.92481  0.08572  1.0000
  H   H2803     1.0  0.56073  0.89815  0.14717  1.0000
  H   H2804     1.0  0.57893  0.91469  0.16606  1.0000
  H   H2805     1.0  0.60074  0.94407  0.08196  1.0000
  H   H2806     1.0  0.58237  0.92774  0.06325  1.0000
  C   C2331     1.0  0.58737  0.68630  0.13303  1.0000
  H   H2807     1.0  0.72302  0.88229  0.23372  1.0000
  H   H2808     1.0  0.67180  0.75142  0.12378  1.0000
  H   H2809     1.0  0.71212  0.83659  0.26339  1.0000
  H   H2810     1.0  0.68819  0.77290  0.28571  1.0000
  C   C2332     1.0  0.53260  0.75244  0.36492  1.0000
  C   C2333     1.0  0.52552  0.74622  0.39401  1.0000
  C   C2334     1.0  0.50999  0.74577  0.40504  1.0000
  C   C2335     1.0  0.50854  0.75770  0.35787  1.0000
  C   C2336     1.0  0.52411  0.75826  0.34686  1.0000
  H   H2811     1.0  0.53205  0.74165  0.40802  1.0000
  H   H2812     1.0  0.50466  0.74103  0.42749  1.0000
  H   H2813     1.0  0.52948  0.76304  0.32441  1.0000
  C   C2337     1.0  0.55855  0.73012  0.21233  1.0000
  C   C2338     1.0  0.56040  0.71976  0.19543  1.0000
  C   C2339     1.0  0.54764  0.71122  0.18883  1.0000
  C   C2340     1.0  0.53288  0.71312  0.19873  1.0000
  C   C2341     1.0  0.53103  0.72345  0.21569  1.0000
  C   C2342     1.0  0.54375  0.73182  0.22266  1.0000
  H   H2814     1.0  0.57178  0.71834  0.18735  1.0000
  H   H2815     1.0  0.54926  0.70335  0.17570  1.0000
  H   H2816     1.0  0.51967  0.72505  0.22336  1.0000
  H   H2817     1.0  0.54208  0.73964  0.23582  1.0000
  C   C2343     1.0  0.55690  0.81611  0.21225  1.0000
  C   C2344     1.0  0.54328  0.80449  0.21822  1.0000
  C   C2345     1.0  0.53201  0.80688  0.20369  1.0000
  C   C2346     1.0  0.53414  0.82107  0.18382  1.0000
  C   C2347     1.0  0.54752  0.83286  0.17856  1.0000
  C   C2348     1.0  0.55891  0.83034  0.19266  1.0000
  H   H2818     1.0  0.54142  0.79374  0.23415  1.0000
  H   H2819     1.0  0.52154  0.79782  0.20812  1.0000
  H   H2820     1.0  0.54923  0.84383  0.16328  1.0000
  H   H2821     1.0  0.56938  0.83942  0.18820  1.0000
  C   C2349     1.0  0.63007  0.79878  0.28910  1.0000
  C   C2350     1.0  0.62255  0.81067  0.28946  1.0000
  C   C2351     1.0  0.62862  0.82358  0.29869  1.0000
  C   C2352     1.0  0.64239  0.82488  0.30730  1.0000
  C   C2353     1.0  0.65009  0.81312  0.30645  1.0000
  C   C2354     1.0  0.64393  0.80011  0.29746  1.0000
  H   H2822     1.0  0.61205  0.80996  0.28257  1.0000
  H   H2823     1.0  0.62262  0.83265  0.29911  1.0000
  H   H2824     1.0  0.66066  0.81394  0.31314  1.0000
  H   H2825     1.0  0.64982  0.79096  0.29733  1.0000
  H   H2826     1.0  0.68134  0.98540  0.24545  1.0000
  H   H2827     1.0  0.69474  0.78872  0.19620  1.0000
  H   H2828     1.0  0.48731  0.84861  0.02068  1.0000
  H   H2829     1.0  0.60993  0.74483  0.20637  1.0000
  S   S641      1.0  0.49205  0.66966  0.16973  1.0000
  H   H2830     1.0  0.64056  0.72367  0.10831  1.0000
  H   H2831     1.0  0.69094  0.92195  0.28959  1.0000
  H   H2832     1.0  0.67913  0.73539  0.11765  1.0000
  H   H2833     1.0  0.53327  0.81278  0.08259  1.0000
  H   H2834     1.0  0.63727  0.75852  0.19841  1.0000
  C   C2355     1.0  0.59640  0.68988  0.02631  1.0000
  C   C2356     1.0  0.57157  0.67070  0.11063  1.0000
  C   C2357     1.0  0.66452  0.74085  0.23847  1.0000
  Fe  Fe314     1.0  0.50080  0.67166  0.12330  1.0000
  H   H2835     1.0  0.67397  0.73703  0.15299  1.0000
  H   H2836     1.0  0.65062  0.74381  0.09977  1.0000
  H   H2837     1.0  0.68146  0.78927  0.27101  1.0000
  H   H2838     1.0  0.57304  0.96543  0.15791  1.0000
  C   C2358     1.0  0.64944  0.75807  0.25256  1.0000
  C   C2359     1.0  0.65022  0.74393  0.24682  1.0000
  H   H2839     1.0  0.54316  0.76344  0.43163  1.0000
  C   C2360     1.0  0.61897  0.74179  0.19253  1.0000
  C   C2361     1.0  0.60069  0.68322  0.11816  1.0000
  H   H2840     1.0  0.66318  0.70950  0.13361  1.0000
  H   H2841     1.0  0.66077  0.72956  0.09240  1.0000
  N   N154      1.0  0.56276  0.77968  0.16526  1.0000
  C   C2362     1.0  0.57918  0.77928  0.15695  1.0000
  C   C2363     1.0  0.56186  0.79561  0.15217  1.0000
  C   C2364     1.0  0.55820  0.77677  0.19643  1.0000
  C   C2365     1.0  0.55214  0.76795  0.15708  1.0000
  C   C2366     1.0  0.55680  0.75574  0.14690  1.0000
  C   C2367     1.0  0.53627  0.76781  0.16129  1.0000
  C   C2368     1.0  0.54622  0.74425  0.14121  1.0000
  C   C2369     1.0  0.52578  0.75619  0.15571  1.0000
  C   C2370     1.0  0.53075  0.74439  0.14581  1.0000
  H   H2842     1.0  0.58329  0.78093  0.13370  1.0000
  H   H2843     1.0  0.58686  0.78856  0.16270  1.0000
  H   H2844     1.0  0.58105  0.76816  0.16832  1.0000
  H   H2845     1.0  0.56442  0.79801  0.12870  1.0000
  H   H2846     1.0  0.57015  0.80463  0.15739  1.0000
  H   H2847     1.0  0.55040  0.79766  0.16004  1.0000
  H   H2848     1.0  0.55939  0.76520  0.20698  1.0000
  H   H2849     1.0  0.56546  0.78567  0.20368  1.0000
  H   H2850     1.0  0.54601  0.77686  0.20454  1.0000
  H   H2851     1.0  0.56842  0.75443  0.14416  1.0000
  H   H2852     1.0  0.53172  0.77632  0.17010  1.0000
  H   H2853     1.0  0.54987  0.73470  0.13447  1.0000
  H   H2854     1.0  0.51364  0.75599  0.16004  1.0000
  H   H2855     1.0  0.52251  0.73497  0.14271  1.0000
  C   C2371     1.0  0.57282  0.68002  0.12935  1.0000
  C   C2372     1.0  0.66627  0.93806  0.25837  1.0000
  C   C2373     1.0  0.70362  0.82242  0.47472  1.0000
  H   H2856     1.0  0.70423  0.80108  0.21423  1.0000
  N   N155      1.0  0.69182  0.77814  0.24038  1.0000
  H   H2857     1.0  0.52489  0.80638  0.12074  1.0000
  C   C2374     1.0  0.67188  0.92679  0.27366  1.0000
  H   H2858     1.0  0.49348  0.79782  0.47239  1.0000
  H   H2859     1.0  0.70864  0.77006  0.21399  1.0000
  H   H2860     1.0  0.70533  0.76204  0.25175  1.0000
  S   S642      1.0  0.61880  0.69130  0.12305  1.0000
  H   H2861     1.0  0.51479  0.75988  0.09614  1.0000
  H   H2862     1.0  0.60074  0.96085  0.98964  1.0000
  C   C2375     1.0  0.64254  0.73383  0.15600  1.0000
  C   C2376     1.0  0.72440  0.92262  0.29288  1.0000
  C   C2377     1.0  0.69367  0.79187  0.21671  1.0000
  H   H2863     1.0  0.68379  0.79724  0.21999  1.0000
  H   H2864     1.0  0.66164  0.78001  0.25463  1.0000
  C   C2378     1.0  0.61515  0.73018  0.17920  1.0000
  C   C2379     1.0  0.64607  0.74553  0.17020  1.0000
  H   H2865     1.0  0.72664  0.74505  0.13835  1.0000
  C   C2380     1.0  0.65410  0.71300  0.14756  1.0000
  N   N156      1.0  0.53279  0.92310  0.16465  1.0000
  C   C2381     1.0  0.51975  0.92931  0.17594  1.0000
  C   C2382     1.0  0.52747  0.91264  0.14761  1.0000
  C   C2383     1.0  0.53665  0.91343  0.18882  1.0000
  C   C2384     1.0  0.54623  0.93620  0.14811  1.0000
  C   C2385     1.0  0.55404  0.94608  0.16196  1.0000
  C   C2386     1.0  0.55168  0.93983  0.11807  1.0000
  C   C2387     1.0  0.56688  0.95837  0.14685  1.0000
  C   C2388     1.0  0.56438  0.95231  0.10317  1.0000
  C   C2389     1.0  0.57207  0.96143  0.11753  1.0000
  H   H2866     1.0  0.52270  0.93688  0.18977  1.0000
  H   H2867     1.0  0.51622  0.93634  0.15845  1.0000
  H   H2868     1.0  0.50944  0.91980  0.18887  1.0000
  H   H2869     1.0  0.52294  0.91862  0.13053  1.0000
  H   H2870     1.0  0.51794  0.90247  0.16082  1.0000
  H   H2871     1.0  0.53695  0.90795  0.13781  1.0000
  H   H2872     1.0  0.53846  0.91956  0.20525  1.0000
  H   H2873     1.0  0.52724  0.90268  0.19997  1.0000
  H   H2874     1.0  0.54731  0.90976  0.18143  1.0000
  H   H2875     1.0  0.55039  0.94431  0.18461  1.0000
  H   H2876     1.0  0.54666  0.93297  0.10553  1.0000
  H   H2877     1.0  0.73087  0.67142  0.16017  1.0000
  C   C2390     1.0  0.68626  0.85240  0.47558  1.0000
  H   H2878     1.0  0.61359  0.65763  0.13699  1.0000
  N   N157      1.0  0.59224  0.78812  0.37147  1.0000
  C   C2391     1.0  0.60828  0.79515  0.37181  1.0000
  C   C2392     1.0  0.59281  0.77521  0.35782  1.0000
  C   C2393     1.0  0.58698  0.80014  0.35369  1.0000
  C   C2394     1.0  0.58128  0.78229  0.40000  1.0000
  C   C2395     1.0  0.58551  0.78431  0.42507  1.0000
  C   C2396     1.0  0.56566  0.77467  0.40323  1.0000
  C   C2397     1.0  0.57474  0.77884  0.45160  1.0000
  H   H2879     1.0  0.51235  0.83359  0.07103  1.0000
  H   H2880     1.0  0.61629  0.79896  0.35016  1.0000
  H   H2881     1.0  0.60906  0.80572  0.37975  1.0000
  H   H2882     1.0  0.61299  0.78671  0.38484  1.0000
  H   H2883     1.0  0.59594  0.76555  0.37124  1.0000
  H   H2884     1.0  0.60141  0.77908  0.33673  1.0000
  H   H2885     1.0  0.58161  0.77028  0.35382  1.0000
  H   H2886     1.0  0.58599  0.80986  0.36359  1.0000
  H   H2887     1.0  0.59511  0.80517  0.33225  1.0000
  H   H2888     1.0  0.57553  0.79542  0.35032  1.0000
  H   H2889     1.0  0.59704  0.79013  0.42481  1.0000
  C   C2398     1.0  0.67048  0.73882  0.13271  1.0000
  C   C2399     1.0  0.58488  0.66759  0.09589  1.0000
  N   N158      1.0  0.69990  0.97406  0.24114  1.0000
  N   N159      1.0  0.50867  0.80996  0.09577  1.0000
  H   H2890     1.0  0.49348  0.90429  0.14486  1.0000
  C   C2400     1.0  0.61146  0.69335  0.02896  1.0000
  C   C2401     1.0  0.69003  0.95798  0.25240  1.0000
  C   C2402     1.0  0.62099  0.97373  0.99821  1.0000
  C   C2403     1.0  0.72055  0.66591  0.15508  1.0000
  H   H2891     1.0  0.73153  0.85768  0.27684  1.0000
  Fe  Fe315     1.0  0.53175  0.66627  0.13039  1.0000
  C   C2404     1.0  0.62323  0.69057  0.00971  1.0000
  H   H2892     1.0  0.52765  0.82597  0.10205  1.0000
  S   S643      1.0  0.63341  0.97985  0.13565  1.0000
  H   H2893     1.0  0.65881  0.96202  0.98159  1.0000
  C   C2405     1.0  0.71315  0.97443  0.21812  1.0000
  H   H2894     1.0  0.73072  0.85441  0.43221  1.0000
  H   H2895     1.0  0.71953  0.83001  0.21761  1.0000
  Fe  Fe316     1.0  0.64151  0.98408  0.05445  1.0000
  H   H2896     1.0  0.58110  0.68111  0.00380  1.0000
  C   C2406     1.0  0.72435  0.84535  0.45132  1.0000
  H   H2897     1.0  0.67024  0.96149  0.23566  1.0000
  C   C2407     1.0  0.61182  0.96919  0.98044  1.0000
  S   S644      1.0  0.72037  0.82737  0.31666  1.0000
  H   H2898     1.0  0.63829  0.76050  0.25894  1.0000
  H   H2899     1.0  0.60311  0.72425  0.18283  1.0000
  C   C2408     1.0  0.65146  0.73177  0.10808  1.0000
  N   N160      1.0  0.65452  0.72955  0.13651  1.0000
  Fe  Fe317     1.0  0.51570  0.68414  0.16686  1.0000
  C   C2409     1.0  0.59937  0.67378  0.09967  1.0000
  H   H2900     1.0  0.71642  0.78151  0.23479  1.0000
  H   H2901     1.0  0.56150  0.77290  0.38514  1.0000
  H   H2902     1.0  0.70150  0.79130  0.26668  1.0000
  H   H2903     1.0  0.68875  0.74862  0.22960  1.0000
  H   H2904     1.0  0.65601  0.71072  0.16918  1.0000
  H   H2905     1.0  0.50198  0.76211  0.34378  1.0000
  C   C2410     1.0  0.69175  0.98543  0.22937  1.0000
  H   H2906     1.0  0.60953  0.67143  0.08793  1.0000
  C   C2411     1.0  0.49069  0.70766  0.36297  1.0000
  H   H2907     1.0  0.58719  0.69167  0.04186  1.0000
  C   C2412     1.0  0.62670  0.72622  0.16121  1.0000
  H   H2908     1.0  0.56261  0.68246  0.14084  1.0000
  C   C2413     1.0  0.48896  0.70507  0.33663  1.0000
  C   C2414     1.0  0.50772  0.76805  0.09356  1.0000
  H   H2909     1.0  0.61397  0.69797  0.04625  1.0000
  C   C2415     1.0  0.64974  0.66364  0.99389  1.0000
  H   H2910     1.0  0.68838  0.98316  0.21019  1.0000
  H   H2911     1.0  0.70637  0.97359  0.12710  1.0000
  C   C2416     1.0  0.52433  0.81382  0.10038  1.0000
  H   H2912     1.0  0.49996  0.70742  0.29276  1.0000
  C   C2417     1.0  0.48627  0.90626  0.16307  1.0000
  H   H2913     1.0  0.58223  0.97075  0.10595  1.0000
  H   H2914     1.0  0.70677  0.94856  0.27131  1.0000
  C   C2418     1.0  0.70609  0.77262  0.23503  1.0000
  H   H2915     1.0  0.71620  0.89210  0.45315  1.0000
  H   H2916     1.0  0.48321  0.92764  0.13942  1.0000
  H   H2917     1.0  0.52956  0.72545  0.34053  1.0000
  C   C2419     1.0  0.50145  0.75144  0.38694  1.0000
  S   S645      1.0  0.55365  0.66272  0.10503  1.0000
  H   H2918     1.0  0.64694  0.65867  0.01655  1.0000
  H   H2919     1.0  0.58829  0.69357  0.14741  1.0000
  C   C2420     1.0  0.51820  0.71960  0.33956  1.0000
  S   S646      1.0  0.64003  0.66478  0.08081  1.0000
  N   N161      1.0  0.64379  0.92851  0.16642  1.0000
  C   C2421     1.0  0.65048  0.93107  0.13561  1.0000
  C   C2422     1.0  0.62905  0.91627  0.17478  1.0000
  C   C2423     1.0  0.63998  0.94295  0.17130  1.0000
  C   C2424     1.0  0.65515  0.92458  0.18216  1.0000
  C   C2425     1.0  0.66976  0.93518  0.17653  1.0000
  C   C2426     1.0  0.65228  0.91027  0.20301  1.0000
  C   C2427     1.0  0.68081  0.93168  0.19067  1.0000
  C   C2428     1.0  0.66344  0.90688  0.21702  1.0000
  C   C2429     1.0  0.67769  0.91753  0.21079  1.0000
  H   H2920     1.0  0.65448  0.92088  0.13115  1.0000
  H   H2921     1.0  0.64190  0.93306  0.12325  1.0000
  H   H2922     1.0  0.66048  0.94144  0.12667  1.0000
  H   H2923     1.0  0.63090  0.90521  0.17043  1.0000
  H   H2924     1.0  0.62076  0.91971  0.16263  1.0000
  H   H2925     1.0  0.62308  0.91406  0.19757  1.0000
  H   H2926     1.0  0.63107  0.94594  0.16047  1.0000
  H   H2927     1.0  0.63542  0.94175  0.19428  1.0000
  H   H2928     1.0  0.65010  0.95319  0.16290  1.0000
  H   H2929     1.0  0.67282  0.94623  0.16084  1.0000
  H   H2930     1.0  0.64156  0.90143  0.20874  1.0000
  H   H2931     1.0  0.69191  0.93997  0.18580  1.0000
  H   H2932     1.0  0.66109  0.89585  0.23269  1.0000
  H   H2933     1.0  0.68632  0.91482  0.22166  1.0000
  H   H2934     1.0  0.65775  0.75188  0.16783  1.0000
  C   C2430     1.0  0.50375  0.79399  0.09301  1.0000
  H   H2935     1.0  0.63971  0.73536  0.24879  1.0000
  C   C2431     1.0  0.63439  0.74945  0.18802  1.0000
  C   C2432     1.0  0.68648  0.93080  0.27811  1.0000
  C   C2433     1.0  0.67809  0.75181  0.23623  1.0000
  H   H2936     1.0  0.66516  0.72987  0.23384  1.0000
  C   C2434     1.0  0.66293  0.76914  0.25027  1.0000
  H   H2937     1.0  0.62311  0.71714  0.15133  1.0000
  C   C2435     1.0  0.72798  0.84554  0.47709  1.0000
  C   C2436     1.0  0.69545  0.94612  0.26761  1.0000
  H   H2938     1.0  0.64291  0.70507  0.14880  1.0000
  H   H2939     1.0  0.66366  0.87261  0.47345  1.0000
  H   H2940     1.0  0.56864  0.95456  0.08037  1.0000
  H   H2941     1.0  0.70917  0.83394  0.43023  1.0000
  C   C2437     1.0  0.71222  0.83380  0.45013  1.0000
  C   C2438     1.0  0.73219  0.81390  0.23281  1.0000
  C   C2439     1.0  0.63556  0.98411  0.98631  1.0000
  H   H2942     1.0  0.70927  0.96990  0.20109  1.0000
  H   H2943     1.0  0.72036  0.91472  0.31390  1.0000
  C   C2440     1.0  0.50574  0.71520  0.36365  1.0000
  C   C2441     1.0  0.72328  0.82465  0.23556  1.0000
  S   S647      1.0  0.48991  0.87912  0.19445  1.0000
  C   C2442     1.0  0.71914  0.82847  0.26141  1.0000
  C   C2443     1.0  0.50152  0.70950  0.31268  1.0000
  C   C2444     1.0  0.66007  0.67822  0.98159  1.0000
  C   C2445     1.0  0.73113  0.87531  0.22714  1.0000
  H   H2944     1.0  0.55127  0.76708  0.47459  1.0000
  H   H2945     1.0  0.58396  0.66039  0.08138  1.0000
  C   C2446     1.0  0.70592  0.97945  0.26376  1.0000
  H   H2946     1.0  0.50821  0.71804  0.38238  1.0000
  H   H2947     1.0  0.49761  0.80393  0.14046  1.0000
  C   C2447     1.0  0.71115  0.67491  0.14530  1.0000
  C   C2448     1.0  0.50880  0.82140  0.06962  1.0000
  C   C2449     1.0  0.60488  0.68115  0.98375  1.0000
  H   H2948     1.0  0.63397  0.94436  0.00589  1.0000
  H   H2949     1.0  0.50077  0.82397  0.12259  1.0000
  C   C2450     1.0  0.48449  0.77395  0.08404  1.0000
  C   C2451     1.0  0.69799  0.66795  0.13843  1.0000
  C   C2452     1.0  0.49365  0.76355  0.08724  1.0000
  C   C2453     1.0  0.68874  0.98591  0.13390  1.0000
  C   C2454     1.0  0.63799  0.94667  0.98305  1.0000
  C   C2455     1.0  0.59306  0.68380  0.00418  1.0000
  H   H2950     1.0  0.72437  0.92411  0.22445  1.0000
  C   C2456     1.0  0.72661  0.92798  0.24255  1.0000
  H   H2951     1.0  0.48961  0.69898  0.41979  1.0000
  S   S648      1.0  0.48744  0.67773  0.09054  1.0000
  H   H2952     1.0  0.72854  0.87591  0.28047  1.0000
  H   H2953     1.0  0.72433  0.86300  0.23299  1.0000
  C   C2457     1.0  0.62001  0.68449  0.98756  1.0000
  Fe  Fe318     1.0  0.57670  0.79933  0.61148  1.0000
  S   S649      1.0  0.56382  0.79588  0.65659  1.0000
  S   S650      1.0  0.60282  0.80926  0.59343  1.0000
  Fe  Fe319     1.0  0.54740  0.78297  0.59635  1.0000
  S   S651      1.0  0.53257  0.77832  0.64070  1.0000
  S   S652      1.0  0.53981  0.77739  0.55781  1.0000
  Fe  Fe320     1.0  0.54481  0.80268  0.63889  1.0000
  S   S653      1.0  0.52998  0.81778  0.65511  1.0000
  Fe  Fe321     1.0  0.55269  0.77186  0.65498  1.0000
  S   S654      1.0  0.55126  0.75250  0.69311  1.0000
  S   S655      1.0  0.55839  0.80797  0.59342  1.0000
  S   S656      1.0  0.56681  0.77468  0.61094  1.0000
  Fe  Fe322     1.0  0.51204  0.89200  0.74366  1.0000
  S   S657      1.0  0.50423  0.86599  0.75657  1.0000
  S   S658      1.0  0.50806  0.90702  0.70491  1.0000
  Fe  Fe323     1.0  0.52734  0.89354  0.79244  1.0000
  S   S659      1.0  0.52090  0.86753  0.80917  1.0000
  S   S660      1.0  0.53601  0.90949  0.81827  1.0000
  Fe  Fe324     1.0  0.52787  0.86722  0.76332  1.0000
  S   S661      1.0  0.54275  0.85167  0.74970  1.0000
  Fe  Fe325     1.0  0.49789  0.86834  0.80104  1.0000
  H   H2954     1.0  0.51996  0.94953  0.68820  1.0000
  S   S662      1.0  0.53631  0.89327  0.74720  1.0000
  S   S663      1.0  0.50366  0.89435  0.78744  1.0000
  C   C2458     1.0  0.57140  0.65844  0.81507  1.0000
  S   S664      1.0  0.50687  0.68617  0.71219  1.0000
  H   H2955     1.0  0.50018  0.97285  0.72759  1.0000
  Fe  Fe326     1.0  0.61733  0.97248  0.88177  1.0000
  C   C2459     1.0  0.51448  0.89071  0.63912  1.0000
  S   S665      1.0  0.60613  0.96808  0.92868  1.0000
  Fe  Fe327     1.0  0.61464  0.95993  0.82984  1.0000
  S   S666      1.0  0.63637  0.97742  0.80300  1.0000
  S   S667      1.0  0.60588  0.94442  0.80339  1.0000
  Fe  Fe328     1.0  0.64625  0.97227  0.84015  1.0000
  S   S668      1.0  0.66851  0.96523  0.84024  1.0000
  H   H2956     1.0  0.52104  0.86065  0.90383  1.0000
  S   S669      1.0  0.62529  0.95337  0.86581  1.0000
  S   S670      1.0  0.60458  0.97733  0.84804  1.0000
  H   H2957     1.0  0.55214  0.68462  0.68551  1.0000
  H   H2958     1.0  0.67121  0.89905  0.51660  1.0000
  S   S671      1.0  0.63644  0.67932  0.85112  1.0000
  H   H2959     1.0  0.62500  0.68002  0.93370  1.0000
  C   C2460     1.0  0.64770  0.95356  0.92408  1.0000
  C   C2461     1.0  0.72297  0.84989  0.53541  1.0000
  Fe  Fe329     1.0  0.65609  0.67684  0.81818  1.0000
  S   S672      1.0  0.67386  0.69744  0.78583  1.0000
  C   C2462     1.0  0.49385  0.86655  0.92119  1.0000
  Fe  Fe330     1.0  0.67773  0.86150  0.61825  1.0000
  S   S673      1.0  0.68890  0.88580  0.59041  1.0000
  S   S674      1.0  0.65145  0.85409  0.63482  1.0000
  Fe  Fe331     1.0  0.70863  0.85357  0.61422  1.0000
  Fe  Fe332     1.0  0.70690  0.88667  0.61540  1.0000
  C   C2463     1.0  0.64627  0.66195  0.94737  1.0000
  Fe  Fe333     1.0  0.70268  0.87424  0.56263  1.0000
  S   S675      1.0  0.70831  0.88222  0.51404  1.0000
  S   S676      1.0  0.69462  0.86313  0.64567  1.0000
  S   S677      1.0  0.69080  0.85002  0.58945  1.0000
  H   H2960     1.0  0.66968  0.86534  0.54611  1.0000
  C   C2464     1.0  0.49734  0.94216  0.73619  1.0000
  C   C2465     1.0  0.49539  0.74633  0.54930  1.0000
  H   H2961     1.0  0.50873  0.94293  0.74114  1.0000
  H   H2962     1.0  0.68678  0.85250  0.51859  1.0000
  N   N162      1.0  0.49853  0.95346  0.70910  1.0000
  C   C2466     1.0  0.50858  0.86481  0.63389  1.0000
  S   S678      1.0  0.72161  0.87702  0.58506  1.0000
  H   H2963     1.0  0.55469  0.88575  0.69375  1.0000
  C   C2467     1.0  0.66367  0.68453  0.95209  1.0000
  C   C2468     1.0  0.65678  0.67644  0.93499  1.0000
  H   H2964     1.0  0.55524  0.77884  0.71780  1.0000
  C   C2469     1.0  0.55027  0.88024  0.67885  1.0000
  H   H2965     1.0  0.65941  0.68150  0.91237  1.0000
  H   H2966     1.0  0.69203  0.98778  0.92779  1.0000
  C   C2470     1.0  0.68985  0.70882  0.79323  1.0000
  C   C2471     1.0  0.69155  0.70693  0.82082  1.0000
  C   C2472     1.0  0.70394  0.71676  0.82614  1.0000
  C   C2473     1.0  0.70073  0.72057  0.77104  1.0000
  H   H2967     1.0  0.68326  0.69796  0.83807  1.0000
  H   H2968     1.0  0.70512  0.71521  0.84757  1.0000
  C   C2474     1.0  0.55872  0.87162  0.66517  1.0000
  C   C2475     1.0  0.61720  0.97492  0.95077  1.0000
  H   H2969     1.0  0.73050  0.86393  0.64542  1.0000
  H   H2970     1.0  0.71880  0.83174  0.72320  1.0000
  C   C2476     1.0  0.51610  0.86533  0.88627  1.0000
  Fe  Fe334     1.0  0.62148  0.66197  0.83563  1.0000
  H   H2971     1.0  0.69945  0.72213  0.74965  1.0000
  C   C2477     1.0  0.63031  0.83871  0.52397  1.0000
  C   C2478     1.0  0.68556  0.97600  0.81443  1.0000
  H   H2972     1.0  0.58112  0.71855  0.72320  1.0000
  C   C2479     1.0  0.48484  0.67393  0.61039  1.0000
  H   H2973     1.0  0.61487  0.69493  0.92820  1.0000
  C   C2480     1.0  0.69866  0.97016  0.81248  1.0000
  H   H2974     1.0  0.51594  0.76066  0.76732  1.0000
  H   H2975     1.0  0.53463  0.85843  0.62808  1.0000
  H   H2976     1.0  0.69830  0.95949  0.82739  1.0000
  H   H2977     1.0  0.57667  0.66737  0.97355  1.0000
  H   H2978     1.0  0.59076  0.70370  0.73223  1.0000
  H   H2979     1.0  0.52984  0.88809  0.68547  1.0000
  H   H2980     1.0  0.71492  0.72349  0.97931  1.0000
  H   H2981     1.0  0.50308  0.89191  0.63573  1.0000
  C   C2481     1.0  0.66686  0.88956  0.50724  1.0000
  H   H2982     1.0  0.50713  0.88680  0.85164  1.0000
  C   C2482     1.0  0.68097  0.97931  0.94049  1.0000
  H   H2983     1.0  0.70270  0.71078  0.90770  1.0000
  C   C2483     1.0  0.49113  0.87222  0.94571  1.0000
  C   C2484     1.0  0.60193  0.65764  0.96861  1.0000
  H   H2984     1.0  0.70603  0.92815  0.69269  1.0000
  C   C2485     1.0  0.55553  0.91903  0.81384  1.0000
  C   C2486     1.0  0.55907  0.92846  0.83169  1.0000
  C   C2487     1.0  0.57444  0.93621  0.82900  1.0000
  C   C2488     1.0  0.58641  0.93456  0.80837  1.0000
  C   C2489     1.0  0.58286  0.92524  0.79036  1.0000
  C   C2490     1.0  0.56749  0.91748  0.79309  1.0000
  H   H2985     1.0  0.54987  0.92972  0.84783  1.0000
  H   H2986     1.0  0.57702  0.94334  0.84300  1.0000
  H   H2987     1.0  0.59205  0.92392  0.77430  1.0000
  H   H2988     1.0  0.56492  0.91024  0.77924  1.0000
  C   C2491     1.0  0.62842  0.94009  0.96814  1.0000
  H   H2989     1.0  0.72226  0.97334  0.78977  1.0000
  C   C2492     1.0  0.71315  0.73038  0.77636  1.0000
  H   H2990     1.0  0.63202  0.82888  0.48834  1.0000
  H   H2991     1.0  0.66323  0.96537  0.78092  1.0000
  N   N163      1.0  0.65426  0.87697  0.52824  1.0000
  C   C2493     1.0  0.53285  0.79383  0.78070  1.0000
  C   C2494     1.0  0.52259  0.76520  0.55542  1.0000
  C   C2495     1.0  0.52063  0.76460  0.52842  1.0000
  C   C2496     1.0  0.50713  0.75524  0.52533  1.0000
  C   C2497     1.0  0.49733  0.74693  0.57632  1.0000
  C   C2498     1.0  0.51082  0.75629  0.57940  1.0000
  H   H2992     1.0  0.52957  0.77152  0.50975  1.0000
  H   H2993     1.0  0.58128  0.73021  0.67720  1.0000
  H   H2994     1.0  0.51213  0.75664  0.60028  1.0000
  C   C2499     1.0  0.53851  0.73426  0.69865  1.0000
  C   C2500     1.0  0.52841  0.73198  0.68158  1.0000
  C   C2501     1.0  0.51861  0.71720  0.68616  1.0000
  C   C2502     1.0  0.51900  0.70462  0.70757  1.0000
  C   C2503     1.0  0.52896  0.70694  0.72484  1.0000
  C   C2504     1.0  0.53864  0.72176  0.72048  1.0000
  H   H2995     1.0  0.52823  0.74155  0.66473  1.0000
  H   H2996     1.0  0.51085  0.71548  0.67287  1.0000
  H   H2997     1.0  0.52904  0.69735  0.74173  1.0000
  H   H2998     1.0  0.54634  0.72354  0.73388  1.0000
  C   C2505     1.0  0.53358  0.82662  0.68204  1.0000
  C   C2506     1.0  0.52274  0.83383  0.69417  1.0000
  C   C2507     1.0  0.52548  0.84159  0.71479  1.0000
  C   C2508     1.0  0.53895  0.84195  0.72389  1.0000
  C   C2509     1.0  0.54964  0.83442  0.71224  1.0000
  C   C2510     1.0  0.54704  0.82690  0.69118  1.0000
  H   H2999     1.0  0.51227  0.83352  0.68735  1.0000
  H   H3000     1.0  0.51715  0.84720  0.72381  1.0000
  H   H3001     1.0  0.56011  0.83468  0.71912  1.0000
  H   H3002     1.0  0.55559  0.82164  0.68160  1.0000
  C   C2511     1.0  0.61606  0.82089  0.60687  1.0000
  C   C2512     1.0  0.61121  0.82864  0.62704  1.0000
  C   C2513     1.0  0.62219  0.83854  0.63565  1.0000
  C   C2514     1.0  0.63812  0.84077  0.62440  1.0000
  C   C2515     1.0  0.64296  0.83279  0.60460  1.0000
  C   C2516     1.0  0.63199  0.82299  0.59584  1.0000
  H   H3003     1.0  0.59902  0.82720  0.63566  1.0000
  H   H3004     1.0  0.61830  0.84462  0.65100  1.0000
  H   H3005     1.0  0.65514  0.83430  0.59579  1.0000
  H   H3006     1.0  0.63588  0.81706  0.58022  1.0000
  C   C2517     1.0  0.64831  0.86397  0.51675  1.0000
  H   H3007     1.0  0.58740  0.68129  0.71406  1.0000
  H   H3008     1.0  0.51746  0.89846  0.65264  1.0000
  S   S679      1.0  0.72304  0.83618  0.62165  1.0000
  H   H3009     1.0  0.52519  0.89559  0.87750  1.0000
  H   H3010     1.0  0.48833  0.74012  0.59503  1.0000
  C   C2518     1.0  0.49184  0.78420  0.54184  1.0000
  C   C2519     1.0  0.55293  0.86413  0.64661  1.0000
  H   H3011     1.0  0.48805  0.71252  0.58567  1.0000
  C   C2520     1.0  0.51114  0.80915  0.76534  1.0000
  C   C2521     1.0  0.50242  0.86895  0.68012  1.0000
  H   H3012     1.0  0.65094  0.95572  0.90129  1.0000
  H   H3013     1.0  0.48523  0.84711  0.90481  1.0000
  C   C2522     1.0  0.52784  0.80401  0.79566  1.0000
  C   C2523     1.0  0.70751  0.71587  0.94545  1.0000
  H   H3014     1.0  0.67166  0.69582  0.94248  1.0000
  H   H3015     1.0  0.68273  0.96632  0.76484  1.0000
  C   C2524     1.0  0.70215  0.87312  0.48858  1.0000
  H   H3016     1.0  0.49062  0.86928  0.67800  1.0000
  C   C2525     1.0  0.50815  0.94931  0.68558  1.0000
  C   C2526     1.0  0.48569  0.83222  0.85787  1.0000
  H   H3017     1.0  0.62951  0.68220  0.97377  1.0000
  C   C2527     1.0  0.72943  0.73745  0.93833  1.0000
  H   H3018     1.0  0.58472  0.67053  0.93676  1.0000
  H   H3019     1.0  0.51162  0.79831  0.73196  1.0000
  C   C2528     1.0  0.55013  0.70368  0.65484  1.0000
  H   H3020     1.0  0.48512  0.65594  0.81969  1.0000
  H   H3021     1.0  0.49037  0.88696  0.87756  1.0000
  C   C2529     1.0  0.49246  0.97961  0.63041  1.0000
  C   C2530     1.0  0.68266  0.96297  0.90870  1.0000
  C   C2531     1.0  0.58556  0.97036  0.75272  1.0000
  Fe  Fe335     1.0  0.64065  0.65876  0.87958  1.0000
  C   C2532     1.0  0.65424  0.86357  0.48834  1.0000
  H   H3022     1.0  0.58963  0.96025  0.76243  1.0000
  H   H3023     1.0  0.56516  0.65942  0.83523  1.0000
  C   C2533     1.0  0.49034  0.67380  0.63505  1.0000
  H   H3024     1.0  0.58516  0.68698  0.95120  1.0000
  H   H3025     1.0  0.49607  0.83691  0.84069  1.0000
  H   H3026     1.0  0.56664  0.68498  0.75126  1.0000
  H   H3027     1.0  0.50925  0.95740  0.66477  1.0000
  H   H3028     1.0  0.53237  0.77290  0.70346  1.0000
  C   C2534     1.0  0.71223  0.97795  0.79109  1.0000
  C   C2535     1.0  0.65234  0.95694  0.96861  1.0000
  H   H3029     1.0  0.51833  0.96908  0.71395  1.0000
  H   H3030     1.0  0.70140  0.77351  0.80104  1.0000
  C   C2536     1.0  0.50811  0.66128  0.65485  1.0000
  C   C2537     1.0  0.72007  0.83337  0.67906  1.0000
  C   C2538     1.0  0.72383  0.82826  0.70477  1.0000
  C   C2539     1.0  0.58620  0.70970  0.71513  1.0000
  C   C2540     1.0  0.58639  0.67485  0.95545  1.0000
  C   C2541     1.0  0.48861  0.70182  0.59941  1.0000
  H   H3031     1.0  0.49939  0.78354  0.55592  1.0000
  H   H3032     1.0  0.61064  0.67792  0.91542  1.0000
  H   H3033     1.0  0.72374  0.78418  0.72745  1.0000
  N   N164      1.0  0.50593  0.87525  0.89479  1.0000
  N   N165      1.0  0.59285  0.98475  0.75942  1.0000
  C   C2542     1.0  0.59530  0.65850  0.78354  1.0000
  C   C2543     1.0  0.53593  0.88129  0.67424  1.0000
  H   H3034     1.0  0.72152  0.73925  0.75911  1.0000
  H   H3035     1.0  0.51352  0.81993  0.79901  1.0000
  H   H3036     1.0  0.54099  0.69659  0.64893  1.0000
  H   H3037     1.0  0.53277  0.75662  0.74764  1.0000
  H   H3038     1.0  0.62565  0.93856  0.92722  1.0000
  H   H3039     1.0  0.72381  0.73144  0.87541  1.0000
  N   N166      1.0  0.51403  0.87437  0.65223  1.0000
  H   H3040     1.0  0.55601  0.78480  0.74905  1.0000
  H   H3041     1.0  0.49564  0.91839  0.65852  1.0000
  H   H3042     1.0  0.66524  0.88060  0.56132  1.0000
  H   H3043     1.0  0.68393  0.97072  0.95656  1.0000
  H   H3044     1.0  0.53363  0.76382  0.77798  1.0000
  C   C2544     1.0  0.65756  0.96088  0.93850  1.0000
  H   H3045     1.0  0.68684  0.78788  0.77161  1.0000
  H   H3046     1.0  0.65134  0.86260  0.57041  1.0000
  H   H3047     1.0  0.66556  0.97974  0.88435  1.0000
  H   H3048     1.0  0.66298  0.89488  0.48867  1.0000
  N   N167      1.0  0.49182  0.65947  0.65365  1.0000
  C   C2545     1.0  0.63612  0.85115  0.53421  1.0000
  H   H3049     1.0  0.50321  0.93743  0.68428  1.0000
  C   C2546     1.0  0.48435  0.81885  0.87927  1.0000
  H   H3050     1.0  0.59631  0.71573  0.69668  1.0000
  H   H3051     1.0  0.67388  0.98586  0.95181  1.0000
  H   H3052     1.0  0.68414  0.95320  0.92468  1.0000
  H   H3053     1.0  0.63101  0.85056  0.55608  1.0000
  S   S680      1.0  0.64067  0.66083  0.80057  1.0000
  H   H3054     1.0  0.63607  0.88773  0.52109  1.0000
  H   H3055     1.0  0.67782  0.84131  0.48198  1.0000
  H   H3056     1.0  0.56958  0.87041  0.66955  1.0000
  C   C2547     1.0  0.71020  0.71828  0.91620  1.0000
  C   C2548     1.0  0.63644  0.83863  0.49612  1.0000
  H   H3057     1.0  0.57003  0.74123  0.64063  1.0000
  C   C2549     1.0  0.52948  0.87347  0.65603  1.0000
  C   C2550     1.0  0.66039  0.87109  0.55249  1.0000
  S   S681      1.0  0.59668  0.66265  0.83656  1.0000
  C   C2551     1.0  0.71942  0.83416  0.50263  1.0000
  H   H3058     1.0  0.60761  0.65971  0.77896  1.0000
  H   H3059     1.0  0.62106  0.82899  0.53785  1.0000
  N   N168      1.0  0.57455  0.69860  0.70756  1.0000
  H   H3060     1.0  0.50790  0.85231  0.64277  1.0000
  C   C2552     1.0  0.56208  0.69056  0.73381  1.0000
  C   C2553     1.0  0.58214  0.68704  0.69789  1.0000
  C   C2554     1.0  0.56801  0.70604  0.68510  1.0000
  C   C2555     1.0  0.55649  0.69697  0.67600  1.0000
  C   C2556     1.0  0.57285  0.72223  0.67147  1.0000
  C   C2557     1.0  0.72247  0.73027  0.89782  1.0000
  C   C2558     1.0  0.56650  0.72879  0.65014  1.0000
  C   C2559     1.0  0.55516  0.71955  0.64188  1.0000
  H   H3061     1.0  0.52590  0.87192  0.86747  1.0000
  H   H3062     1.0  0.49176  0.86965  0.86692  1.0000
  H   H3063     1.0  0.49323  0.92991  0.73563  1.0000
  H   H3064     1.0  0.49793  0.88311  0.94674  1.0000
  H   H3065     1.0  0.55340  0.68108  0.73079  1.0000
  H   H3066     1.0  0.59136  0.69253  0.67782  1.0000
  H   H3067     1.0  0.66681  0.92486  0.80402  1.0000
  H   H3068     1.0  0.57386  0.67751  0.69406  1.0000
  H   H3069     1.0  0.71147  0.85208  0.53555  1.0000
  H   H3070     1.0  0.51628  0.86877  0.61198  1.0000
  H   H3071     1.0  0.54998  0.72482  0.62594  1.0000
  N   N169      1.0  0.66666  0.94425  0.77093  1.0000
  C   C2560     1.0  0.67063  0.96141  0.76477  1.0000
  C   C2561     1.0  0.65008  0.93899  0.77179  1.0000
  C   C2562     1.0  0.66841  0.93764  0.79956  1.0000
  C   C2563     1.0  0.67720  0.93959  0.74946  1.0000
  C   C2564     1.0  0.69336  0.94349  0.74670  1.0000
  C   C2565     1.0  0.67195  0.93127  0.73076  1.0000
  C   C2566     1.0  0.70359  0.93936  0.72647  1.0000
  C   C2567     1.0  0.68232  0.92722  0.71058  1.0000
  C   C2568     1.0  0.69807  0.93127  0.70842  1.0000
  H   H3072     1.0  0.49378  0.81331  0.87853  1.0000
  H   H3073     1.0  0.51191  0.67035  0.66548  1.0000
  N   N170      1.0  0.67272  0.97168  0.92245  1.0000
  H   H3074     1.0  0.64771  0.94401  0.75129  1.0000
  H   H3075     1.0  0.55590  0.69879  0.74150  1.0000
  H   H3076     1.0  0.64612  0.92611  0.77722  1.0000
  H   H3077     1.0  0.67991  0.94279  0.80220  1.0000
  H   H3078     1.0  0.65984  0.93989  0.81654  1.0000
  C   C2569     1.0  0.51707  0.81172  0.78789  1.0000
  H   H3079     1.0  0.69826  0.94983  0.76010  1.0000
  H   H3080     1.0  0.61358  0.97676  0.75866  1.0000
  H   H3081     1.0  0.53088  0.79236  0.70022  1.0000
  H   H3082     1.0  0.55447  0.79831  0.71858  1.0000
  H   H3083     1.0  0.53253  0.80618  0.81307  1.0000
  C   C2570     1.0  0.64157  0.88394  0.53834  1.0000
  N   N171      1.0  0.72350  0.83469  0.52967  1.0000
  C   C2571     1.0  0.51594  0.88957  0.89741  1.0000
  H   H3084     1.0  0.64577  0.89419  0.54603  1.0000
  C   C2572     1.0  0.72650  0.90841  0.67596  1.0000
  H   H3085     1.0  0.50487  0.87628  0.69454  1.0000
  H   H3086     1.0  0.52323  0.89533  0.61828  1.0000
  H   H3087     1.0  0.71202  0.84055  0.67796  1.0000
  H   H3088     1.0  0.67815  0.92088  0.69644  1.0000
  C   C2573     1.0  0.48297  0.95286  0.70453  1.0000
  C   C2574     1.0  0.48964  0.90160  0.69922  1.0000
  H   H3089     1.0  0.50271  0.97566  0.63162  1.0000
  C   C2575     1.0  0.51629  0.79923  0.74985  1.0000
  H   H3090     1.0  0.70900  0.77659  0.71233  1.0000
  H   H3091     1.0  0.64251  0.94273  0.78820  1.0000
  H   H3092     1.0  0.50581  0.75496  0.50443  1.0000
  C   C2576     1.0  0.49807  0.79169  0.51317  1.0000
  H   H3093     1.0  0.72522  0.85044  0.55629  1.0000
  H   H3094     1.0  0.69431  0.97056  0.89676  1.0000
  H   H3095     1.0  0.51480  0.77611  0.72085  1.0000
  H   H3096     1.0  0.50930  0.89819  0.90152  1.0000
  C   C2577     1.0  0.60982  0.98724  0.74967  1.0000
  H   H3097     1.0  0.66928  0.96683  0.74358  1.0000
  H   H3098     1.0  0.52187  0.88692  0.91449  1.0000
  H   H3099     1.0  0.50293  0.81536  0.75914  1.0000
  C   C2578     1.0  0.63329  0.94347  0.93874  1.0000
  H   H3100     1.0  0.54119  0.78811  0.78760  1.0000
  H   H3101     1.0  0.58849  0.97158  0.72949  1.0000
  C   C2579     1.0  0.48660  0.90936  0.67436  1.0000
  C   C2580     1.0  0.71475  0.72855  0.80400  1.0000
  H   H3102     1.0  0.67771  0.95793  0.89313  1.0000
  C   C2581     1.0  0.52746  0.79135  0.75695  1.0000
  H   H3103     1.0  0.67703  0.88521  0.49954  1.0000
  H   H3104     1.0  0.65992  0.92774  0.73126  1.0000
  H   H3105     1.0  0.50202  0.85686  0.69112  1.0000
  C   C2582     1.0  0.61351  0.68217  0.93348  1.0000
  S   S682      1.0  0.71807  0.90965  0.62457  1.0000
  S   S683      1.0  0.52190  0.66051  0.77456  1.0000
  H   H3106     1.0  0.71591  0.94244  0.72472  1.0000
  C   C2583     1.0  0.69136  0.85872  0.49646  1.0000
  N   N172      1.0  0.70155  0.77384  0.75764  1.0000
  C   C2584     1.0  0.71327  0.77453  0.73167  1.0000
  C   C2585     1.0  0.69619  0.78827  0.75309  1.0000
  C   C2586     1.0  0.70934  0.77352  0.78095  1.0000
  C   C2587     1.0  0.68831  0.76023  0.76354  1.0000
  C   C2588     1.0  0.67992  0.75864  0.74295  1.0000
  C   C2589     1.0  0.68336  0.74828  0.78941  1.0000
  C   C2590     1.0  0.66764  0.74571  0.74765  1.0000
  C   C2591     1.0  0.67092  0.73552  0.79400  1.0000
  C   C2592     1.0  0.66323  0.73412  0.77307  1.0000
  N   N173      1.0  0.60165  0.67416  0.96071  1.0000
  H   H3107     1.0  0.49683  0.86549  0.63191  1.0000
  H   H3108     1.0  0.71700  0.76354  0.73371  1.0000
  H   H3109     1.0  0.69175  0.79034  0.73391  1.0000
  H   H3110     1.0  0.70572  0.79870  0.74998  1.0000
  C   C2593     1.0  0.72678  0.82927  0.65489  1.0000
  H   H3111     1.0  0.71421  0.76323  0.78479  1.0000
  H   H3112     1.0  0.71917  0.78392  0.77587  1.0000
  Fe  Fe336     1.0  0.51155  0.66472  0.73736  1.0000
  H   H3113     1.0  0.68296  0.76730  0.72287  1.0000
  H   H3114     1.0  0.68916  0.74819  0.80615  1.0000
  H   H3115     1.0  0.66166  0.74452  0.73137  1.0000
  H   H3116     1.0  0.66767  0.72624  0.81343  1.0000
  H   H3117     1.0  0.65407  0.72381  0.77640  1.0000
  N   N174      1.0  0.53337  0.78092  0.74087  1.0000
  C   C2594     1.0  0.52872  0.76483  0.75933  1.0000
  C   C2595     1.0  0.52755  0.78062  0.71532  1.0000
  C   C2596     1.0  0.55047  0.78596  0.73125  1.0000
  H   H3118     1.0  0.70086  0.82354  0.55781  1.0000
  C   C2597     1.0  0.53855  0.86500  0.64198  1.0000
  H   H3119     1.0  0.72104  0.89612  0.68210  1.0000
  H   H3120     1.0  0.57150  0.98743  0.72626  1.0000
  C   C2598     1.0  0.71711  0.72543  0.95649  1.0000
  C   C2599     1.0  0.72638  0.91755  0.64967  1.0000
  C   C2600     1.0  0.58734  0.65971  0.80974  1.0000
  H   H3121     1.0  0.55935  0.85708  0.63660  1.0000
  H   H3122     1.0  0.50995  0.85533  0.88003  1.0000
  H   H3123     1.0  0.71331  0.81063  0.55265  1.0000
  C   C2601     1.0  0.58847  0.98193  0.79066  1.0000
  H   H3124     1.0  0.73021  0.87213  0.67500  1.0000
  H   H3125     1.0  0.50881  0.97795  0.68976  1.0000
  H   H3126     1.0  0.63238  0.87566  0.55647  1.0000
  C   C2602     1.0  0.49391  0.70209  0.62350  1.0000
  H   H3127     1.0  0.59127  0.97120  0.80137  1.0000
  H   H3128     1.0  0.48924  0.94410  0.75422  1.0000
  C   C2603     1.0  0.50677  0.96902  0.71020  1.0000
  H   H3129     1.0  0.69980  0.81346  0.51886  1.0000
  H   H3130     1.0  0.57280  0.96700  0.76134  1.0000
  H   H3131     1.0  0.51603  0.66444  0.63322  1.0000
  H   H3132     1.0  0.49889  0.68913  0.65961  1.0000
  H   H3133     1.0  0.71619  0.82338  0.57469  1.0000
  C   C2604     1.0  0.63143  0.98584  0.93917  1.0000
  S   S684      1.0  0.66137  0.65744  0.84787  1.0000
  C   C2605     1.0  0.49472  0.68831  0.64115  1.0000
  H   H3134     1.0  0.48342  0.97758  0.69922  1.0000
  H   H3135     1.0  0.73214  0.77000  0.89126  1.0000
  C   C2606     1.0  0.49849  0.87986  0.87178  1.0000
  H   H3136     1.0  0.57588  0.98047  0.79894  1.0000
  C   C2607     1.0  0.71296  0.82248  0.55465  1.0000
  C   C2608     1.0  0.67078  0.98421  0.90006  1.0000
  H   H3137     1.0  0.49745  0.71306  0.62845  1.0000
  H   H3138     1.0  0.48554  0.66612  0.69272  1.0000
  S   S685      1.0  0.72985  0.74079  0.81220  1.0000
  C   C2609     1.0  0.70709  0.82252  0.50067  1.0000
  C   C2610     1.0  0.48404  0.85207  0.92266  1.0000
  H   H3139     1.0  0.72967  0.88368  0.64174  1.0000
  H   H3140     1.0  0.69794  0.70657  0.95962  1.0000
  H   H3141     1.0  0.51038  0.79684  0.50515  1.0000
  C   C2611     1.0  0.48852  0.79219  0.49480  1.0000
  H   H3142     1.0  0.73158  0.85983  0.51926  1.0000
  C   C2612     1.0  0.48402  0.68779  0.59293  1.0000
  H   H3143     1.0  0.61309  0.65633  0.97289  1.0000
  H   H3144     1.0  0.61703  0.93267  0.97933  1.0000
  C   C2613     1.0  0.58729  0.65568  0.76321  1.0000
  C   C2614     1.0  0.56342  0.65573  0.79467  1.0000
  Fe  Fe337     1.0  0.74283  0.20742  0.27712  1.0000
  H   H3145     1.0  0.82037  0.00020  0.08330  1.0000
  N   N175      1.0  0.83173  0.04993  0.99517  1.0000
  Fe  Fe338     1.0  0.76783  0.19831  0.23946  1.0000
  S   S686      1.0  0.76521  0.21334  0.19955  1.0000
  S   S687      1.0  0.78511  0.18408  0.23147  1.0000
  Fe  Fe339     1.0  0.76410  0.23121  0.22392  1.0000
  S   S688      1.0  0.77253  0.25693  0.20185  1.0000
  C   C2615     1.0  0.79302  0.31207  0.09487  1.0000
  S   S689      1.0  0.76811  0.02723  0.15852  1.0000
  S   S690      1.0  0.76866  0.21708  0.26263  1.0000
  S   S691      1.0  0.74231  0.18751  0.25702  1.0000
  N   N176      1.0  0.76976  0.26998  0.28523  1.0000
  H   H3146     1.0  0.80517  0.12563  0.25114  1.0000
  C   C2616     1.0  0.74106  0.25738  0.06305  1.0000
  S   S692      1.0  0.74652  0.24691  0.39681  1.0000
  H   H3147     1.0  0.84937  0.08294  0.04870  1.0000
  H   H3148     1.0  0.76950  0.27761  0.24132  1.0000
  S   S693      1.0  0.96149  0.19214  0.16681  1.0000
  Fe  Fe340     1.0  0.96577  0.18496  0.20977  1.0000
  S   S694      1.0  0.94652  0.17192  0.25006  1.0000
  Fe  Fe341     1.0  0.85554  0.12448  0.29412  1.0000
  S   S695      1.0  0.84746  0.09955  0.32071  1.0000
  S   S696      1.0  0.87848  0.13286  0.25997  1.0000
  Fe  Fe342     1.0  0.82544  0.13162  0.31878  1.0000
  S   S697      1.0  0.81556  0.10742  0.34654  1.0000
  S   S698      1.0  0.81020  0.14760  0.32771  1.0000
  Fe  Fe343     1.0  0.83855  0.10968  0.35646  1.0000
  S   S699      1.0  0.83745  0.10005  0.40330  1.0000
  Fe  Fe344     1.0  0.82502  0.09937  0.30846  1.0000
  S   S700      1.0  0.80889  0.07797  0.30262  1.0000
  S   S701      1.0  0.84805  0.13449  0.33066  1.0000
  S   S702      1.0  0.83351  0.12374  0.27989  1.0000
  Fe  Fe345     1.0  0.95477  0.12976  0.00715  1.0000
  S   S703      1.0  0.95537  0.10539  0.00573  1.0000
  S   S704      1.0  0.95060  0.13431  0.05151  1.0000
  N   N177      1.0  0.78331  0.11031  0.27597  1.0000
  H   H3149     1.0  0.97962  0.09586  0.08351  1.0000
  C   C2617     1.0  0.77713  0.25737  0.28025  1.0000
  H   H3150     1.0  0.75367  0.27273  0.08122  1.0000
  H   H3151     1.0  0.80819  0.03595  0.01175  1.0000
  S   S705      1.0  0.83610  0.30036  0.20121  1.0000
  C   C2618     1.0  0.77113  0.13312  0.27620  1.0000
  H   H3152     1.0  0.85396  0.05214  0.09904  1.0000
  H   H3153     1.0  0.73608  0.23490  0.16654  1.0000
  H   H3154     1.0  0.97549  0.29157  0.10547  1.0000
  H   H3155     1.0  0.82751  0.15374  0.39529  1.0000
  C   C2619     1.0  0.83787  0.09966  0.45836  1.0000
  C   C2620     1.0  0.89636  0.05971  0.98608  1.0000
  S   S706      1.0  0.77351  0.30297  0.06303  1.0000
  H   H3156     1.0  0.77120  0.24520  0.15141  1.0000
  H   H3157     1.0  0.90688  0.10163  0.10970  1.0000
  S   S707      1.0  0.96472  0.23655  0.15507  1.0000
  H   H3158     1.0  0.89417  0.11497  0.04369  1.0000
  S   S708      1.0  0.80198  0.00551  0.99648  1.0000
  H   H3159     1.0  0.77478  0.00688  0.09115  1.0000
  H   H3160     1.0  0.87387  0.09548  0.01156  1.0000
  H   H3161     1.0  0.79116  0.29981  0.10442  1.0000
  C   C2621     1.0  0.81100  0.00186  0.07391  1.0000
  Fe  Fe346     1.0  0.97478  0.21595  0.16553  1.0000
  H   H3162     1.0  0.79347  0.12344  0.30177  1.0000
  H   H3163     1.0  0.77738  0.00747  0.04038  1.0000
  H   H3164     1.0  0.96558  0.31692  0.98370  1.0000
  H   H3165     1.0  0.89555  0.05535  0.00836  1.0000
  C   C2622     1.0  0.80288  0.06956  0.27599  1.0000
  C   C2623     1.0  0.80770  0.07729  0.24703  1.0000
  C   C2624     1.0  0.80190  0.07048  0.22717  1.0000
  H   H3166     1.0  0.80640  0.16506  0.22981  1.0000
  C   C2625     1.0  0.79237  0.05480  0.28450  1.0000
  H   H3167     1.0  0.81593  0.08850  0.23984  1.0000
  H   H3168     1.0  0.80565  0.07665  0.20492  1.0000
  H   H3169     1.0  0.87027  0.13746  0.43893  1.0000
  C   C2626     1.0  0.96362  0.15716  0.10855  1.0000
  C   C2627     1.0  0.95532  0.14748  0.09511  1.0000
  C   C2628     1.0  0.96115  0.14779  0.06653  1.0000
  H   H3170     1.0  0.95903  0.15652  0.13063  1.0000
  H   H3171     1.0  0.94435  0.13956  0.10714  1.0000
  C   C2629     1.0  0.89705  0.14451  0.25738  1.0000
  C   C2630     1.0  0.90879  0.14753  0.23231  1.0000
  C   C2631     1.0  0.92384  0.15627  0.22941  1.0000
  C   C2632     1.0  0.92743  0.16187  0.25184  1.0000
  C   C2633     1.0  0.91564  0.15908  0.27675  1.0000
  C   C2634     1.0  0.90048  0.15064  0.27939  1.0000
  H   H3172     1.0  0.90626  0.14294  0.21507  1.0000
  H   H3173     1.0  0.93277  0.15829  0.21014  1.0000
  H   H3174     1.0  0.91826  0.16354  0.29408  1.0000
  H   H3175     1.0  0.89151  0.14884  0.29843  1.0000
  C   C2635     1.0  0.86105  0.12700  0.44449  1.0000
  C   C2636     1.0  0.85561  0.12177  0.42283  1.0000
  C   C2637     1.0  0.84412  0.10791  0.42963  1.0000
  C   C2638     1.0  0.78679  0.04785  0.26455  1.0000
  H   H3176     1.0  0.79184  0.10315  0.31257  1.0000
  H   H3177     1.0  0.86065  0.12821  0.40090  1.0000
  H   H3178     1.0  0.77484  0.11000  0.31974  1.0000
  H   H3179     1.0  0.75034  0.25442  0.25945  1.0000
  H   H3180     1.0  0.82295  0.00069  0.03262  1.0000
  H   H3181     1.0  0.82850  0.12827  0.45324  1.0000
  C   C2639     1.0  0.90495  0.11096  0.04140  1.0000
  C   C2640     1.0  0.91881  0.09394  0.06287  1.0000
  C   C2641     1.0  0.89083  0.08702  0.07699  1.0000
  H   H3182     1.0  0.81323  0.11224  0.43461  1.0000
  N   N178      1.0  0.90492  0.10002  0.06805  1.0000
  H   H3183     1.0  0.78955  0.28120  0.29730  1.0000
  C   C2642     1.0  0.78591  0.11186  0.30372  1.0000
  Fe  Fe347     1.0  0.76558  0.31026  0.02315  1.0000
  H   H3184     1.0  0.81134  0.05455  0.01868  1.0000
  H   H3185     1.0  0.88916  0.31797  0.16998  1.0000
  H   H3186     1.0  0.76716  0.27054  0.14476  1.0000
  H   H3187     1.0  0.77876  0.03650  0.27160  1.0000
  C   C2643     1.0  0.76300  0.13082  0.22609  1.0000
  H   H3188     1.0  0.79771  0.11075  0.23547  1.0000
  H   H3189     1.0  0.87298  0.05758  0.05271  1.0000
  C   C2644     1.0  0.74073  0.23455  0.37624  1.0000
  H   H3190     1.0  0.88072  0.09036  0.11850  1.0000
  H   H3191     1.0  0.77434  0.26825  0.32627  1.0000
  H   H3192     1.0  0.97077  0.11083  0.07009  1.0000
  H   H3193     1.0  0.91141  0.01338  0.98500  1.0000
  C   C2645     1.0  0.97540  0.15817  0.05146  1.0000
  C   C2646     1.0  0.75191  0.23222  0.35489  1.0000
  C   C2647     1.0  0.74754  0.22305  0.33717  1.0000
  H   H3194     1.0  0.76396  0.23758  0.35204  1.0000
  H   H3195     1.0  0.75620  0.22127  0.32079  1.0000
  H   H3196     1.0  0.95888  0.26635  0.13718  1.0000
  C   C2648     1.0  0.79078  0.26843  0.20034  1.0000
  C   C2649     1.0  0.80088  0.26241  0.21435  1.0000
  C   C2650     1.0  0.81480  0.27228  0.21447  1.0000
  C   C2651     1.0  0.81879  0.28813  0.20017  1.0000
  C   C2652     1.0  0.80884  0.29404  0.18564  1.0000
  C   C2653     1.0  0.79486  0.28423  0.18584  1.0000
  H   H3197     1.0  0.79789  0.25022  0.22542  1.0000
  H   H3198     1.0  0.82248  0.26763  0.22567  1.0000
  H   H3199     1.0  0.81178  0.30624  0.17459  1.0000
  H   H3200     1.0  0.78711  0.28899  0.17494  1.0000
  C   C2654     1.0  0.79217  0.17430  0.25845  1.0000
  C   C2655     1.0  0.78730  0.17478  0.28658  1.0000
  C   C2656     1.0  0.79297  0.16658  0.30761  1.0000
  C   C2657     1.0  0.80349  0.15784  0.30066  1.0000
  C   C2658     1.0  0.80831  0.15730  0.27256  1.0000
  C   C2659     1.0  0.80266  0.16551  0.25154  1.0000
  H   H3201     1.0  0.77918  0.18148  0.29210  1.0000
  H   H3202     1.0  0.78918  0.16704  0.32932  1.0000
  H   H3203     1.0  0.81646  0.15067  0.26696  1.0000
  H   H3204     1.0  0.79599  0.13674  0.38881  1.0000
  H   H3205     1.0  0.77429  0.13501  0.29506  1.0000
  H   H3206     1.0  0.74659  0.25032  0.17696  1.0000
  H   H3207     1.0  0.77399  0.24765  0.29977  1.0000
  C   C2660     1.0  0.77361  0.28216  0.25811  1.0000
  H   H3208     1.0  0.77243  0.28709  0.30896  1.0000
  C   C2661     1.0  0.79144  0.05567  0.23565  1.0000
  S   S709      1.0  0.74656  0.01051  0.22264  1.0000
  N   N179      1.0  0.89036  0.11058  0.35005  1.0000
  C   C2662     1.0  0.87859  0.11907  0.34502  1.0000
  C   C2663     1.0  0.90514  0.11918  0.32865  1.0000
  C   C2664     1.0  0.88574  0.09506  0.34491  1.0000
  C   C2665     1.0  0.89128  0.10903  0.37974  1.0000
  C   C2666     1.0  0.87885  0.09931  0.40262  1.0000
  C   C2667     1.0  0.90382  0.11789  0.38692  1.0000
  C   C2668     1.0  0.87900  0.09842  0.43082  1.0000
  C   C2669     1.0  0.90377  0.11701  0.41525  1.0000
  C   C2670     1.0  0.89136  0.10736  0.43713  1.0000
  H   H3209     1.0  0.88147  0.13073  0.34897  1.0000
  H   H3210     1.0  0.87758  0.12073  0.32280  1.0000
  H   H3211     1.0  0.86698  0.11278  0.35930  1.0000
  H   H3212     1.0  0.90855  0.13156  0.32893  1.0000
  H   H3213     1.0  0.90426  0.11956  0.30659  1.0000
  H   H3214     1.0  0.91465  0.11368  0.33199  1.0000
  H   H3215     1.0  0.87369  0.08866  0.35680  1.0000
  H   H3216     1.0  0.88606  0.09596  0.32218  1.0000
  H   H3217     1.0  0.89351  0.08772  0.35097  1.0000
  H   H3218     1.0  0.86855  0.09278  0.39903  1.0000
  H   H3219     1.0  0.91368  0.12580  0.37109  1.0000
  H   H3220     1.0  0.87573  0.27524  0.19074  1.0000
  H   H3221     1.0  0.91329  0.12406  0.42032  1.0000
  H   H3222     1.0  0.76824  0.29185  0.26081  1.0000
  C   C2671     1.0  0.86650  0.07119  0.11103  1.0000
  H   H3223     1.0  0.75400  0.27638  0.12540  1.0000
  C   C2672     1.0  0.77053  0.12035  0.23847  1.0000
  Fe  Fe348     1.0  0.74432  0.01123  0.17840  1.0000
  S   S710      1.0  0.73837  0.22298  0.24028  1.0000
  H   H3224     1.0  0.88694  0.00304  0.98213  1.0000
  H   H3225     1.0  0.86037  0.31750  0.03515  1.0000
  H   H3226     1.0  0.89662  0.11459  0.09336  1.0000
  H   H3227     1.0  0.77322  0.11177  0.22766  1.0000
  C   C2673     1.0  0.87484  0.06485  0.06690  1.0000
  S   S711      1.0  0.74083  0.30832  0.02178  1.0000
  S   S712      1.0  0.78427  0.04794  0.20933  1.0000
  H   H3228     1.0  0.98040  0.25381  0.20292  1.0000
  C   C2674     1.0  0.79862  0.11329  0.25593  1.0000
  C   C2675     1.0  0.77469  0.09399  0.28025  1.0000
  H   H3229     1.0  0.83269  0.13574  0.40536  1.0000
  S   S713      1.0  0.78015  0.00364  0.20318  1.0000
  H   H3230     1.0  0.83017  0.06234  0.04248  1.0000
  H   H3231     1.0  0.91482  0.12146  0.03516  1.0000
  C   C2676     1.0  0.87963  0.08363  0.10336  1.0000
  H   H3232     1.0  0.77433  0.09095  0.25997  1.0000
  H   H3233     1.0  0.77156  0.27267  0.10744  1.0000
  C   C2677     1.0  0.97064  0.26713  0.12637  1.0000
  H   H3234     1.0  0.78850  0.04863  0.30675  1.0000
  H   H3235     1.0  0.89588  0.07918  0.03858  1.0000
  H   H3236     1.0  0.78013  0.08554  0.29148  1.0000
  H   H3237     1.0  0.92826  0.28696  0.15825  1.0000
  H   H3238     1.0  0.75412  0.15079  0.22864  1.0000
  H   H3239     1.0  0.85993  0.30430  0.15195  1.0000
  H   H3240     1.0  0.82264  0.13850  0.37863  1.0000
  C   C2678     1.0  0.88796  0.07728  0.05898  1.0000
  H   H3241     1.0  0.87874  0.04007  0.98541  1.0000
  H   H3242     1.0  0.76260  0.09169  0.29310  1.0000
  H   H3243     1.0  0.74921  0.27087  0.33537  1.0000
  H   H3244     1.0  0.76121  0.15279  0.27286  1.0000
  Fe  Fe349     1.0  0.77112  0.02491  0.20296  1.0000
  H   H3245     1.0  0.90609  0.10570  0.02316  1.0000
  C   C2679     1.0  0.74449  0.25595  0.27941  1.0000
  H   H3246     1.0  0.97467  0.09756  0.05013  1.0000
  H   H3247     1.0  0.79327  0.11218  0.44361  1.0000
  H   H3248     1.0  0.80570  0.10589  0.26478  1.0000
  N   N180      1.0  0.75371  0.25207  0.13219  1.0000
  C   C2680     1.0  0.76192  0.26862  0.12714  1.0000
  C   C2681     1.0  0.81668  0.04474  0.01699  1.0000
  Fe  Fe350     1.0  0.73979  0.20394  0.21889  1.0000
  C   C2682     1.0  0.74654  0.24900  0.10927  1.0000
  H   H3249     1.0  0.89500  0.30677  0.10041  1.0000
  C   C2683     1.0  0.80037  0.00415  0.03294  1.0000
  H   H3250     1.0  0.86970  0.27370  0.15924  1.0000
  H   H3251     1.0  0.78493  0.13561  0.42337  1.0000
  S   S714      1.0  0.79624  0.00314  0.12669  1.0000
  C   C2684     1.0  0.74402  0.26539  0.32126  1.0000
  C   C2685     1.0  0.78680  0.00588  0.04970  1.0000
  S   S715      1.0  0.97433  0.31844  0.04783  1.0000
  H   H3252     1.0  0.80324  0.11361  0.40768  1.0000
  C   C2686     1.0  0.77677  0.27692  0.30539  1.0000
  C   C2687     1.0  0.75279  0.26378  0.29551  1.0000
  H   H3253     1.0  0.79168  0.15169  0.45091  1.0000
  C   C2688     1.0  0.74199  0.31675  0.45501  1.0000
  H   H3254     1.0  0.86995  0.30757  0.19068  1.0000
  C   C2689     1.0  0.75960  0.14242  0.23860  1.0000
  S   S716      1.0  0.93745  0.12982  0.98085  1.0000
  C   C2690     1.0  0.80985  0.13913  0.44745  1.0000
  H   H3255     1.0  0.91887  0.08508  0.08196  1.0000
  H   H3256     1.0  0.92963  0.10336  0.05724  1.0000
  H   H3257     1.0  0.91961  0.08845  0.04494  1.0000
  C   C2691     1.0  0.74767  0.26078  0.08458  1.0000
  C   C2692     1.0  0.86412  0.06181  0.09289  1.0000
  C   C2693     1.0  0.90634  0.10904  0.08931  1.0000
  H   H3258     1.0  0.85810  0.06874  0.13128  1.0000
  C   C2694     1.0  0.82088  0.13475  0.46154  1.0000
  C   C2695     1.0  0.78530  0.00558  0.07846  1.0000
  H   H3259     1.0  0.91713  0.11866  0.08192  1.0000
  C   C2696     1.0  0.77482  0.12116  0.26395  1.0000
  N   N181      1.0  0.92056  0.20550  0.19667  1.0000
  C   C2697     1.0  0.92620  0.20393  0.16758  1.0000
  C   C2698     1.0  0.91916  0.22166  0.19385  1.0000
  C   C2699     1.0  0.93247  0.20307  0.21198  1.0000
  C   C2700     1.0  0.90565  0.19432  0.21284  1.0000
  C   C2701     1.0  0.89837  0.19487  0.24048  1.0000
  C   C2702     1.0  0.89814  0.18242  0.20229  1.0000
  C   C2703     1.0  0.88442  0.18431  0.25640  1.0000
  C   C2704     1.0  0.88419  0.17193  0.21842  1.0000
  C   C2705     1.0  0.87735  0.17286  0.24536  1.0000
  H   H3260     1.0  0.93736  0.21260  0.15589  1.0000
  H   H3261     1.0  0.92846  0.19234  0.16802  1.0000
  H   H3262     1.0  0.91785  0.20579  0.15469  1.0000
  H   H3263     1.0  0.90969  0.22368  0.18387  1.0000
  H   H3264     1.0  0.93003  0.23028  0.18044  1.0000
  H   H3265     1.0  0.91686  0.22451  0.21457  1.0000
  H   H3266     1.0  0.92950  0.20449  0.23380  1.0000
  H   H3267     1.0  0.93404  0.19116  0.21396  1.0000
  H   H3268     1.0  0.94387  0.21134  0.20076  1.0000
  H   H3269     1.0  0.90357  0.20331  0.25022  1.0000
  H   H3270     1.0  0.90291  0.18074  0.18189  1.0000
  H   H3271     1.0  0.87916  0.18481  0.27759  1.0000
  H   H3272     1.0  0.87886  0.16263  0.21043  1.0000
  H   H3273     1.0  0.86673  0.16442  0.25795  1.0000
  N   N182      1.0  0.88012  0.29702  0.15916  1.0000
  C   C2706     1.0  0.87073  0.28103  0.17428  1.0000
  C   C2707     1.0  0.88138  0.30616  0.18023  1.0000
  C   C2708     1.0  0.87154  0.30414  0.14001  1.0000
  C   C2709     1.0  0.89569  0.29657  0.14411  1.0000
  C   C2710     1.0  0.90148  0.30183  0.11409  1.0000
  C   C2711     1.0  0.90564  0.29082  0.15960  1.0000
  C   C2712     1.0  0.91636  0.30150  0.10071  1.0000
  C   C2713     1.0  0.92060  0.29079  0.14600  1.0000
  C   C2714     1.0  0.92596  0.29619  0.11662  1.0000
  H   H3274     1.0  0.92793  0.03602  0.99214  1.0000
  H   H3275     1.0  0.85880  0.28097  0.18538  1.0000
  H   H3276     1.0  0.82903  0.08889  0.46392  1.0000
  H   H3277     1.0  0.74221  0.26655  0.04427  1.0000
  H   H3278     1.0  0.86958  0.29756  0.12420  1.0000
  C   C2715     1.0  0.73316  0.24227  0.06539  1.0000
  C   C2716     1.0  0.84049  0.06750  0.02531  1.0000
  H   H3279     1.0  0.92078  0.30611  0.07791  1.0000
  C   C2717     1.0  0.85151  0.07933  0.02925  1.0000
  C   C2718     1.0  0.81249  0.00214  0.04518  1.0000
  H   H3280     1.0  0.90206  0.28663  0.18243  1.0000
  H   H3281     1.0  0.84092  0.03213  0.01612  1.0000
  C   C2719     1.0  0.74167  0.24757  0.15947  1.0000
  C   C2720     1.0  0.76510  0.24273  0.13511  1.0000
  C   C2721     1.0  0.79740  0.00354  0.09071  1.0000
  H   H3282     1.0  0.89112  0.10704  0.45904  1.0000
  C   C2722     1.0  0.78561  0.31696  0.07388  1.0000
  H   H3283     1.0  0.87772  0.31641  0.12867  1.0000
  S   S717      1.0  0.76990  0.29682  0.99094  1.0000
  H   H3284     1.0  0.75999  0.13012  0.20646  1.0000
  H   H3285     1.0  0.78994  0.26153  0.27346  1.0000
  H   H3286     1.0  0.86916  0.09124  0.44789  1.0000
  H   H3287     1.0  0.75964  0.23004  0.14184  1.0000
  N   N183      1.0  0.80851  0.13463  0.42108  1.0000
  C   C2723     1.0  0.82349  0.14094  0.39926  1.0000
  H   H3288     1.0  0.88595  0.30063  0.19759  1.0000
  C   C2724     1.0  0.85482  0.11873  0.47324  1.0000
  C   C2725     1.0  0.80436  0.11746  0.42704  1.0000
  Fe  Fe351     1.0  0.77605  0.00536  0.15973  1.0000
  H   H3289     1.0  0.77400  0.24528  0.11471  1.0000
  H   H3290     1.0  0.83028  0.02660  0.99195  1.0000
  C   C2726     1.0  0.79666  0.14034  0.40859  1.0000
  H   H3291     1.0  0.77372  0.25248  0.26327  1.0000
  H   H3292     1.0  0.78631  0.28711  0.24951  1.0000
  H   H3293     1.0  0.81778  0.03896  0.03824  1.0000
  S   S718      1.0  0.97747  0.20921  0.20970  1.0000
  C   C2727     1.0  0.76357  0.14349  0.26364  1.0000
  H   H3294     1.0  0.73249  0.25380  0.15779  1.0000
  H   H3295     1.0  0.79941  0.15326  0.40243  1.0000
  C   C2728     1.0  0.80034  0.14772  0.46006  1.0000
  H   H3296     1.0  0.93775  0.29673  0.10617  1.0000
  C   C2729     1.0  0.97807  0.16722  0.09373  1.0000
  C   C2730     1.0  0.83838  0.03640  0.99543  1.0000
  S   S719      1.0  0.91879  0.08449  0.98845  1.0000
  Fe  Fe352     1.0  0.74578  0.29638  0.98692  1.0000
  C   C2731     1.0  0.97646  0.25394  0.13065  1.0000
  S   S720      1.0  0.73272  0.26210  0.46246  1.0000
  C   C2732     1.0  0.84296  0.06259  0.99994  1.0000
  C   C2733     1.0  0.98002  0.28142  0.10843  1.0000
  C   C2734     1.0  0.97938  0.10428  0.06400  1.0000
  H   H3297     1.0  0.73684  0.22416  0.12929  1.0000
  C   C2735     1.0  0.73824  0.23374  0.11110  1.0000
  H   H3298     1.0  0.80848  0.31911  0.11984  1.0000
  H   H3299     1.0  0.98002  0.15884  0.02938  1.0000
  H   H3300     1.0  0.84508  0.31730  0.06437  1.0000
  H   H3301     1.0  0.80576  0.31661  0.02294  1.0000
  C   C2736     1.0  0.86530  0.08641  0.00841  1.0000
  C   C2737     1.0  0.86815  0.08170  0.98356  1.0000
  H   H3302     1.0  0.98176  0.13098  0.08337  1.0000
  S   S721      1.0  0.75201  0.98941  0.17633  1.0000
  Fe  Fe353     1.0  0.75542  0.98935  0.21961  1.0000
  Fe  Fe354     1.0  0.75705  0.21074  0.62783  1.0000
  S   S722      1.0  0.74425  0.22098  0.65945  1.0000
  S   S723      1.0  0.75802  0.21488  0.58121  1.0000
  Fe  Fe355     1.0  0.77178  0.19423  0.66991  1.0000
  S   S724      1.0  0.76040  0.20326  0.70504  1.0000
  S   S725      1.0  0.78668  0.17783  0.67954  1.0000
  H   H3303     1.0  0.97781  0.24364  0.79694  1.0000
  S   S726      1.0  0.95057  0.21095  0.67963  1.0000
  Fe  Fe356     1.0  0.76654  0.22608  0.67235  1.0000
  S   S727      1.0  0.77364  0.24989  0.67995  1.0000
  S   S728      1.0  0.75007  0.18666  0.65704  1.0000
  S   S729      1.0  0.77977  0.21760  0.63829  1.0000
  H   H3304     1.0  0.88723  0.31474  0.75263  1.0000
  C   C2738     1.0  0.77083  0.26109  0.60576  1.0000
  S   S730      1.0  0.95262  0.29744  0.82512  1.0000
  S   S731      1.0  0.79746  0.01472  0.65957  1.0000
  Fe  Fe357     1.0  0.83101  0.13436  0.58658  1.0000
  S   S732      1.0  0.85430  0.14578  0.55665  1.0000
  S   S733      1.0  0.81241  0.14713  0.58330  1.0000
  Fe  Fe358     1.0  0.84092  0.10557  0.61036  1.0000
  S   S734      1.0  0.86509  0.11507  0.58155  1.0000
  S   S735      1.0  0.83405  0.08406  0.64811  1.0000
  Fe  Fe359     1.0  0.86409  0.13752  0.59319  1.0000
  S   S736      1.0  0.88515  0.15419  0.59853  1.0000
  Fe  Fe360     1.0  0.85343  0.12270  0.54701  1.0000
  S   S737      1.0  0.86293  0.12530  0.49939  1.0000
  S   S738      1.0  0.84065  0.12773  0.62382  1.0000
  S   S739      1.0  0.82935  0.11159  0.57521  1.0000
  Fe  Fe361     1.0  0.93673  0.18653  0.70303  1.0000
  S   S740      1.0  0.91433  0.17219  0.69724  1.0000
  S   S741      1.0  0.93484  0.19122  0.74620  1.0000
  Fe  Fe362     1.0  0.95814  0.13925  0.94285  1.0000
  H   H3305     1.0  0.82511  0.99149  0.68753  1.0000
  Fe  Fe363     1.0  0.85627  0.02400  0.93220  1.0000
  S   S742      1.0  0.83289  0.02587  0.92636  1.0000
  S   S743      1.0  0.87574  0.04596  0.92628  1.0000
  Fe  Fe364     1.0  0.83385  0.00864  0.89995  1.0000
  S   S744      1.0  0.82715  0.01360  0.85751  1.0000
  S   S745      1.0  0.85821  0.00856  0.90238  1.0000
  C   C2739     1.0  0.95613  0.24796  0.74941  1.0000
  S   S746      1.0  0.82891  0.29531  0.79016  1.0000
  H   H3306     1.0  0.83090  0.01825  0.67627  1.0000
  S   S747      1.0  0.95947  0.11556  0.93720  1.0000
  Fe  Fe365     1.0  0.83352  0.29560  0.74402  1.0000
  S   S748      1.0  0.82964  0.27296  0.73111  1.0000
  H   H3307     1.0  0.83821  0.09852  0.50198  1.0000
  H   H3308     1.0  0.73875  0.26051  0.52703  1.0000
  H   H3309     1.0  0.90920  0.99376  0.96331  1.0000
  H   H3310     1.0  0.76109  0.29337  0.84885  1.0000
  C   C2740     1.0  0.91292  0.31703  0.80524  1.0000
  C   C2741     1.0  0.75259  0.04456  0.71060  1.0000
  H   H3311     1.0  0.75840  0.27268  0.85380  1.0000
  H   H3312     1.0  0.81246  0.28767  0.90693  1.0000
  C   C2742     1.0  0.77401  0.28691  0.56122  1.0000
  H   H3313     1.0  0.95296  0.27732  0.88001  1.0000
  H   H3314     1.0  0.75492  0.30359  0.89196  1.0000
  C   C2743     1.0  0.81450  0.00198  0.84275  1.0000
  H   H3315     1.0  0.93022  0.06277  0.90923  1.0000
  C   C2744     1.0  0.77948  0.28871  0.58481  1.0000
  H   H3316     1.0  0.75156  0.05985  0.63208  1.0000
  H   H3317     1.0  0.74677  0.05415  0.71093  1.0000
  C   C2745     1.0  0.90791  0.07929  0.94172  1.0000
  C   C2746     1.0  0.89824  0.07060  0.92876  1.0000
  C   C2747     1.0  0.88764  0.05632  0.94419  1.0000
  H   H3318     1.0  0.91597  0.09018  0.92934  1.0000
  H   H3319     1.0  0.89905  0.07498  0.90647  1.0000
  H   H3320     1.0  0.79762  0.00634  0.78725  1.0000
  C   C2748     1.0  0.96184  0.15001  0.86173  1.0000
  C   C2749     1.0  0.96268  0.15141  0.83279  1.0000
  H   H3321     1.0  0.96350  0.13968  0.87473  1.0000
  H   H3322     1.0  0.91359  0.04096  0.90098  1.0000
  C   C2750     1.0  0.89277  0.15948  0.62635  1.0000
  C   C2751     1.0  0.90763  0.16954  0.61933  1.0000
  C   C2752     1.0  0.91436  0.17377  0.64053  1.0000
  C   C2753     1.0  0.90629  0.16802  0.66918  1.0000
  C   C2754     1.0  0.89129  0.15822  0.67613  1.0000
  C   C2755     1.0  0.88456  0.15402  0.65496  1.0000
  H   H3323     1.0  0.91411  0.17395  0.59732  1.0000
  H   H3324     1.0  0.92588  0.18133  0.63473  1.0000
  H   H3325     1.0  0.88491  0.15371  0.69818  1.0000
  H   H3326     1.0  0.87307  0.14650  0.66092  1.0000
  H   H3327     1.0  0.95590  0.18703  0.81443  1.0000
  Fe  Fe366     1.0  0.82321  0.00500  0.96404  1.0000
  C   C2756     1.0  0.90707  0.07392  0.97055  1.0000
  C   C2757     1.0  0.85123  0.01579  0.77026  1.0000
  S   S749      1.0  0.94628  0.23802  0.72907  1.0000
  C   C2758     1.0  0.80668  0.03427  0.65691  1.0000
  C   C2759     1.0  0.80789  0.03953  0.68087  1.0000
  C   C2760     1.0  0.81629  0.05480  0.67776  1.0000
  C   C2761     1.0  0.82317  0.06514  0.65072  1.0000
  C   C2762     1.0  0.82156  0.06004  0.62678  1.0000
  C   C2763     1.0  0.81352  0.04462  0.62990  1.0000
  H   H3328     1.0  0.80252  0.03183  0.70179  1.0000
  H   H3329     1.0  0.81739  0.05867  0.69642  1.0000
  H   H3330     1.0  0.82679  0.06784  0.60584  1.0000
  H   H3331     1.0  0.81266  0.04068  0.61120  1.0000
  H   H3332     1.0  0.81927  0.04599  0.96396  1.0000
  H   H3333     1.0  0.73266  0.22962  0.50652  1.0000
  H   H3334     1.0  0.74581  0.15813  0.74900  1.0000
  C   C2764     1.0  0.82231  0.13859  0.48667  1.0000
  C   C2765     1.0  0.74384  0.26251  0.54477  1.0000
  H   H3335     1.0  0.92004  0.31751  0.81998  1.0000
  S   S750      1.0  0.97226  0.20836  0.72523  1.0000
  H   H3336     1.0  0.81088  0.01410  0.73739  1.0000
  H   H3337     1.0  0.86014  0.06652  0.95990  1.0000
  C   C2766     1.0  0.95647  0.26365  0.74666  1.0000
  H   H3338     1.0  0.96441  0.28420  0.76003  1.0000
  H   H3339     1.0  0.95085  0.26936  0.73208  1.0000
  C   C2767     1.0  0.74205  0.21851  0.56912  1.0000
  N   N184      1.0  0.82850  0.00425  0.71854  1.0000
  H   H3340     1.0  0.76382  0.25651  0.50362  1.0000
  H   H3341     1.0  0.90779  0.01655  0.89269  1.0000
  N   N185      1.0  0.75483  0.27993  0.89254  1.0000
  H   H3342     1.0  0.74622  0.29009  0.92610  1.0000
  H   H3343     1.0  0.80583  0.15657  0.67787  1.0000
  C   C2768     1.0  0.95761  0.17674  0.82744  1.0000
  C   C2769     1.0  0.81388  0.26659  0.71730  1.0000
  C   C2770     1.0  0.80380  0.27581  0.71165  1.0000
  C   C2771     1.0  0.79155  0.27050  0.70027  1.0000
  C   C2772     1.0  0.78914  0.25588  0.69461  1.0000
  C   C2773     1.0  0.79915  0.24660  0.70039  1.0000
  C   C2774     1.0  0.81149  0.25196  0.71159  1.0000
  H   H3344     1.0  0.80548  0.28706  0.71596  1.0000
  H   H3345     1.0  0.78385  0.27775  0.69590  1.0000
  H   H3346     1.0  0.79743  0.23533  0.69613  1.0000
  H   H3347     1.0  0.81922  0.24475  0.71592  1.0000
  C   C2775     1.0  0.79373  0.16934  0.65269  1.0000
  C   C2776     1.0  0.79008  0.17253  0.62660  1.0000
  C   C2777     1.0  0.79584  0.16559  0.60554  1.0000
  C   C2778     1.0  0.80525  0.15544  0.61041  1.0000
  C   C2779     1.0  0.80876  0.15214  0.63660  1.0000
  C   C2780     1.0  0.80304  0.15910  0.65767  1.0000
  H   H3348     1.0  0.78287  0.18038  0.62261  1.0000
  H   H3349     1.0  0.79305  0.16817  0.58533  1.0000
  H   H3350     1.0  0.81576  0.14411  0.64071  1.0000
  C   C2781     1.0  0.96085  0.31179  0.94553  1.0000
  H   H3351     1.0  0.79018  0.28377  0.94757  1.0000
  H   H3352     1.0  0.80846  0.28777  0.85951  1.0000
  H   H3353     1.0  0.76963  0.25110  0.62309  1.0000
  C   C2782     1.0  0.82849  0.05496  0.96718  1.0000
  H   H3354     1.0  0.83088  0.13508  0.49696  1.0000
  C   C2783     1.0  0.79861  0.28577  0.87740  1.0000
  C   C2784     1.0  0.95435  0.26554  0.87942  1.0000
  H   H3355     1.0  0.84968  0.02755  0.73009  1.0000
  C   C2785     1.0  0.97002  0.24065  0.86987  1.0000
  C   C2786     1.0  0.89433  0.31557  0.76730  1.0000
  H   H3356     1.0  0.73601  0.29086  0.89953  1.0000
  H   H3357     1.0  0.79448  0.15801  0.49467  1.0000
  C   C2787     1.0  0.91974  0.31922  0.77650  1.0000
  H   H3358     1.0  0.78496  0.30016  0.58595  1.0000
  H   H3359     1.0  0.94279  0.25725  0.88877  1.0000
  S   S751      1.0  0.95465  0.30546  0.89707  1.0000
  H   H3360     1.0  0.75779  0.01867  0.69623  1.0000
  H   H3361     1.0  0.84856  0.01950  0.68694  1.0000
  H   H3362     1.0  0.88039  0.01672  0.95908  1.0000
  H   H3363     1.0  0.73399  0.16313  0.72591  1.0000
  C   C2788     1.0  0.80093  0.00051  0.80533  1.0000
  C   C2789     1.0  0.97194  0.26491  0.78049  1.0000
  C   C2790     1.0  0.82935  0.99062  0.70704  1.0000
  N   N186      1.0  0.75654  0.04227  0.68171  1.0000
  C   C2791     1.0  0.74182  0.03633  0.67484  1.0000
  C   C2792     1.0  0.83085  0.98985  0.76574  1.0000
  H   H3364     1.0  0.96664  0.20201  0.89521  1.0000
  C   C2793     1.0  0.76632  0.05696  0.66137  1.0000
  C   C2794     1.0  0.76211  0.06450  0.63719  1.0000
  C   C2795     1.0  0.78060  0.06421  0.66548  1.0000
  C   C2796     1.0  0.77163  0.07845  0.61859  1.0000
  C   C2797     1.0  0.78998  0.07818  0.64683  1.0000
  C   C2798     1.0  0.78551  0.08528  0.62343  1.0000
  C   C2799     1.0  0.90758  0.99754  0.94173  1.0000
  S   S752      1.0  0.86748  0.31087  0.80856  1.0000
  H   H3365     1.0  0.75746  0.29233  0.52029  1.0000
  C   C2800     1.0  0.75151  0.14875  0.64002  1.0000
  C   C2801     1.0  0.96615  0.24497  0.89559  1.0000
  Fe  Fe367     1.0  0.73910  0.19738  0.68976  1.0000
  H   H3366     1.0  0.74392  0.03356  0.65396  1.0000
  H   H3367     1.0  0.96009  0.20878  0.94065  1.0000
  C   C2802     1.0  0.76827  0.25886  0.52182  1.0000
  C   C2803     1.0  0.75412  0.28172  0.86262  1.0000
  H   H3368     1.0  0.95960  0.23515  0.94186  1.0000
  H   H3369     1.0  0.76827  0.08400  0.60022  1.0000
  H   H3370     1.0  0.80086  0.08348  0.65039  1.0000
  H   H3371     1.0  0.79289  0.09607  0.60895  1.0000
  C   C2804     1.0  0.74140  0.14570  0.69098  1.0000
  C   C2805     1.0  0.92491  0.03674  0.97213  1.0000
  H   H3372     1.0  0.97288  0.24910  0.84956  1.0000
  H   H3373     1.0  0.85877  0.02594  0.77266  1.0000
  C   C2806     1.0  0.91098  0.02462  0.94207  1.0000
  H   H3374     1.0  0.95464  0.18473  0.86543  1.0000
  H   H3375     1.0  0.80549  0.99339  0.74525  1.0000
  H   H3376     1.0  0.89158  0.31273  0.83714  1.0000
  C   C2807     1.0  0.92629  0.05177  0.92537  1.0000
  H   H3377     1.0  0.87730  0.99680  0.95751  1.0000
  H   H3378     1.0  0.75818  0.13658  0.74604  1.0000
  H   H3379     1.0  0.94930  0.25661  0.93555  1.0000
  C   C2808     1.0  0.78380  0.28395  0.87325  1.0000
  N   N187      1.0  0.85341  0.18190  0.61792  1.0000
  C   C2809     1.0  0.86962  0.19110  0.61173  1.0000
  C   C2810     1.0  0.85087  0.16767  0.64099  1.0000
  C   C2811     1.0  0.85152  0.17701  0.59207  1.0000
  C   C2812     1.0  0.84265  0.19111  0.62704  1.0000
  C   C2813     1.0  0.84334  0.19700  0.65099  1.0000
  C   C2814     1.0  0.83102  0.19415  0.61326  1.0000
  C   C2815     1.0  0.83307  0.20540  0.66050  1.0000
  C   C2816     1.0  0.82090  0.20267  0.62286  1.0000
  C   C2817     1.0  0.82185  0.20820  0.64649  1.0000
  H   H3380     1.0  0.87800  0.18470  0.60362  1.0000
  H   H3381     1.0  0.87180  0.20228  0.59547  1.0000
  H   H3382     1.0  0.87266  0.19380  0.63084  1.0000
  H   H3383     1.0  0.85408  0.17028  0.66005  1.0000
  H   H3384     1.0  0.85788  0.15984  0.63413  1.0000
  H   H3385     1.0  0.83855  0.16104  0.64774  1.0000
  H   H3386     1.0  0.85326  0.18716  0.57379  1.0000
  H   H3387     1.0  0.86012  0.17055  0.58533  1.0000
  H   H3388     1.0  0.83993  0.16908  0.59569  1.0000
  H   H3389     1.0  0.85168  0.19494  0.66283  1.0000
  H   H3390     1.0  0.82922  0.18979  0.59544  1.0000
  H   H3391     1.0  0.83362  0.20959  0.67910  1.0000
  H   H3392     1.0  0.81187  0.20456  0.61251  1.0000
  H   H3393     1.0  0.81366  0.21439  0.65430  1.0000
  N   N188      1.0  0.91271  0.27124  0.77506  1.0000
  C   C2818     1.0  0.91554  0.25562  0.77683  1.0000
  C   C2819     1.0  0.92505  0.28283  0.75187  1.0000
  C   C2820     1.0  0.91393  0.27503  0.80212  1.0000
  C   C2821     1.0  0.89758  0.27144  0.76896  1.0000
  C   C2822     1.0  0.88593  0.27620  0.78610  1.0000
  C   C2823     1.0  0.89432  0.26724  0.74465  1.0000
  C   C2824     1.0  0.87192  0.27657  0.77927  1.0000
  C   C2825     1.0  0.88024  0.26760  0.73811  1.0000
  C   C2826     1.0  0.86907  0.27225  0.75540  1.0000
  H   H3394     1.0  0.92626  0.25472  0.78356  1.0000
  H   H3395     1.0  0.90580  0.24643  0.79235  1.0000
  H   H3396     1.0  0.91712  0.25266  0.75614  1.0000
  H   H3397     1.0  0.92639  0.27963  0.73144  1.0000
  H   H3398     1.0  0.93645  0.28438  0.75688  1.0000
  H   H3399     1.0  0.92259  0.29443  0.74821  1.0000
  H   H3400     1.0  0.90491  0.26678  0.82052  1.0000
  H   H3401     1.0  0.92534  0.27458  0.80632  1.0000
  H   H3402     1.0  0.91296  0.28704  0.80159  1.0000
  H   H3403     1.0  0.88737  0.27996  0.80467  1.0000
  H   H3404     1.0  0.90271  0.26376  0.73038  1.0000
  H   H3405     1.0  0.86327  0.28043  0.79242  1.0000
  H   H3406     1.0  0.87795  0.26435  0.71945  1.0000
  H   H3407     1.0  0.85819  0.27260  0.75018  1.0000
  H   H3408     1.0  0.98089  0.27700  0.65076  1.0000
  H   H3409     1.0  0.81384  0.14978  0.51822  1.0000
  H   H3410     1.0  0.73454  0.04474  0.67490  1.0000
  N   N189      1.0  0.87841  0.10396  0.66372  1.0000
  C   C2827     1.0  0.88390  0.09794  0.63913  1.0000
  C   C2828     1.0  0.86887  0.09041  0.68742  1.0000
  C   C2829     1.0  0.86828  0.11404  0.65617  1.0000
  C   C2830     1.0  0.89158  0.11325  0.67081  1.0000
  C   C2831     1.0  0.90294  0.12529  0.64938  1.0000
  C   C2832     1.0  0.89296  0.11145  0.69910  1.0000
  C   C2833     1.0  0.91503  0.13472  0.65578  1.0000
  C   C2834     1.0  0.90499  0.12114  0.70528  1.0000
  C   C2835     1.0  0.91597  0.13275  0.68368  1.0000
  H   H3411     1.0  0.89259  0.09134  0.64300  1.0000
  H   H3412     1.0  0.87422  0.09013  0.63460  1.0000
  H   H3413     1.0  0.88918  0.10731  0.61913  1.0000
  H   H3414     1.0  0.87599  0.08264  0.69484  1.0000
  H   H3415     1.0  0.85947  0.08333  0.68093  1.0000
  H   H3416     1.0  0.86289  0.09407  0.70565  1.0000
  H   H3417     1.0  0.87441  0.12400  0.63742  1.0000
  H   H3418     1.0  0.85813  0.10756  0.65088  1.0000
  H   H3419     1.0  0.86388  0.11884  0.67400  1.0000
  H   H3420     1.0  0.90223  0.12803  0.62762  1.0000
  H   H3421     1.0  0.88474  0.10290  0.71695  1.0000
  H   H3422     1.0  0.92333  0.14411  0.63917  1.0000
  H   H3423     1.0  0.90566  0.11991  0.72702  1.0000
  H   H3424     1.0  0.92496  0.14060  0.68869  1.0000
  C   C2836     1.0  0.96658  0.21391  0.89528  1.0000
  H   H3425     1.0  0.75197  0.31771  0.51692  1.0000
  C   C2837     1.0  0.96387  0.24075  0.76758  1.0000
  C   C2838     1.0  0.80183  0.15148  0.48529  1.0000
  C   C2839     1.0  0.77071  0.28190  0.89606  1.0000
  H   H3426     1.0  0.82465  0.06589  0.96515  1.0000
  C   C2840     1.0  0.77343  0.28156  0.92312  1.0000
  H   H3427     1.0  0.78470  0.05906  0.68309  1.0000
  H   H3428     1.0  0.93736  0.06075  0.95458  1.0000
  C   C2841     1.0  0.81210  0.00412  0.72838  1.0000
  C   C2842     1.0  0.91544  0.02387  0.96782  1.0000
  H   H3429     1.0  0.77561  0.29739  0.54485  1.0000
  H   H3430     1.0  0.73475  0.02533  0.69075  1.0000
  C   C2843     1.0  0.84583  0.01654  0.74590  1.0000
  H   H3431     1.0  0.73775  0.27005  0.55512  1.0000
  C   C2844     1.0  0.78833  0.28360  0.92691  1.0000
  H   H3432     1.0  0.77543  0.03273  0.69021  1.0000
  H   H3433     1.0  0.78210  0.27717  0.62536  1.0000
  H   H3434     1.0  0.85028  0.00182  0.81146  1.0000
  H   H3435     1.0  0.96495  0.14205  0.82377  1.0000
  S   S753      1.0  0.84640  0.00398  0.97132  1.0000
  H   H3436     1.0  0.76103  0.14947  0.62236  1.0000
  Fe  Fe368     1.0  0.96361  0.31269  0.84928  1.0000
  H   H3437     1.0  0.74210  0.28054  0.86055  1.0000
  H   H3438     1.0  0.73628  0.30014  0.49556  1.0000
  H   H3439     1.0  0.76478  0.14528  0.66955  1.0000
  C   C2845     1.0  0.91669  0.03904  0.92091  1.0000
  H   H3440     1.0  0.76406  0.27984  0.94157  1.0000
  H   H3441     1.0  0.74468  0.03391  0.72629  1.0000
  H   H3442     1.0  0.75033  0.25506  0.90229  1.0000
  H   H3443     1.0  0.78098  0.26375  0.51409  1.0000
  C   C2846     1.0  0.93032  0.05066  0.95095  1.0000
  Fe  Fe369     1.0  0.93957  0.10612  0.97650  1.0000
  C   C2847     1.0  0.88569  0.00670  0.96025  1.0000
  C   C2848     1.0  0.76333  0.28400  0.51222  1.0000
  H   H3444     1.0  0.75766  0.12779  0.71717  1.0000
  Fe  Fe370     1.0  0.82021  0.31634  0.77730  1.0000
  H   H3445     1.0  0.84928  0.03917  0.97847  1.0000
  H   H3446     1.0  0.76630  0.24737  0.53699  1.0000
  C   C2849     1.0  0.76674  0.27198  0.55932  1.0000
  C   C2850     1.0  0.76508  0.03006  0.68215  1.0000
  S   S754      1.0  0.98206  0.27532  0.79985  1.0000
  N   N190      1.0  0.74332  0.14378  0.72014  1.0000
  C   C2851     1.0  0.80089  0.28575  0.90408  1.0000
  H   H3447     1.0  0.95794  0.26587  0.85659  1.0000
  C   C2852     1.0  0.79886  0.32202  0.83638  1.0000
  H   H3448     1.0  0.75863  0.28171  0.49421  1.0000
  C   C2853     1.0  0.74441  0.15885  0.72722  1.0000
  H   H3449     1.0  0.75978  0.24743  0.58274  1.0000
  H   H3450     1.0  0.83867  0.05688  0.94909  1.0000
  H   H3451     1.0  0.76289  0.04729  0.71885  1.0000
  N   N191      1.0  0.76071  0.26952  0.53487  1.0000
  S   S755      1.0  0.77285  0.00223  0.73977  1.0000
  C   C2854     1.0  0.88750  0.31362  0.79594  1.0000
  C   C2855     1.0  0.97017  0.22534  0.86981  1.0000
  C   C2856     1.0  0.89682  0.31426  0.81491  1.0000
  H   H3452     1.0  0.96970  0.26589  0.68583  1.0000
  C   C2857     1.0  0.76527  0.25914  0.58243  1.0000
  Fe  Fe371     1.0  0.95019  0.21500  0.72271  1.0000
  C   C2858     1.0  0.96287  0.21776  0.92091  1.0000
  C   C2859     1.0  0.91041  0.31858  0.75756  1.0000
  Fe  Fe372     1.0  0.97507  0.11638  0.96685  1.0000
  Fe  Fe373     1.0  0.85217  0.31221  0.77833  1.0000
  C   C2860     1.0  0.96495  0.31626  0.91573  1.0000
  S   S756      1.0  0.85771  0.31080  0.73331  1.0000
  Fe  Fe374     1.0  0.78061  0.99678  0.69828  1.0000
  H   H3453     1.0  0.76904  0.02849  0.66056  1.0000
  H   H3454     1.0  0.81398  0.02172  0.81069  1.0000
  C   C2861     1.0  0.96419  0.27207  0.76234  1.0000
  C   C2862     1.0  0.74332  0.22205  0.53988  1.0000
  S   S757      1.0  0.82308  0.31550  0.73184  1.0000
  C   C2863     1.0  0.95898  0.16202  0.87368  1.0000
  S   S758      1.0  0.95823  0.16095  0.90988  1.0000
  C   C2864     1.0  0.84656  0.00216  0.79214  1.0000
  H   H3455     1.0  0.96369  0.22864  0.76982  1.0000
  Fe  Fe375     1.0  0.95701  0.18413  0.74568  1.0000
  C   C2865     1.0  0.95692  0.17541  0.85636  1.0000
  H   H3456     1.0  0.78306  0.28463  0.85175  1.0000
  C   C2866     1.0  0.96050  0.16471  0.81553  1.0000
  S   S759      1.0  0.96210  0.16589  0.77908  1.0000
  H   H3457     1.0  0.75371  0.22166  0.52540  1.0000
  C   C2867     1.0  0.74773  0.29162  0.90297  1.0000
  Fe  Fe376     1.0  0.97684  0.29821  0.80372  1.0000
  H   H3458     1.0  0.89108  0.02301  0.90688  1.0000
  S   S760      1.0  0.95808  0.17794  0.70413  1.0000
  H   H3459     1.0  0.83430  0.02913  0.70074  1.0000
  C   C2868     1.0  0.81014  0.00923  0.81885  1.0000
  C   C2869     1.0  0.97184  0.24925  0.78293  1.0000
  C   C2870     1.0  0.83542  0.00352  0.74292  1.0000
  H   H3460     1.0  0.96996  0.24170  0.67602  1.0000
  C   C2871     1.0  0.75740  0.13869  0.72368  1.0000
  H   H3461     1.0  0.76812  0.14775  0.71117  1.0000
  C   C2872     1.0  0.83600  0.01841  0.69469  1.0000
  S   S761      1.0  0.79798  0.31882  0.80323  1.0000
  H   H3462     1.0  0.95139  0.30175  0.95687  1.0000
  H   H3463     1.0  0.87899  0.08705  0.96750  1.0000
  H   H3464     1.0  0.96944  0.26133  0.93617  1.0000
  H   H3465     1.0  0.74091  0.25106  0.56046  1.0000
  C   C2873     1.0  0.77790  0.27582  0.60701  1.0000
  Fe  Fe377     1.0  0.97182  0.20270  0.68389  1.0000
  N   N192      1.0  0.90057  0.01094  0.93840  1.0000
  H   H3466     1.0  0.74462  0.26234  0.93233  1.0000
  Fe  Fe378     1.0  0.95579  0.31953  0.79211  1.0000
  C   C2874     1.0  0.74292  0.31161  0.48294  1.0000
  H   H3467     1.0  0.80637  0.00475  0.71078  1.0000
  C   C2875     1.0  0.88679  0.05095  0.97306  1.0000
  C   C2876     1.0  0.74536  0.26422  0.90930  1.0000
  H   H3468     1.0  0.88934  0.00301  0.90817  1.0000
  C   C2877     1.0  0.81275  0.14689  0.49860  1.0000
  C   C2878     1.0  0.96263  0.23303  0.92124  1.0000
  C   C2879     1.0  0.75351  0.14629  0.66748  1.0000
  H   H3469     1.0  0.77584  0.28977  0.50315  1.0000
  H   H3470     1.0  0.75446  0.16792  0.71226  1.0000
  C   C2880     1.0  0.98169  0.24691  0.66136  1.0000
  C   C2881     1.0  0.89712  0.01356  0.91026  1.0000
  H   H3471     1.0  0.73326  0.26225  0.90736  1.0000
  C   C2882     1.0  0.96110  0.26378  0.92357  1.0000
  N   N193      1.0  0.96565  0.26118  0.89498  1.0000
  H   H3472     1.0  0.97302  0.22230  0.84989  1.0000
  H   H3473     1.0  0.91906  0.00043  0.92625  1.0000
  C   C2883     1.0  0.75181  0.32164  0.49502  1.0000
  C   C2884     1.0  0.96886  0.32035  0.96077  1.0000
  H   H3474     1.0  0.73616  0.15298  0.61369  1.0000
  Fe  Fe379     1.0  0.77725  0.31979  0.95858  1.0000
  S   S762      1.0  0.75364  0.31861  0.95189  1.0000
  H   H3475     1.0  0.96084  0.27610  0.92223  1.0000
  S   S763      1.0  0.97530  0.14073  0.96961  1.0000
  C   C2885     1.0  0.73754  0.15075  0.63508  1.0000
  Fe  Fe380     1.0  0.74918  0.98990  0.73876  1.0000
  S   S764      1.0  0.97953  0.31936  0.76893  1.0000
  H   H3476     1.0  0.98094  0.24442  0.71316  1.0000
  C   C2886     1.0  0.98106  0.27185  0.88021  1.0000
  H   H3477     1.0  0.77489  0.32195  0.84835  1.0000
  H   H3478     1.0  0.98118  0.28410  0.88028  1.0000
  H   H3479     1.0  0.91563  0.32022  0.73529  1.0000
  H   H3480     1.0  0.84141  0.98948  0.70165  1.0000
  H   H3481     1.0  0.97992  0.25133  0.64006  1.0000
  C   C2887     1.0  0.98168  0.27122  0.67220  1.0000
  C   C2888     1.0  0.85721  0.06995  0.97934  1.0000
  C   C2889     1.0  0.83651  0.98918  0.78975  1.0000
  C   C2890     1.0  0.84303  0.10511  0.48005  1.0000
  Fe  Fe381     1.0  0.76757  0.60907  0.25964  1.0000
  S   S765      1.0  0.76902  0.58755  0.28957  1.0000
  S   S766      1.0  0.78396  0.63304  0.25169  1.0000
  H   H3482     1.0  0.89627  0.40047  0.29897  1.0000
  S   S767      1.0  0.74278  0.56760  0.26525  1.0000
  Fe  Fe382     1.0  0.74873  0.45936  0.98347  1.0000
  S   S768      1.0  0.76744  0.41141  0.01807  1.0000
  Fe  Fe383     1.0  0.76851  0.57670  0.25332  1.0000
  S   S769      1.0  0.78362  0.56058  0.24522  1.0000
  H   H3483     1.0  0.76093  0.44691  0.42452  1.0000
  S   S770      1.0  0.76881  0.59853  0.22245  1.0000
  Fe  Fe384     1.0  0.90717  0.45085  0.28887  1.0000
  S   S771      1.0  0.89704  0.44696  0.25282  1.0000
  S   S772      1.0  0.89436  0.44999  0.33334  1.0000
  Fe  Fe385     1.0  0.94082  0.45766  0.25476  1.0000
  S   S773      1.0  0.93347  0.45391  0.21591  1.0000
  S   S774      1.0  0.96628  0.46188  0.25577  1.0000
  Fe  Fe386     1.0  0.91634  0.46771  0.22665  1.0000
  S   S775      1.0  0.91488  0.48598  0.18960  1.0000
  Fe  Fe387     1.0  0.91472  0.43342  0.24440  1.0000
  S   S776      1.0  0.91039  0.40971  0.23531  1.0000
  S   S777      1.0  0.92501  0.47297  0.26340  1.0000
  S   S778      1.0  0.92347  0.43577  0.28263  1.0000
  H   H3484     1.0  0.96638  0.45948  0.32924  1.0000
  H   H3485     1.0  0.82248  0.58924  0.19332  1.0000
  S   S779      1.0  0.77895  0.42611  0.44154  1.0000
  Fe  Fe388     1.0  0.81746  0.39531  0.43891  1.0000
  C   C2891     1.0  0.79428  0.64161  0.32385  1.0000
  S   S780      1.0  0.83343  0.39647  0.39687  1.0000
  N   N194      1.0  0.75065  0.54702  0.19167  1.0000
  C   C2892     1.0  0.93065  0.34005  0.07177  1.0000
  H   H3486     1.0  0.76188  0.56625  0.20512  1.0000
  S   S781      1.0  0.79260  0.38972  0.43805  1.0000
  S   S782      1.0  0.81597  0.41522  0.45826  1.0000
  Fe  Fe389     1.0  0.85096  0.52991  0.08402  1.0000
  S   S783      1.0  0.83470  0.52606  0.12666  1.0000
  S   S784      1.0  0.84811  0.51521  0.05297  1.0000
  Fe  Fe390     1.0  0.87553  0.55495  0.09510  1.0000
  S   S785      1.0  0.86112  0.55278  0.13856  1.0000
  S   S786      1.0  0.89964  0.57074  0.07485  1.0000
  Fe  Fe391     1.0  0.85585  0.52705  0.14319  1.0000
  S   S787      1.0  0.85518  0.50999  0.18391  1.0000
  Fe  Fe392     1.0  0.84149  0.55209  0.11800  1.0000
  S   S788      1.0  0.82549  0.56780  0.12298  1.0000
  S   S789      1.0  0.87174  0.52924  0.10117  1.0000
  S   S790      1.0  0.85629  0.55595  0.07385  1.0000
  H   H3487     1.0  0.87087  0.54772  0.00088  1.0000
  S   S791      1.0  0.75517  0.44972  0.02335  1.0000
  H   H3488     1.0  0.85245  0.35944  0.32500  1.0000
  S   S792      1.0  0.78338  0.48433  0.03494  1.0000
  S   S793      1.0  0.92674  0.62315  0.13026  1.0000
  C   C2893     1.0  0.85103  0.61863  0.19681  1.0000
  S   S794      1.0  0.85690  0.38011  0.18442  1.0000
  H   H3489     1.0  0.79953  0.35601  0.06135  1.0000
  H   H3490     1.0  0.78239  0.33677  0.04572  1.0000
  C   C2894     1.0  0.82988  0.50574  0.04999  1.0000
  C   C2895     1.0  0.82902  0.49475  0.03407  1.0000
  C   C2896     1.0  0.81478  0.48754  0.03016  1.0000
  C   C2897     1.0  0.80132  0.49149  0.04178  1.0000
  C   C2898     1.0  0.80217  0.50223  0.05819  1.0000
  C   C2899     1.0  0.81635  0.50928  0.06239  1.0000
  H   H3491     1.0  0.84886  0.36789  0.29207  1.0000
  H   H3492     1.0  0.76317  0.53381  0.16915  1.0000
  H   H3493     1.0  0.79182  0.50533  0.06730  1.0000
  H   H3494     1.0  0.81684  0.51771  0.07467  1.0000
  C   C2900     1.0  0.90731  0.58500  0.09078  1.0000
  C   C2901     1.0  0.92192  0.59517  0.07724  1.0000
  C   C2902     1.0  0.92819  0.60678  0.08925  1.0000
  C   C2903     1.0  0.91979  0.60838  0.11475  1.0000
  C   C2904     1.0  0.90534  0.59800  0.12853  1.0000
  C   C2905     1.0  0.89913  0.58635  0.11665  1.0000
  H   H3495     1.0  0.92842  0.59408  0.05740  1.0000
  H   H3496     1.0  0.93953  0.61443  0.07886  1.0000
  H   H3497     1.0  0.89893  0.59903  0.14849  1.0000
  H   H3498     1.0  0.88793  0.57856  0.12738  1.0000
  H   H3499     1.0  0.73736  0.57034  0.47105  1.0000
  C   C2906     1.0  0.88099  0.55742  0.99137  1.0000
  C   C2907     1.0  0.76687  0.55022  0.42933  1.0000
  H   H3500     1.0  0.86172  0.46118  0.20650  1.0000
  C   C2908     1.0  0.86508  0.37983  0.35422  1.0000
  H   H3501     1.0  0.80318  0.60221  0.25597  1.0000
  C   C2909     1.0  0.75955  0.34185  0.45117  1.0000
  H   H3502     1.0  0.81426  0.47915  0.01780  1.0000
  H   H3503     1.0  0.76591  0.35342  0.43864  1.0000
  H   H3504     1.0  0.80182  0.62029  0.21091  1.0000
  C   C2910     1.0  0.74877  0.36840  0.98942  1.0000
  C   C2911     1.0  0.90150  0.62888  0.01719  1.0000
  H   H3505     1.0  0.96155  0.49029  0.27125  1.0000
  H   H3506     1.0  0.77487  0.54745  0.18212  1.0000
  C   C2912     1.0  0.89658  0.40256  0.21789  1.0000
  C   C2913     1.0  0.88545  0.41033  0.21193  1.0000
  C   C2914     1.0  0.87357  0.40341  0.20115  1.0000
  C   C2915     1.0  0.87287  0.38882  0.19563  1.0000
  C   C2916     1.0  0.88428  0.38127  0.20074  1.0000
  C   C2917     1.0  0.89603  0.38809  0.21196  1.0000
  H   H3507     1.0  0.88576  0.42144  0.21645  1.0000
  H   H3508     1.0  0.86477  0.40930  0.19729  1.0000
  H   H3509     1.0  0.88389  0.37006  0.19657  1.0000
  H   H3510     1.0  0.90462  0.38201  0.21637  1.0000
  C   C2918     1.0  0.89737  0.49087  0.18857  1.0000
  C   C2919     1.0  0.89544  0.49805  0.16229  1.0000
  C   C2920     1.0  0.88240  0.50367  0.16072  1.0000
  C   C2921     1.0  0.87122  0.50224  0.18543  1.0000
  C   C2922     1.0  0.87283  0.49454  0.21173  1.0000
  C   C2923     1.0  0.88592  0.48887  0.21333  1.0000
  H   H3511     1.0  0.90419  0.49944  0.14307  1.0000
  H   H3512     1.0  0.88110  0.50915  0.14037  1.0000
  H   H3513     1.0  0.86414  0.49331  0.23093  1.0000
  H   H3514     1.0  0.88741  0.48342  0.23369  1.0000
  C   C2924     1.0  0.84998  0.41187  0.37951  1.0000
  C   C2925     1.0  0.85668  0.41395  0.35063  1.0000
  C   C2926     1.0  0.87038  0.42547  0.33632  1.0000
  C   C2927     1.0  0.87731  0.43522  0.35075  1.0000
  C   C2928     1.0  0.87039  0.43344  0.37947  1.0000
  C   C2929     1.0  0.85678  0.42175  0.39388  1.0000
  H   H3515     1.0  0.85135  0.40643  0.33943  1.0000
  H   H3516     1.0  0.87555  0.42683  0.31416  1.0000
  H   H3517     1.0  0.87566  0.44100  0.39072  1.0000
  H   H3518     1.0  0.85172  0.42021  0.41618  1.0000
  H   H3519     1.0  0.82361  0.32340  0.05101  1.0000
  H   H3520     1.0  0.83342  0.62445  0.24516  1.0000
  H   H3521     1.0  0.75884  0.54028  0.22893  1.0000
  C   C2930     1.0  0.79514  0.56279  0.21105  1.0000
  C   C2931     1.0  0.79489  0.57423  0.18766  1.0000
  C   C2932     1.0  0.80414  0.57555  0.16064  1.0000
  C   C2933     1.0  0.81378  0.56557  0.15694  1.0000
  C   C2934     1.0  0.81408  0.55419  0.18033  1.0000
  C   C2935     1.0  0.80473  0.55278  0.20730  1.0000
  H   H3522     1.0  0.78768  0.58211  0.19028  1.0000
  H   H3523     1.0  0.80396  0.58442  0.14256  1.0000
  H   H3524     1.0  0.82150  0.54646  0.17763  1.0000
  H   H3525     1.0  0.80499  0.54392  0.22533  1.0000
  C   C2936     1.0  0.79181  0.64165  0.27621  1.0000
  H   H3526     1.0  0.82854  0.64113  0.43925  1.0000
  C   C2937     1.0  0.90690  0.34112  0.11627  1.0000
  C   C2938     1.0  0.74867  0.53694  0.22046  1.0000
  H   H3527     1.0  0.75898  0.39329  0.46456  1.0000
  C   C2939     1.0  0.78790  0.63425  0.30521  1.0000
  C   C2940     1.0  0.86353  0.61501  0.18055  1.0000
  C   C2941     1.0  0.84798  0.34786  0.05208  1.0000
  H   H3528     1.0  0.79113  0.63575  0.34623  1.0000
  H   H3529     1.0  0.77992  0.62288  0.31332  1.0000
  N   N195      1.0  0.93798  0.46678  0.34768  1.0000
  C   C2942     1.0  0.92697  0.45937  0.37592  1.0000
  C   C2943     1.0  0.93230  0.47934  0.33231  1.0000
  C   C2944     1.0  0.93788  0.45487  0.33152  1.0000
  C   C2945     1.0  0.95342  0.47333  0.35114  1.0000
  H   H3530     1.0  0.86445  0.32679  0.06205  1.0000
  H   H3531     1.0  0.78362  0.65351  0.42965  1.0000
  C   C2946     1.0  0.84795  0.33991  0.98473  1.0000
  H   H3532     1.0  0.96522  0.62763  0.98482  1.0000
  C   C2947     1.0  0.81756  0.32315  0.01232  1.0000
  H   H3533     1.0  0.92538  0.46781  0.38865  1.0000
  H   H3534     1.0  0.91530  0.45400  0.37402  1.0000
  H   H3535     1.0  0.93102  0.45009  0.38840  1.0000
  H   H3536     1.0  0.93034  0.48797  0.34441  1.0000
  H   H3537     1.0  0.92106  0.47472  0.32799  1.0000
  H   H3538     1.0  0.94065  0.48571  0.31155  1.0000
  H   H3539     1.0  0.94152  0.44475  0.34223  1.0000
  H   H3540     1.0  0.92613  0.45019  0.32935  1.0000
  H   H3541     1.0  0.94552  0.45981  0.30960  1.0000
  C   C2948     1.0  0.82790  0.32711  0.02818  1.0000
  H   H3542     1.0  0.74711  0.56152  0.14022  1.0000
  H   H3543     1.0  0.87085  0.59966  0.15632  1.0000
  C   C2949     1.0  0.88947  0.61560  0.02251  1.0000
  H   H3544     1.0  0.73647  0.41222  0.06429  1.0000
  Fe  Fe393     1.0  0.85398  0.35962  0.16459  1.0000
  Fe  Fe394     1.0  0.74284  0.59022  0.23676  1.0000
  C   C2950     1.0  0.76275  0.43056  0.46104  1.0000
  C   C2951     1.0  0.86115  0.60237  0.16903  1.0000
  Fe  Fe395     1.0  0.76768  0.43628  0.99783  1.0000
  C   C2952     1.0  0.79227  0.63987  0.47661  1.0000
  C   C2953     1.0  0.93271  0.33792  0.09916  1.0000
  N   N196      1.0  0.82203  0.61316  0.21846  1.0000
  Fe  Fe396     1.0  0.83410  0.34713  0.12756  1.0000
  H   H3545     1.0  0.89795  0.34186  0.13335  1.0000
  C   C2954     1.0  0.81311  0.59956  0.24251  1.0000
  C   C2955     1.0  0.73745  0.55188  0.15246  1.0000
  C   C2956     1.0  0.89421  0.40012  0.34225  1.0000
  H   H3546     1.0  0.87574  0.34270  0.00124  1.0000
  H   H3547     1.0  0.85371  0.62863  0.20489  1.0000
  H   H3548     1.0  0.96794  0.64492  0.01645  1.0000
  C   C2957     1.0  0.87060  0.38439  0.37604  1.0000
  H   H3549     1.0  0.81550  0.62883  0.24294  1.0000
  Fe  Fe397     1.0  0.94854  0.64273  0.10974  1.0000
  H   H3550     1.0  0.87517  0.62209  0.17674  1.0000
  C   C2958     1.0  0.90299  0.57534  0.99626  1.0000
  H   H3551     1.0  0.85992  0.40197  0.29298  1.0000
  S   S795      1.0  0.85679  0.36474  0.11745  1.0000
  S   S796      1.0  0.81739  0.35305  0.10184  1.0000
  C   C2959     1.0  0.76272  0.38074  0.01847  1.0000
  C   C2960     1.0  0.75697  0.36742  0.01013  1.0000
  C   C2961     1.0  0.87900  0.37407  0.28598  1.0000
  C   C2962     1.0  0.85269  0.37067  0.31059  1.0000
  C   C2963     1.0  0.98113  0.47504  0.34375  1.0000
  H   H3552     1.0  0.80806  0.58940  0.23543  1.0000
  C   C2964     1.0  0.86759  0.39586  0.28197  1.0000
  C   C2965     1.0  0.88508  0.39457  0.37006  1.0000
  H   H3553     1.0  0.84438  0.58342  0.16475  1.0000
  C   C2966     1.0  0.75212  0.38242  0.46183  1.0000
  H   H3554     1.0  0.89076  0.38191  0.27638  1.0000
  H   H3555     1.0  0.88021  0.36345  0.30018  1.0000
  H   H3556     1.0  0.87497  0.37077  0.26800  1.0000
  C   C2967     1.0  0.75037  0.33196  0.43931  1.0000
  H   H3557     1.0  0.84389  0.37580  0.32143  1.0000
  H   H3558     1.0  0.74849  0.52422  0.34722  1.0000
  H   H3559     1.0  0.77417  0.53081  0.41822  1.0000
  N   N197      1.0  0.91596  0.54554  0.15506  1.0000
  C   C2968     1.0  0.92611  0.53473  0.15437  1.0000
  C   C2969     1.0  0.90370  0.53932  0.18219  1.0000
  C   C2970     1.0  0.90833  0.54553  0.13165  1.0000
  C   C2971     1.0  0.92528  0.56145  0.15142  1.0000
  C   C2972     1.0  0.92193  0.57037  0.17095  1.0000
  C   C2973     1.0  0.93811  0.56855  0.12747  1.0000
  C   C2974     1.0  0.93112  0.58531  0.16686  1.0000
  C   C2975     1.0  0.94724  0.58345  0.12370  1.0000
  C   C2976     1.0  0.94379  0.59178  0.14342  1.0000
  H   H3560     1.0  0.93301  0.53538  0.17019  1.0000
  H   H3561     1.0  0.91943  0.52243  0.15941  1.0000
  H   H3562     1.0  0.93426  0.53711  0.13322  1.0000
  H   H3563     1.0  0.90864  0.53899  0.20080  1.0000
  H   H3564     1.0  0.89721  0.52720  0.18459  1.0000
  H   H3565     1.0  0.89493  0.54620  0.18340  1.0000
  H   H3566     1.0  0.90137  0.53375  0.13328  1.0000
  H   H3567     1.0  0.90042  0.55335  0.13180  1.0000
  H   H3568     1.0  0.91669  0.54959  0.11039  1.0000
  H   H3569     1.0  0.91219  0.56620  0.18935  1.0000
  H   H3570     1.0  0.94106  0.56270  0.11125  1.0000
  H   H3571     1.0  0.92820  0.59216  0.18147  1.0000
  H   H3572     1.0  0.75921  0.37381  0.46280  1.0000
  H   H3573     1.0  0.95060  0.60353  0.14002  1.0000
  S   S797      1.0  0.77491  0.33336  0.99099  1.0000
  C   C2977     1.0  0.73923  0.54430  0.34451  1.0000
  C   C2978     1.0  0.76444  0.53540  0.42521  1.0000
  H   H3574     1.0  0.75858  0.35634  0.02021  1.0000
  H   H3575     1.0  0.83740  0.34061  0.06839  1.0000
  H   H3576     1.0  0.77854  0.55715  0.42565  1.0000
  C   C2979     1.0  0.86985  0.34883  0.01541  1.0000
  H   H3577     1.0  0.87332  0.44066  0.19306  1.0000
  H   H3578     1.0  0.88911  0.39837  0.38696  1.0000
  C   C2980     1.0  0.83567  0.60951  0.20211  1.0000
  C   C2981     1.0  0.84628  0.59322  0.17385  1.0000
  C   C2982     1.0  0.83375  0.59668  0.19021  1.0000
  H   H3579     1.0  0.86319  0.39333  0.26382  1.0000
  H   H3580     1.0  0.83188  0.63749  0.21349  1.0000
  H   H3581     1.0  0.93976  0.33961  0.05455  1.0000
  H   H3582     1.0  0.81833  0.62673  0.18080  1.0000
  Fe  Fe398     1.0  0.79064  0.40830  0.46060  1.0000
  C   C2983     1.0  0.74302  0.44510  0.46154  1.0000
  H   H3583     1.0  0.97844  0.51006  0.28661  1.0000
  H   H3584     1.0  0.86333  0.38042  0.39761  1.0000
  Fe  Fe399     1.0  0.74320  0.58057  0.29855  1.0000
  H   H3585     1.0  0.82050  0.59577  0.25632  1.0000
  C   C2984     1.0  0.73890  0.54752  0.44283  1.0000
  H   H3586     1.0  0.93546  0.63358  0.03635  1.0000
  H   H3587     1.0  0.79641  0.64620  0.40652  1.0000
  H   H3588     1.0  0.73850  0.53793  0.23593  1.0000
  H   H3589     1.0  0.75059  0.38530  0.44003  1.0000
  C   C2985     1.0  0.81589  0.62480  0.47800  1.0000
  C   C2986     1.0  0.75291  0.56323  0.19388  1.0000
  H   H3590     1.0  0.88045  0.60482  0.09431  1.0000
  H   H3591     1.0  0.87755  0.35153  0.02929  1.0000
  H   H3592     1.0  0.85357  0.37229  0.36042  1.0000
  C   C2987     1.0  0.76481  0.54557  0.17286  1.0000
  H   H3593     1.0  0.75688  0.56800  0.43986  1.0000
  H   H3594     1.0  0.93443  0.58726  0.98382  1.0000
  H   H3595     1.0  0.91492  0.34364  0.04574  1.0000
  N   N198      1.0  0.91921  0.64764  0.03511  1.0000
  C   C2988     1.0  0.80594  0.64565  0.45406  1.0000
  Fe  Fe400     1.0  0.77695  0.46901  0.00641  1.0000
  H   H3596     1.0  0.86928  0.36019  0.00258  1.0000
  C   C2989     1.0  0.97819  0.47691  0.26523  1.0000
  S   S798      1.0  0.74151  0.60289  0.27101  1.0000
  C   C2990     1.0  0.92081  0.33852  0.12134  1.0000
  H   H3597     1.0  0.81481  0.51544  0.99378  1.0000
  H   H3598     1.0  0.76829  0.55418  0.15181  1.0000
  S   S799      1.0  0.83025  0.34335  0.17469  1.0000
  C   C2991     1.0  0.75605  0.44138  0.44692  1.0000
  H   H3599     1.0  0.90946  0.57915  0.01042  1.0000
  H   H3600     1.0  0.78282  0.64533  0.47718  1.0000
  H   H3601     1.0  0.80723  0.60689  0.19192  1.0000
  H   H3602     1.0  0.83943  0.49189  0.02449  1.0000
  H   H3603     1.0  0.74853  0.55152  0.32659  1.0000
  C   C2992     1.0  0.87402  0.38547  0.32551  1.0000
  C   C2993     1.0  0.82233  0.32752  0.98286  1.0000
  C   C2994     1.0  0.79780  0.34373  0.07065  1.0000
  C   C2995     1.0  0.73686  0.53242  0.43842  1.0000
  Fe  Fe401     1.0  0.84282  0.32468  0.17194  1.0000
  C   C2996     1.0  0.80523  0.33887  0.09157  1.0000
  C   C2997     1.0  0.96668  0.46828  0.34069  1.0000
  C   C2998     1.0  0.93171  0.64255  0.04612  1.0000
  H   H3604     1.0  0.75651  0.57190  0.17289  1.0000
  H   H3605     1.0  0.82505  0.61896  0.47882  1.0000
  S   S800      1.0  0.96829  0.64343  0.07412  1.0000
  Fe  Fe402     1.0  0.86740  0.34456  0.11925  1.0000
  H   H3606     1.0  0.87910  0.40420  0.27259  1.0000
  S   S801      1.0  0.88672  0.34450  0.08280  1.0000
  H   H3607     1.0  0.74965  0.33616  0.41782  1.0000
  H   H3608     1.0  0.91044  0.65373  0.07389  1.0000
  C   C2999     1.0  0.90463  0.34274  0.08913  1.0000
  H   H3609     1.0  0.90541  0.40818  0.33758  1.0000
  Fe  Fe403     1.0  0.97085  0.33613  0.07238  1.0000
  C   C3000     1.0  0.75433  0.55629  0.43775  1.0000
  C   C3001     1.0  0.74949  0.52655  0.42967  1.0000
  H   H3610     1.0  0.73794  0.45342  0.45038  1.0000
  S   S802      1.0  0.86629  0.34050  0.16570  1.0000
  H   H3611     1.0  0.95685  0.58875  0.10506  1.0000
  C   C3002     1.0  0.81194  0.61691  0.19970  1.0000
  C   C3003     1.0  0.88883  0.39565  0.32026  1.0000
  H   H3612     1.0  0.87275  0.59657  0.05431  1.0000
  H   H3613     1.0  0.74742  0.52457  0.22030  1.0000
  C   C3004     1.0  0.91657  0.34231  0.06684  1.0000
  N   N199      1.0  0.86832  0.38150  0.30164  1.0000
  N   N200      1.0  0.85425  0.33924  0.03232  1.0000
  C   C3005     1.0  0.82600  0.62656  0.23045  1.0000
  N   N201      1.0  0.81621  0.43799  0.36103  1.0000
  C   C3006     1.0  0.80909  0.42151  0.36342  1.0000
  C   C3007     1.0  0.82113  0.43858  0.38736  1.0000
  C   C3008     1.0  0.80427  0.44683  0.36005  1.0000
  C   C3009     1.0  0.82902  0.44440  0.33485  1.0000
  C   C3010     1.0  0.84467  0.44966  0.33518  1.0000
  C   C3011     1.0  0.82604  0.44538  0.30783  1.0000
  C   C3012     1.0  0.85644  0.45574  0.30998  1.0000
  C   C3013     1.0  0.83790  0.45148  0.28277  1.0000
  C   C3014     1.0  0.85308  0.45667  0.28386  1.0000
  H   H3614     1.0  0.81780  0.41456  0.36349  1.0000
  H   H3615     1.0  0.79974  0.41612  0.38341  1.0000
  H   H3616     1.0  0.80387  0.42009  0.34567  1.0000
  H   H3617     1.0  0.82919  0.43114  0.39082  1.0000
  H   H3618     1.0  0.81115  0.43417  0.40649  1.0000
  H   H3619     1.0  0.82669  0.45065  0.38704  1.0000
  H   H3620     1.0  0.79859  0.44561  0.34279  1.0000
  H   H3621     1.0  0.79482  0.44273  0.38011  1.0000
  H   H3622     1.0  0.80935  0.45942  0.35691  1.0000
  H   H3623     1.0  0.84821  0.44903  0.35461  1.0000
  H   H3624     1.0  0.81448  0.44137  0.30588  1.0000
  H   H3625     1.0  0.86831  0.45960  0.31077  1.0000
  H   H3626     1.0  0.83534  0.45218  0.26238  1.0000
  H   H3627     1.0  0.86228  0.46135  0.26445  1.0000
  N   N202      1.0  0.85304  0.47737  0.11669  1.0000
  C   C3015     1.0  0.86697  0.48663  0.09390  1.0000
  C   C3016     1.0  0.84229  0.46826  0.10414  1.0000
  C   C3017     1.0  0.84516  0.48840  0.12788  1.0000
  C   C3018     1.0  0.85774  0.46690  0.13845  1.0000
  C   C3019     1.0  0.86448  0.45499  0.13153  1.0000
  C   C3020     1.0  0.85664  0.46866  0.16634  1.0000
  C   C3021     1.0  0.86983  0.44553  0.15119  1.0000
  C   C3022     1.0  0.86225  0.45930  0.18568  1.0000
  C   C3023     1.0  0.86884  0.44778  0.17812  1.0000
  H   H3628     1.0  0.87295  0.47923  0.08297  1.0000
  H   H3629     1.0  0.86409  0.49495  0.07726  1.0000
  H   H3630     1.0  0.87543  0.49348  0.10257  1.0000
  H   H3631     1.0  0.83798  0.47596  0.08874  1.0000
  H   H3632     1.0  0.83206  0.46045  0.12087  1.0000
  H   H3633     1.0  0.84778  0.46100  0.09209  1.0000
  H   H3634     1.0  0.85291  0.49652  0.13574  1.0000
  H   H3635     1.0  0.84140  0.49582  0.11120  1.0000
  H   H3636     1.0  0.83463  0.48221  0.14539  1.0000
  H   H3637     1.0  0.86592  0.45305  0.11067  1.0000
  H   H3638     1.0  0.85175  0.47738  0.17364  1.0000
  H   H3639     1.0  0.87497  0.43651  0.14545  1.0000
  H   H3640     1.0  0.85631  0.35185  0.06402  1.0000
  C   C3024     1.0  0.84344  0.33561  0.01492  1.0000
  H   H3641     1.0  0.94600  0.48965  0.37384  1.0000
  C   C3025     1.0  0.76064  0.39520  0.00577  1.0000
  H   H3642     1.0  0.76163  0.65010  0.27737  1.0000
  C   C3026     1.0  0.96643  0.64939  0.99570  1.0000
  H   H3643     1.0  0.93137  0.64916  0.99224  1.0000
  C   C3027     1.0  0.89834  0.62481  0.06777  1.0000
  C   C3028     1.0  0.88992  0.56290  0.00829  1.0000
  H   H3644     1.0  0.88673  0.55746  0.03092  1.0000
  C   C3029     1.0  0.73738  0.54307  0.17961  1.0000
  C   C3030     1.0  0.88628  0.61164  0.07279  1.0000
  H   H3645     1.0  0.74763  0.51511  0.42589  1.0000
  H   H3646     1.0  0.88595  0.61191  0.00507  1.0000
  C   C3031     1.0  0.80288  0.32298  0.10358  1.0000
  H   H3647     1.0  0.84495  0.35825  0.04070  1.0000
  C   C3032     1.0  0.97303  0.48940  0.27213  1.0000
  C   C3033     1.0  0.85610  0.32456  0.04917  1.0000
  S   S803      1.0  0.96375  0.65202  0.13563  1.0000
  H   H3648     1.0  0.76876  0.37981  0.03497  1.0000
  C   C3034     1.0  0.73921  0.52885  0.35623  1.0000
  H   H3649     1.0  0.73711  0.57683  0.42066  1.0000
  H   H3650     1.0  0.94201  0.65236  0.04164  1.0000
  C   C3035     1.0  0.78811  0.33284  0.06172  1.0000
  H   H3651     1.0  0.92818  0.63771  0.06950  1.0000
  C   C3036     1.0  0.95554  0.48528  0.36518  1.0000
  C   C3037     1.0  0.88193  0.60697  0.05024  1.0000
  H   H3652     1.0  0.90161  0.62766  0.08600  1.0000
  C   C3038     1.0  0.97009  0.49207  0.36779  1.0000
  C   C3039     1.0  0.90629  0.63391  0.03980  1.0000
  C   C3040     1.0  0.81773  0.63764  0.45534  1.0000
  H   H3653     1.0  0.73981  0.41832  0.01195  1.0000
  H   H3654     1.0  0.90690  0.63497  0.99521  1.0000
  H   H3655     1.0  0.74205  0.56502  0.20587  1.0000
  Fe  Fe404     1.0  0.75067  0.33070  0.98691  1.0000
  H   H3656     1.0  0.91850  0.60541  0.99066  1.0000
  S   S804      1.0  0.84492  0.32734  0.12559  1.0000
  S   S805      1.0  0.79006  0.45480  0.98419  1.0000
  S   S806      1.0  0.94950  0.33353  0.10698  1.0000
  H   H3657     1.0  0.97157  0.50151  0.37782  1.0000
  H   H3658     1.0  0.92241  0.33700  0.14250  1.0000
  C   C3041     1.0  0.75280  0.39627  0.98448  1.0000
  H   H3659     1.0  0.82460  0.65518  0.39845  1.0000
  C   C3042     1.0  0.76023  0.33681  0.47929  1.0000
  H   H3660     1.0  0.73246  0.39180  0.04421  1.0000
  Fe  Fe405     1.0  0.77755  0.59760  0.58937  1.0000
  S   S807      1.0  0.76535  0.58730  0.63552  1.0000
  S   S808      1.0  0.79336  0.62213  0.57005  1.0000
  Fe  Fe406     1.0  0.76201  0.56836  0.57245  1.0000
  S   S809      1.0  0.74885  0.55623  0.61747  1.0000
  S   S810      1.0  0.76111  0.55705  0.53582  1.0000
  Fe  Fe407     1.0  0.74450  0.57933  0.62007  1.0000
  Fe  Fe408     1.0  0.77101  0.56529  0.62835  1.0000
  S   S811      1.0  0.77973  0.54863  0.65757  1.0000
  S   S812      1.0  0.75626  0.59105  0.57412  1.0000
  S   S813      1.0  0.78463  0.57601  0.58310  1.0000
  S   S814      1.0  0.81778  0.40179  0.53944  1.0000
  Fe  Fe409     1.0  0.88709  0.44862  0.59138  1.0000
  S   S815      1.0  0.86956  0.44712  0.63107  1.0000
  S   S816      1.0  0.88071  0.44206  0.55252  1.0000
  Fe  Fe410     1.0  0.91433  0.46355  0.61403  1.0000
  S   S817      1.0  0.89839  0.46282  0.65520  1.0000
  S   S818      1.0  0.94059  0.47368  0.60175  1.0000
  Fe  Fe411     1.0  0.88632  0.43895  0.65389  1.0000
  S   S819      1.0  0.87683  0.41947  0.69418  1.0000
  Fe  Fe412     1.0  0.88309  0.47100  0.62870  1.0000
  S   S820      1.0  0.87163  0.49066  0.63138  1.0000
  S   S821      1.0  0.90331  0.43890  0.61442  1.0000
  S   S822      1.0  0.89970  0.47326  0.58726  1.0000
  Fe  Fe413     1.0  0.87339  0.56724  0.75897  1.0000
  S   S823      1.0  0.84988  0.57163  0.76640  1.0000
  S   S824      1.0  0.89511  0.58542  0.75554  1.0000
  Fe  Fe414     1.0  0.86166  0.53600  0.74756  1.0000
  S   S825      1.0  0.83709  0.53783  0.75402  1.0000
  S   S826      1.0  0.86971  0.51475  0.74147  1.0000
  Fe  Fe415     1.0  0.84750  0.56267  0.72867  1.0000
  S   S827      1.0  0.83786  0.57740  0.69750  1.0000
  Fe  Fe416     1.0  0.84117  0.54659  0.79123  1.0000
  S   S828      1.0  0.82212  0.54087  0.83158  1.0000
  S   S829      1.0  0.87181  0.56012  0.71896  1.0000
  S   S830      1.0  0.86494  0.54287  0.78707  1.0000
  Fe  Fe417     1.0  0.78121  0.46409  0.94699  1.0000
  H   H3661     1.0  0.74053  0.38373  0.96035  1.0000
  S   S831      1.0  0.79765  0.47053  0.90341  1.0000
  C   C3043     1.0  0.81260  0.32340  0.84477  1.0000
  C   C3044     1.0  0.79931  0.32530  0.89090  1.0000
  H   H3662     1.0  0.89415  0.34594  0.78872  1.0000
  H   H3663     1.0  0.78389  0.52461  0.79312  1.0000
  S   S832      1.0  0.91643  0.60725  0.85750  1.0000
  H   H3664     1.0  0.81318  0.44015  0.52152  1.0000
  S   S833      1.0  0.85858  0.35031  0.68492  1.0000
  C   C3045     1.0  0.85053  0.53653  0.86973  1.0000
  C   C3046     1.0  0.90762  0.58266  0.96668  1.0000
  C   C3047     1.0  0.83747  0.33589  0.96908  1.0000
  C   C3048     1.0  0.74077  0.37437  0.51190  1.0000
  C   C3049     1.0  0.74686  0.53488  0.51327  1.0000
  H   H3665     1.0  0.97846  0.47064  0.64522  1.0000
  H   H3666     1.0  0.94986  0.53461  0.64226  1.0000
  C   C3050     1.0  0.85705  0.38075  0.57368  1.0000
  H   H3667     1.0  0.84232  0.57530  0.61464  1.0000
  H   H3668     1.0  0.84739  0.55812  0.87714  1.0000
  H   H3669     1.0  0.82408  0.58371  0.58822  1.0000
  C   C3051     1.0  0.80258  0.41845  0.89117  1.0000
  H   H3670     1.0  0.93663  0.58040  0.95241  1.0000
  C   C3052     1.0  0.91787  0.51225  0.63165  1.0000
  S   S834      1.0  0.95936  0.62363  0.85790  1.0000
  H   H3671     1.0  0.80271  0.53093  0.79741  1.0000
  H   H3672     1.0  0.78729  0.57768  0.76002  1.0000
  S   S835      1.0  0.94873  0.64778  0.81129  1.0000
  H   H3673     1.0  0.80711  0.42740  0.87126  1.0000
  H   H3674     1.0  0.78597  0.38722  0.96304  1.0000
  H   H3675     1.0  0.80892  0.63564  0.65253  1.0000
  C   C3053     1.0  0.81497  0.52118  0.85049  1.0000
  C   C3054     1.0  0.80248  0.51687  0.87460  1.0000
  C   C3055     1.0  0.79689  0.50131  0.89072  1.0000
  C   C3056     1.0  0.80383  0.49000  0.88286  1.0000
  C   C3057     1.0  0.81608  0.49427  0.85831  1.0000
  C   C3058     1.0  0.82162  0.50981  0.84209  1.0000
  H   H3676     1.0  0.79719  0.52561  0.88091  1.0000
  H   H3677     1.0  0.78721  0.49805  0.90918  1.0000
  H   H3678     1.0  0.82144  0.48555  0.85199  1.0000
  H   H3679     1.0  0.83122  0.51303  0.82343  1.0000
  C   C3059     1.0  0.90062  0.59135  0.78433  1.0000
  C   C3060     1.0  0.91399  0.60339  0.77866  1.0000
  C   C3061     1.0  0.91890  0.60843  0.80084  1.0000
  C   C3062     1.0  0.91049  0.60140  0.82898  1.0000
  C   C3063     1.0  0.89711  0.58932  0.83471  1.0000
  C   C3064     1.0  0.89215  0.58433  0.81249  1.0000
  H   H3680     1.0  0.92062  0.60886  0.75696  1.0000
  H   H3681     1.0  0.92923  0.61769  0.79614  1.0000
  H   H3682     1.0  0.89054  0.58382  0.85642  1.0000
  H   H3683     1.0  0.88186  0.57504  0.81710  1.0000
  C   C3065     1.0  0.95228  0.48577  0.61714  1.0000
  C   C3066     1.0  0.94648  0.48883  0.64300  1.0000
  C   C3067     1.0  0.95628  0.49834  0.65443  1.0000
  C   C3068     1.0  0.96801  0.49227  0.60310  1.0000
  H   H3684     1.0  0.93445  0.48390  0.65414  1.0000
  H   H3685     1.0  0.95164  0.50066  0.67435  1.0000
  C   C3069     1.0  0.87149  0.40041  0.69098  1.0000
  C   C3070     1.0  0.86095  0.38887  0.71380  1.0000
  C   C3071     1.0  0.85690  0.37345  0.71218  1.0000
  C   C3072     1.0  0.86357  0.36945  0.68789  1.0000
  C   C3073     1.0  0.87415  0.38097  0.66513  1.0000
  C   C3074     1.0  0.87807  0.39643  0.66661  1.0000
  H   H3686     1.0  0.85581  0.39191  0.73270  1.0000
  H   H3687     1.0  0.84852  0.36471  0.72963  1.0000
  H   H3688     1.0  0.87937  0.37793  0.64628  1.0000
  H   H3689     1.0  0.88642  0.40518  0.64915  1.0000
  C   C3075     1.0  0.86980  0.49669  0.66287  1.0000
  C   C3076     1.0  0.87335  0.48827  0.68638  1.0000
  C   C3077     1.0  0.87268  0.49369  0.71074  1.0000
  C   C3078     1.0  0.86848  0.50757  0.71179  1.0000
  C   C3079     1.0  0.86448  0.51580  0.68860  1.0000
  C   C3080     1.0  0.86513  0.51035  0.66417  1.0000
  H   H3690     1.0  0.87667  0.47760  0.68582  1.0000
  H   H3691     1.0  0.87565  0.48721  0.72874  1.0000
  H   H3692     1.0  0.86124  0.52652  0.68926  1.0000
  H   H3693     1.0  0.86230  0.51689  0.64607  1.0000
  C   C3081     1.0  0.83540  0.41312  0.54245  1.0000
  C   C3082     1.0  0.83609  0.41627  0.56863  1.0000
  C   C3083     1.0  0.84979  0.42506  0.57215  1.0000
  C   C3084     1.0  0.86304  0.43086  0.54945  1.0000
  H   H3694     1.0  0.82592  0.41198  0.58630  1.0000
  H   H3695     1.0  0.85011  0.42727  0.59244  1.0000
  H   H3696     1.0  0.83181  0.50074  0.91174  1.0000
  N   N203      1.0  0.73725  0.37614  0.48385  1.0000
  C   C3085     1.0  0.91973  0.60866  0.96743  1.0000
  C   C3086     1.0  0.74916  0.48977  0.61509  1.0000
  H   H3697     1.0  0.90577  0.50643  0.64066  1.0000
  C   C3087     1.0  0.74673  0.38287  0.97661  1.0000
  H   H3698     1.0  0.87530  0.39055  0.53509  1.0000
  H   H3699     1.0  0.80350  0.49290  0.97862  1.0000
  C   C3088     1.0  0.90159  0.35528  0.76981  1.0000
  C   C3089     1.0  0.79079  0.39562  0.94261  1.0000
  H   H3700     1.0  0.82838  0.54615  0.92277  1.0000
  C   C3090     1.0  0.80999  0.63943  0.63003  1.0000
  C   C3091     1.0  0.83059  0.59169  0.59735  1.0000
  Fe  Fe418     1.0  0.95783  0.64033  0.88497  1.0000
  H   H3701     1.0  0.90072  0.58171  0.92729  1.0000
  C   C3092     1.0  0.79586  0.55668  0.66863  1.0000
  C   C3093     1.0  0.80136  0.57275  0.66312  1.0000
  C   C3094     1.0  0.81407  0.57892  0.67254  1.0000
  C   C3095     1.0  0.82153  0.56911  0.68712  1.0000
  C   C3096     1.0  0.81596  0.55303  0.69283  1.0000
  C   C3097     1.0  0.80312  0.54684  0.68369  1.0000
  H   H3702     1.0  0.79582  0.58043  0.65164  1.0000
  H   H3703     1.0  0.81820  0.59135  0.66817  1.0000
  H   H3704     1.0  0.82167  0.54536  0.70390  1.0000
  H   H3705     1.0  0.79889  0.53440  0.68804  1.0000
  C   C3098     1.0  0.80300  0.63428  0.58787  1.0000
  C   C3099     1.0  0.80154  0.62967  0.61705  1.0000
  H   H3706     1.0  0.79414  0.61845  0.62952  1.0000
  N   N204      1.0  0.85404  0.62267  0.63840  1.0000
  C   C3100     1.0  0.84208  0.62371  0.66239  1.0000
  C   C3101     1.0  0.86628  0.61729  0.65012  1.0000
  C   C3102     1.0  0.86116  0.63849  0.61906  1.0000
  C   C3103     1.0  0.84671  0.61217  0.62330  1.0000
  C   C3104     1.0  0.84889  0.59702  0.62495  1.0000
  C   C3105     1.0  0.83623  0.61661  0.60777  1.0000
  C   C3106     1.0  0.84092  0.58700  0.61212  1.0000
  C   C3107     1.0  0.82832  0.60650  0.59504  1.0000
  C   C3108     1.0  0.74303  0.47903  0.60146  1.0000
  H   H3707     1.0  0.84701  0.63155  0.67437  1.0000
  C   C3109     1.0  0.88511  0.56440  0.96229  1.0000
  H   H3708     1.0  0.83651  0.61207  0.67757  1.0000
  C   C3110     1.0  0.85919  0.39309  0.61155  1.0000
  H   H3709     1.0  0.74862  0.48613  0.63747  1.0000
  N   N205      1.0  0.73675  0.47271  0.55713  1.0000
  H   H3710     1.0  0.85884  0.54201  0.84939  1.0000
  H   H3711     1.0  0.74188  0.45501  0.89694  1.0000
  H   H3712     1.0  0.85083  0.51343  0.86706  1.0000
  H   H3713     1.0  0.85621  0.59235  0.63701  1.0000
  H   H3714     1.0  0.79796  0.43468  0.91542  1.0000
  C   C3111     1.0  0.81234  0.49786  0.95795  1.0000
  H   H3715     1.0  0.85652  0.46253  0.53069  1.0000
  H   H3716     1.0  0.86778  0.64628  0.62924  1.0000
  N   N206      1.0  0.83627  0.37010  0.61954  1.0000
  C   C3112     1.0  0.83109  0.37256  0.64807  1.0000
  C   C3113     1.0  0.82369  0.37117  0.60523  1.0000
  C   C3114     1.0  0.83851  0.35418  0.62376  1.0000
  C   C3115     1.0  0.85078  0.38140  0.60174  1.0000
  C   C3116     1.0  0.97777  0.50189  0.61440  1.0000
  C   C3117     1.0  0.82816  0.52220  0.92236  1.0000
  H   H3717     1.0  0.75095  0.50383  0.53556  1.0000
  C   C3118     1.0  0.74351  0.48358  0.57217  1.0000
  H   H3718     1.0  0.79758  0.51768  0.93283  1.0000
  H   H3719     1.0  0.82018  0.36390  0.66096  1.0000
  H   H3720     1.0  0.83973  0.37119  0.66054  1.0000
  H   H3721     1.0  0.82895  0.38426  0.64658  1.0000
  H   H3722     1.0  0.82224  0.38321  0.60036  1.0000
  H   H3723     1.0  0.81244  0.36329  0.61853  1.0000
  H   H3724     1.0  0.82589  0.36800  0.58477  1.0000
  H   H3725     1.0  0.84841  0.35322  0.63322  1.0000
  H   H3726     1.0  0.82818  0.34532  0.63838  1.0000
  H   H3727     1.0  0.84092  0.35074  0.60360  1.0000
  H   H3728     1.0  0.75132  0.40736  0.97418  1.0000
  H   H3729     1.0  0.85126  0.37227  0.56467  1.0000
  C   C3119     1.0  0.81285  0.32518  0.87190  1.0000
  H   H3730     1.0  0.82298  0.32281  0.83055  1.0000
  H   H3731     1.0  0.83286  0.62839  0.65508  1.0000
  C   C3120     1.0  0.83499  0.51327  0.90567  1.0000
  C   C3121     1.0  0.92482  0.51060  0.60519  1.0000
  H   H3732     1.0  0.82235  0.49296  0.96020  1.0000
  C   C3122     1.0  0.82330  0.52000  0.97267  1.0000
  C   C3123     1.0  0.79059  0.62707  0.49918  1.0000
  H   H3733     1.0  0.77762  0.35282  0.93028  1.0000
  C   C3124     1.0  0.84865  0.41892  0.51976  1.0000
  C   C3125     1.0  0.78546  0.32274  0.85501  1.0000
  H   H3734     1.0  0.95169  0.45682  0.65590  1.0000
  H   H3735     1.0  0.87815  0.56012  0.94913  1.0000
  C   C3126     1.0  0.79159  0.41120  0.94170  1.0000
  N   N207      1.0  0.89245  0.36134  0.75075  1.0000
  C   C3127     1.0  0.88563  0.34880  0.73900  1.0000
  H   H3736     1.0  0.77403  0.36511  0.95276  1.0000
  C   C3128     1.0  0.87951  0.36540  0.76845  1.0000
  C   C3129     1.0  0.90257  0.37452  0.72717  1.0000
  C   C3130     1.0  0.89965  0.38946  0.72113  1.0000
  C   C3131     1.0  0.91573  0.37251  0.70904  1.0000
  C   C3132     1.0  0.90933  0.40153  0.69829  1.0000
  C   C3133     1.0  0.92532  0.38466  0.68627  1.0000
  C   C3134     1.0  0.92210  0.39914  0.68085  1.0000
  H   H3737     1.0  0.87897  0.35301  0.72403  1.0000
  H   H3738     1.0  0.89450  0.34415  0.72720  1.0000
  H   H3739     1.0  0.87763  0.33878  0.75602  1.0000
  H   H3740     1.0  0.82662  0.53280  0.96886  1.0000
  H   H3741     1.0  0.97675  0.45619  0.73487  1.0000
  C   C3135     1.0  0.74520  0.54258  0.53488  1.0000
  H   H3742     1.0  0.88378  0.37467  0.77832  1.0000
  C   C3136     1.0  0.89821  0.57686  0.94997  1.0000
  H   H3743     1.0  0.87221  0.35520  0.78605  1.0000
  H   H3744     1.0  0.88983  0.39213  0.73335  1.0000
  H   H3745     1.0  0.75786  0.53773  0.49776  1.0000
  H   H3746     1.0  0.90670  0.41275  0.69378  1.0000
  H   H3747     1.0  0.93524  0.38279  0.67261  1.0000
  H   H3748     1.0  0.92941  0.40850  0.66298  1.0000
  H   H3749     1.0  0.78762  0.41448  0.96103  1.0000
  H   H3750     1.0  0.93693  0.44286  0.70510  1.0000
  S   S836      1.0  0.77070  0.34907  0.49637  1.0000
  C   C3137     1.0  0.92933  0.53150  0.68740  1.0000
  H   H3751     1.0  0.93390  0.54368  0.67400  1.0000
  H   H3752     1.0  0.93922  0.52650  0.69037  1.0000
  H   H3753     1.0  0.92321  0.53210  0.70873  1.0000
  H   H3754     1.0  0.89680  0.52205  0.66593  1.0000
  N   N208      1.0  0.84521  0.47178  0.57990  1.0000
  C   C3138     1.0  0.84173  0.48704  0.57907  1.0000
  C   C3139     1.0  0.84047  0.46229  0.60982  1.0000
  C   C3140     1.0  0.86221  0.47462  0.56979  1.0000
  C   C3141     1.0  0.83665  0.46373  0.56284  1.0000
  C   C3142     1.0  0.84412  0.45987  0.53835  1.0000
  C   C3143     1.0  0.82027  0.45927  0.57087  1.0000
  C   C3144     1.0  0.94900  0.44882  0.70072  1.0000
  C   C3145     1.0  0.81192  0.45091  0.55605  1.0000
  H   H3755     1.0  0.96133  0.53138  0.59655  1.0000
  H   H3756     1.0  0.82931  0.48589  0.58832  1.0000
  H   H3757     1.0  0.84823  0.49344  0.59146  1.0000
  H   H3758     1.0  0.84494  0.49447  0.55690  1.0000
  H   H3759     1.0  0.82828  0.46128  0.62046  1.0000
  H   H3760     1.0  0.84745  0.46745  0.62291  1.0000
  H   H3761     1.0  0.84188  0.45033  0.61114  1.0000
  H   H3762     1.0  0.86680  0.48223  0.54778  1.0000
  H   H3763     1.0  0.86834  0.48056  0.58308  1.0000
  H   H3764     1.0  0.86567  0.46355  0.57070  1.0000
  H   H3765     1.0  0.81633  0.37557  0.93222  1.0000
  H   H3766     1.0  0.81381  0.46196  0.58903  1.0000
  C   C3146     1.0  0.84604  0.52043  0.87981  1.0000
  H   H3767     1.0  0.74391  0.46433  0.52043  1.0000
  H   H3768     1.0  0.86148  0.60620  0.66717  1.0000
  Fe  Fe419     1.0  0.84683  0.33076  0.72470  1.0000
  C   C3147     1.0  0.80906  0.56008  0.76809  1.0000
  C   C3148     1.0  0.78627  0.55132  0.80718  1.0000
  C   C3149     1.0  0.97715  0.32927  0.90123  1.0000
  C   C3150     1.0  0.77612  0.54232  0.74730  1.0000
  C   C3151     1.0  0.75636  0.42351  0.49003  1.0000
  C   C3152     1.0  0.76741  0.54650  0.72839  1.0000
  C   C3153     1.0  0.92643  0.52092  0.64637  1.0000
  H   H3769     1.0  0.81656  0.55729  0.78224  1.0000
  H   H3770     1.0  0.78585  0.56350  0.80627  1.0000
  H   H3771     1.0  0.79297  0.54805  0.82279  1.0000
  H   H3772     1.0  0.77428  0.54384  0.81587  1.0000
  H   H3773     1.0  0.77693  0.53045  0.75156  1.0000
  H   H3774     1.0  0.80613  0.40055  0.87177  1.0000
  C   C3154     1.0  0.90577  0.52908  0.67318  1.0000
  H   H3775     1.0  0.94611  0.59991  0.95082  1.0000
  H   H3776     1.0  0.91037  0.35007  0.75929  1.0000
  H   H3777     1.0  0.78023  0.62306  0.51664  1.0000
  S   S837      1.0  0.96109  0.63239  0.92891  1.0000
  C   C3155     1.0  0.84404  0.54560  0.88544  1.0000
  H   H3778     1.0  0.85951  0.34631  0.97269  1.0000
  H   H3779     1.0  0.87207  0.62572  0.66022  1.0000
  H   H3780     1.0  0.84838  0.41658  0.49953  1.0000
  H   H3781     1.0  0.87535  0.61564  0.63327  1.0000
  C   C3156     1.0  0.83305  0.53859  0.91141  1.0000
  C   C3157     1.0  0.87309  0.40323  0.59441  1.0000
  N   N209      1.0  0.79520  0.37438  0.91941  1.0000
  H   H3782     1.0  0.93576  0.61159  0.91489  1.0000
  H   H3783     1.0  0.74041  0.45193  0.58185  1.0000
  H   H3784     1.0  0.90965  0.54087  0.65816  1.0000
  C   C3158     1.0  0.86234  0.42774  0.52326  1.0000
  C   C3159     1.0  0.74325  0.42715  0.50462  1.0000
  N   N210      1.0  0.91890  0.52200  0.67485  1.0000
  H   H3785     1.0  0.81470  0.55919  0.74684  1.0000
  N   N211      1.0  0.79335  0.54948  0.77902  1.0000
  Fe  Fe420     1.0  0.93710  0.62768  0.84967  1.0000
  H   H3786     1.0  0.76048  0.51359  0.61079  1.0000
  H   H3787     1.0  0.76152  0.41528  0.50117  1.0000
  S   S838      1.0  0.78428  0.39169  0.50380  1.0000
  C   C3160     1.0  0.94229  0.52805  0.63265  1.0000
  H   H3788     1.0  0.85532  0.39468  0.63239  1.0000
  C   C3161     1.0  0.78383  0.55339  0.75926  1.0000
  H   H3789     1.0  0.87922  0.41221  0.60209  1.0000
  C   C3162     1.0  0.93523  0.59056  0.96076  1.0000
  H   H3790     1.0  0.87251  0.43211  0.50557  1.0000
  H   H3791     1.0  0.98039  0.33283  0.87829  1.0000
  C   C3163     1.0  0.91300  0.50622  0.69463  1.0000
  C   C3164     1.0  0.94909  0.52635  0.60611  1.0000
  C   C3165     1.0  0.94040  0.51757  0.59250  1.0000
  H   H3792     1.0  0.92255  0.50053  0.69658  1.0000
  H   H3793     1.0  0.90694  0.50653  0.71622  1.0000
  H   H3794     1.0  0.89981  0.53018  0.69424  1.0000
  C   C3166     1.0  0.79512  0.53336  0.78312  1.0000
  H   H3795     1.0  0.80921  0.57245  0.76623  1.0000
  C   C3167     1.0  0.75652  0.51005  0.57147  1.0000
  H   H3796     1.0  0.90453  0.49848  0.68751  1.0000
  C   C3168     1.0  0.87087  0.39107  0.55662  1.0000
  H   H3797     1.0  0.80059  0.53129  0.76265  1.0000
  C   C3169     1.0  0.75042  0.49944  0.55766  1.0000
  H   H3798     1.0  0.91567  0.60678  0.91694  1.0000
  C   C3170     1.0  0.87893  0.40222  0.56705  1.0000
  H   H3799     1.0  0.90941  0.61258  0.96368  1.0000
  C   C3171     1.0  0.78195  0.56869  0.75155  1.0000
  C   C3172     1.0  0.76623  0.56171  0.72059  1.0000
  S   S839      1.0  0.75968  0.44454  0.95902  1.0000
  N   N212      1.0  0.92163  0.59572  0.95454  1.0000
  C   C3173     1.0  0.81961  0.44703  0.53252  1.0000
  Fe  Fe421     1.0  0.81001  0.39728  0.50022  1.0000
  H   H3800     1.0  0.73789  0.46729  0.61441  1.0000
  H   H3801     1.0  0.90775  0.36465  0.77757  1.0000
  H   H3802     1.0  0.75900  0.47045  0.53667  1.0000
  H   H3803     1.0  0.94585  0.51579  0.57246  1.0000
  C   C3174     1.0  0.98095  0.33349  0.94620  1.0000
  C   C3175     1.0  0.77890  0.36520  0.93046  1.0000
  C   C3176     1.0  0.95734  0.45667  0.67301  1.0000
  C   C3177     1.0  0.80195  0.40289  0.89183  1.0000
  H   H3804     1.0  0.79924  0.36867  0.96119  1.0000
  H   H3805     1.0  0.81374  0.37761  0.88242  1.0000
  S   S840      1.0  0.96443  0.33497  0.81823  1.0000
  H   H3806     1.0  0.82012  0.61006  0.58383  1.0000
  C   C3178     1.0  0.77341  0.57278  0.73226  1.0000
  S   S841      1.0  0.93481  0.64292  0.87938  1.0000
  N   N213      1.0  0.81676  0.51511  0.95024  1.0000
  H   H3807     1.0  0.80426  0.53298  0.94809  1.0000
  H   H3808     1.0  0.77208  0.65544  0.63853  1.0000
  H   H3809     1.0  0.82347  0.32604  0.87840  1.0000
  H   H3810     1.0  0.77142  0.36995  0.91779  1.0000
  C   C3179     1.0  0.97171  0.45655  0.71709  1.0000
  H   H3811     1.0  0.88949  0.41045  0.55366  1.0000
  H   H3812     1.0  0.79332  0.51445  0.97060  1.0000
  C   C3180     1.0  0.83563  0.45173  0.52344  1.0000
  C   C3181     1.0  0.79603  0.39097  0.91773  1.0000
  S   S842      1.0  0.84306  0.33335  0.76905  1.0000
  C   C3182     1.0  0.75586  0.50524  0.60014  1.0000
  H   H3813     1.0  0.77256  0.58464  0.72593  1.0000
  H   H3814     1.0  0.84157  0.44854  0.50530  1.0000
  H   H3815     1.0  0.94963  0.44265  0.74431  1.0000
  H   H3816     1.0  0.87163  0.36927  0.75585  1.0000
  H   H3817     1.0  0.80724  0.49338  0.94197  1.0000
  H   H3818     1.0  0.76000  0.56496  0.70497  1.0000
  H   H3819     1.0  0.80063  0.35885  0.89383  1.0000
  H   H3820     1.0  0.91816  0.50356  0.59476  1.0000
  C   C3183     1.0  0.80241  0.52033  0.95037  1.0000
  C   C3184     1.0  0.97194  0.50505  0.64012  1.0000
  H   H3821     1.0  0.91862  0.36144  0.71219  1.0000
  H   H3822     1.0  0.97265  0.48996  0.58313  1.0000
  H   H3823     1.0  0.81387  0.65263  0.54948  1.0000
  C   C3185     1.0  0.95617  0.44874  0.72273  1.0000
  C   C3186     1.0  0.96312  0.64523  0.95050  1.0000
  H   H3824     1.0  0.83377  0.62780  0.60590  1.0000
  H   H3825     1.0  0.79945  0.44718  0.56307  1.0000
  H   H3826     1.0  0.76164  0.52216  0.55998  1.0000
  H   H3827     1.0  0.85246  0.64453  0.61290  1.0000
  C   C3187     1.0  0.80135  0.37142  0.89168  1.0000
  Fe  Fe422     1.0  0.97092  0.64495  0.82198  1.0000
  C   C3188     1.0  0.98056  0.46473  0.68909  1.0000
  H   H3828     1.0  0.92697  0.59297  0.91190  1.0000
  C   C3189     1.0  0.81265  0.64893  0.57206  1.0000
  H   H3829     1.0  0.80108  0.60980  0.51773  1.0000
  C   C3190     1.0  0.74842  0.47303  0.53133  1.0000
  H   H3830     1.0  0.86914  0.63808  0.59933  1.0000
  H   H3831     1.0  0.75187  0.48439  0.51515  1.0000
  H   H3832     1.0  0.76211  0.53804  0.71864  1.0000
  C   C3191     1.0  0.79743  0.42259  0.91603  1.0000
  H   H3833     1.0  0.80430  0.35622  0.93992  1.0000
  C   C3192     1.0  0.97286  0.46459  0.66714  1.0000
  C   C3193     1.0  0.80416  0.36851  0.93900  1.0000
  H   H3834     1.0  0.79464  0.37485  0.87627  1.0000
  C   C3194     1.0  0.96489  0.63959  0.97771  1.0000
  C   C3195     1.0  0.92506  0.60195  0.92331  1.0000
  H   H3835     1.0  0.73830  0.42160  0.52700  1.0000
  S   S843      1.0  0.76969  0.47969  0.96802  1.0000
  H   H3836     1.0  0.73357  0.39869  0.48525  1.0000
  H   H3837     1.0  0.84108  0.33917  0.94608  1.0000
  C   C3196     1.0  0.73651  0.43793  0.49042  1.0000
  H   H3838     1.0  0.83375  0.51575  0.97428  1.0000
  H   H3839     1.0  0.74854  0.36649  0.51467  1.0000
  H   H3840     1.0  0.74689  0.38565  0.51437  1.0000
  H   H3841     1.0  0.73586  0.51770  0.49487  1.0000
  C   C3197     1.0  0.73439  0.52354  0.51152  1.0000
  H   H3842     1.0  0.92988  0.61888  0.95818  1.0000
  S   S844      1.0  0.79985  0.32700  0.92509  1.0000
  Fe  Fe423     1.0  0.78787  0.37329  0.48089  1.0000
  H   H3843     1.0  0.81427  0.32433  0.97072  1.0000
  C   C3198     1.0  0.80238  0.61957  0.49989  1.0000
  H   H3844     1.0  0.77529  0.32475  0.89658  1.0000
  C   C3199     1.0  0.82000  0.65388  0.61404  1.0000
  C   C3200     1.0  0.78566  0.32428  0.88230  1.0000
  S   S845      1.0  0.81311  0.37751  0.48064  1.0000
  H   H3845     1.0  0.73259  0.47206  0.92505  1.0000
  S   S846      1.0  0.74101  0.35182  0.97895  1.0000
  S   S847      1.0  0.93977  0.32231  0.76336  1.0000
  C   C3201     1.0  0.96807  0.70837  0.14364  1.0000
  S   S848      1.0  0.98101  0.81805  0.13268  1.0000
  H   H3846     1.0  0.94927  0.71465  0.16834  1.0000
  H   H3847     1.0  0.83240  0.66757  0.41905  1.0000
  H   H3848     1.0  0.79670  0.78088  0.14188  1.0000
  H   H3849     1.0  0.79351  0.76341  0.10973  1.0000
  H   H3850     1.0  0.73519  0.87906  0.20364  1.0000
  Fe  Fe424     1.0  0.96275  0.67578  0.11273  1.0000
  S   S849      1.0  0.95561  0.69285  0.13688  1.0000
  C   C3202     1.0  0.77489  0.68829  0.27640  1.0000
  H   H3851     1.0  0.88290  0.71712  0.34252  1.0000
  H   H3852     1.0  0.76167  0.70535  0.30573  1.0000
  H   H3853     1.0  0.80776  0.68368  0.42566  1.0000
  C   C3203     1.0  0.76004  0.91834  0.24597  1.0000
  H   H3854     1.0  0.80962  0.76153  0.14307  1.0000
  S   S850      1.0  0.73584  0.77959  0.15950  1.0000
  S   S851      1.0  0.96924  0.77372  0.17995  1.0000
  H   H3855     1.0  0.77258  0.93838  0.21161  1.0000
  H   H3856     1.0  0.92607  0.75508  0.19146  1.0000
  H   H3857     1.0  0.93085  0.77703  0.21085  1.0000
  Fe  Fe425     1.0  0.96787  0.77609  0.22421  1.0000
  S   S852      1.0  0.94501  0.77091  0.25803  1.0000
  N   N214      1.0  0.81383  0.89540  0.99875  1.0000
  H   H3858     1.0  0.95442  0.74650  0.12062  1.0000
  H   H3859     1.0  0.81230  0.80524  0.06543  1.0000
  C   C3204     1.0  0.84266  0.79116  0.07862  1.0000
  Fe  Fe426     1.0  0.74652  0.78944  0.19068  1.0000
  H   H3860     1.0  0.77514  0.70739  0.24128  1.0000
  H   H3861     1.0  0.80490  0.87532  0.98497  1.0000
  H   H3862     1.0  0.80486  0.71315  0.28638  1.0000
  C   C3205     1.0  0.75964  0.90203  0.20473  1.0000
  C   C3206     1.0  0.91164  0.74777  0.37083  1.0000
  H   H3863     1.0  0.79405  0.67092  0.45661  1.0000
  C   C3207     1.0  0.75474  0.86806  0.23081  1.0000
  H   H3864     1.0  0.79912  0.71370  0.25421  1.0000
  H   H3865     1.0  0.87978  0.74263  0.35096  1.0000
  H   H3866     1.0  0.81672  0.67510  0.27666  1.0000
  C   C3208     1.0  0.85074  0.81349  0.03761  1.0000
  H   H3867     1.0  0.75896  0.87125  0.20735  1.0000
  H   H3868     1.0  0.77314  0.66563  0.30491  1.0000
  H   H3869     1.0  0.83277  0.82366  0.02685  1.0000
  Fe  Fe427     1.0  0.76789  0.76748  0.19299  1.0000
  S   S853      1.0  0.77085  0.79174  0.16618  1.0000
  S   S854      1.0  0.78928  0.75972  0.20078  1.0000
  H   H3870     1.0  0.82536  0.76207  0.11484  1.0000
  S   S855      1.0  0.96701  0.67723  0.00952  1.0000
  Fe  Fe428     1.0  0.75992  0.78004  0.13748  1.0000
  S   S856      1.0  0.76884  0.78447  0.08996  1.0000
  H   H3871     1.0  0.77557  0.71927  0.27568  1.0000
  S   S857      1.0  0.75822  0.75596  0.16261  1.0000
  Fe  Fe429     1.0  0.82683  0.68989  0.33194  1.0000
  S   S858      1.0  0.81619  0.70295  0.36063  1.0000
  N   N215      1.0  0.78245  0.69835  0.29187  1.0000
  Fe  Fe430     1.0  0.85695  0.71633  0.30957  1.0000
  S   S859      1.0  0.84792  0.73111  0.33667  1.0000
  S   S860      1.0  0.88110  0.72060  0.28062  1.0000
  Fe  Fe431     1.0  0.83876  0.70889  0.37202  1.0000
  S   S861      1.0  0.83994  0.70195  0.41863  1.0000
  Fe  Fe432     1.0  0.82596  0.72392  0.32312  1.0000
  S   S862      1.0  0.80850  0.73801  0.31575  1.0000
  S   S863      1.0  0.84891  0.69447  0.34540  1.0000
  S   S864      1.0  0.83553  0.71055  0.29381  1.0000
  S   S865      1.0  0.81391  0.84844  0.01225  1.0000
  C   C3209     1.0  0.80091  0.83073  0.03300  1.0000
  C   C3210     1.0  0.79416  0.82935  0.06164  1.0000
  C   C3211     1.0  0.78404  0.81533  0.07921  1.0000
  C   C3212     1.0  0.78058  0.80259  0.06819  1.0000
  C   C3213     1.0  0.78718  0.80402  0.03946  1.0000
  C   C3214     1.0  0.79736  0.81803  0.02190  1.0000
  H   H3872     1.0  0.79687  0.83913  0.07036  1.0000
  H   H3873     1.0  0.77899  0.81436  0.10128  1.0000
  H   H3874     1.0  0.78454  0.79419  0.03083  1.0000
  H   H3875     1.0  0.80250  0.81898  0.99987  1.0000
  C   C3215     1.0  0.79459  0.75430  0.23297  1.0000
  C   C3216     1.0  0.78580  0.75490  0.25895  1.0000
  C   C3217     1.0  0.79047  0.75031  0.28395  1.0000
  C   C3218     1.0  0.80384  0.74488  0.28333  1.0000
  C   C3219     1.0  0.81273  0.74446  0.25728  1.0000
  C   C3220     1.0  0.80810  0.74912  0.23228  1.0000
  H   H3876     1.0  0.77544  0.75897  0.25977  1.0000
  H   H3877     1.0  0.78358  0.75080  0.30396  1.0000
  H   H3878     1.0  0.82315  0.74050  0.25639  1.0000
  H   H3879     1.0  0.81505  0.74872  0.21227  1.0000
  C   C3221     1.0  0.93332  0.75985  0.17010  1.0000
  H   H3880     1.0  0.97735  0.84139  0.08799  1.0000
  C   C3222     1.0  0.78297  0.68982  0.32038  1.0000
  H   H3881     1.0  0.73897  0.95130  0.21749  1.0000
  H   H3882     1.0  0.77120  0.68346  0.33390  1.0000
  H   H3883     1.0  0.94884  0.79236  0.11450  1.0000
  C   C3223     1.0  0.97883  0.83164  0.07959  1.0000
  H   H3884     1.0  0.74646  0.87107  0.28361  1.0000
  C   C3224     1.0  0.80365  0.77158  0.09323  1.0000
  C   C3225     1.0  0.82388  0.80399  0.06362  1.0000
  C   C3226     1.0  0.92264  0.78101  0.19917  1.0000
  C   C3227     1.0  0.87819  0.73680  0.37370  1.0000
  H   H3885     1.0  0.81423  0.67516  0.45529  1.0000
  C   C3228     1.0  0.85429  0.80182  0.05622  1.0000
  C   C3229     1.0  0.90461  0.73476  0.36247  1.0000
  H   H3886     1.0  0.75961  0.89628  0.18795  1.0000
  H   H3887     1.0  0.95217  0.79808  0.17372  1.0000
  H   H3888     1.0  0.80962  0.76478  0.08068  1.0000
  C   C3230     1.0  0.85144  0.73250  0.46542  1.0000
  C   C3231     1.0  0.91397  0.65867  0.05049  1.0000
  C   C3232     1.0  0.82702  0.79194  0.08297  1.0000
  C   C3233     1.0  0.96615  0.66490  0.98668  1.0000
  C   C3234     1.0  0.80558  0.88799  0.98049  1.0000
  H   H3889     1.0  0.81326  0.79718  0.13094  1.0000
  H   H3890     1.0  0.79027  0.68149  0.31897  1.0000
  H   H3891     1.0  0.93181  0.76653  0.36329  1.0000
  H   H3892     1.0  0.91227  0.77122  0.20370  1.0000
  H   H3893     1.0  0.93727  0.73741  0.16919  1.0000
  C   C3235     1.0  0.73741  0.87023  0.27180  1.0000
  C   C3236     1.0  0.80861  0.66380  0.28480  1.0000
  C   C3237     1.0  0.82271  0.66433  0.40942  1.0000
  H   H3894     1.0  0.94695  0.75924  0.32344  1.0000
  H   H3895     1.0  0.79900  0.79583  0.11102  1.0000
  H   H3896     1.0  0.92394  0.79759  0.13084  1.0000
  H   H3897     1.0  0.79885  0.77910  0.07863  1.0000
  C   C3238     1.0  0.92721  0.75724  0.26288  1.0000
  C   C3239     1.0  0.91370  0.75860  0.28055  1.0000
  C   C3240     1.0  0.89945  0.74766  0.28592  1.0000
  C   C3241     1.0  0.89856  0.73515  0.27378  1.0000
  C   C3242     1.0  0.91202  0.73394  0.25574  1.0000
  C   C3243     1.0  0.92625  0.74492  0.25027  1.0000
  H   H3898     1.0  0.91431  0.76809  0.29043  1.0000
  H   H3899     1.0  0.88919  0.74889  0.29946  1.0000
  H   H3900     1.0  0.91148  0.72433  0.24618  1.0000
  H   H3901     1.0  0.93654  0.74366  0.23673  1.0000
  N   N216      1.0  0.80755  0.65947  0.43079  1.0000
  H   H3902     1.0  0.91863  0.78995  0.20868  1.0000
  H   H3903     1.0  0.80370  0.87448  0.03294  1.0000
  H   H3904     1.0  0.78822  0.69784  0.33180  1.0000
  C   C3244     1.0  0.84791  0.72648  0.44301  1.0000
  C   C3245     1.0  0.84346  0.71042  0.44670  1.0000
  N   N217      1.0  0.88839  0.72614  0.37684  1.0000
  H   H3905     1.0  0.74691  0.89750  0.27616  1.0000
  C   C3246     1.0  0.76536  0.68569  0.23471  1.0000
  H   H3906     1.0  0.84866  0.73432  0.42295  1.0000
  S   S866      1.0  0.81209  0.66524  0.33853  1.0000
  C   C3247     1.0  0.82249  0.92096  0.00955  1.0000
  C   C3248     1.0  0.97112  0.72986  0.16595  1.0000
  H   H3907     1.0  0.87055  0.70670  0.37683  1.0000
  C   C3249     1.0  0.76154  0.66958  0.24462  1.0000
  N   N218      1.0  0.74402  0.87717  0.24086  1.0000
  C   C3250     1.0  0.93663  0.77584  0.15553  1.0000
  C   C3251     1.0  0.80550  0.78907  0.12305  1.0000
  C   C3252     1.0  0.93538  0.75227  0.33477  1.0000
  C   C3253     1.0  0.94931  0.75457  0.13007  1.0000
  C   C3254     1.0  0.82377  0.93688  0.00512  1.0000
  C   C3255     1.0  0.93967  0.74947  0.15748  1.0000
  C   C3256     1.0  0.92678  0.75642  0.35702  1.0000
  S   S867      1.0  0.94605  0.66622  0.08962  1.0000
  H   H3908     1.0  0.82990  0.94340  0.01697  1.0000
  N   N219      1.0  0.81428  0.78070  0.10591  1.0000
  H   H3909     1.0  0.86615  0.80104  0.05312  1.0000
  S   S868      1.0  0.74423  0.76603  0.21992  1.0000
  H   H3910     1.0  0.79350  0.88907  0.98408  1.0000
  H   H3911     1.0  0.73698  0.80589  0.29971  1.0000
  C   C3257     1.0  0.76698  0.91788  0.19703  1.0000
  C   C3258     1.0  0.77422  0.71052  0.29588  1.0000
  S   S869      1.0  0.73723  0.80976  0.19966  1.0000
  C   C3259     1.0  0.96165  0.71741  0.16001  1.0000
  Fe  Fe433     1.0  0.96687  0.66761  0.05544  1.0000
  H   H3912     1.0  0.95986  0.77397  0.09348  1.0000
  H   H3913     1.0  0.84622  0.78241  0.09214  1.0000
  H   H3914     1.0  0.88962  0.70430  0.36751  1.0000
  C   C3260     1.0  0.80575  0.67280  0.44266  1.0000
  H   H3915     1.0  0.82759  0.91556  0.02539  1.0000
  C   C3261     1.0  0.95241  0.77003  0.11490  1.0000
  C   C3262     1.0  0.73765  0.94867  0.26180  1.0000
  H   H3916     1.0  0.81879  0.95696  0.98125  1.0000
  H   H3917     1.0  0.93563  0.73644  0.30866  1.0000
  C   C3263     1.0  0.91378  0.73075  0.33984  1.0000
  H   H3918     1.0  0.75987  0.92483  0.26184  1.0000
  H   H3919     1.0  0.80498  0.69718  0.27079  1.0000
  C   C3264     1.0  0.77094  0.67180  0.28580  1.0000
  H   H3920     1.0  0.86580  0.73049  0.38270  1.0000
  H   H3921     1.0  0.90539  0.75151  0.38785  1.0000
  H   H3922     1.0  0.92338  0.66939  0.04644  1.0000
  H   H3923     1.0  0.82737  0.77570  0.13641  1.0000
  H   H3924     1.0  0.88036  0.74601  0.38485  1.0000
  H   H3925     1.0  0.74375  0.79866  0.25432  1.0000
  H   H3926     1.0  0.76331  0.69106  0.21475  1.0000
  C   C3265     1.0  0.77202  0.69495  0.25021  1.0000
  H   H3927     1.0  0.74906  0.85536  0.23742  1.0000
  C   C3266     1.0  0.88270  0.71301  0.36532  1.0000
  N   N220      1.0  0.93024  0.78721  0.16833  1.0000
  H   H3928     1.0  0.88911  0.72893  0.41860  1.0000
  H   H3929     1.0  0.87486  0.71252  0.41875  1.0000
  H   H3930     1.0  0.83665  0.89781  0.00603  1.0000
  H   H3931     1.0  0.90942  0.72131  0.33139  1.0000
  H   H3932     1.0  0.85975  0.82169  0.02017  1.0000
  H   H3933     1.0  0.90926  0.78165  0.15564  1.0000
  S   S870      1.0  0.98151  0.80120  0.20962  1.0000
  C   C3267     1.0  0.91870  0.79191  0.15384  1.0000
  H   H3934     1.0  0.93845  0.80952  0.17607  1.0000
  C   C3268     1.0  0.94610  0.78052  0.12726  1.0000
  H   H3935     1.0  0.91711  0.66045  0.99503  1.0000
  C   C3269     1.0  0.75260  0.90251  0.25391  1.0000
  H   H3936     1.0  0.73741  0.85484  0.47687  1.0000
  C   C3270     1.0  0.94267  0.80123  0.16493  1.0000
  H   H3937     1.0  0.91341  0.80031  0.16304  1.0000
  C   C3271     1.0  0.73686  0.80692  0.25620  1.0000
  H   H3938     1.0  0.94784  0.80797  0.14246  1.0000
  H   H3939     1.0  0.79388  0.88966  0.03407  1.0000
  C   C3272     1.0  0.76714  0.92602  0.21762  1.0000
  C   C3273     1.0  0.75219  0.89383  0.23343  1.0000
  H   H3940     1.0  0.83886  0.68812  0.47669  1.0000
  H   H3941     1.0  0.81182  0.89090  0.04384  1.0000
  C   C3274     1.0  0.79853  0.70592  0.27504  1.0000
  H   H3942     1.0  0.93523  0.66684  0.00222  1.0000
  C   C3275     1.0  0.88678  0.71972  0.40750  1.0000
  H   H3943     1.0  0.77876  0.71733  0.30978  1.0000
  C   C3276     1.0  0.76431  0.66267  0.27008  1.0000
  H   H3944     1.0  0.89485  0.71227  0.41078  1.0000
  H   H3945     1.0  0.77243  0.92396  0.17495  1.0000
  C   C3277     1.0  0.83556  0.81458  0.04136  1.0000
  H   H3946     1.0  0.80532  0.66233  0.24380  1.0000
  C   C3278     1.0  0.92897  0.73936  0.32648  1.0000
  C   C3279     1.0  0.73487  0.94343  0.23854  1.0000
  C   C3280     1.0  0.81952  0.76955  0.12577  1.0000
  S   S871      1.0  0.74659  0.96838  0.25858  1.0000
  H   H3947     1.0  0.82348  0.67475  0.39242  1.0000
  C   C3281     1.0  0.98092  0.82001  0.03993  1.0000
  H   H3948     1.0  0.96604  0.73660  0.17883  1.0000
  H   H3949     1.0  0.85504  0.74494  0.46212  1.0000
  C   C3282     1.0  0.80545  0.88732  0.02870  1.0000
  H   H3950     1.0  0.79653  0.66631  0.39763  1.0000
  H   H3951     1.0  0.76496  0.86977  0.23966  1.0000
  C   C3283     1.0  0.84223  0.70056  0.47342  1.0000
  Fe  Fe434     1.0  0.73496  0.75643  0.18692  1.0000
  H   H3952     1.0  0.82897  0.88010  0.99855  1.0000
  H   H3953     1.0  0.75662  0.66238  0.23239  1.0000
  H   H3954     1.0  0.90404  0.66223  0.04391  1.0000
  C   C3284     1.0  0.81503  0.91227  0.99354  1.0000
  C   C3285     1.0  0.97886  0.83248  0.05110  1.0000
  C   C3286     1.0  0.82948  0.89270  0.99332  1.0000
  C   C3287     1.0  0.81752  0.94457  0.98494  1.0000
  C   C3288     1.0  0.98076  0.81833  0.09723  1.0000
  H   H3955     1.0  0.73459  0.94205  0.30706  1.0000
  H   H3956     1.0  0.97717  0.84269  0.03784  1.0000
  C   C3289     1.0  0.80221  0.65646  0.26616  1.0000
  C   C3290     1.0  0.92591  0.65630  0.00479  1.0000
  C   C3291     1.0  0.79545  0.65620  0.41565  1.0000
  C   C3292     1.0  0.80465  0.65643  0.31383  1.0000
  S   S872      1.0  0.98159  0.82068  0.00397  1.0000
  C   C3293     1.0  0.73302  0.81104  0.28188  1.0000
  C   C3294     1.0  0.73249  0.93813  0.28891  1.0000
  H   H3957     1.0  0.82633  0.87918  0.86632  1.0000
  Fe  Fe435     1.0  0.98219  0.84178  0.96926  1.0000
  H   H3958     1.0  0.96344  0.88164  0.82533  1.0000
  S   S873      1.0  0.83182  0.66489  0.63059  1.0000
  S   S874      1.0  0.93969  0.68444  0.83535  1.0000
  H   H3959     1.0  0.77344  0.83415  0.69763  1.0000
  H   H3960     1.0  0.79718  0.69253  0.64060  1.0000
  H   H3961     1.0  0.81484  0.72119  0.51894  1.0000
  H   H3962     1.0  0.79980  0.94705  0.81529  1.0000
  S   S875      1.0  0.97136  0.66145  0.84963  1.0000
  C   C3295     1.0  0.73689  0.81957  0.65701  1.0000
  Fe  Fe436     1.0  0.97094  0.76787  0.73646  1.0000
  S   S876      1.0  0.94696  0.76879  0.75667  1.0000
  H   H3963     1.0  0.75341  0.90398  0.63850  1.0000
  C   C3296     1.0  0.74333  0.76816  0.89474  1.0000
  S   S877      1.0  0.95607  0.80422  0.71763  1.0000
  Fe  Fe437     1.0  0.95883  0.79244  0.76025  1.0000
  S   S878      1.0  0.95273  0.79889  0.80276  1.0000
  Fe  Fe438     1.0  0.94645  0.78033  0.71214  1.0000
  S   S879      1.0  0.92729  0.77561  0.68830  1.0000
  S   S880      1.0  0.97013  0.77836  0.69196  1.0000
  Fe  Fe439     1.0  0.84133  0.69135  0.61546  1.0000
  S   S881      1.0  0.82863  0.70578  0.59208  1.0000
  C   C3297     1.0  0.93862  0.70433  0.73673  1.0000
  Fe  Fe440     1.0  0.86384  0.72062  0.62140  1.0000
  S   S882      1.0  0.85223  0.73678  0.59743  1.0000
  S   S883      1.0  0.88122  0.72583  0.64846  1.0000
  Fe  Fe441     1.0  0.82979  0.71996  0.62361  1.0000
  S   S884      1.0  0.80717  0.72284  0.64842  1.0000
  Fe  Fe442     1.0  0.85183  0.72115  0.56731  1.0000
  S   S885      1.0  0.84113  0.70453  0.64870  1.0000
  S   S886      1.0  0.86499  0.70602  0.58953  1.0000
  Fe  Fe443     1.0  0.96712  0.86580  0.94252  1.0000
  S   S887      1.0  0.94701  0.87721  0.94324  1.0000
  S   S888      1.0  0.96572  0.84105  0.94126  1.0000
  Fe  Fe444     1.0  0.77507  0.97848  0.75970  1.0000
  H   H3964     1.0  0.73680  0.75698  0.85262  1.0000
  S   S889      1.0  0.78608  0.97250  0.79686  1.0000
  Fe  Fe445     1.0  0.75936  0.96318  0.71852  1.0000
  C   C3298     1.0  0.76117  0.85169  0.70140  1.0000
  S   S890      1.0  0.74957  0.93906  0.71200  1.0000
  C   C3299     1.0  0.82106  0.65871  0.58505  1.0000
  H   H3965     1.0  0.80336  0.91506  0.95918  1.0000
  H   H3966     1.0  0.75713  0.76414  0.84549  1.0000
  S   S891      1.0  0.78418  0.97345  0.71785  1.0000
  S   S892      1.0  0.75052  0.96647  0.76204  1.0000
  H   H3967     1.0  0.93518  0.75009  0.85597  1.0000
  H   H3968     1.0  0.95336  0.75963  0.88154  1.0000
  S   S893      1.0  0.85742  0.96818  0.95100  1.0000
  Fe  Fe446     1.0  0.74802  0.76235  0.78350  1.0000
  S   S894      1.0  0.75268  0.77409  0.73704  1.0000
  H   H3969     1.0  0.76205  0.67474  0.65202  1.0000
  Fe  Fe447     1.0  0.77222  0.78824  0.79413  1.0000
  S   S895      1.0  0.77852  0.80205  0.74838  1.0000
  S   S896      1.0  0.78028  0.79164  0.83368  1.0000
  Fe  Fe448     1.0  0.75311  0.79610  0.75073  1.0000
  H   H3970     1.0  0.77034  0.76040  0.88117  1.0000
  Fe  Fe449     1.0  0.77779  0.77904  0.73758  1.0000
  S   S897      1.0  0.79793  0.77885  0.70219  1.0000
  S   S898      1.0  0.74684  0.78402  0.79726  1.0000
  S   S899      1.0  0.77310  0.76561  0.78313  1.0000
  C   C3300     1.0  0.79375  0.68066  0.63773  1.0000
  H   H3971     1.0  0.76143  0.68502  0.61741  1.0000
  Fe  Fe450     1.0  0.85920  0.85693  0.92795  1.0000
  S   S900      1.0  0.85346  0.87057  0.88994  1.0000
  S   S901      1.0  0.88080  0.84787  0.92792  1.0000
  H   H3972     1.0  0.96134  0.77677  0.85291  1.0000
  S   S902      1.0  0.81947  0.86613  0.93133  1.0000
  Fe  Fe451     1.0  0.83055  0.85263  0.90387  1.0000
  S   S903      1.0  0.82077  0.84786  0.86666  1.0000
  Fe  Fe452     1.0  0.84260  0.88322  0.91956  1.0000
  S   S904      1.0  0.84048  0.90817  0.90570  1.0000
  S   S905      1.0  0.83685  0.83813  0.94036  1.0000
  S   S906      1.0  0.85015  0.87100  0.95629  1.0000
  C   C3301     1.0  0.79166  0.80747  0.84221  1.0000
  C   C3302     1.0  0.79771  0.82222  0.82322  1.0000
  C   C3303     1.0  0.80656  0.83435  0.83114  1.0000
  C   C3304     1.0  0.80956  0.83195  0.85808  1.0000
  C   C3305     1.0  0.80349  0.81720  0.87709  1.0000
  C   C3306     1.0  0.79460  0.80508  0.86920  1.0000
  H   H3973     1.0  0.79560  0.82428  0.80240  1.0000
  H   H3974     1.0  0.81121  0.84565  0.81616  1.0000
  H   H3975     1.0  0.80567  0.81512  0.89786  1.0000
  H   H3976     1.0  0.79004  0.79375  0.88410  1.0000
  H   H3977     1.0  0.94192  0.74686  0.82197  1.0000
  H   H3978     1.0  0.97373  0.76535  0.86524  1.0000
  C   C3307     1.0  0.74050  0.81427  0.68288  1.0000
  C   C3308     1.0  0.94979  0.84177  0.80034  1.0000
  H   H3979     1.0  0.98162  0.74005  0.81758  1.0000
  C   C3309     1.0  0.93999  0.69049  0.75330  1.0000
  H   H3980     1.0  0.83248  0.97878  0.80727  1.0000
  H   H3981     1.0  0.86599  0.93919  0.96111  1.0000
  H   H3982     1.0  0.94375  0.70680  0.90609  1.0000
  C   C3310     1.0  0.74054  0.93128  0.68756  1.0000
  C   C3311     1.0  0.85277  0.95161  0.93806  1.0000
  C   C3312     1.0  0.84340  0.95099  0.91929  1.0000
  C   C3313     1.0  0.83983  0.93761  0.90964  1.0000
  C   C3314     1.0  0.84555  0.92470  0.91859  1.0000
  C   C3315     1.0  0.85510  0.92541  0.93704  1.0000
  C   C3316     1.0  0.85863  0.93878  0.94680  1.0000
  H   H3983     1.0  0.83885  0.96079  0.91231  1.0000
  H   H3984     1.0  0.74812  0.84229  0.51090  1.0000
  H   H3985     1.0  0.85995  0.91577  0.94351  1.0000
  C   C3317     1.0  0.74716  0.75451  0.85905  1.0000
  C   C3318     1.0  0.80890  0.92052  0.97289  1.0000
  C   C3319     1.0  0.80037  0.97705  0.83921  1.0000
  C   C3320     1.0  0.97828  0.82131  0.80434  1.0000
  H   H3986     1.0  0.79251  0.88222  0.87636  1.0000
  C   C3321     1.0  0.80791  0.71283  0.53858  1.0000
  H   H3987     1.0  0.79666  0.96457  0.84728  1.0000
  C   C3322     1.0  0.95208  0.71437  0.88704  1.0000
  C   C3323     1.0  0.96281  0.66074  0.94138  1.0000
  Fe  Fe453     1.0  0.97974  0.80121  0.70012  1.0000
  C   C3324     1.0  0.84552  0.70659  0.49597  1.0000
  C   C3325     1.0  0.80173  0.71792  0.56174  1.0000
  C   C3326     1.0  0.79741  0.68615  0.56674  1.0000
  C   C3327     1.0  0.96578  0.71074  0.71258  1.0000
  C   C3328     1.0  0.81579  0.91943  0.84605  1.0000
  N   N221      1.0  0.78320  0.67982  0.61898  1.0000
  H   H3988     1.0  0.75240  0.89330  0.67319  1.0000
  C   C3329     1.0  0.76892  0.68376  0.63224  1.0000
  C   C3330     1.0  0.92817  0.86866  0.94114  1.0000
  C   C3331     1.0  0.92318  0.85280  0.94350  1.0000
  C   C3332     1.0  0.90859  0.84666  0.93972  1.0000
  C   C3333     1.0  0.89861  0.85617  0.93428  1.0000
  C   C3334     1.0  0.90340  0.87195  0.93277  1.0000
  C   C3335     1.0  0.91812  0.87815  0.93609  1.0000
  H   H3989     1.0  0.90014  0.98718  0.93830  1.0000
  H   H3990     1.0  0.76218  0.73973  0.89276  1.0000
  H   H3991     1.0  0.89589  0.87943  0.92854  1.0000
  H   H3992     1.0  0.95222  0.74220  0.72902  1.0000
  H   H3993     1.0  0.84463  0.69882  0.51622  1.0000
  C   C3336     1.0  0.80472  0.73865  0.66272  1.0000
  C   C3337     1.0  0.81530  0.75320  0.65224  1.0000
  C   C3338     1.0  0.81294  0.76544  0.66435  1.0000
  C   C3339     1.0  0.80002  0.76325  0.68705  1.0000
  C   C3340     1.0  0.78940  0.74872  0.69737  1.0000
  C   C3341     1.0  0.79172  0.73652  0.68515  1.0000
  H   H3994     1.0  0.82520  0.75509  0.63464  1.0000
  H   H3995     1.0  0.82117  0.77667  0.65613  1.0000
  H   H3996     1.0  0.77942  0.74689  0.71479  1.0000
  H   H3997     1.0  0.78342  0.72534  0.69329  1.0000
  C   C3342     1.0  0.96382  0.81121  0.81896  1.0000
  C   C3343     1.0  0.96565  0.82106  0.86072  1.0000
  C   C3344     1.0  0.95763  0.81116  0.84727  1.0000
  H   H3998     1.0  0.96068  0.82068  0.88251  1.0000
  H   H3999     1.0  0.94645  0.80350  0.85886  1.0000
  C   C3345     1.0  0.91470  0.76149  0.67726  1.0000
  C   C3346     1.0  0.91004  0.74563  0.69142  1.0000
  C   C3347     1.0  0.90011  0.73500  0.68198  1.0000
  C   C3348     1.0  0.89433  0.73995  0.65845  1.0000
  C   C3349     1.0  0.89873  0.75585  0.64459  1.0000
  C   C3350     1.0  0.90877  0.76646  0.65394  1.0000
  H   H4000     1.0  0.91377  0.74157  0.71011  1.0000
  H   H4001     1.0  0.89663  0.72284  0.69334  1.0000
  H   H4002     1.0  0.89441  0.76001  0.62661  1.0000
  H   H4003     1.0  0.91202  0.77867  0.64289  1.0000
  C   C3351     1.0  0.81008  0.93641  0.96891  1.0000
  S   S907      1.0  0.85555  0.73105  0.51915  1.0000
  H   H4004     1.0  0.80558  0.94258  0.95275  1.0000
  H   H4005     1.0  0.77835  0.84020  0.64550  1.0000
  C   C3352     1.0  0.82373  0.89070  0.86156  1.0000
  H   H4006     1.0  0.75212  0.87286  0.60378  1.0000
  C   C3353     1.0  0.77875  0.66347  0.61753  1.0000
  H   H4007     1.0  0.95514  0.67603  0.76245  1.0000
  C   C3354     1.0  0.75555  0.86337  0.68716  1.0000
  H   H4008     1.0  0.79074  0.87826  0.84328  1.0000
  C   C3355     1.0  0.95128  0.70159  0.81023  1.0000
  C   C3356     1.0  0.94508  0.71443  0.80455  1.0000
  C   C3357     1.0  0.95395  0.72830  0.78465  1.0000
  C   C3358     1.0  0.96913  0.72949  0.77042  1.0000
  H   H4009     1.0  0.94191  0.71782  0.66857  1.0000
  C   C3359     1.0  0.96647  0.70272  0.79599  1.0000
  H   H4010     1.0  0.93334  0.71359  0.81554  1.0000
  H   H4011     1.0  0.94898  0.73802  0.78034  1.0000
  H   H4012     1.0  0.76942  0.88690  0.60298  1.0000
  H   H4013     1.0  0.97131  0.69284  0.80024  1.0000
  H   H4014     1.0  0.74262  0.83266  0.54791  1.0000
  C   C3360     1.0  0.93833  0.72549  0.68189  1.0000
  H   H4015     1.0  0.77154  0.66224  0.60235  1.0000
  C   C3361     1.0  0.75665  0.88309  0.61127  1.0000
  C   C3362     1.0  0.73318  0.93364  0.64279  1.0000
  H   H4016     1.0  0.81844  0.89247  0.88235  1.0000
  H   H4017     1.0  0.83156  0.89677  0.80442  1.0000
  H   H4018     1.0  0.82871  0.66979  0.57245  1.0000
  H   H4019     1.0  0.76070  0.75138  0.91757  1.0000
  H   H4020     1.0  0.78844  0.67257  0.65921  1.0000
  H   H4021     1.0  0.82312  0.91847  0.86042  1.0000
  C   C3363     1.0  0.76950  0.84351  0.68635  1.0000
  C   C3364     1.0  0.76028  0.75104  0.89566  1.0000
  H   H4022     1.0  0.83508  0.89936  0.85196  1.0000
  H   H4023     1.0  0.96591  0.85906  0.80876  1.0000
  H   H4024     1.0  0.80079  0.86783  0.86412  1.0000
  C   C3365     1.0  0.76661  0.85856  0.64247  1.0000
  H   H4025     1.0  0.93267  0.73269  0.73228  1.0000
  H   H4026     1.0  0.83252  0.93725  0.89522  1.0000
  H   H4027     1.0  0.97797  0.69383  0.72651  1.0000
  C   C3366     1.0  0.79869  0.87951  0.85713  1.0000
  C   C3367     1.0  0.93517  0.83157  0.80916  1.0000
  H   H4028     1.0  0.75195  0.89260  0.60115  1.0000
  C   C3368     1.0  0.79353  0.70720  0.58760  1.0000
  C   C3369     1.0  0.80935  0.98581  0.85307  1.0000
  Fe  Fe454     1.0  0.82751  0.85314  0.96647  1.0000
  H   H4029     1.0  0.74211  0.81628  0.63848  1.0000
  H   H4030     1.0  0.92661  0.71939  0.69582  1.0000
  Fe  Fe455     1.0  0.94833  0.66275  0.84164  1.0000
  C   C3370     1.0  0.97539  0.71667  0.77618  1.0000
  C   C3371     1.0  0.94390  0.73887  0.71676  1.0000
  N   N222      1.0  0.96005  0.75545  0.84024  1.0000
  C   C3372     1.0  0.80999  0.90696  0.83501  1.0000
  H   H4031     1.0  0.97312  0.86856  0.84312  1.0000
  C   C3373     1.0  0.96166  0.73959  0.85129  1.0000
  H   H4032     1.0  0.81312  0.88653  0.80208  1.0000
  H   H4033     1.0  0.78996  0.71185  0.60533  1.0000
  C   C3374     1.0  0.82076  0.88772  0.81648  1.0000
  H   H4034     1.0  0.74881  0.86909  0.69991  1.0000
  C   C3375     1.0  0.79682  0.92405  0.80953  1.0000
  H   H4035     1.0  0.76998  0.89779  0.64578  1.0000
  H   H4036     1.0  0.81254  0.98002  0.87140  1.0000
  H   H4037     1.0  0.74531  0.95282  0.65571  1.0000
  H   H4038     1.0  0.80459  0.67766  0.62876  1.0000
  H   H4039     1.0  0.92740  0.70672  0.74062  1.0000
  H   H4040     1.0  0.96894  0.73322  0.66227  1.0000
  H   H4041     1.0  0.93705  0.73608  0.66756  1.0000
  H   H4042     1.0  0.79544  0.90077  0.80755  1.0000
  C   C3376     1.0  0.81215  0.93371  0.83886  1.0000
  C   C3377     1.0  0.80039  0.90973  0.81654  1.0000
  H   H4043     1.0  0.78936  0.92590  0.79555  1.0000
  H   H4044     1.0  0.77140  0.69471  0.63882  1.0000
  S   S908      1.0  0.73871  0.81308  0.73957  1.0000
  H   H4045     1.0  0.82389  0.87641  0.82167  1.0000
  C   C3378     1.0  0.74012  0.94047  0.66156  1.0000
  C   C3379     1.0  0.96220  0.76465  0.86092  1.0000
  N   N223      1.0  0.94831  0.86255  0.85938  1.0000
  C   C3380     1.0  0.94951  0.85284  0.88618  1.0000
  C   C3381     1.0  0.96338  0.87419  0.84613  1.0000
  C   C3382     1.0  0.93647  0.87117  0.86609  1.0000
  C   C3383     1.0  0.94387  0.85235  0.84142  1.0000
  C   C3384     1.0  0.92906  0.84176  0.84982  1.0000
  C   C3385     1.0  0.95421  0.85195  0.81624  1.0000
  C   C3386     1.0  0.92482  0.83157  0.83383  1.0000
  H   H4046     1.0  0.96241  0.75016  0.66516  1.0000
  H   H4047     1.0  0.92181  0.89042  0.93443  1.0000
  H   H4048     1.0  0.95245  0.85999  0.90070  1.0000
  H   H4049     1.0  0.93858  0.84391  0.89775  1.0000
  H   H4050     1.0  0.95865  0.84661  0.88217  1.0000
  C   C3387     1.0  0.79104  0.69095  0.59091  1.0000
  C   C3388     1.0  0.77219  0.84691  0.65698  1.0000
  C   C3389     1.0  0.73412  0.81877  0.70679  1.0000
  H   H4051     1.0  0.92526  0.86346  0.87981  1.0000
  H   H4052     1.0  0.94001  0.87961  0.87819  1.0000
  H   H4053     1.0  0.93430  0.87768  0.84643  1.0000
  H   H4054     1.0  0.92074  0.84101  0.86920  1.0000
  H   H4055     1.0  0.95794  0.84135  0.78157  1.0000
  H   H4056     1.0  0.91352  0.82346  0.84086  1.0000
  C   C3390     1.0  0.80570  0.69700  0.54105  1.0000
  H   H4057     1.0  0.81662  0.94304  0.84763  1.0000
  N   N224      1.0  0.84504  0.74138  0.70158  1.0000
  C   C3391     1.0  0.84919  0.74643  0.67017  1.0000
  C   C3392     1.0  0.85021  0.72709  0.71054  1.0000
  C   C3393     1.0  0.82795  0.73713  0.71187  1.0000
  C   C3394     1.0  0.85274  0.75395  0.71230  1.0000
  C   C3395     1.0  0.86907  0.75838  0.70643  1.0000
  C   C3396     1.0  0.84451  0.76259  0.72757  1.0000
  C   C3397     1.0  0.87670  0.77045  0.71561  1.0000
  C   C3398     1.0  0.85226  0.77467  0.73666  1.0000
  C   C3399     1.0  0.86830  0.77856  0.73075  1.0000
  H   H4058     1.0  0.86174  0.74823  0.66073  1.0000
  H   H4059     1.0  0.84302  0.73767  0.66114  1.0000
  H   H4060     1.0  0.84620  0.75756  0.66254  1.0000
  H   H4061     1.0  0.86267  0.72860  0.70104  1.0000
  H   H4062     1.0  0.84413  0.71729  0.70362  1.0000
  H   H4063     1.0  0.84811  0.72339  0.73399  1.0000
  H   H4064     1.0  0.82308  0.74701  0.70451  1.0000
  H   H4065     1.0  0.82248  0.72757  0.70364  1.0000
  H   H4066     1.0  0.82406  0.73321  0.73542  1.0000
  H   H4067     1.0  0.87610  0.75268  0.69430  1.0000
  H   H4068     1.0  0.83210  0.76042  0.73250  1.0000
  H   H4069     1.0  0.88923  0.77362  0.71064  1.0000
  H   H4070     1.0  0.84576  0.78116  0.74811  1.0000
  H   H4071     1.0  0.87426  0.78799  0.73767  1.0000
  C   C3400     1.0  0.97411  0.71830  0.84797  1.0000
  S   S909      1.0  0.82269  0.98785  0.93741  1.0000
  H   H4072     1.0  0.93204  0.82336  0.79720  1.0000
  C   C3401     1.0  0.80270  0.93601  0.82066  1.0000
  H   H4073     1.0  0.96413  0.68255  0.95230  1.0000
  H   H4074     1.0  0.73653  0.74457  0.94793  1.0000
  C   C3402     1.0  0.95148  0.71492  0.71583  1.0000
  N   N225      1.0  0.81331  0.89156  0.84249  1.0000
  H   H4075     1.0  0.76883  0.86033  0.61983  1.0000
  H   H4076     1.0  0.79653  0.67412  0.56730  1.0000
  C   C3403     1.0  0.95409  0.68667  0.74929  1.0000
  H   H4077     1.0  0.82225  0.97978  0.76593  1.0000
  H   H4078     1.0  0.81168  0.89306  0.95759  1.0000
  H   H4079     1.0  0.83578  0.89769  0.97060  1.0000
  C   C3404     1.0  0.85032  0.72265  0.49207  1.0000
  C   C3405     1.0  0.96420  0.73932  0.67775  1.0000
  H   H4080     1.0  0.80395  0.73026  0.56006  1.0000
  C   C3406     1.0  0.75718  0.89423  0.65041  1.0000
  C   C3407     1.0  0.94441  0.75457  0.83582  1.0000
  H   H4081     1.0  0.96607  0.88199  0.85984  1.0000
  C   C3408     1.0  0.97327  0.73350  0.83727  1.0000
  H   H4082     1.0  0.97309  0.74306  0.68886  1.0000
  S   S910      1.0  0.75671  0.98614  0.69562  1.0000
  N   N226      1.0  0.94964  0.72940  0.69828  1.0000
  N   N227      1.0  0.74554  0.75320  0.88967  1.0000
  H   H4083     1.0  0.74920  0.74380  0.85334  1.0000
  C   C3409     1.0  0.75819  0.86727  0.65720  1.0000
  C   C3410     1.0  0.73486  0.87462  0.65170  1.0000
  N   N228      1.0  0.75192  0.87957  0.64271  1.0000
  H   H4084     1.0  0.74846  0.80699  0.68413  1.0000
  H   H4085     1.0  0.90497  0.83442  0.94110  1.0000
  H   H4086     1.0  0.94223  0.74979  0.70422  1.0000
  H   H4087     1.0  0.75862  0.84855  0.72438  1.0000
  C   C3411     1.0  0.97994  0.83143  0.84591  1.0000
  S   S911      1.0  0.98192  0.86576  0.97380  1.0000
  H   H4088     1.0  0.93014  0.68277  0.76974  1.0000
  C   C3412     1.0  0.97141  0.76411  0.81281  1.0000
  C   C3413     1.0  0.95122  0.72960  0.87675  1.0000
  H   H4089     1.0  0.96383  0.69675  0.88017  1.0000
  H   H4090     1.0  0.74352  0.76883  0.91658  1.0000
  H   H4091     1.0  0.75264  0.77821  0.88014  1.0000
  Fe  Fe456     1.0  0.84688  0.98864  0.94124  1.0000
  C   C3414     1.0  0.96437  0.67056  0.95943  1.0000
  S   S912      1.0  0.98061  0.74685  0.74552  1.0000
  C   C3415     1.0  0.73934  0.83274  0.52761  1.0000
  H   H4092     1.0  0.94310  0.76619  0.82563  1.0000
  H   H4093     1.0  0.93059  0.84527  0.94810  1.0000
  H   H4094     1.0  0.82198  0.97954  0.72208  1.0000
  H   H4095     1.0  0.74034  0.82163  0.52245  1.0000
  C   C3416     1.0  0.96344  0.70870  0.87257  1.0000
  H   H4096     1.0  0.96146  0.66518  0.92041  1.0000
  C   C3417     1.0  0.79622  0.98429  0.81504  1.0000
  H   H4097     1.0  0.96991  0.77596  0.80515  1.0000
  H   H4098     1.0  0.81087  0.69314  0.52313  1.0000
  H   H4099     1.0  0.94216  0.73344  0.88865  1.0000
  H   H4100     1.0  0.97012  0.75813  0.79590  1.0000
  H   H4101     1.0  0.97630  0.71816  0.69782  1.0000
  C   C3418     1.0  0.96695  0.69675  0.72901  1.0000
  H   H4102     1.0  0.78902  0.65899  0.61116  1.0000
  C   C3419     1.0  0.73365  0.91520  0.69453  1.0000
  H   H4103     1.0  0.73371  0.90794  0.71466  1.0000
  H   H4104     1.0  0.73313  0.94093  0.62267  1.0000
  C   C3420     1.0  0.73251  0.74027  0.90840  1.0000
