data_image0
_chemical_formula_structural       FeS2FeS2FeCFeS3HS2C4HSC2H2C6H2CH2C3H2C2HCHFeHNH5CH2CH2C2HCH4NC9H13CHCH2C2H2FeH4C2H4SCNCFeS2FeSHFeSFeS3H3CFeSHC6H5CHC3H3C3H2C2H4CH4C2H4CHCH3C2HNC3HNC3NSHCHCH2CHC2H8CHSHCSC2FeCSH3C2HFeS2FeCSFeS2HCH2FeC4HCH4C2HCHSC2H2CSCHSH3FeC2HCHCHNC4H4C2HCHC2H5CHC4H2CHCSCH3CSHNHCH5CH3NH2SCSHCFeS2C3SHFeS3H3C2FeS2FeCFeHSC3H2C5HC3HNHCHC2FeCH2SH2CH2FeH2CHCHSHCHSHCH5C3FeH3NCHSFeHC2HSHSNH2C4HCH8C3HC2HC2HCHFeCHCNHCHCH3FeHC2HCHS2H4C3HSCHSHCHC2H2C2HC2H2C2HCHCNCHFeH2CSCSCH5FeHC2H2C3HNH2CHCHCH3C2HCHFeCHSCH2C2H2SCH2SH3FeCHC2SH3SCHSH2CFeS2FeS2FeSFeS3CFeSCH2SHC6H2SH6C6H4CH3CHCHC7H2NC4HCH2SNCHC3H4C2HC2H4NH2C2H2CHCH4CH4C3H2CHCHC2NCSCHCH7C3FeS2FeS2FeS2FeSFeS3C6H4NHC6H5CHC3H2C3HC2H4CHCH4FeCHCNH3C3NC2HC6H2CHC2H8NC8H12CSCH5C3H4CHCH4CHCHSCHCNHFeS2FeHCFeS2FeS2FeSFeS3FeS2FeS2FeSFeS3CHCH2C6H2CHCHCHC6H4CH2C4H4C6H4CHCNH2SC2HC2NH5C2H3C2HCNCH2CHCH4FeH2CH2C2H2CH2NC9H13C2HCHFeCHCHC8HC2H10C3H3CH2CH3CHCSC2H7C3HCSH2C2SH4FeC3FeHCFeS2FeS2FeS2FeSFeS3FeS2FeS2FeSFeS3C6H4C6H4C3HCSC2SH2C6H3C6H4C2HNCH2C2HNC9H14C2H9SHCNCHC2H4CH4C2H2C2H2CH6C4NCHCHCHCH4C3HCH2SNCH3CH3CHC2NCHC2H2C5H5CHCH2C2HCHCH6CH2CHFeHSHCH2FeH3FeS3CSFeSC2HC2FeSCH4CSCHC3HCSCHNC2SH2CNCH2SCHCH2CHSHCH4C2HCHC2H5CHCHCH2CFeHCH3SC
_chemical_formula_sum              "Fe72 S144 C540 H648 N36"
_cell_length_a       53.8868
_cell_length_b       53.8817
_cell_length_c       33.0554
_cell_angle_alpha    88.7708
_cell_angle_beta     90.8584
_cell_angle_gamma    119.743

_space_group_name_H-M_alt    "P 1"
_space_group_IT_number       1

loop_
  _space_group_symop_operation_xyz
  'x, y, z'

loop_
  _atom_site_type_symbol
  _atom_site_label
  _atom_site_symmetry_multiplicity
  _atom_site_fract_x
  _atom_site_fract_y
  _atom_site_fract_z
  _atom_site_occupancy
  Fe  Fe1       1.0  0.42749  0.08360  0.36650  1.0000
  S   S1        1.0  0.45018  0.13140  0.36601  1.0000
  S   S2        1.0  0.42125  0.05995  0.42621  1.0000
  Fe  Fe2       1.0  0.42667  0.08002  0.27307  1.0000
  S   S3        1.0  0.44899  0.12809  0.26627  1.0000
  S   S4        1.0  0.42591  0.05491  0.21751  1.0000
  Fe  Fe3       1.0  0.47711  0.12867  0.31738  1.0000
  C   C1        1.0  0.48508  0.04564  0.24382  1.0000
  Fe  Fe4       1.0  0.41994  0.12657  0.31552  1.0000
  S   S5        1.0  0.39755  0.15271  0.31842  1.0000
  S   S6        1.0  0.45689  0.08115  0.32148  1.0000
  S   S7        1.0  0.39492  0.07820  0.31880  1.0000
  H   H1        1.0  0.48613  0.05406  0.21246  1.0000
  S   S8        1.0  0.40028  0.29737  0.33441  1.0000
  S   S9        1.0  0.46936  0.28839  0.31552  1.0000
  C   C2        1.0  0.43447  0.25683  0.43090  1.0000
  C   C3        1.0  0.36714  0.05938  0.12973  1.0000
  C   C4        1.0  0.43644  0.17693  0.49300  1.0000
  C   C5        1.0  0.40226  0.01753  0.15493  1.0000
  H   H2        1.0  0.36454  0.00261  0.03480  1.0000
  S   S10       1.0  0.39235  0.31537  0.44467  1.0000
  C   C6        1.0  0.41653  0.07573  0.46946  1.0000
  C   C7        1.0  0.36846  0.01564  0.20387  1.0000
  H   H3        1.0  0.30489  0.19400  0.33238  1.0000
  H   H4        1.0  0.48478  0.24575  0.29826  1.0000
  C   C8        1.0  0.41836  0.19032  0.31954  1.0000
  C   C9        1.0  0.40557  0.20618  0.33141  1.0000
  C   C10       1.0  0.42102  0.23621  0.33063  1.0000
  C   C11       1.0  0.44957  0.25065  0.31835  1.0000
  C   C12       1.0  0.46265  0.23478  0.30763  1.0000
  C   C13       1.0  0.44711  0.20469  0.30820  1.0000
  H   H5        1.0  0.38355  0.19518  0.34120  1.0000
  H   H6        1.0  0.41077  0.24809  0.33967  1.0000
  C   C14       1.0  0.40143  0.07329  0.06108  1.0000
  H   H7        1.0  0.45723  0.19264  0.29920  1.0000
  H   H8        1.0  0.47715  0.21134  0.43925  1.0000
  C   C15       1.0  0.39672  0.02741  0.19087  1.0000
  C   C16       1.0  0.41322  0.08630  0.09805  1.0000
  C   C17       1.0  0.40726  0.16062  0.43265  1.0000
  H   H9        1.0  0.36389  0.02300  0.23149  1.0000
  H   H10       1.0  0.39192  0.09185  0.43865  1.0000
  C   C18       1.0  0.42612  0.20945  0.45327  1.0000
  C   C19       1.0  0.35519  0.04595  0.09315  1.0000
  H   H11       1.0  0.31851  0.24261  0.30673  1.0000
  C   C20       1.0  0.39460  0.09971  0.50295  1.0000
  H   H12       1.0  0.31695  0.03341  0.03063  1.0000
  Fe  Fe5       1.0  0.44709  0.31410  0.32579  1.0000
  H   H13       1.0  0.41596  0.07946  0.03594  1.0000
  N   N1        1.0  0.43203  0.18540  0.45156  1.0000
  H   H14       1.0  0.45486  0.19574  0.39489  1.0000
  H   H15       1.0  0.46261  0.17431  0.42858  1.0000
  H   H16       1.0  0.40204  0.16665  0.40261  1.0000
  H   H17       1.0  0.42402  0.02675  0.14439  1.0000
  H   H18       1.0  0.40684  0.27079  0.45564  1.0000
  C   C21       1.0  0.40064  0.08982  0.46742  1.0000
  H   H19       1.0  0.40546  0.08901  0.16109  1.0000
  H   H20       1.0  0.38718  0.20925  0.19533  1.0000
  C   C22       1.0  0.44130  0.23496  0.42959  1.0000
  H   H21       1.0  0.36248  0.32941  0.15224  1.0000
  H   H22       1.0  0.38768  0.15190  0.45143  1.0000
  C   C23       1.0  0.45782  0.19219  0.42754  1.0000
  C   C24       1.0  0.40355  0.20717  0.47761  1.0000
  H   H23       1.0  0.47313  0.02189  0.24379  1.0000
  C   C25       1.0  0.39686  0.22915  0.47856  1.0000
  H   H24       1.0  0.41160  0.14278  0.42753  1.0000
  H   H25       1.0  0.34471  0.03593  0.49131  1.0000
  H   H26       1.0  0.43586  0.10158  0.10047  1.0000
  H   H27       1.0  0.39047  0.18805  0.49534  1.0000
  N   N2        1.0  0.38839  0.24639  0.22092  1.0000
  C   C26       1.0  0.37628  0.25215  0.18364  1.0000
  C   C27       1.0  0.41086  0.27406  0.23712  1.0000
  C   C28       1.0  0.40253  0.22987  0.20957  1.0000
  C   C29       1.0  0.36543  0.23147  0.25124  1.0000
  C   C30       1.0  0.35687  0.20344  0.26632  1.0000
  C   C31       1.0  0.35061  0.24494  0.26632  1.0000
  C   C32       1.0  0.33520  0.19016  0.29513  1.0000
  C   C33       1.0  0.32912  0.23156  0.29530  1.0000
  C   C34       1.0  0.32145  0.20424  0.30974  1.0000
  H   H28       1.0  0.39268  0.26251  0.15953  1.0000
  H   H29       1.0  0.35836  0.23203  0.17141  1.0000
  H   H30       1.0  0.36784  0.26694  0.18913  1.0000
  H   H31       1.0  0.42938  0.28519  0.21630  1.0000
  H   H32       1.0  0.41908  0.27090  0.26662  1.0000
  H   H33       1.0  0.40295  0.28924  0.24198  1.0000
  H   H34       1.0  0.41256  0.22539  0.23646  1.0000
  H   H35       1.0  0.35407  0.05350  0.15669  1.0000
  H   H36       1.0  0.41997  0.24179  0.18729  1.0000
  H   H37       1.0  0.36687  0.19138  0.25703  1.0000
  H   H38       1.0  0.35568  0.26611  0.25606  1.0000
  H   H39       1.0  0.32936  0.16894  0.30660  1.0000
  H   H40       1.0  0.44598  0.27588  0.41202  1.0000
  C   C35       1.0  0.41233  0.25395  0.45531  1.0000
  H   H41       1.0  0.49589  0.05279  0.32173  1.0000
  C   C36       1.0  0.39611  0.07941  0.13225  1.0000
  H   H42       1.0  0.33287  0.02966  0.09329  1.0000
  H   H43       1.0  0.45811  0.23834  0.40898  1.0000
  C   C37       1.0  0.37189  0.05269  0.05753  1.0000
  C   C38       1.0  0.34740  0.00707  0.02436  1.0000
  H   H44       1.0  0.43897  0.06106  0.50887  1.0000
  H   H45       1.0  0.44245  0.15988  0.49238  1.0000
  Fe  Fe6       1.0  0.41445  0.32996  0.38383  1.0000
  H   H46       1.0  0.37921  0.22680  0.49675  1.0000
  H   H47       1.0  0.47168  0.05220  0.26092  1.0000
  H   H48       1.0  0.02491  0.32864  0.04183  1.0000
  H   H49       1.0  0.41688  0.16785  0.51188  1.0000
  C   C39       1.0  0.42690  0.07218  0.50708  1.0000
  C   C40       1.0  0.41169  0.32906  0.49024  1.0000
  H   H50       1.0  0.38147  0.10969  0.50140  1.0000
  H   H51       1.0  0.37368  0.01227  0.48699  1.0000
  H   H52       1.0  0.00287  0.29409  0.02041  1.0000
  H   H53       1.0  0.45371  0.19547  0.50928  1.0000
  S   S11       1.0  0.37868  0.32500  0.23416  1.0000
  C   C41       1.0  0.36476  0.01309  0.51585  1.0000
  N   N3        1.0  0.35859  0.03820  0.01914  1.0000
  C   C42       1.0  0.00929  0.31710  0.01731  1.0000
  Fe  Fe7       1.0  0.44376  0.13753  0.71910  1.0000
  S   S12       1.0  0.39796  0.10699  0.70319  1.0000
  S   S13       1.0  0.46106  0.18163  0.74513  1.0000
  Fe  Fe8       1.0  0.46493  0.09974  0.68446  1.0000
  S   S14       1.0  0.42095  0.06665  0.66505  1.0000
  H   H54       1.0  0.36072  0.01522  0.67080  1.0000
  Fe  Fe9       1.0  0.41581  0.10361  0.64371  1.0000
  S   S15       1.0  0.39573  0.10742  0.58477  1.0000
  Fe  Fe10      1.0  0.40716  0.07259  0.72636  1.0000
  S   S16       1.0  0.37457  0.03058  0.75651  1.0000
  S   S17       1.0  0.46093  0.13629  0.65819  1.0000
  S   S18       1.0  0.45180  0.10339  0.74721  1.0000
  H   H55       1.0  0.31395  0.31282  0.84904  1.0000
  H   H56       1.0  0.40960  0.04205  0.89765  1.0000
  H   H57       1.0  0.38882  0.17593  0.58583  1.0000
  C   C43       1.0  0.34229  0.04935  0.64070  1.0000
  Fe  Fe11      1.0  0.41822  0.30010  0.73159  1.0000
  S   S19       1.0  0.39480  0.25166  0.72939  1.0000
  H   H58       1.0  0.33620  0.06103  0.61817  1.0000
  C   C44       1.0  0.41399  0.23289  0.73177  1.0000
  C   C45       1.0  0.39988  0.20370  0.72250  1.0000
  C   C46       1.0  0.41421  0.18787  0.72565  1.0000
  C   C47       1.0  0.44270  0.20107  0.73861  1.0000
  C   C48       1.0  0.45695  0.23038  0.74721  1.0000
  C   C49       1.0  0.44274  0.24631  0.74350  1.0000
  H   H59       1.0  0.37766  0.19320  0.71334  1.0000
  H   H60       1.0  0.40302  0.16535  0.71891  1.0000
  H   H61       1.0  0.47898  0.24074  0.75730  1.0000
  H   H62       1.0  0.45378  0.26874  0.75094  1.0000
  H   H63       1.0  0.31512  0.32731  0.77748  1.0000
  C   C50       1.0  0.45850  0.23733  0.63140  1.0000
  H   H64       1.0  0.02117  0.32537  0.98828  1.0000
  C   C51       1.0  0.33764  0.02846  0.55562  1.0000
  C   C52       1.0  0.42128  0.08249  0.54253  1.0000
  C   C53       1.0  0.40480  0.09596  0.54061  1.0000
  H   H65       1.0  0.36600  0.06067  0.64147  1.0000
  H   H66       1.0  0.42919  0.07945  0.57139  1.0000
  H   H67       1.0  0.32467  0.03315  0.97858  1.0000
  C   C54       1.0  0.39428  0.02775  0.87584  1.0000
  C   C55       1.0  0.39417  0.03782  0.83613  1.0000
  C   C56       1.0  0.37463  0.01951  0.80751  1.0000
  H   H68       1.0  0.46580  0.20368  0.65443  1.0000
  H   H69       1.0  0.40915  0.05973  0.82769  1.0000
  C   C57       1.0  0.44389  0.28112  0.56060  1.0000
  C   C58       1.0  0.43691  0.00207  0.81001  1.0000
  H   H70       1.0  0.38781  0.07148  0.97834  1.0000
  H   H71       1.0  0.42157  0.26967  0.54906  1.0000
  H   H72       1.0  0.41817  0.00548  0.80890  1.0000
  H   H73       1.0  0.29221  0.01609  0.60487  1.0000
  C   C59       1.0  0.44021  0.24465  0.60897  1.0000
  H   H74       1.0  0.28925  0.00517  0.65664  1.0000
  H   H75       1.0  0.46699  0.04440  0.72728  1.0000
  H   H76       1.0  0.48760  0.07071  0.78906  1.0000
  H   H77       1.0  0.45723  0.27571  0.54134  1.0000
  C   C60       1.0  0.37863  0.04818  0.98437  1.0000
  C   C61       1.0  0.48631  0.01983  0.78555  1.0000
  H   H78       1.0  0.42844  0.30018  0.62484  1.0000
  H   H79       1.0  0.45235  0.05673  0.80846  1.0000
  H   H80       1.0  0.39936  0.22550  0.57688  1.0000
  H   H81       1.0  0.42189  0.16486  0.62418  1.0000
  C   C62       1.0  0.47047  0.05242  0.80638  1.0000
  H   H82       1.0  0.37471  0.30501  0.52796  1.0000
  C   C63       1.0  0.41227  0.33072  0.56423  1.0000
  H   H83       1.0  0.40242  0.26346  0.61695  1.0000
  H   H84       1.0  0.32575  0.03973  0.55608  1.0000
  H   H85       1.0  0.42574  0.27306  0.65975  1.0000
  C   C64       1.0  0.29910  0.00504  0.62730  1.0000
  C   C65       1.0  0.34837  0.02641  0.51835  1.0000
  H   H86       1.0  0.47728  0.29398  0.65176  1.0000
  N   N4        1.0  0.33067  0.01887  0.63064  1.0000
  C   C66       1.0  0.41488  0.22167  0.59261  1.0000
  C   C67       1.0  0.45199  0.20887  0.63618  1.0000
  C   C68       1.0  0.37061  0.00185  0.55067  1.0000
  H   H87       1.0  0.47874  0.05284  0.83754  1.0000
  N   N5        1.0  0.46154  0.02466  0.78696  1.0000
  C   C69       1.0  0.40857  0.19326  0.59767  1.0000
  C   C70       1.0  0.30478  0.32610  0.84034  1.0000
  C   C71       1.0  0.42471  0.27793  0.62716  1.0000
  N   N6        1.0  0.44606  0.27448  0.60394  1.0000
  S   S20       1.0  0.42564  0.32722  0.78634  1.0000
  H   H88       1.0  0.29519  0.32992  0.90072  1.0000
  C   C72       1.0  0.42713  0.18691  0.61937  1.0000
  H   H89       1.0  0.33497  0.05198  0.67084  1.0000
  C   C73       1.0  0.34275  0.01682  0.59166  1.0000
  H   H90       1.0  0.44206  0.00178  0.84270  1.0000
  H   H91       1.0  0.22925  0.33113  0.88656  1.0000
  C   C74       1.0  0.33729  0.00496  0.66519  1.0000
  H   H92       1.0  0.36776  0.03713  0.95590  1.0000
  C   C75       1.0  0.47488  0.29614  0.61855  1.0000
  C   C76       1.0  0.45120  0.02565  0.74533  1.0000
  H   H93       1.0  0.49207  0.29455  0.60264  1.0000
  H   H94       1.0  0.32800  0.00689  0.69409  1.0000
  H   H95       1.0  0.47759  0.25304  0.64657  1.0000
  H   H96       1.0  0.39624  0.04323  0.98928  1.0000
  H   H97       1.0  0.44625  0.00605  0.72845  1.0000
  H   H98       1.0  0.43147  0.02751  0.74558  1.0000
  H   H99       1.0  0.45114  0.30423  0.55551  1.0000
  H   H100      1.0  0.47883  0.31839  0.61367  1.0000
  C   C77       1.0  0.39744  0.32001  0.52752  1.0000
  H   H101      1.0  0.34181  0.06629  0.00564  1.0000
  S   S21       1.0  0.39916  0.32205  0.69412  1.0000
  H   H102      1.0  0.40096  0.32402  0.59268  1.0000
  C   C78       1.0  0.35983  0.00359  0.58813  1.0000
  S   S22       1.0  0.46264  0.32720  0.70758  1.0000
  C   C79       1.0  0.33450  0.04303  0.00810  1.0000
  C   C80       1.0  0.37466  0.99942  0.88759  1.0000
  Fe  Fe12      1.0  0.09088  0.63671  0.04715  1.0000
  C   C81       1.0  0.44426  0.42381  0.19111  1.0000
  S   S23       1.0  0.10625  0.60718  0.07147  1.0000
  H   H103      1.0  0.24010  0.42963  0.19118  1.0000
  H   H104      1.0  0.25033  0.36356  0.11620  1.0000
  H   H105      1.0  0.45226  0.35572  0.46163  1.0000
  C   C82       1.0  0.28547  0.43386  0.13921  1.0000
  C   C83       1.0  0.23788  0.44226  0.03927  1.0000
  H   H106      1.0  0.00099  0.47511  0.19414  1.0000
  Fe  Fe13      1.0  0.34330  0.41711  0.07779  1.0000
  S   S24       1.0  0.34801  0.41304  0.14581  1.0000
  S   S25       1.0  0.33655  0.45359  0.05691  1.0000
  Fe  Fe14      1.0  0.05585  0.41498  0.05855  1.0000
  C   C84       1.0  0.42220  0.47559  0.11428  1.0000
  S   S26       1.0  0.09808  0.45599  0.05796  1.0000
  Fe  Fe15      1.0  0.46067  0.37614  0.33230  1.0000
  S   S27       1.0  0.41483  0.36402  0.34219  1.0000
  S   S28       1.0  0.01756  0.40118  0.10043  1.0000
  H   H107      1.0  0.24684  0.37097  0.19042  1.0000
  C   C85       1.0  0.44594  0.55978  0.07512  1.0000
  H   H108      1.0  0.17947  0.52943  0.09730  1.0000
  H   H109      1.0  0.41665  0.48463  0.08731  1.0000
  Fe  Fe16      1.0  0.04701  0.65467  0.06499  1.0000
  C   C86       1.0  0.35815  0.38935  0.16911  1.0000
  C   C87       1.0  0.36647  0.39297  0.21007  1.0000
  C   C88       1.0  0.37357  0.37393  0.23013  1.0000
  C   C89       1.0  0.37198  0.35076  0.20952  1.0000
  H   H110      1.0  0.25885  0.45361  0.05299  1.0000
  C   C90       1.0  0.35729  0.36664  0.14820  1.0000
  H   H111      1.0  0.36726  0.41048  0.22655  1.0000
  H   H112      1.0  0.37966  0.37682  0.26176  1.0000
  H   H113      1.0  0.28792  0.38761  0.11867  1.0000
  H   H114      1.0  0.46671  0.51746  0.07530  1.0000
  C   C91       1.0  0.45699  0.46555  0.14659  1.0000
  C   C92       1.0  0.44103  0.34853  0.49001  1.0000
  H   H115      1.0  0.22183  0.55330  0.05515  1.0000
  C   C93       1.0  0.18152  0.40235  0.13091  1.0000
  H   H116      1.0  0.42014  0.42272  0.13912  1.0000
  S   S29       1.0  0.16216  0.44263  0.04923  1.0000
  C   C94       1.0  0.09898  0.57711  0.04275  1.0000
  C   C95       1.0  0.10157  0.55474  0.06102  1.0000
  H   H117      1.0  0.49571  0.50397  0.16735  1.0000
  H   H118      1.0  0.10693  0.55571  0.09283  1.0000
  C   C96       1.0  0.02705  0.38549  0.17766  1.0000
  S   S30       1.0  0.30919  0.38507  0.03707  1.0000
  C   C97       1.0  0.20893  0.53912  0.03011  1.0000
  H   H119      1.0  0.43387  0.43970  0.07480  1.0000
  S   S31       1.0  0.07450  0.38910  0.03332  1.0000
  H   H120      1.0  0.30696  0.43560  0.14148  1.0000
  H   H121      1.0  0.01035  0.36479  0.03779  1.0000
  H   H122      1.0  0.04841  0.39159  0.16787  1.0000
  Fe  Fe17      1.0  0.40523  0.33301  0.29191  1.0000
  C   C98       1.0  0.48141  0.57132  0.02328  1.0000
  C   C99       1.0  0.21444  0.38731  0.10804  1.0000
  H   H123      1.0  0.19321  0.61875  0.08185  1.0000
  C   C100      1.0  0.46767  0.44007  0.21596  1.0000
  H   H124      1.0  0.40443  0.52281  0.06430  1.0000
  C   C101      1.0  0.20024  0.41731  0.16227  1.0000
  H   H125      1.0  0.21091  0.51947  0.03251  1.0000
  N   N7        1.0  0.26218  0.40383  0.14413  1.0000
  C   C102      1.0  0.26467  0.39314  0.18491  1.0000
  C   C103      1.0  0.26689  0.38656  0.11399  1.0000
  C   C104      1.0  0.18883  0.43443  0.03259  1.0000
  C   C105      1.0  0.23415  0.40251  0.13959  1.0000
  H   H126      1.0  0.26694  0.39449  0.08256  1.0000
  H   H127      1.0  0.28495  0.44802  0.16269  1.0000
  H   H128      1.0  0.16454  0.49592  0.07313  1.0000
  H   H129      1.0  0.46804  0.64730  0.09800  1.0000
  C   C106      1.0  0.36387  0.34729  0.16846  1.0000
  C   C107      1.0  0.22615  0.41740  0.16671  1.0000
  H   H130      1.0  0.28517  0.39283  0.18849  1.0000
  C   C108      1.0  0.16632  0.51742  0.07094  1.0000
  H   H131      1.0  0.47161  0.46349  0.06997  1.0000
  C   C109      1.0  0.48078  0.48157  0.17258  1.0000
  C   C110      1.0  0.18819  0.57926  0.05894  1.0000
  H   H132      1.0  0.03302  0.37309  0.23809  1.0000
  H   H133      1.0  0.19867  0.57636  0.08522  1.0000
  H   H134      1.0  0.16183  0.40299  0.12671  1.0000
  H   H135      1.0  0.44646  0.47184  0.04559  1.0000
  H   H136      1.0  0.43982  0.56457  0.10367  1.0000
  C   C111      1.0  0.47180  0.50891  0.10323  1.0000
  H   H137      1.0  0.19475  0.42923  0.18285  1.0000
  C   C112      1.0  0.43885  0.43626  0.15704  1.0000
  C   C113      1.0  0.42590  0.53604  0.05299  1.0000
  C   C114      1.0  0.01577  0.62301  0.17042  1.0000
  C   C115      1.0  0.48591  0.46885  0.20669  1.0000
  H   H138      1.0  0.17417  0.37622  0.07914  1.0000
  H   H139      1.0  0.00501  0.33959  0.09523  1.0000
  C   C116      1.0  0.09753  0.53125  0.03826  1.0000
  H   H140      1.0  0.43007  0.40142  0.19849  1.0000
  C   C117      1.0  0.01826  0.37500  0.21745  1.0000
  S   S32       1.0  0.46116  0.34460  0.37739  1.0000
  C   C118      1.0  0.21644  0.44883  0.04999  1.0000
  H   H141      1.0  0.28402  0.44281  0.10914  1.0000
  H   H142      1.0  0.49380  0.51250  0.09898  1.0000
  H   H143      1.0  0.02101  0.60373  0.22539  1.0000
  C   C119      1.0  0.47373  0.57752  0.06032  1.0000
  S   S33       1.0  0.45116  0.34714  0.27981  1.0000
  H   H144      1.0  0.26442  0.40671  0.20955  1.0000
  N   N8        1.0  0.45076  0.47816  0.11023  1.0000
  H   H145      1.0  0.35087  0.36352  0.11671  1.0000
  C   C120      1.0  0.45069  0.46260  0.07367  1.0000
  H   H146      1.0  0.40482  0.45303  0.11724  1.0000
  H   H147      1.0  0.14453  0.51446  0.07501  1.0000
  H   H148      1.0  0.21879  0.37598  0.08517  1.0000
  H   H149      1.0  0.03501  0.62557  0.15668  1.0000
  H   H150      1.0  0.09963  0.51418  0.05255  1.0000
  C   C121      1.0  0.18851  0.38722  0.10412  1.0000
  H   H151      1.0  0.03250  0.65609  0.27796  1.0000
  H   H152      1.0  0.47196  0.52239  0.12843  1.0000
  H   H153      1.0  0.22120  0.46500  0.07231  1.0000
  N   N9        1.0  0.17864  0.53201  0.03167  1.0000
  H   H154      1.0  0.42124  0.48694  0.14145  1.0000
  H   H155      1.0  0.47161  0.43035  0.24258  1.0000
  S   S34       1.0  0.49796  0.60734  0.08880  1.0000
  C   C122      1.0  0.18549  0.60378  0.05715  1.0000
  S   S35       1.0  0.00963  0.65039  0.10193  1.0000
  H   H156      1.0  0.01383  0.46885  0.24159  1.0000
  C   C123      1.0  0.00770  0.61053  0.20936  1.0000
  Fe  Fe18      1.0  0.11643  0.43093  0.02810  1.0000
  S   S36       1.0  0.49437  0.42205  0.32130  1.0000
  S   S37       1.0  0.37846  0.42729  0.03393  1.0000
  C   C124      1.0  0.00817  0.38823  0.15088  1.0000
  C   C125      1.0  0.17223  0.60882  0.02406  1.0000
  C   C126      1.0  0.17695  0.55860  0.02790  1.0000
  S   S38       1.0  0.04540  0.61971  0.02707  1.0000
  H   H157      1.0  0.16929  0.62734  0.02337  1.0000
  Fe  Fe19      1.0  0.34410  0.39852  0.99092  1.0000
  S   S39       1.0  0.35022  0.36580  0.95679  1.0000
  S   S40       1.0  0.33690  0.43295  0.96427  1.0000
  S   S41       1.0  0.40904  0.50086  0.98632  1.0000
  H   H158      1.0  0.05457  0.57689  0.91236  1.0000
  H   H159      1.0  0.15142  0.59346  0.96686  1.0000
  H   H160      1.0  0.49643  0.43005  0.79005  1.0000
  C   C127      1.0  0.03522  0.56766  0.89255  1.0000
  C   C128      1.0  0.00632  0.56311  0.95015  1.0000
  Fe  Fe20      1.0  0.06385  0.40087  0.97189  1.0000
  S   S42       1.0  0.04291  0.36829  0.92168  1.0000
  S   S43       1.0  0.10688  0.44060  0.96498  1.0000
  Fe  Fe21      1.0  0.41036  0.35157  0.74738  1.0000
  C   C129      1.0  0.43327  0.45802  0.90156  1.0000
  Fe  Fe22      1.0  0.46841  0.35651  0.75833  1.0000
  H   H161      1.0  0.08470  0.55233  0.94644  1.0000
  S   S44       1.0  0.45374  0.38235  0.72215  1.0000
  C   C130      1.0  0.08884  0.55270  0.97859  1.0000
  C   C131      1.0  0.28300  0.36180  0.81783  1.0000
  C   C132      1.0  0.36244  0.36979  0.90625  1.0000
  H   H162      1.0  0.00027  0.42509  0.61302  1.0000
  H   H163      1.0  0.42436  0.41805  0.87892  1.0000
  C   C133      1.0  0.37745  0.37118  0.82407  1.0000
  C   C134      1.0  0.36907  0.39035  0.83827  1.0000
  C   C135      1.0  0.36189  0.38989  0.87927  1.0000
  C   C136      1.0  0.16208  0.58964  0.99230  1.0000
  C   C137      1.0  0.02110  0.63544  0.88729  1.0000
  H   H164      1.0  0.35519  0.40452  0.88966  1.0000
  C   C138      1.0  0.28302  0.35485  0.85954  1.0000
  C   C139      1.0  0.37127  0.35098  0.89217  1.0000
  C   C140      1.0  0.44157  0.35046  0.56387  1.0000
  H   H165      1.0  0.29510  0.35820  0.75713  1.0000
  N   N10       1.0  0.47815  0.43203  0.84682  1.0000
  H   H166      1.0  0.29963  0.36837  0.93892  1.0000
  C   C141      1.0  0.37901  0.35184  0.85143  1.0000
  H   H167      1.0  0.00911  0.58438  0.94132  1.0000
  C   C142      1.0  0.44091  0.44006  0.88189  1.0000
  C   C143      1.0  0.49071  0.44432  0.80662  1.0000
  Fe  Fe23      1.0  0.06452  0.65308  0.97768  1.0000
  C   C144      1.0  0.46130  0.54776  0.00097  1.0000
  H   H168      1.0  0.28078  0.40822  0.91057  1.0000
  H   H169      1.0  0.01054  0.44479  0.56576  1.0000
  S   S45       1.0  0.04312  0.42406  0.99716  1.0000
  H   H170      1.0  0.44479  0.39094  0.86900  1.0000
  H   H171      1.0  0.09033  0.59311  0.98725  1.0000
  C   C145      1.0  0.45324  0.48675  0.90690  1.0000
  H   H172      1.0  0.36783  0.40541  0.81733  1.0000
  H   H173      1.0  0.02316  0.56798  0.97355  1.0000
  Fe  Fe24      1.0  0.44416  0.35061  0.67281  1.0000
  H   H174      1.0  0.31015  0.40779  0.88590  1.0000
  H   H175      1.0  0.23587  0.36059  0.85349  1.0000
  C   C146      1.0  0.29435  0.35184  0.78864  1.0000
  H   H176      1.0  0.43740  0.40249  0.82057  1.0000
  C   C147      1.0  0.01250  0.36311  0.89300  1.0000
  H   H177      1.0  0.21897  0.55029  0.00112  1.0000
  S   S46       1.0  0.46150  0.36439  0.60890  1.0000
  H   H178      1.0  0.17207  0.51987  0.96875  1.0000
  C   C148      1.0  0.01639  0.62679  0.84672  1.0000
  H   H179      1.0  0.00396  0.36107  0.98515  1.0000
  S   S47       1.0  0.38476  0.37134  0.77185  1.0000
  H   H180      1.0  0.00324  0.64455  0.93891  1.0000
  C   C149      1.0  0.09166  0.53045  0.99683  1.0000
  H   H181      1.0  0.41168  0.44960  0.91279  1.0000
  H   H182      1.0  0.27464  0.37537  0.80750  1.0000
  H   H183      1.0  0.16387  0.49111  0.00339  1.0000
  H   H184      1.0  0.26883  0.36987  0.95473  1.0000
  H   H185      1.0  0.46175  0.38924  0.82432  1.0000
  C   C150      1.0  0.46905  0.45054  0.86686  1.0000
  C   C151      1.0  0.24089  0.35489  0.88386  1.0000
  C   C152      1.0  0.29386  0.33623  0.86989  1.0000
  Fe  Fe25      1.0  0.36969  0.46139  0.00994  1.0000
  H   H186      1.0  0.01655  0.33558  0.85046  1.0000
  H   H187      1.0  0.47532  0.44740  0.78727  1.0000
  H   H188      1.0  0.03273  0.62500  0.83055  1.0000
  N   N11       1.0  0.00917  0.54768  0.91528  1.0000
  C   C153      1.0  0.48895  0.47988  0.87326  1.0000
  H   H189      1.0  0.46731  0.54340  0.97202  1.0000
  S   S48       1.0  0.05378  0.64307  0.91105  1.0000
  Fe  Fe26      1.0  0.08634  0.46294  0.99501  1.0000
  H   H190      1.0  0.00216  0.38929  0.92961  1.0000
  C   C154      1.0  0.45440  0.40247  0.84009  1.0000
  C   C155      1.0  0.28649  0.39834  0.88564  1.0000
  H   H191      1.0  0.47858  0.37395  0.52605  1.0000
  S   S49       1.0  0.25773  0.41064  0.99724  1.0000
  H   H192      1.0  0.02989  0.53157  0.95640  1.0000
  S   S50       1.0  0.08976  0.50311  0.96636  1.0000
  N   N12       1.0  0.27201  0.36671  0.89004  1.0000
  H   H193      1.0  0.19959  0.39029  0.97154  1.0000
  H   H194      1.0  0.28064  0.40549  0.85713  1.0000
  C   C156      1.0  0.20452  0.40676  0.99344  1.0000
  C   C157      1.0  0.30540  0.33420  0.79993  1.0000
  C   C158      1.0  0.16424  0.56482  0.99401  1.0000
  C   C159      1.0  0.23203  0.42096  0.01108  1.0000
  H   H195      1.0  0.23182  0.36318  0.90662  1.0000
  C   C160      1.0  0.27653  0.36002  0.93243  1.0000
  H   H196      1.0  0.03346  0.58593  0.87943  1.0000
  H   H197      1.0  0.15485  0.55043  0.96899  1.0000
  H   H198      1.0  0.26476  0.33664  0.93904  1.0000
  H   H199      1.0  0.02071  0.51458  0.90924  1.0000
  H   H200      1.0  0.03899  0.55690  0.86692  1.0000
  H   H201      1.0  0.49171  0.42191  0.90323  1.0000
  H   H202      1.0  0.44711  0.50055  0.92204  1.0000
  H   H203      1.0  0.16215  0.40211  0.99020  1.0000
  C   C161      1.0  0.09207  0.57580  0.00159  1.0000
  C   C162      1.0  0.48104  0.49766  0.89284  1.0000
  C   C163      1.0  0.99992  0.63791  0.90770  1.0000
  H   H204      1.0  0.37165  0.33527  0.91274  1.0000
  C   C164      1.0  0.18315  0.41346  0.00394  1.0000
  C   C165      1.0  0.01317  0.52407  0.93227  1.0000
  H   H205      1.0  0.13995  0.50503  0.99876  1.0000
  C   C166      1.0  0.16295  0.51123  0.99917  1.0000
  C   C167      1.0  0.43353  0.52998  0.01575  1.0000
  H   H206      1.0  0.38524  0.33685  0.84094  1.0000
  C   C168      1.0  0.45588  0.35905  0.52664  1.0000
  H   H207      1.0  0.49658  0.52005  0.89718  1.0000
  Fe  Fe27      1.0  0.30404  0.42196  0.01343  1.0000
  C   C169      1.0  0.00380  0.34491  0.85956  1.0000
  H   H208      1.0  0.06447  0.70053  0.11156  1.0000
  C   C170      1.0  0.06956  0.71182  0.18943  1.0000
  N   N13       1.0  0.08298  0.73317  0.15619  1.0000
  H   H209      1.0  0.07722  0.73598  0.09163  1.0000
  C   C171      1.0  0.06663  0.72162  0.11816  1.0000
  H   H210      1.0  0.04450  0.71806  0.11962  1.0000
  C   C172      1.0  0.08268  0.75975  0.16610  1.0000
  H   H211      1.0  0.09348  0.77662  0.14230  1.0000
  H   H212      1.0  0.06062  0.75623  0.16866  1.0000
  H   H213      1.0  0.02809  0.70977  0.18485  1.0000
  Fe  Fe28      1.0  0.10725  0.69974  0.03468  1.0000
  H   H214      1.0  0.09382  0.76847  0.19538  1.0000
  C   C173      1.0  0.08413  0.69972  0.21115  1.0000
  C   C174      1.0  0.11317  0.74116  0.14844  1.0000
  H   H215      1.0  0.12281  0.75762  0.12384  1.0000
  C   C175      1.0  0.04093  0.70247  0.20094  1.0000
  H   H216      1.0  0.10560  0.70476  0.20390  1.0000
  S   S51       1.0  0.09134  0.66950  0.08861  1.0000
  S   S52       1.0  0.38351  0.88635  0.05442  1.0000
  H   H217      1.0  0.11495  0.72253  0.13825  1.0000
  H   H218      1.0  0.17612  0.80499  0.07129  1.0000
  H   H219      1.0  0.38434  0.98971  0.10372  1.0000
  H   H220      1.0  0.40985  0.96122  0.18604  1.0000
  C   C176      1.0  0.41802  0.89889  0.03493  1.0000
  C   C177      1.0  0.17243  0.77414  0.02761  1.0000
  C   C178      1.0  0.47235  0.95809  0.09898  1.0000
  H   H221      1.0  0.22255  0.84417  0.04562  1.0000
  S   S53       1.0  0.32241  0.95920  0.11543  1.0000
  C   C179      1.0  0.34597  0.99450  0.18071  1.0000
  H   H222      1.0  0.12688  0.75035  0.17567  1.0000
  S   S54       1.0  0.36994  0.95087  0.03428  1.0000
  H   H223      1.0  0.47853  0.75682  0.02650  1.0000
  C   C180      1.0  0.21260  0.82348  0.03148  1.0000
  H   H224      1.0  0.46201  0.96154  0.07297  1.0000
  C   C181      1.0  0.48954  0.75265  0.05113  1.0000
  C   C182      1.0  0.46346  0.89925  0.03817  1.0000
  H   H225      1.0  0.32413  0.98568  0.19078  1.0000
  H   H226      1.0  0.38818  0.91040  0.15800  1.0000
  C   C183      1.0  0.18613  0.80115  0.04591  1.0000
  C   C184      1.0  0.47001  0.66882  0.09358  1.0000
  H   H227      1.0  0.42787  0.87429  0.07788  1.0000
  C   C185      1.0  0.02799  0.68292  0.23285  1.0000
  C   C186      1.0  0.41813  0.95432  0.11102  1.0000
  H   H228      1.0  0.43703  0.95628  0.20948  1.0000
  H   H229      1.0  0.39642  0.95079  0.11796  1.0000
  C   C187      1.0  0.07088  0.68006  0.24292  1.0000
  C   C188      1.0  0.41076  0.91530  0.15503  1.0000
  H   H230      1.0  0.41518  0.94115  0.08407  1.0000
  C   C189      1.0  0.43571  0.88943  0.05280  1.0000
  H   H231      1.0  0.41105  0.90161  0.13045  1.0000
  C   C190      1.0  0.48754  0.72583  0.05551  1.0000
  N   N14       1.0  0.43043  0.94599  0.14573  1.0000
  C   C191      1.0  0.45933  0.95028  0.13780  1.0000
  H   H232      1.0  0.47690  0.89174  0.05200  1.0000
  Fe  Fe29      1.0  0.32713  0.93634  0.06127  1.0000
  H   H233      1.0  0.45952  0.67260  0.11962  1.0000
  H   H234      1.0  0.45747  0.66726  0.06586  1.0000
  C   C192      1.0  0.43117  0.96317  0.18075  1.0000
  S   S55       1.0  0.13789  0.74759  0.04549  1.0000
  C   C193      1.0  0.47468  0.94497  0.16892  1.0000
  S   S56       1.0  0.31458  0.88975  0.06190  1.0000
  C   C194      1.0  0.35149  0.98485  0.14453  1.0000
  H   H235      1.0  0.43173  0.97726  0.10247  1.0000
  H   H236      1.0  0.44666  0.98625  0.17553  1.0000
  H   H237      1.0  0.46582  0.93806  0.19884  1.0000
  H   H238      1.0  0.41657  0.90808  0.18353  1.0000
  H   H239      1.0  0.47471  0.70981  0.03362  1.0000
  Fe  Fe30      1.0  0.35628  0.90451  0.03008  1.0000
  H   H240      1.0  0.00589  0.67556  0.24059  1.0000
  C   C195      1.0  0.49894  0.96031  0.09206  1.0000
  C   C196      1.0  0.37980  0.99647  0.13181  1.0000
  H   H241      1.0  0.32987  0.99704  0.04690  1.0000
  H   H242      1.0  0.08211  0.67071  0.25875  1.0000
  C   C197      1.0  0.04297  0.67185  0.25393  1.0000
  C   C198      1.0  0.10122  0.75229  0.83878  1.0000
  C   C199      1.0  0.09197  0.73771  0.87672  1.0000
  H   H243      1.0  0.07599  0.73442  0.95543  1.0000
  N   N15       1.0  0.11052  0.74597  0.91320  1.0000
  H   H244      1.0  0.12469  0.71570  0.90250  1.0000
  H   H245      1.0  0.12828  0.72708  0.95421  1.0000
  C   C200      1.0  0.11460  0.72179  0.92660  1.0000
  H   H246      1.0  0.15247  0.77701  0.93505  1.0000
  C   C201      1.0  0.13936  0.77123  0.90678  1.0000
  H   H247      1.0  0.09286  0.77067  0.93713  1.0000
  C   C202      1.0  0.09682  0.75294  0.94633  1.0000
  H   H248      1.0  0.11040  0.75958  0.97419  1.0000
  H   H249      1.0  0.09411  0.70233  0.93425  1.0000
  H   H250      1.0  0.13804  0.79052  0.89747  1.0000
  C   C203      1.0  0.22552  0.81940  0.99776  1.0000
  C   C204      1.0  0.06365  0.71415  0.87840  1.0000
  H   H251      1.0  0.46361  0.94291  0.96226  1.0000
  C   C205      1.0  0.04574  0.70579  0.84442  1.0000
  H   H252      1.0  0.12239  0.77029  0.83436  1.0000
  Fe  Fe31      1.0  0.29644  0.88784  0.99961  1.0000
  C   C206      1.0  0.18586  0.76970  0.99482  1.0000
  H   H253      1.0  0.41473  0.92584  0.98867  1.0000
  S   S57       1.0  0.37619  0.98809  0.93800  1.0000
  C   C207      1.0  0.05544  0.72047  0.80775  1.0000
  H   H254      1.0  0.17611  0.74905  0.98071  1.0000
  H   H255      1.0  0.22161  0.78884  0.95353  1.0000
  C   C208      1.0  0.35492  0.98121  0.85911  1.0000
  C   C209      1.0  0.08309  0.74367  0.80493  1.0000
  H   H256      1.0  0.33866  0.99556  0.99548  1.0000
  H   H257      1.0  0.15168  0.76707  0.88378  1.0000
  S   S58       1.0  0.06254  0.68699  0.01356  1.0000
  C   C210      1.0  0.45594  0.92812  0.98773  1.0000
  H   H258      1.0  0.05517  0.70164  0.90590  1.0000
  H   H259      1.0  0.33971  0.97688  0.79744  1.0000
  S   S59       1.0  0.25676  0.84798  0.97454  1.0000
  H   H260      1.0  0.33971  0.95938  0.86768  1.0000
  H   H261      1.0  0.28968  0.98239  0.61789  1.0000
  H   H262      1.0  0.02426  0.68757  0.84642  1.0000
  Fe  Fe32      1.0  0.34834  0.94647  0.97380  1.0000
  C   C211      1.0  0.42828  0.91850  0.00260  1.0000
  H   H263      1.0  0.42947  0.98053  0.79728  1.0000
  C   C212      1.0  0.21187  0.79233  0.97959  1.0000
  C   C213      1.0  0.47353  0.91843  0.00535  1.0000
  S   S60       1.0  0.33825  0.90069  0.96744  1.0000
  H   H264      1.0  0.09055  0.75494  0.77622  1.0000
  H   H265      1.0  0.04148  0.71369  0.78145  1.0000
  H   H266      1.0  0.32861  0.98173  0.66027  1.0000
  S   S61       1.0  0.30540  0.93368  0.00126  1.0000
  C   C214      1.0  0.35497  0.99123  0.81928  1.0000
  H   H267      1.0  0.47052  0.98298  0.82766  1.0000
  S   S62       1.0  0.11042  0.66787  0.99524  1.0000
  H   H268      1.0  0.38396  0.99211  0.54859  1.0000
  H   H269      1.0  0.36548  0.99470  0.61384  1.0000
  C   C215      1.0  0.48764  0.99772  0.80817  1.0000
  Fe  Fe33      1.0  0.65901  0.07987  0.30670  1.0000
  S   S63       1.0  0.64357  0.11157  0.29896  1.0000
  S   S64       1.0  0.66280  0.05997  0.24837  1.0000
  Fe  Fe34      1.0  0.67634  0.09702  0.39624  1.0000
  S   S65       1.0  0.66210  0.12958  0.39356  1.0000
  S   S66       1.0  0.69846  0.09452  0.45401  1.0000
  Fe  Fe35      1.0  0.62417  0.09599  0.36032  1.0000
  S   S67       1.0  0.57948  0.08323  0.37930  1.0000
  Fe  Fe36      1.0  0.68336  0.14187  0.33296  1.0000
  S   S68       1.0  0.71042  0.18867  0.31552  1.0000
  S   S69       1.0  0.63687  0.06210  0.36638  1.0000
  S   S70       1.0  0.70019  0.11143  0.33737  1.0000
  C   C216      1.0  0.78755  0.21964  0.21538  1.0000
  Fe  Fe37      1.0  0.87451  0.29368  0.31828  1.0000
  S   S71       1.0  0.84547  0.24611  0.31051  1.0000
  C   C217      1.0  0.96937  0.31243  0.13191  1.0000
  H   H270      1.0  0.90466  0.26057  0.09922  1.0000
  H   H271      1.0  0.58408  0.04804  0.44399  1.0000
  S   S72       1.0  0.89757  0.32453  0.26700  1.0000
  H   H272      1.0  0.72107  0.10032  0.25393  1.0000
  C   C218      1.0  0.56678  0.10667  0.36643  1.0000
  C   C219      1.0  0.58270  0.13097  0.34212  1.0000
  C   C220      1.0  0.57033  0.14723  0.32812  1.0000
  C   C221      1.0  0.54207  0.13904  0.33825  1.0000
  C   C222      1.0  0.52688  0.11568  0.36439  1.0000
  C   C223      1.0  0.53919  0.09953  0.37842  1.0000
  H   H273      1.0  0.60412  0.13671  0.33304  1.0000
  H   H274      1.0  0.58222  0.16544  0.30813  1.0000
  S   S73       1.0  0.52499  0.15624  0.31520  1.0000
  H   H275      1.0  0.52695  0.08093  0.39761  1.0000
  H   H276      1.0  0.50546  0.10985  0.37349  1.0000
  H   H277      1.0  0.69178  0.11867  0.23284  1.0000
  H   H278      1.0  0.84293  0.26299  0.43157  1.0000
  H   H279      1.0  0.79148  0.15046  0.20273  1.0000
  H   H280      1.0  0.64969  0.10118  0.47231  1.0000
  C   C224      1.0  0.74800  0.20463  0.31472  1.0000
  C   C225      1.0  0.76129  0.18809  0.31840  1.0000
  C   C226      1.0  0.79120  0.20112  0.31732  1.0000
  C   C227      1.0  0.80812  0.23091  0.31350  1.0000
  C   C228      1.0  0.79491  0.24763  0.31082  1.0000
  C   C229      1.0  0.76489  0.23446  0.31099  1.0000
  H   H281      1.0  0.74860  0.16525  0.32188  1.0000
  H   H282      1.0  0.80133  0.18810  0.31932  1.0000
  H   H283      1.0  0.80780  0.27061  0.30765  1.0000
  H   H284      1.0  0.75474  0.24745  0.30835  1.0000
  C   C230      1.0  0.63748  0.02796  0.22435  1.0000
  H   H285      1.0  0.76184  0.15718  0.44362  1.0000
  H   H286      1.0  0.84957  0.27273  0.50487  1.0000
  H   H287      1.0  0.53170  0.09732  0.23010  1.0000
  C   C231      1.0  0.76260  0.16715  0.21332  1.0000
  H   H288      1.0  0.59879  0.02143  0.49108  1.0000
  C   C232      1.0  0.76226  0.19327  0.21678  1.0000
  H   H289      1.0  0.76802  0.17832  0.39841  1.0000
  C   C233      1.0  0.82560  0.25012  0.45238  1.0000
  C   C234      1.0  0.61297  0.00702  0.24404  1.0000
  C   C235      1.0  0.57810  0.04859  0.23706  1.0000
  C   C236      1.0  0.82937  0.25565  0.49362  1.0000
  C   C237      1.0  0.56025  0.05655  0.25636  1.0000
  C   C238      1.0  0.74109  0.12073  0.24742  1.0000
  C   C239      1.0  0.71090  0.14025  0.22929  1.0000
  H   H290      1.0  0.73270  0.15117  0.41076  1.0000
  H   H291      1.0  0.66147  0.03932  0.16883  1.0000
  N   N16       1.0  0.73650  0.13874  0.21687  1.0000
  C   C240      1.0  0.58103  0.04850  0.47629  1.0000
  C   C241      1.0  0.78092  0.21743  0.50596  1.0000
  C   C242      1.0  0.81477  0.19578  0.20583  1.0000
  C   C243      1.0  0.72998  0.12426  0.17737  1.0000
  H   H292      1.0  0.93051  0.28319  0.16246  1.0000
  C   C244      1.0  0.64251  0.02336  0.18429  1.0000
  H   H293      1.0  0.98055  0.32242  0.15972  1.0000
  H   H294      1.0  0.71032  0.10276  0.17911  1.0000
  S   S74       1.0  0.91414  0.30743  0.35636  1.0000
  N   N17       1.0  0.74870  0.18885  0.44737  1.0000
  C   C245      1.0  0.75310  0.16814  0.42403  1.0000
  H   H295      1.0  0.54864  0.09877  0.27767  1.0000
  C   C246      1.0  0.73669  0.20251  0.42011  1.0000
  C   C247      1.0  0.77635  0.21122  0.46400  1.0000
  C   C248      1.0  0.56891  0.03233  0.20217  1.0000
  H   H296      1.0  0.51437  0.09617  0.27663  1.0000
  H   H297      1.0  0.70651  0.15545  0.46471  1.0000
  H   H298      1.0  0.56851  0.06931  0.28329  1.0000
  H   H299      1.0  0.59922  0.05498  0.24929  1.0000
  C   C249      1.0  0.91202  0.31718  0.49706  1.0000
  C   C250      1.0  0.50984  0.04670  0.30502  1.0000
  H   H300      1.0  0.58282  0.02616  0.18736  1.0000
  C   C251      1.0  0.72682  0.17218  0.47863  1.0000
  C   C252      1.0  0.98319  0.32211  0.09470  1.0000
  H   H301      1.0  0.56416  0.07626  0.46873  1.0000
  H   H302      1.0  0.75125  0.21454  0.39477  1.0000
  H   H303      1.0  0.71614  0.18651  0.40605  1.0000
  H   H304      1.0  0.73271  0.21797  0.43662  1.0000
  N   N18       1.0  0.98404  0.32119  0.01865  1.0000
  H   H305      1.0  0.60891  0.01013  0.27495  1.0000
  H   H306      1.0  0.74292  0.19401  0.22219  1.0000
  C   C253      1.0  0.78958  0.16930  0.20657  1.0000
  C   C254      1.0  0.58921  0.03337  0.50275  1.0000
  H   H307      1.0  0.74901  0.13211  0.27650  1.0000
  H   H308      1.0  0.72642  0.13706  0.15348  1.0000
  C   C255      1.0  0.94026  0.28730  0.06030  1.0000
  H   H309      1.0  0.73399  0.16048  0.49951  1.0000
  C   C256      1.0  0.81376  0.22088  0.21065  1.0000
  H   H310      1.0  0.75664  0.11433  0.23742  1.0000
  H   H311      1.0  0.83339  0.24131  0.21176  1.0000
  H   H312      1.0  0.78695  0.23922  0.21986  1.0000
  H   H313      1.0  0.71438  0.15092  0.25892  1.0000
  C   C257      1.0  0.96902  0.31000  0.05766  1.0000
  H   H314      1.0  0.74757  0.12081  0.16705  1.0000
  H   H315      1.0  0.70482  0.15176  0.20644  1.0000
  H   H316      1.0  0.52964  0.08368  0.49914  1.0000
  H   H317      1.0  0.83528  0.19689  0.20253  1.0000
  C   C258      1.0  0.65856  0.09843  0.50043  1.0000
  C   C259      1.0  0.54185  0.02403  0.18634  1.0000
  C   C260      1.0  0.52776  0.08861  0.26162  1.0000
  H   H318      1.0  0.56542  0.11418  0.50041  1.0000
  H   H319      1.0  0.92040  0.31230  0.47069  1.0000
  C   C261      1.0  0.53240  0.04825  0.24128  1.0000
  H   H320      1.0  0.79770  0.22525  0.40526  1.0000
  C   C262      1.0  0.79955  0.22831  0.43766  1.0000
  H   H321      1.0  0.92777  0.27673  0.03388  1.0000
  C   C263      1.0  0.94114  0.29037  0.13346  1.0000
  C   C264      1.0  0.52376  0.03182  0.20539  1.0000
  N   N19       1.0  0.51392  0.05698  0.26230  1.0000
  C   C265      1.0  0.68216  0.09431  0.50016  1.0000
  S   S75       1.0  0.86163  0.32244  0.34829  1.0000
  C   C266      1.0  0.92665  0.27775  0.09778  1.0000
  H   H322      1.0  0.53024  0.05589  0.32228  1.0000
  C   C267      1.0  0.56957  0.06480  0.49114  1.0000
  H   H323      1.0  0.53494  0.01148  0.15907  1.0000
  H   H324      1.0  0.72108  0.18594  0.49628  1.0000
  H   H325      1.0  0.50320  0.02482  0.19133  1.0000
  H   H326      1.0  0.50003  0.02304  0.30692  1.0000
  H   H327      1.0  0.53545  0.32752  0.28966  1.0000
  H   H328      1.0  0.85200  0.26174  0.83179  1.0000
  H   H329      1.0  0.59287  0.02312  0.56492  1.0000
  C   C268      1.0  0.56598  0.06636  0.53343  1.0000
  C   C269      1.0  0.57692  0.06192  0.84583  1.0000
  C   C270      1.0  0.80709  0.23937  0.52030  1.0000
  Fe  Fe38      1.0  0.85042  0.30958  0.72812  1.0000
  S   S76       1.0  0.80248  0.28265  0.73614  1.0000
  S   S77       1.0  0.88154  0.29342  0.73192  1.0000
  Fe  Fe39      1.0  0.65040  0.09173  0.68420  1.0000
  S   S78       1.0  0.66846  0.13444  0.71357  1.0000
  S   S79       1.0  0.63697  0.09089  0.61854  1.0000
  Fe  Fe40      1.0  0.64482  0.06044  0.76672  1.0000
  S   S80       1.0  0.66240  0.10114  0.80141  1.0000
  S   S81       1.0  0.62281  0.01585  0.79568  1.0000
  Fe  Fe41      1.0  0.63480  0.11138  0.76062  1.0000
  S   S82       1.0  0.60623  0.12749  0.78335  1.0000
  Fe  Fe42      1.0  0.69439  0.12026  0.75083  1.0000
  S   S83       1.0  0.74197  0.14798  0.76112  1.0000
  S   S84       1.0  0.61498  0.06949  0.72937  1.0000
  S   S85       1.0  0.67875  0.07866  0.71812  1.0000
  C   C271      1.0  0.57771  0.11977  0.74986  1.0000
  C   C272      1.0  0.55525  0.12417  0.76143  1.0000
  C   C273      1.0  0.53165  0.11645  0.73553  1.0000
  C   C274      1.0  0.53035  0.10394  0.69831  1.0000
  C   C275      1.0  0.55296  0.09994  0.68670  1.0000
  C   C276      1.0  0.57674  0.10823  0.71204  1.0000
  H   H330      1.0  0.55610  0.13350  0.79044  1.0000
  H   H331      1.0  0.81013  0.24407  0.55226  1.0000
  H   H332      1.0  0.55199  0.09012  0.65824  1.0000
  H   H333      1.0  0.59431  0.10565  0.70222  1.0000
  N   N20       1.0  0.56391  0.01067  0.93453  1.0000
  H   H334      1.0  0.66805  0.04639  0.85593  1.0000
  C   C277      1.0  0.75836  0.18522  0.75247  1.0000
  C   C278      1.0  0.74223  0.19891  0.74712  1.0000
  C   C279      1.0  0.75604  0.22877  0.74175  1.0000
  C   C280      1.0  0.78598  0.24507  0.74107  1.0000
  C   C281      1.0  0.80203  0.23119  0.74486  1.0000
  C   C282      1.0  0.78827  0.20144  0.75105  1.0000
  H   H335      1.0  0.71917  0.18665  0.74837  1.0000
  H   H336      1.0  0.74345  0.23932  0.73866  1.0000
  H   H337      1.0  0.82503  0.24327  0.74322  1.0000
  H   H338      1.0  0.80088  0.19096  0.75480  1.0000
  H   H339      1.0  0.67524  0.03203  0.92533  1.0000
  C   C283      1.0  0.58571  0.03420  0.54425  1.0000
  H   H340      1.0  0.55697  0.08728  0.83351  1.0000
  C   C284      1.0  0.67999  0.08985  0.57410  1.0000
  C   C285      1.0  0.65604  0.09355  0.57407  1.0000
  C   C286      1.0  0.53998  0.06094  0.88716  1.0000
  H   H341      1.0  0.68774  0.08563  0.60232  1.0000
  H   H342      1.0  0.55245  0.04860  0.74151  1.0000
  C   C287      1.0  0.65262  0.02580  0.86853  1.0000
  C   C288      1.0  0.83877  0.28071  0.89792  1.0000
  C   C289      1.0  0.69311  0.09039  0.53717  1.0000
  H   H343      1.0  0.82382  0.27965  0.92165  1.0000
  C   C290      1.0  0.54147  0.04100  0.91348  1.0000
  C   C291      1.0  0.59433  0.02177  0.94604  1.0000
  H   H344      1.0  0.71122  0.08689  0.53710  1.0000
  H   H345      1.0  0.55328  0.00924  0.78030  1.0000
  H   H346      1.0  0.60785  0.02391  0.91982  1.0000
  H   H347      1.0  0.51139  0.05575  0.74464  1.0000
  C   C292      1.0  0.96613  0.30729  0.98245  1.0000
  H   H348      1.0  0.79540  0.25864  0.65170  1.0000
  C   C293      1.0  0.53471  0.01207  0.78178  1.0000
  H   H349      1.0  0.60360  0.04314  0.96010  1.0000
  H   H350      1.0  0.53439  0.05646  0.60219  1.0000
  H   H351      1.0  0.51441  0.11991  0.74455  1.0000
  H   H352      1.0  0.52705  0.03369  0.93886  1.0000
  Fe  Fe43      1.0  0.90020  0.32015  0.67520  1.0000
  C   C294      1.0  0.57837  0.04177  0.87157  1.0000
  H   H353      1.0  0.52516  0.06854  0.89301  1.0000
  C   C295      1.0  0.91458  0.30698  0.53573  1.0000
  N   N21       1.0  0.55514  0.08435  0.55058  1.0000
  H   H354      1.0  0.59701  0.00716  0.96785  1.0000
  H   H355      1.0  0.59311  0.03456  0.86340  1.0000
  H   H356      1.0  0.81521  0.30434  0.81844  1.0000
  C   C296      1.0  0.55783  0.07154  0.85362  1.0000
  C   C297      1.0  0.82805  0.24930  0.63419  1.0000
  C   C298      1.0  0.64584  0.09837  0.53715  1.0000
  N   N22       1.0  0.82624  0.27837  0.85697  1.0000
  C   C299      1.0  0.84659  0.27894  0.82682  1.0000
  C   C300      1.0  0.56123  0.03124  0.90688  1.0000
  H   H357      1.0  0.84385  0.26340  0.90448  1.0000
  C   C301      1.0  0.79876  0.25118  0.85397  1.0000
  C   C302      1.0  0.77229  0.25012  0.84545  1.0000
  C   C303      1.0  0.79798  0.22457  0.85941  1.0000
  C   C304      1.0  0.74679  0.22400  0.84279  1.0000
  C   C305      1.0  0.77242  0.19861  0.85615  1.0000
  C   C306      1.0  0.74688  0.19833  0.84797  1.0000
  H   H358      1.0  0.83770  0.27673  0.79583  1.0000
  H   H359      1.0  0.86718  0.29942  0.82737  1.0000
  C   C307      1.0  0.89153  0.33069  0.56578  1.0000
  H   H360      1.0  0.85627  0.23400  0.61736  1.0000
  C   C308      1.0  0.52954  0.06639  0.57569  1.0000
  C   C309      1.0  0.62888  0.00711  0.84546  1.0000
  H   H361      1.0  0.84499  0.27144  0.63510  1.0000
  H   H362      1.0  0.76454  0.20593  0.52825  1.0000
  H   H363      1.0  0.92483  0.29412  0.53888  1.0000
  H   H364      1.0  0.77073  0.26908  0.83956  1.0000
  H   H365      1.0  0.81725  0.22361  0.86535  1.0000
  H   H366      1.0  0.72696  0.22361  0.83516  1.0000
  H   H367      1.0  0.77243  0.17851  0.85877  1.0000
  H   H368      1.0  0.72726  0.17813  0.84422  1.0000
  N   N23       1.0  0.76170  0.16044  0.63430  1.0000
  C   C310      1.0  0.73300  0.15525  0.64633  1.0000
  C   C311      1.0  0.75872  0.14821  0.59357  1.0000
  C   C312      1.0  0.77018  0.14461  0.66348  1.0000
  C   C313      1.0  0.78396  0.19109  0.63353  1.0000
  C   C314      1.0  0.81268  0.19938  0.62374  1.0000
  C   C315      1.0  0.77825  0.21339  0.64312  1.0000
  C   C316      1.0  0.83433  0.22806  0.62423  1.0000
  C   C317      1.0  0.80006  0.24201  0.64322  1.0000
  H   H369      1.0  0.57295  0.05107  0.59199  1.0000
  H   H370      1.0  0.71676  0.13204  0.64684  1.0000
  H   H371      1.0  0.73335  0.16293  0.67740  1.0000
  H   H372      1.0  0.72470  0.16571  0.62502  1.0000
  H   H373      1.0  0.75223  0.15941  0.57079  1.0000
  H   H374      1.0  0.74221  0.12511  0.59329  1.0000
  H   H375      1.0  0.77887  0.14965  0.58296  1.0000
  H   H376      1.0  0.77585  0.15520  0.69338  1.0000
  H   H377      1.0  0.75264  0.12225  0.66887  1.0000
  H   H378      1.0  0.78899  0.14325  0.65321  1.0000
  H   H379      1.0  0.81874  0.18368  0.61635  1.0000
  H   H380      1.0  0.75732  0.20933  0.65191  1.0000
  C   C318      1.0  0.90481  0.31416  0.57039  1.0000
  S   S86       1.0  0.91058  0.30341  0.61903  1.0000
  C   C319      1.0  0.65666  0.01759  0.90783  1.0000
  H   H381      1.0  0.55409  0.02493  0.98944  1.0000
  H   H382      1.0  0.84467  0.32426  0.85147  1.0000
  H   H383      1.0  0.59068  0.07014  0.81952  1.0000
  H   H384      1.0  0.62752  0.10143  0.53676  1.0000
  H   H385      1.0  0.95889  0.28405  0.98205  1.0000
  C   C320      1.0  0.82357  0.30426  0.84949  1.0000
  C   C321      1.0  0.57421  0.05034  0.55945  1.0000
  C   C322      1.0  0.53423  0.03419  0.75988  1.0000
  H   H386      1.0  0.85927  0.30124  0.90125  1.0000
  H   H387      1.0  0.58430  0.09731  0.60186  1.0000
  H   H388      1.0  0.57016  0.12040  0.59038  1.0000
  H   H389      1.0  0.94727  0.31051  0.98068  1.0000
  C   C323      1.0  0.57759  0.10658  0.57645  1.0000
  H   H390      1.0  0.80934  0.30594  0.87195  1.0000
  C   C324      1.0  0.54760  0.00491  0.97273  1.0000
  H   H391      1.0  0.52034  0.07912  0.58832  1.0000
  H   H392      1.0  0.97150  0.32330  0.81349  1.0000
  H   H393      1.0  0.51250  0.04884  0.55764  1.0000
  H   H394      1.0  0.59720  0.12060  0.55872  1.0000
  C   C325      1.0  0.54684  0.09919  0.51937  1.0000
  H   H395      1.0  0.53846  0.11223  0.53328  1.0000
  C   C326      1.0  0.51053  0.03812  0.76182  1.0000
  H   H396      1.0  0.97829  0.31660  0.95381  1.0000
  S   S87       1.0  0.50001  0.09091  0.66687  1.0000
  C   C327      1.0  0.61817  0.45601  0.27462  1.0000
  H   H397      1.0  0.83746  0.61742  0.47653  1.0000
  C   C328      1.0  0.80616  0.61841  0.20527  1.0000
  N   N24       1.0  0.96814  0.45030  0.23842  1.0000
  H   H398      1.0  0.59507  0.60667  0.40344  1.0000
  Fe  Fe44      1.0  0.88881  0.35485  0.30135  1.0000
  S   S88       1.0  0.87902  0.38674  0.27097  1.0000
  S   S89       1.0  0.92890  0.37280  0.33829  1.0000
  Fe  Fe45      1.0  0.54485  0.63508  0.07197  1.0000
  H   H399      1.0  0.53122  0.43525  0.47925  1.0000
  C   C329      1.0  0.99609  0.45921  0.21907  1.0000
  Fe  Fe46      1.0  0.90184  0.52411  0.36928  1.0000
  S   S90       1.0  0.94113  0.56604  0.38129  1.0000
  S   S91       1.0  0.89841  0.48307  0.39420  1.0000
  Fe  Fe47      1.0  0.87100  0.55263  0.32867  1.0000
  S   S92       1.0  0.90842  0.59697  0.33626  1.0000
  S   S93       1.0  0.82777  0.54054  0.30087  1.0000
  Fe  Fe48      1.0  0.93550  0.57792  0.31710  1.0000
  S   S94       1.0  0.97596  0.59468  0.27898  1.0000
  Fe  Fe49      1.0  0.91092  0.58115  0.39925  1.0000
  S   S95       1.0  0.91127  0.60460  0.45552  1.0000
  S   S96       1.0  0.89768  0.53471  0.30446  1.0000
  S   S97       1.0  0.87200  0.53821  0.39234  1.0000
  Fe  Fe50      1.0  0.65689  0.55989  0.32987  1.0000
  S   S98       1.0  0.67357  0.52942  0.34276  1.0000
  S   S99       1.0  0.64404  0.56197  0.26429  1.0000
  Fe  Fe51      1.0  0.65779  0.57288  0.42037  1.0000
  S   S100      1.0  0.67452  0.54396  0.43968  1.0000
  S   S101      1.0  0.64376  0.59628  0.46171  1.0000
  Fe  Fe52      1.0  0.70379  0.56265  0.38604  1.0000
  S   S102      1.0  0.75131  0.57961  0.39496  1.0000
  Fe  Fe53      1.0  0.64293  0.51367  0.39476  1.0000
  S   S103      1.0  0.61297  0.46763  0.41140  1.0000
  S   S104      1.0  0.68931  0.59437  0.36972  1.0000
  S   S105      1.0  0.62409  0.54136  0.37898  1.0000
  C   C330      1.0  0.96214  0.42616  0.26660  1.0000
  H   H400      1.0  0.93859  0.46460  0.44751  1.0000
  C   C331      1.0  0.95128  0.41582  0.49693  1.0000
  H   H401      1.0  0.66187  0.62148  0.28338  1.0000
  H   H402      1.0  0.86022  0.60379  0.49273  1.0000
  C   C332      1.0  0.57982  0.45516  0.38702  1.0000
  C   C333      1.0  0.57747  0.46926  0.35245  1.0000
  C   C334      1.0  0.55106  0.45904  0.33278  1.0000
  C   C335      1.0  0.52687  0.43465  0.34754  1.0000
  C   C336      1.0  0.52913  0.42043  0.38212  1.0000
  C   C337      1.0  0.55566  0.43062  0.40172  1.0000
  H   H403      1.0  0.59616  0.48759  0.34005  1.0000
  H   H404      1.0  0.54950  0.46992  0.30580  1.0000
  C   C338      1.0  0.59639  0.41728  0.32392  1.0000
  H   H405      1.0  0.55747  0.41962  0.42839  1.0000
  C   C339      1.0  0.97572  0.52365  0.25419  1.0000
  H   H406      1.0  0.55962  0.40013  0.23429  1.0000
  C   C340      1.0  0.65036  0.61626  0.25492  1.0000
  H   H407      1.0  0.93906  0.57138  0.47700  1.0000
  C   C341      1.0  0.80600  0.55001  0.32856  1.0000
  C   C342      1.0  0.81718  0.56870  0.36104  1.0000
  C   C343      1.0  0.79997  0.57718  0.38139  1.0000
  C   C344      1.0  0.77126  0.56655  0.37017  1.0000
  C   C345      1.0  0.75981  0.54727  0.33834  1.0000
  C   C346      1.0  0.77725  0.53926  0.31733  1.0000
  H   H408      1.0  0.83935  0.57722  0.36980  1.0000
  H   H409      1.0  0.80909  0.59240  0.40555  1.0000
  H   H410      1.0  0.73773  0.53889  0.32947  1.0000
  H   H411      1.0  0.76849  0.52484  0.29219  1.0000
  C   C347      1.0  0.96624  0.61671  0.20723  1.0000
  H   H412      1.0  0.52094  0.38642  0.31368  1.0000
  H   H413      1.0  0.94735  0.61472  0.22139  1.0000
  C   C348      1.0  0.97163  0.36948  0.20375  1.0000
  C   C349      1.0  0.63942  0.58888  0.23916  1.0000
  C   C350      1.0  0.62467  0.58260  0.20197  1.0000
  C   C351      1.0  0.62063  0.60335  0.18079  1.0000
  H   H414      1.0  0.61626  0.56154  0.18940  1.0000
  H   H415      1.0  0.60927  0.59826  0.15219  1.0000
  H   H416      1.0  0.82577  0.61285  0.30155  1.0000
  H   H417      1.0  0.55119  0.35317  0.24938  1.0000
  C   C352      1.0  0.88524  0.41389  0.30493  1.0000
  C   C353      1.0  0.88815  0.41011  0.34639  1.0000
  C   C354      1.0  0.89241  0.43155  0.37351  1.0000
  C   C355      1.0  0.89420  0.45705  0.35928  1.0000
  C   C356      1.0  0.89206  0.46113  0.31774  1.0000
  C   C357      1.0  0.88725  0.43947  0.29061  1.0000
  H   H418      1.0  0.88629  0.39030  0.35781  1.0000
  H   H419      1.0  0.89404  0.42816  0.40556  1.0000
  H   H420      1.0  0.89438  0.48104  0.30645  1.0000
  H   H421      1.0  0.88531  0.44261  0.25855  1.0000
  C   C358      1.0  0.97442  0.62938  0.16835  1.0000
  H   H422      1.0  0.51143  0.66533  0.05521  1.0000
  C   C359      1.0  0.98310  0.60759  0.22818  1.0000
  N   N25       1.0  0.55062  0.37113  0.30696  1.0000
  H   H423      1.0  0.58448  0.56449  0.43167  1.0000
  H   H424      1.0  0.95071  0.39611  0.48953  1.0000
  S   S106      1.0  0.62771  0.65802  0.17091  1.0000
  C   C360      1.0  0.82245  0.61662  0.23716  1.0000
  C   C361      1.0  0.87691  0.43961  0.49730  1.0000
  H   H425      1.0  0.61294  0.62211  0.35700  1.0000
  C   C362      1.0  0.72338  0.58437  0.28079  1.0000
  C   C363      1.0  0.61805  0.44471  0.31292  1.0000
  N   N26       1.0  0.57689  0.57921  0.35162  1.0000
  H   H426      1.0  0.51061  0.48130  0.35656  1.0000
  H   H427      1.0  0.57017  0.36214  0.35859  1.0000
  H   H428      1.0  0.53208  0.34155  0.35749  1.0000
  H   H429      1.0  0.50454  0.34850  0.30900  1.0000
  H   H430      1.0  0.95737  0.49723  0.34976  1.0000
  C   C364      1.0  0.54057  0.52664  0.35318  1.0000
  C   C365      1.0  0.94418  0.45448  0.47199  1.0000
  H   H431      1.0  0.70624  0.61424  0.23444  1.0000
  H   H432      1.0  0.61780  0.59488  0.38132  1.0000
  H   H433      1.0  0.56011  0.51786  0.46375  1.0000
  C   C366      1.0  0.96278  0.49809  0.31806  1.0000
  C   C367      1.0  0.72704  0.61592  0.22618  1.0000
  H   H434      1.0  0.94359  0.42005  0.19206  1.0000
  C   C368      1.0  0.57547  0.41200  0.25709  1.0000
  N   N27       1.0  0.74219  0.61286  0.26228  1.0000
  C   C369      1.0  0.56797  0.47351  0.50045  1.0000
  H   H435      1.0  0.94058  0.41720  0.28021  1.0000
  H   H436      1.0  0.84221  0.61666  0.23123  1.0000
  C   C370      1.0  0.77013  0.61529  0.25301  1.0000
  H   H437      1.0  0.74031  0.58273  0.48454  1.0000
  C   C371      1.0  0.52681  0.49983  0.37250  1.0000
  H   H438      1.0  0.81351  0.62004  0.17445  1.0000
  H   H439      1.0  0.87481  0.39894  0.49044  1.0000
  H   H440      1.0  0.72566  0.63495  0.29706  1.0000
  H   H441      1.0  0.59987  0.59774  0.29600  1.0000
  Fe  Fe54      1.0  0.93638  0.34066  0.30677  1.0000
  H   H442      1.0  0.87461  0.44244  0.46511  1.0000
  H   H443      1.0  0.65511  0.65825  0.24585  1.0000
  C   C372      1.0  0.99054  0.36697  0.23074  1.0000
  H   H444      1.0  0.99669  0.44074  0.20542  1.0000
  H   H445      1.0  0.53785  0.57453  0.32548  1.0000
  C   C373      1.0  0.83791  0.59992  0.49445  1.0000
  C   C374      1.0  0.78116  0.58977  0.50644  1.0000
  H   H446      1.0  0.51046  0.40175  0.39388  1.0000
  H   H447      1.0  0.57062  0.56285  0.29044  1.0000
  C   C375      1.0  0.53406  0.49660  0.41208  1.0000
  H   H448      1.0  0.96563  0.38198  0.14358  1.0000
  H   H449      1.0  0.94955  0.45541  0.18256  1.0000
  N   N28       1.0  0.81406  0.45572  0.30540  1.0000
  C   C376      1.0  0.78494  0.45180  0.30045  1.0000
  C   C377      1.0  0.82678  0.47269  0.34244  1.0000
  C   C378      1.0  0.83174  0.47292  0.27050  1.0000
  C   C379      1.0  0.81248  0.42747  0.30690  1.0000
  C   C380      1.0  0.82014  0.41683  0.34187  1.0000
  C   C381      1.0  0.80306  0.40963  0.27254  1.0000
  C   C382      1.0  0.81899  0.39032  0.34179  1.0000
  C   C383      1.0  0.80244  0.38337  0.27264  1.0000
  C   C384      1.0  0.81054  0.37382  0.30713  1.0000
  H   H450      1.0  0.77088  0.43878  0.32589  1.0000
  H   H451      1.0  0.78543  0.47278  0.29974  1.0000
  H   H452      1.0  0.77458  0.44088  0.27184  1.0000
  H   H453      1.0  0.81382  0.46194  0.36980  1.0000
  H   H454      1.0  0.82796  0.49387  0.34024  1.0000
  H   H455      1.0  0.84899  0.47692  0.34760  1.0000
  H   H456      1.0  0.82166  0.46396  0.24088  1.0000
  H   H457      1.0  0.83538  0.49517  0.27043  1.0000
  H   H458      1.0  0.85304  0.47436  0.27118  1.0000
  H   H459      1.0  0.82801  0.42889  0.36932  1.0000
  H   H460      1.0  0.79656  0.41609  0.24507  1.0000
  H   H461      1.0  0.82584  0.38302  0.36827  1.0000
  H   H462      1.0  0.79619  0.37054  0.24562  1.0000
  C   C385      1.0  0.98047  0.38018  0.16419  1.0000
  C   C386      1.0  0.63160  0.63077  0.19644  1.0000
  H   H463      1.0  0.60239  0.56765  0.31545  1.0000
  C   C387      1.0  0.58780  0.57665  0.31183  1.0000
  H   H464      1.0  0.63452  0.47765  0.26682  1.0000
  Fe  Fe55      1.0  0.60350  0.65744  0.11285  1.0000
  C   C388      1.0  0.94548  0.43931  0.20688  1.0000
  H   H465      1.0  0.95019  0.48612  0.51527  1.0000
  C   C389      1.0  0.57415  0.40014  0.29635  1.0000
  H   H466      1.0  0.57855  0.47877  0.47128  1.0000
  C   C390      1.0  0.64647  0.63705  0.23360  1.0000
  C   C391      1.0  0.74610  0.63516  0.29139  1.0000
  C   C392      1.0  0.89969  0.33465  0.49301  1.0000
  C   C393      1.0  0.55614  0.58937  0.34474  1.0000
  C   C394      1.0  0.55288  0.34968  0.28233  1.0000
  C   C395      1.0  0.94421  0.42904  0.46548  1.0000
  C   C396      1.0  0.75371  0.58598  0.51102  1.0000
  C   C397      1.0  0.56856  0.54721  0.41381  1.0000
  H   H467      1.0  0.53397  0.52796  0.32259  1.0000
  C   C398      1.0  0.93360  0.57803  0.50453  1.0000
  C   C399      1.0  0.55465  0.52029  0.43281  1.0000
  H   H468      1.0  0.54722  0.59132  0.37392  1.0000
  H   H469      1.0  0.59722  0.41048  0.35464  1.0000
  H   H470      1.0  0.96953  0.54065  0.30902  1.0000
  H   H471      1.0  0.96154  0.63685  0.15266  1.0000
  H   H472      1.0  0.95616  0.45605  0.31973  1.0000
  H   H473      1.0  0.96221  0.40808  0.25099  1.0000
  H   H474      1.0  0.54884  0.37847  0.37042  1.0000
  H   H475      1.0  0.93841  0.41921  0.43594  1.0000
  H   H476      1.0  0.75368  0.63206  0.32159  1.0000
  H   H477      1.0  0.50410  0.48134  0.22624  1.0000
  C   C400      1.0  0.59702  0.43962  0.24665  1.0000
  C   C401      1.0  0.92004  0.59444  0.50236  1.0000
  C   C402      1.0  0.78749  0.61392  0.28473  1.0000
  H   H478      1.0  0.73172  0.58152  0.31047  1.0000
  H   H479      1.0  0.81098  0.35391  0.30671  1.0000
  H   H480      1.0  0.78753  0.58915  0.47581  1.0000
  C   C403      1.0  0.78033  0.61774  0.21284  1.0000
  H   H481      1.0  0.57371  0.35047  0.28772  1.0000
  H   H482      1.0  0.52364  0.47566  0.42663  1.0000
  C   C404      1.0  0.96876  0.47495  0.25854  1.0000
  H   H483      1.0  0.63430  0.45770  0.33489  1.0000
  H   H484      1.0  0.72156  0.59860  0.20411  1.0000
  H   H485      1.0  0.72098  0.56692  0.26084  1.0000
  C   C405      1.0  0.56238  0.55109  0.37291  1.0000
  H   H486      1.0  0.97843  0.43270  0.29119  1.0000
  C   C406      1.0  0.60165  0.60157  0.37441  1.0000
  S   S107      1.0  0.57880  0.62222  0.06836  1.0000
  C   C407      1.0  0.81318  0.61451  0.27680  1.0000
  C   C408      1.0  0.52263  0.36921  0.29833  1.0000
  H   H487      1.0  0.76868  0.61892  0.18673  1.0000
  H   H488      1.0  0.56627  0.61070  0.32921  1.0000
  H   H489      1.0  0.95015  0.36308  0.21331  1.0000
  H   H490      1.0  0.51876  0.37086  0.26558  1.0000
  H   H491      1.0  0.73991  0.63707  0.21083  1.0000
  H   H492      1.0  0.92423  0.43298  0.22027  1.0000
  H   H493      1.0  0.78104  0.61175  0.31600  1.0000
  C   C409      1.0  0.96944  0.52255  0.29511  1.0000
  C   C410      1.0  0.95070  0.46655  0.51025  1.0000
  C   C411      1.0  0.54139  0.44894  0.50488  1.0000
  H   H494      1.0  0.97596  0.35658  0.01864  1.0000
  C   C412      1.0  0.96224  0.47450  0.30025  1.0000
  S   S108      1.0  0.98041  0.35408  0.28113  1.0000
  H   H495      1.0  0.82426  0.57926  0.47904  1.0000
  H   H496      1.0  0.70163  0.58100  0.28637  1.0000
  C   C413      1.0  0.55058  0.36311  0.35028  1.0000
  C   C414      1.0  0.64594  0.59693  0.51527  1.0000
  S   S109      1.0  0.89946  0.35169  0.44697  1.0000
  H   H497      1.0  0.59716  0.44852  0.21687  1.0000
  H   H498      1.0  0.76186  0.65687  0.27988  1.0000
  H   H499      1.0  0.98071  0.54280  0.23656  1.0000
  H   H500      1.0  0.88019  0.47925  0.51085  1.0000
  Fe  Fe56      1.0  0.59783  0.65727  0.02045  1.0000
  C   C415      1.0  0.99932  0.63279  0.14986  1.0000
  C   C416      1.0  0.97541  0.50025  0.23604  1.0000
  C   C417      1.0  0.87701  0.41512  0.51150  1.0000
  Fe  Fe57      1.0  0.90255  0.33824  0.38353  1.0000
  H   H501      1.0  0.98018  0.50208  0.20413  1.0000
  C   C418      1.0  0.71713  0.65572  0.93391  1.0000
  Fe  Fe58      1.0  0.89747  0.37067  0.70756  1.0000
  S   S110      1.0  0.91204  0.41615  0.68803  1.0000
  S   S111      1.0  0.93192  0.35875  0.71006  1.0000
  Fe  Fe59      1.0  0.86705  0.57557  0.70745  1.0000
  S   S112      1.0  0.91393  0.60822  0.70355  1.0000
  S   S113      1.0  0.83021  0.57888  0.67901  1.0000
  Fe  Fe60      1.0  0.87890  0.52953  0.74276  1.0000
  S   S114      1.0  0.92648  0.55813  0.74206  1.0000
  S   S115      1.0  0.85490  0.48298  0.76124  1.0000
  Fe  Fe61      1.0  0.91745  0.59156  0.76577  1.0000
  S   S116      1.0  0.93762  0.61740  0.82263  1.0000
  Fe  Fe62      1.0  0.91902  0.57198  0.68031  1.0000
  S   S117      1.0  0.94229  0.56945  0.62548  1.0000
  S   S118      1.0  0.86985  0.56162  0.77087  1.0000
  S   S119      1.0  0.87221  0.54080  0.67983  1.0000
  Fe  Fe63      1.0  0.63495  0.56053  0.79357  1.0000
  S   S120      1.0  0.65520  0.53258  0.79422  1.0000
  S   S121      1.0  0.60945  0.55765  0.84998  1.0000
  Fe  Fe64      1.0  0.65337  0.57927  0.70505  1.0000
  S   S122      1.0  0.67556  0.55373  0.70006  1.0000
  S   S123      1.0  0.64864  0.60501  0.65373  1.0000
  Fe  Fe65      1.0  0.63676  0.51959  0.73205  1.0000
  S   S124      1.0  0.61533  0.47601  0.70450  1.0000
  Fe  Fe66      1.0  0.69220  0.56937  0.76254  1.0000
  S   S125      1.0  0.73661  0.58385  0.78796  1.0000
  S   S126      1.0  0.61343  0.54420  0.73343  1.0000
  S   S127      1.0  0.67312  0.59824  0.76545  1.0000
  C   C419      1.0  0.53662  0.40774  0.77136  1.0000
  C   C420      1.0  0.55751  0.43150  0.79221  1.0000
  C   C421      1.0  0.58133  0.45304  0.77159  1.0000
  C   C422      1.0  0.58479  0.45032  0.73037  1.0000
  C   C423      1.0  0.56390  0.42656  0.70955  1.0000
  C   C424      1.0  0.53956  0.40556  0.72984  1.0000
  H   H502      1.0  0.55537  0.43324  0.82434  1.0000
  H   H503      1.0  0.59740  0.47131  0.78783  1.0000
  H   H504      1.0  0.56652  0.42432  0.67769  1.0000
  H   H505      1.0  0.58409  0.59555  0.96685  1.0000
  C   C425      1.0  0.80425  0.57963  0.71015  1.0000
  C   C426      1.0  0.81009  0.58800  0.75052  1.0000
  C   C427      1.0  0.78919  0.58925  0.77407  1.0000
  C   C428      1.0  0.76233  0.58203  0.75749  1.0000
  C   C429      1.0  0.75637  0.57318  0.71733  1.0000
  C   C430      1.0  0.77726  0.57199  0.69379  1.0000
  H   H506      1.0  0.83090  0.59411  0.76334  1.0000
  H   H507      1.0  0.79398  0.59613  0.80511  1.0000
  H   H508      1.0  0.73572  0.56731  0.70434  1.0000
  H   H509      1.0  0.77237  0.56496  0.66287  1.0000
  C   C431      1.0  0.65721  0.58360  0.58152  1.0000
  C   C432      1.0  0.64806  0.60073  0.60068  1.0000
  C   C433      1.0  0.63787  0.61559  0.57696  1.0000
  H   H510      1.0  0.66545  0.57231  0.59962  1.0000
  C   C434      1.0  0.96842  0.38921  0.55846  1.0000
  S   S128      1.0  0.87726  0.34827  0.76572  1.0000
  C   C435      1.0  0.91971  0.59532  0.57617  1.0000
  C   C436      1.0  0.93375  0.57940  0.57835  1.0000
  S   S129      1.0  0.50717  0.38081  0.79775  1.0000
  H   H511      1.0  0.91441  0.60216  0.60367  1.0000
  H   H512      1.0  0.59570  0.54666  0.62474  1.0000
  C   C437      1.0  0.97446  0.63218  0.88745  1.0000
  C   C438      1.0  0.96964  0.62336  0.84696  1.0000
  C   C439      1.0  0.88319  0.50306  0.57799  1.0000
  C   C440      1.0  0.61584  0.62974  0.93026  1.0000
  C   C441      1.0  0.61192  0.58597  0.87967  1.0000
  C   C442      1.0  0.63051  0.61470  0.86980  1.0000
  H   H513      1.0  0.50720  0.42285  0.54590  1.0000
  H   H514      1.0  0.59738  0.54256  0.57159  1.0000
  H   H515      1.0  0.98325  0.49795  0.86892  1.0000
  C   C443      1.0  0.89698  0.43401  0.71276  1.0000
  C   C444      1.0  0.91129  0.46390  0.71098  1.0000
  C   C445      1.0  0.89851  0.47890  0.72618  1.0000
  C   C446      1.0  0.87156  0.46417  0.74408  1.0000
  C   C447      1.0  0.85756  0.43424  0.74717  1.0000
  C   C448      1.0  0.87023  0.41912  0.73139  1.0000
  H   H516      1.0  0.93225  0.47553  0.69743  1.0000
  H   H517      1.0  0.90951  0.50186  0.72361  1.0000
  H   H518      1.0  0.83671  0.42271  0.76108  1.0000
  H   H519      1.0  0.85903  0.39600  0.73279  1.0000
  C   C449      1.0  0.88048  0.41172  0.55271  1.0000
  C   C450      1.0  0.93779  0.51900  0.83193  1.0000
  H   H520      1.0  0.64714  0.65857  0.88735  1.0000
  N   N29       1.0  0.96569  0.41419  0.57041  1.0000
  C   C451      1.0  0.97097  0.55402  0.87889  1.0000
  H   H521      1.0  0.63088  0.62891  0.59135  1.0000
  H   H522      1.0  0.98522  0.39523  0.53511  1.0000
  C   C452      1.0  0.59512  0.57928  0.91474  1.0000
  C   C453      1.0  0.99568  0.37491  0.90442  1.0000
  H   H523      1.0  0.62287  0.52075  0.63923  1.0000
  N   N30       1.0  0.77666  0.49239  0.75972  1.0000
  C   C454      1.0  0.79426  0.51285  0.79161  1.0000
  C   C455      1.0  0.77201  0.46381  0.77254  1.0000
  C   C456      1.0  0.79356  0.50128  0.72189  1.0000
  C   C457      1.0  0.74884  0.49111  0.75239  1.0000
  C   C458      1.0  0.72897  0.47153  0.72419  1.0000
  C   C459      1.0  0.74074  0.50922  0.77212  1.0000
  C   C460      1.0  0.70252  0.46983  0.71681  1.0000
  C   C461      1.0  0.71421  0.50727  0.76453  1.0000
  C   C462      1.0  0.69514  0.48764  0.73701  1.0000
  H   H524      1.0  0.78278  0.50757  0.82098  1.0000
  H   H525      1.0  0.81456  0.51255  0.79732  1.0000
  H   H526      1.0  0.80058  0.53525  0.78266  1.0000
  H   H527      1.0  0.75833  0.45580  0.79997  1.0000
  H   H528      1.0  0.79262  0.46442  0.77977  1.0000
  H   H529      1.0  0.76168  0.44761  0.74862  1.0000
  H   H530      1.0  0.79672  0.52225  0.71059  1.0000
  H   H531      1.0  0.81512  0.50356  0.72657  1.0000
  H   H532      1.0  0.78306  0.48571  0.69726  1.0000
  H   H533      1.0  0.73381  0.45748  0.70744  1.0000
  H   H534      1.0  0.75459  0.52541  0.79315  1.0000
  H   H535      1.0  0.68761  0.45472  0.69522  1.0000
  H   H536      1.0  0.57942  0.50609  0.67161  1.0000
  H   H537      1.0  0.67464  0.48636  0.73114  1.0000
  C   C463      1.0  0.99335  0.43519  0.58893  1.0000
  C   C464      1.0  0.56817  0.48458  0.57230  1.0000
  H   H538      1.0  0.88594  0.51908  0.60101  1.0000
  H   H539      1.0  0.61132  0.48686  0.61628  1.0000
  H   H540      1.0  0.66017  0.58745  0.93336  1.0000
  H   H541      1.0  0.88715  0.42931  0.61143  1.0000
  H   H542      1.0  0.94104  0.42210  0.61408  1.0000
  H   H543      1.0  0.88371  0.33624  0.59177  1.0000
  H   H544      1.0  0.51985  0.45116  0.87537  1.0000
  H   H545      1.0  0.95635  0.37563  0.89425  1.0000
  H   H546      1.0  0.74543  0.60984  0.87257  1.0000
  S   S130      1.0  0.62054  0.65802  0.96204  1.0000
  H   H547      1.0  0.93833  0.55808  0.84569  1.0000
  C   C465      1.0  0.54102  0.45934  0.57571  1.0000
  N   N31       1.0  0.88721  0.47977  0.59597  1.0000
  C   C466      1.0  0.63671  0.61362  0.53481  1.0000
  H   H548      1.0  0.94743  0.39354  0.62775  1.0000
  C   C467      1.0  0.91647  0.49302  0.61328  1.0000
  C   C468      1.0  0.88353  0.45783  0.56652  1.0000
  H   H549      1.0  0.52350  0.38728  0.71360  1.0000
  H   H550      1.0  0.60143  0.51042  0.52826  1.0000
  H   H551      1.0  0.86764  0.48266  0.65106  1.0000
  H   H552      1.0  0.69541  0.63608  0.84179  1.0000
  C   C469      1.0  0.86621  0.46645  0.62932  1.0000
  H   H553      1.0  0.72230  0.58382  0.55257  1.0000
  H   H554      1.0  0.94302  0.48258  0.82258  1.0000
  H   H555      1.0  0.95216  0.55905  0.54391  1.0000
  H   H556      1.0  0.91962  0.50851  0.63738  1.0000
  C   C470      1.0  0.74351  0.58651  0.54929  1.0000
  C   C471      1.0  0.95741  0.45329  0.54207  1.0000
  H   H557      1.0  0.84671  0.64455  0.54246  1.0000
  H   H558      1.0  0.96163  0.46312  0.57139  1.0000
  C   C472      1.0  0.96094  0.34896  0.85077  1.0000
  C   C473      1.0  0.73776  0.61804  0.89742  1.0000
  H   H559      1.0  0.98517  0.55035  0.96504  1.0000
  H   H560      1.0  0.75265  0.59100  0.61308  1.0000
  C   C474      1.0  0.79935  0.59434  0.54049  1.0000
  H   H561      1.0  0.73247  0.65786  0.85463  1.0000
  H   H562      1.0  0.54603  0.49022  0.64566  1.0000
  H   H563      1.0  0.64534  0.60637  0.98776  1.0000
  H   H564      1.0  0.93290  0.50506  0.58974  1.0000
  H   H565      1.0  0.84396  0.45486  0.61738  1.0000
  H   H566      1.0  0.92193  0.38864  0.58890  1.0000
  C   C475      1.0  0.52792  0.44197  0.54237  1.0000
  C   C476      1.0  0.68195  0.64836  0.98440  1.0000
  C   C477      1.0  0.95836  0.42772  0.53625  1.0000
  C   C478      1.0  0.96979  0.36739  0.88395  1.0000
  N   N32       1.0  0.58268  0.50353  0.60694  1.0000
  C   C479      1.0  0.88397  0.43279  0.57984  1.0000
  H   H567      1.0  0.81506  0.55453  0.54641  1.0000
  C   C480      1.0  0.95076  0.50244  0.83873  1.0000
  H   H568      1.0  0.58065  0.55713  0.92263  1.0000
  C   C481      1.0  0.70056  0.62711  0.92060  1.0000
  H   H569      1.0  0.52938  0.45232  0.60383  1.0000
  C   C482      1.0  0.59698  0.60101  0.93986  1.0000
  H   H570      1.0  0.62606  0.51922  0.58610  1.0000
  H   H571      1.0  0.86970  0.45101  0.64786  1.0000
  H   H572      1.0  0.97830  0.57455  0.89249  1.0000
  H   H573      1.0  0.69766  0.58022  0.84869  1.0000
  C   C483      1.0  0.71522  0.63549  0.85016  1.0000
  C   C484      1.0  0.56752  0.49204  0.64594  1.0000
  C   C485      1.0  0.94310  0.40424  0.60156  1.0000
  H   H574      1.0  0.70855  0.52141  0.77972  1.0000
  C   C486      1.0  0.78810  0.59434  0.57909  1.0000
  H   H575      1.0  0.68604  0.57158  0.89975  1.0000
  H   H576      1.0  0.72173  0.62774  0.82349  1.0000
  S   S131      1.0  0.92556  0.33525  0.83179  1.0000
  N   N33       1.0  0.82879  0.59909  0.53695  1.0000
  C   C487      1.0  0.68982  0.58714  0.87470  1.0000
  H   H577      1.0  0.82674  0.57524  0.59158  1.0000
  H   H578      1.0  0.90384  0.61669  0.53674  1.0000
  H   H579      1.0  0.84663  0.62650  0.58895  1.0000
  C   C488      1.0  0.94802  0.54484  0.85175  1.0000
  H   H580      1.0  0.66898  0.58501  0.86510  1.0000
  H   H581      1.0  0.92126  0.47690  0.62716  1.0000
  H   H582      1.0  0.86150  0.49465  0.56453  1.0000
  C   C489      1.0  0.67459  0.60934  0.94156  1.0000
  H   H583      1.0  0.56527  0.47079  0.65358  1.0000
  C   C490      1.0  0.65616  0.58170  0.53868  1.0000
  C   C491      1.0  0.76063  0.59059  0.58328  1.0000
  N   N34       1.0  0.71046  0.61694  0.88641  1.0000
  C   C492      1.0  0.98423  0.53733  0.88749  1.0000
  H   H584      1.0  0.56333  0.52961  0.59519  1.0000
  C   C493      1.0  0.66570  0.61993  0.97313  1.0000
  C   C494      1.0  0.58105  0.49133  0.53343  1.0000
  H   H585      1.0  0.88052  0.39267  0.56377  1.0000
  H   H586      1.0  0.64328  0.62020  0.84271  1.0000
  C   C495      1.0  0.83083  0.57576  0.55861  1.0000
  C   C496      1.0  0.88911  0.34096  0.52741  1.0000
  C   C497      1.0  0.63250  0.63641  0.89503  1.0000
  C   C498      1.0  0.58483  0.53175  0.59923  1.0000
  C   C499      1.0  0.97380  0.51147  0.86577  1.0000
  H   H587      1.0  0.80057  0.59741  0.60640  1.0000
  H   H588      1.0  0.91998  0.51195  0.81089  1.0000
  H   H589      1.0  0.95834  0.63455  0.90328  1.0000
  H   H590      1.0  0.73523  0.60482  0.92503  1.0000
  H   H591      1.0  0.85251  0.57820  0.55585  1.0000
  C   C500      1.0  0.61194  0.50774  0.61212  1.0000
  H   H592      1.0  0.99223  0.45288  0.60389  1.0000
  C   C501      1.0  0.91350  0.60333  0.53828  1.0000
  H   H593      1.0  0.89940  0.51538  0.55439  1.0000
  H   H594      1.0  0.99303  0.50685  0.94591  1.0000
  C   C502      1.0  0.99067  0.62049  0.82674  1.0000
  C   C503      1.0  0.94098  0.57106  0.54243  1.0000
  H   H595      1.0  0.97398  0.37950  0.58469  1.0000
  C   C504      1.0  0.84929  0.62675  0.55559  1.0000
  H   H596      1.0  0.94800  0.37174  0.54640  1.0000
  C   C505      1.0  0.97833  0.33807  0.83830  1.0000
  H   H597      1.0  0.98732  0.61392  0.79550  1.0000
  H   H598      1.0  0.87186  0.63227  0.55084  1.0000
  H   H599      1.0  0.75514  0.64017  0.90336  1.0000
  H   H600      1.0  0.66343  0.56879  0.52384  1.0000
  H   H601      1.0  0.51088  0.48930  0.86335  1.0000
  H   H602      1.0  0.50660  0.41539  0.85928  1.0000
  C   C506      1.0  0.99388  0.35214  0.01493  1.0000
  H   H603      1.0  0.51079  0.46518  0.80874  1.0000
  H   H604      1.0  0.87939  0.35427  0.52438  1.0000
  C   C507      1.0  0.88018  0.46076  0.52419  1.0000
  H   H605      1.0  0.50271  0.58492  0.01151  1.0000
  Fe  Fe67      1.0  0.90997  0.33372  0.76656  1.0000
  H   H606      1.0  0.67411  0.65671  0.00753  1.0000
  S   S132      1.0  0.86724  0.33374  0.66975  1.0000
  H   H607      1.0  0.62887  0.62549  0.51719  1.0000
  C   C508      1.0  0.50003  0.43012  0.87232  1.0000
  H   H608      1.0  0.50801  0.96523  0.06191  1.0000
  H   H609      1.0  0.53565  0.70320  0.05030  1.0000
  Fe  Fe68      1.0  0.56847  0.88496  0.03703  1.0000
  H   H610      1.0  0.50865  0.79554  0.07344  1.0000
  H   H611      1.0  0.60600  0.79929  0.11310  1.0000
  H   H612      1.0  0.53291  0.74121  0.13659  1.0000
  Fe  Fe69      1.0  0.57645  0.93281  0.09462  1.0000
  S   S133      1.0  0.53729  0.89355  0.07091  1.0000
  S   S134      1.0  0.57460  0.94450  0.16013  1.0000
  S   S135      1.0  0.57698  0.96145  0.04414  1.0000
  C   C509      1.0  0.56919  0.76834  0.02732  1.0000
  S   S136      1.0  0.60751  0.92252  0.06405  1.0000
  Fe  Fe70      1.0  0.54005  0.92208  0.01851  1.0000
  S   S137      1.0  0.62463  0.69194  0.06497  1.0000
  C   C510      1.0  0.58769  0.81811  0.07267  1.0000
  C   C511      1.0  0.59397  0.79654  0.08544  1.0000
  H   H613      1.0  0.59480  0.83704  0.09058  1.0000
  C   C512      1.0  0.57180  0.81481  0.03729  1.0000
  C   C513      1.0  0.58469  0.77139  0.06308  1.0000
  Fe  Fe71      1.0  0.58744  0.70007  0.06875  1.0000
  S   S138      1.0  0.59250  0.74449  0.08195  1.0000
  C   C514      1.0  0.59905  0.97698  0.18390  1.0000
  H   H614      1.0  0.53352  0.95577  0.11740  1.0000
  H   H615      1.0  0.57522  0.96539  0.23956  1.0000
  H   H616      1.0  0.53923  0.70365  0.12402  1.0000
  H   H617      1.0  0.53525  0.78702  0.12823  1.0000
  C   C515      1.0  0.59391  0.98165  0.22390  1.0000
  S   S139      1.0  0.56193  0.84061  0.02022  1.0000
  C   C516      1.0  0.51272  0.68662  0.05368  1.0000
  H   H618      1.0  0.50771  0.69225  0.15470  1.0000
  C   C517      1.0  0.52135  0.76962  0.10860  1.0000
  C   C518      1.0  0.62335  0.99810  0.16406  1.0000
  C   C519      1.0  0.51971  0.74297  0.11309  1.0000
  H   H619      1.0  0.62763  0.99477  0.13337  1.0000
  C   C520      1.0  0.51577  0.68856  0.12597  1.0000
  S   S140      1.0  0.56832  0.66781  0.11961  1.0000
  C   C521      1.0  0.51328  0.95478  0.12320  1.0000
  H   H620      1.0  0.50155  0.68712  0.02545  1.0000
  N   N35       1.0  0.50038  0.69165  0.09025  1.0000
  C   C522      1.0  0.50246  0.72009  0.08678  1.0000
  C   C523      1.0  0.50637  0.77447  0.07768  1.0000
  S   S141      1.0  0.56197  0.66772  0.02099  1.0000
  H   H621      1.0  0.51250  0.94255  0.18544  1.0000
  H   H622      1.0  0.51315  0.66670  0.12823  1.0000
  C   C524      1.0  0.50127  0.94727  0.16160  1.0000
  N   N36       1.0  0.63935  0.89660  0.94157  1.0000
  C   C525      1.0  0.63662  0.99103  0.92479  1.0000
  H   H623      1.0  0.68085  0.95180  0.92362  1.0000
  H   H624      1.0  0.61214  0.85568  0.97082  1.0000
  S   S142      1.0  0.56758  0.91051  0.98228  1.0000
  C   C526      1.0  0.66396  0.89147  0.94169  1.0000
  H   H625      1.0  0.60573  0.91352  0.81755  1.0000
  C   C527      1.0  0.64049  0.91189  0.97897  1.0000
  H   H626      1.0  0.64680  0.96254  0.81148  1.0000
  H   H627      1.0  0.68392  0.98130  0.86483  1.0000
  C   C528      1.0  0.62223  0.92139  0.84071  1.0000
  H   H628      1.0  0.61100  0.85484  0.91703  1.0000
  S   S143      1.0  0.64199  0.98160  0.97453  1.0000
  H   H629      1.0  0.52991  0.97289  0.90734  1.0000
  C   C529      1.0  0.66429  0.94244  0.90084  1.0000
  H   H630      1.0  0.60113  0.88315  0.87542  1.0000
  H   H631      1.0  0.66146  0.93150  0.98361  1.0000
  H   H632      1.0  0.72016  0.68835  0.97382  1.0000
  H   H633      1.0  0.55049  0.78692  0.98725  1.0000
  C   C530      1.0  0.66638  0.95950  0.86713  1.0000
  C   C531      1.0  0.60922  0.98036  0.86214  1.0000
  H   H634      1.0  0.68476  0.91168  0.94359  1.0000
  C   C532      1.0  0.61279  0.97251  0.90178  1.0000
  H   H635      1.0  0.55663  0.96756  0.93243  1.0000
  C   C533      1.0  0.61985  0.90414  0.87437  1.0000
  C   C534      1.0  0.61282  0.86828  0.94321  1.0000
  H   H636      1.0  0.66417  0.88049  0.91365  1.0000
  H   H637      1.0  0.59746  0.95183  0.91408  1.0000
  H   H638      1.0  0.59105  0.96556  0.84428  1.0000
  H   H639      1.0  0.66316  0.87782  0.96805  1.0000
  H   H640      1.0  0.62419  0.91878  0.97782  1.0000
  C   C535      1.0  0.64094  0.91421  0.90556  1.0000
  H   H641      1.0  0.55125  0.99045  0.99348  1.0000
  C   C536      1.0  0.64544  0.94897  0.83708  1.0000
  H   H642      1.0  0.59338  0.87056  0.94448  1.0000
  C   C537      1.0  0.55326  0.98311  0.91369  1.0000
  H   H643      1.0  0.73724  0.67040  0.91980  1.0000
  H   H644      1.0  0.63639  0.89823  0.00664  1.0000
  C   C538      1.0  0.51153  0.99397  0.80605  1.0000
  Fe  Fe72      1.0  0.60437  0.94816  0.01107  1.0000
  H   H645      1.0  0.56200  0.74937  0.00949  1.0000
  C   C539      1.0  0.56281  0.78984  0.01464  1.0000
  H   H646      1.0  0.56413  0.98576  0.88438  1.0000
  H   H647      1.0  0.52410  0.99361  0.96719  1.0000
  H   H648      1.0  0.51211  0.97691  0.82328  1.0000
  S   S144      1.0  0.50805  0.93111  0.98579  1.0000
  C   C540      1.0  0.70774  0.66618  0.96507  1.0000
