data_image0
_chemical_formula_structural       FeHFeNFeHSH4CFe2SCSHCH2CHCHC2HSCH2C2HSHSCSHC2HC2HSH3SC4HSCHSCSC3SH2SC3SCSCH3C3HFeCSC2HFeHFeC2HC2H3CH7NCH2SC2HC2SC3HCHC2HCHC2HCH2CH5C3HSH3CHSHCH2C2HCH4FeHC3HC5HSCH2C2SCH2CHFeHCNCHFeH2C2HSFeCFeHC2SCH5C4HSCHCSHFeSCHC6H3C3HCFeHFeHCHFeS2HFeH6CNCH2SHCSCH2C3S2H2CNCNHCH2CHC3NH3CH3CHS2CH5C3H2CH2FeH3CHCH3C2H2CH3SHFeHCHSH2CH5FeH3C2HSH2C4HCHC5H2S2FeH2SC3HSHFeCFeC9H3NH2C2H4CH3FeHCHC2H2NSCH3FeNHCH2C3HCSC2HC2H2CS2H3SH4CHCFeHCFeH2CHCH2SCSCHC2NH3CH2CHC2H2FeHC2H4CHCFeCHSHCH2CSNHC2H3CHC2SC2SCHCHCH2C7H5CH6CH2C2H2SH2CHSC2SCSHFeCHC3HSH3CNHCH2C2HC2FeHCHSC2SCFeCSC3HCH3CH2CHC2HSH3CH2NHFeH2CH2CH4C3SH2C4HC2HCSHCHCHCH2CH3CSHC2NHCHC3HC3H2CHCHCH2CHC3H3CSHSCHCHCHSH4C2HCSH3NC2H4CH2FeC2HCFeHNHCSH3CH3CH3C2SC2H2C2SCHFeSC3S2HC2SC2H5C2HNHSH4CH2C2HCSCHCSC3H3CFeCFeHCHCH2FeCFeH2SH2C2HC2HSHCSFeH2C4H2C4H2CHC4H2CHCHCHCHCSHCH3CFeCHCFe2SH2CSC2HC3H4C4HSH3SH4CHFeHCHCHCHSH3CHNCHCHCH2CHNHS2C2HCHCH2NCSCH3FeCH2CNSCH2FeH5CSCH2SHC2FeH2C3HCSH2CHCHC2H3CSCSCNSCHCHSNCH5SHCHCHC2HCH3C3HC5HFeSH3CH2SHC2HCH2CHCHC3H2C3H2S2CHNC2H2C2HCNH3CH3C2NHCHCHCHSCH3CHSHCHSC2HCH2C2Fe2CH2CHCHC4HCNCH6SHSCSH2SH5CH3CH3SHFeCHCH2CHNSH2C4HNCFeC2H2C2H2CH2SCH2SHSFeSC8SCHCNHCH4C3H5CH2CH2FeH2CSC2HCFeSH5NSFeH2NHC2HSHSC2H2CHCHFeHCH2CHSHCH2CHSHCH2CH2CHCSC2NH4FeHCFeHCHFeCHC2SH4FeC4FeCHCHSCFeHC2H2C3H2CSFeH2SHSCSHSHNC2H3CSH5CSCHCFeHNH2C2HSH2CHSH2CFeC2HCFe2HSC3H3CSHNC3H2CFeCHC2SCH2SH2SHFeCS2CH4CFeHCHC2HCHFeHC3H2CNC3HCSCH3NCHCHSHS2FeHCHC3HCSHCH2CHCH2CSCHC2FeH2CHCHSCHCHCFeH2SCHCH2C2HNH3CSHC5SHC2H4SHCHCHFeH3SHCFeH2C2SCSFeSH3CHCH3
_chemical_formula_sum              "Fe80 H720 N40 S160 C600"
_cell_length_a       33.3967
_cell_length_b       31.5317
_cell_length_c       21.3181
_cell_angle_alpha    94.4737
_cell_angle_beta     71.2096
_cell_angle_gamma    92.4741

_space_group_name_H-M_alt    "P 1"
_space_group_IT_number       1

loop_
  _space_group_symop_operation_xyz
  'x, y, z'

loop_
  _atom_site_type_symbol
  _atom_site_label
  _atom_site_symmetry_multiplicity
  _atom_site_fract_x
  _atom_site_fract_y
  _atom_site_fract_z
  _atom_site_occupancy
  Fe  Fe1       1.0  0.36303  0.59048  0.07776  1.0000
  H   H1        1.0  0.16565  0.18488  0.02967  1.0000
  Fe  Fe2       1.0  0.24195  0.31469  0.09190  1.0000
  N   N1        1.0  0.01943  0.46334  0.15564  1.0000
  Fe  Fe3       1.0  0.95106  0.41301  0.97930  1.0000
  H   H2        1.0  0.30491  0.20725  0.98097  1.0000
  S   S1        1.0  0.33023  0.53842  0.03479  1.0000
  H   H3        1.0  0.24973  0.53357  0.01230  1.0000
  H   H4        1.0  0.96103  0.39580  0.15686  1.0000
  H   H5        1.0  0.34543  0.31360  0.02535  1.0000
  H   H6        1.0  0.91517  0.53221  0.15644  1.0000
  C   C1        1.0  0.90552  0.23730  0.99047  1.0000
  Fe  Fe4       1.0  0.19452  0.35170  0.01023  1.0000
  Fe  Fe5       1.0  0.15925  0.27192  0.08484  1.0000
  S   S2        1.0  0.17216  0.28777  0.97977  1.0000
  C   C2        1.0  0.92063  0.54199  0.10680  1.0000
  S   S3        1.0  0.91307  0.35304  0.98216  1.0000
  H   H7        1.0  0.18232  0.64363  0.11557  1.0000
  C   C3        1.0  0.35630  0.43416  0.06992  1.0000
  H   H8        1.0  0.26677  0.17609  0.10794  1.0000
  H   H9        1.0  0.09574  0.42630  0.08614  1.0000
  C   C4        1.0  0.38800  0.51072  0.18054  1.0000
  H   H10       1.0  0.26225  0.64003  0.08118  1.0000
  C   C5        1.0  0.38074  0.41632  0.00806  1.0000
  H   H11       1.0  0.17633  0.52207  0.08566  1.0000
  C   C6        1.0  0.27480  0.18524  0.15221  1.0000
  C   C7        1.0  0.21750  0.62532  0.20251  1.0000
  H   H12       1.0  0.21845  0.59871  0.16441  1.0000
  S   S4        1.0  0.94486  0.65134  0.01534  1.0000
  C   C8        1.0  0.04958  0.47914  0.19085  1.0000
  H   H13       1.0  0.95154  0.46482  0.17814  1.0000
  H   H14       1.0  0.13781  0.62982  0.00925  1.0000
  C   C9        1.0  0.15115  0.16353  0.06843  1.0000
  C   C10       1.0  0.04380  0.33313  0.07617  1.0000
  H   H15       1.0  0.08109  0.32344  0.18478  1.0000
  S   S5        1.0  0.10301  0.23087  0.13479  1.0000
  H   H16       1.0  0.92311  0.17313  0.08982  1.0000
  S   S6        1.0  0.26159  0.33216  0.98613  1.0000
  C   C11       1.0  0.18361  0.54777  0.05267  1.0000
  S   S7        1.0  0.98519  0.25850  0.99023  1.0000
  H   H17       1.0  0.00606  0.47677  0.06707  1.0000
  C   C12       1.0  0.15162  0.57470  0.05178  1.0000
  C   C13       1.0  0.02729  0.41828  0.13054  1.0000
  H   H18       1.0  0.30530  0.24301  0.11045  1.0000
  C   C14       1.0  0.93103  0.52423  0.99015  1.0000
  C   C15       1.0  0.97606  0.47023  0.20293  1.0000
  H   H19       1.0  0.97661  0.32329  0.11028  1.0000
  S   S8        1.0  0.33289  0.60771  0.18632  1.0000
  H   H20       1.0  0.01279  0.19503  0.14964  1.0000
  H   H21       1.0  0.30822  0.42280  0.16286  1.0000
  H   H22       1.0  0.92184  0.60878  0.13602  1.0000
  S   S9        1.0  0.05996  0.64299  0.00107  1.0000
  C   C16       1.0  0.06894  0.40450  0.09560  1.0000
  C   C17       1.0  0.22526  0.55430  0.01105  1.0000
  C   C18       1.0  0.07691  0.36257  0.06928  1.0000
  C   C19       1.0  0.29637  0.22414  0.15347  1.0000
  H   H23       1.0  0.05007  0.30074  0.05494  1.0000
  S   S10       1.0  0.36534  0.63583  0.00082  1.0000
  C   C20       1.0  0.92444  0.58526  0.09527  1.0000
  H   H24       1.0  0.01647  0.52316  0.11443  1.0000
  S   S11       1.0  0.09986  0.56879  0.10593  1.0000
  C   C21       1.0  0.98551  0.18142  0.13462  1.0000
  S   S12       1.0  0.28393  0.33498  0.15262  1.0000
  C   C22       1.0  0.32808  0.40862  0.11591  1.0000
  C   C23       1.0  0.99397  0.38777  0.13488  1.0000
  C   C24       1.0  0.34896  0.34711  0.03827  1.0000
  S   S13       1.0  0.22389  0.24765  0.06897  1.0000
  H   H25       1.0  0.39072  0.54112  0.15921  1.0000
  H   H26       1.0  0.11172  0.46177  0.96968  1.0000
  S   S14       1.0  0.17582  0.33797  0.11747  1.0000
  C   C25       1.0  0.11948  0.17795  0.12596  1.0000
  C   C26       1.0  0.23461  0.58697  0.96732  1.0000
  C   C27       1.0  0.93213  0.59806  0.03108  1.0000
  S   S15       1.0  0.17795  0.41537  0.98663  1.0000
  C   C28       1.0  0.92502  0.51143  0.05396  1.0000
  S   S16       1.0  0.92437  0.45765  0.06902  1.0000
  C   C29       1.0  0.32393  0.36525  0.09971  1.0000
  H   H27       1.0  0.08280  0.48104  0.15725  1.0000
  H   H28       1.0  0.05882  0.48988  0.06554  1.0000
  H   H29       1.0  0.10896  0.35323  0.04193  1.0000
  C   C30       1.0  0.00239  0.34583  0.10825  1.0000
  C   C31       1.0  0.02536  0.48945  0.09837  1.0000
  C   C32       1.0  0.94718  0.22384  0.97386  1.0000
  H   H30       1.0  0.98655  0.19810  0.08997  1.0000
  Fe  Fe6       1.0  0.39537  0.51691  0.97473  1.0000
  C   C33       1.0  0.16151  0.60794  0.00924  1.0000
  S   S17       1.0  0.99894  0.64474  0.15647  1.0000
  C   C34       1.0  0.37767  0.37261  0.99261  1.0000
  C   C35       1.0  0.93429  0.56765  0.97873  1.0000
  H   H31       1.0  0.35895  0.46771  0.08229  1.0000
  Fe  Fe7       1.0  0.06523  0.62624  0.09815  1.0000
  H   H32       1.0  0.95633  0.19006  0.17605  1.0000
  Fe  Fe8       1.0  0.23788  0.26689  0.96536  1.0000
  C   C36       1.0  0.20270  0.61384  0.96691  1.0000
  C   C37       1.0  0.34554  0.66000  0.20710  1.0000
  H   H33       1.0  0.04958  0.39820  0.29300  1.0000
  C   C38       1.0  0.10718  0.26488  0.28039  1.0000
  C   C39       1.0  0.21442  0.36872  0.45246  1.0000
  H   H34       1.0  0.97173  0.50361  0.22472  1.0000
  H   H35       1.0  0.29769  0.22945  0.31203  1.0000
  H   H36       1.0  0.02856  0.34048  0.23270  1.0000
  C   C40       1.0  0.95738  0.25757  0.31605  1.0000
  H   H37       1.0  0.96870  0.44881  0.24453  1.0000
  H   H38       1.0  0.37559  0.40206  0.25806  1.0000
  H   H39       1.0  0.27435  0.58636  0.43882  1.0000
  H   H40       1.0  0.14661  0.20608  0.39827  1.0000
  H   H41       1.0  0.39306  0.58280  0.28470  1.0000
  H   H42       1.0  0.13852  0.33312  0.41378  1.0000
  H   H43       1.0  0.31969  0.31205  0.35943  1.0000
  N   N2        1.0  0.07110  0.33436  0.28940  1.0000
  C   C41       1.0  0.29228  0.21646  0.26682  1.0000
  H   H44       1.0  0.13974  0.20642  0.27098  1.0000
  H   H45       1.0  0.96968  0.26237  0.21113  1.0000
  S   S18       1.0  0.38715  0.38266  0.38814  1.0000
  C   C42       1.0  0.35151  0.50036  0.23124  1.0000
  C   C43       1.0  0.91956  0.31669  0.38713  1.0000
  H   H46       1.0  0.18721  0.62138  0.24352  1.0000
  C   C44       1.0  0.31343  0.42611  0.43609  1.0000
  C   C45       1.0  0.34787  0.46112  0.25837  1.0000
  S   S19       1.0  0.05501  0.21753  0.41426  1.0000
  C   C46       1.0  0.14877  0.32946  0.28125  1.0000
  C   C47       1.0  0.05547  0.32101  0.23303  1.0000
  C   C48       1.0  0.20364  0.21535  0.42436  1.0000
  H   H47       1.0  0.00798  0.34331  0.35788  1.0000
  C   C49       1.0  0.10911  0.30993  0.28396  1.0000
  H   H48       1.0  0.31928  0.60169  0.32598  1.0000
  C   C50       1.0  0.37530  0.57460  0.33445  1.0000
  C   C51       1.0  0.93957  0.27751  0.37948  1.0000
  H   H49       1.0  0.28130  0.34660  0.29579  1.0000
  C   C52       1.0  0.14250  0.24076  0.27402  1.0000
  H   H50       1.0  0.24421  0.62037  0.22154  1.0000
  C   C53       1.0  0.39335  0.55280  0.37448  1.0000
  C   C54       1.0  0.36623  0.54351  0.43866  1.0000
  H   H51       1.0  0.07829  0.24772  0.28113  1.0000
  C   C55       1.0  0.33276  0.58604  0.35766  1.0000
  H   H52       1.0  0.94102  0.26279  0.42270  1.0000
  H   H53       1.0  0.38746  0.25148  0.40176  1.0000
  C   C56       1.0  0.03731  0.32586  0.35228  1.0000
  H   H54       1.0  0.21426  0.32031  0.27049  1.0000
  H   H55       1.0  0.04264  0.51235  0.21267  1.0000
  H   H56       1.0  0.90646  0.59693  0.32146  1.0000
  H   H57       1.0  0.02836  0.29157  0.35529  1.0000
  H   H58       1.0  0.91027  0.16460  0.29271  1.0000
  C   C57       1.0  0.95168  0.64158  0.34272  1.0000
  C   C58       1.0  0.93601  0.31648  0.26805  1.0000
  C   C59       1.0  0.23098  0.36796  0.38317  1.0000
  H   H59       1.0  0.31900  0.45301  0.29693  1.0000
  S   S20       1.0  0.13181  0.42423  0.41888  1.0000
  H   H60       1.0  0.97890  0.62533  0.30865  1.0000
  H   H61       1.0  0.30905  0.41588  0.38936  1.0000
  H   H62       1.0  0.15353  0.36356  0.28413  1.0000
  C   C60       1.0  0.29003  0.32764  0.38524  1.0000
  H   H63       1.0  0.93382  0.33115  0.22523  1.0000
  S   S21       1.0  0.98243  0.20853  0.30499  1.0000
  H   H64       1.0  0.04755  0.33565  0.39603  1.0000
  C   C61       1.0  0.07881  0.38104  0.28872  1.0000
  H   H65       1.0  0.37880  0.19221  0.23816  1.0000
  H   H66       1.0  0.08888  0.39353  0.33163  1.0000
  C   C62       1.0  0.95544  0.27712  0.26039  1.0000
  C   C63       1.0  0.23391  0.19595  0.44456  1.0000
  H   H67       1.0  0.32576  0.52261  0.24886  1.0000
  C   C64       1.0  0.18410  0.30493  0.27418  1.0000
  H   H68       1.0  0.21444  0.38368  0.35554  1.0000
  H   H69       1.0  0.10348  0.38967  0.24195  1.0000
  H   H70       1.0  0.04387  0.28742  0.23443  1.0000
  H   H71       1.0  0.20846  0.24202  0.26520  1.0000
  Fe  Fe9       1.0  0.99725  0.18954  0.39458  1.0000
  H   H72       1.0  0.90569  0.33197  0.43625  1.0000
  C   C65       1.0  0.38075  0.43201  0.23499  1.0000
  C   C66       1.0  0.27175  0.17695  0.26546  1.0000
  C   C67       1.0  0.18098  0.26073  0.27075  1.0000
  H   H73       1.0  0.34904  0.19203  0.35449  1.0000
  C   C68       1.0  0.16982  0.19115  0.41430  1.0000
  C   C69       1.0  0.26850  0.34705  0.34949  1.0000
  C   C70       1.0  0.91793  0.33618  0.33127  1.0000
  C   C71       1.0  0.37558  0.17126  0.35218  1.0000
  C   C72       1.0  0.30725  0.57709  0.42117  1.0000
  H   H74       1.0  0.20646  0.24897  0.41614  1.0000
  S   S22       1.0  0.27745  0.22552  0.45271  1.0000
  C   C73       1.0  0.34993  0.41494  0.44868  1.0000
  H   H75       1.0  0.91712  0.43200  0.45103  1.0000
  H   H76       1.0  0.97908  0.48132  0.43203  1.0000
  C   C74       1.0  0.27404  0.32890  0.45461  1.0000
  C   C75       1.0  0.11062  0.34256  0.45417  1.0000
  S   S23       1.0  0.18768  0.63874  0.44985  1.0000
  C   C76       1.0  0.91100  0.62572  0.34987  1.0000
  H   H77       1.0  0.04853  0.45870  0.23141  1.0000
  H   H78       1.0  0.32053  0.27059  0.21201  1.0000
  C   C77       1.0  0.30494  0.23980  0.21074  1.0000
  H   H79       1.0  0.93899  0.35251  0.62872  1.0000
  Fe  Fe10      1.0  0.19398  0.51081  0.56939  1.0000
  H   H80       1.0  0.94363  0.24955  0.70992  1.0000
  C   C78       1.0  0.94571  0.63167  0.64515  1.0000
  N   N3        1.0  0.91104  0.41326  0.66915  1.0000
  C   C79       1.0  0.35528  0.42864  0.50959  1.0000
  H   H81       1.0  0.23423  0.34894  0.65255  1.0000
  Fe  Fe11      1.0  0.10020  0.53676  0.60823  1.0000
  H   H82       1.0  0.25280  0.45483  0.47498  1.0000
  H   H83       1.0  0.30386  0.54862  0.51087  1.0000
  C   C80       1.0  0.32397  0.55590  0.46164  1.0000
  C   C81       1.0  0.12731  0.20899  0.70603  1.0000
  H   H84       1.0  0.09243  0.24637  0.58782  1.0000
  S   S24       1.0  0.33844  0.24726  0.57715  1.0000
  Fe  Fe12      1.0  0.16654  0.57554  0.49241  1.0000
  C   C82       1.0  0.96564  0.46096  0.59204  1.0000
  Fe  Fe13      1.0  0.28589  0.21382  0.54891  1.0000
  H   H85       1.0  0.18507  0.38489  0.47541  1.0000
  C   C83       1.0  0.91311  0.42271  0.55202  1.0000
  C   C84       1.0  0.24843  0.34639  0.59743  1.0000
  S   S25       1.0  0.24678  0.49204  0.60616  1.0000
  C   C85       1.0  0.10091  0.38566  0.46939  1.0000
  H   H86       1.0  0.38332  0.42054  0.51996  1.0000
  H   H87       1.0  0.33960  0.35104  0.60866  1.0000
  H   H88       1.0  0.04401  0.59220  0.57707  1.0000
  H   H89       1.0  0.99238  0.63347  0.54841  1.0000
  H   H90       1.0  0.16547  0.30491  0.55152  1.0000
  C   C86       1.0  0.35939  0.35239  0.64017  1.0000
  C   C87       1.0  0.06607  0.39763  0.52414  1.0000
  C   C88       1.0  0.08356  0.27699  0.68501  1.0000
  C   C89       1.0  0.96556  0.46778  0.47966  1.0000
  H   H91       1.0  0.96041  0.20051  0.66165  1.0000
  S   S26       1.0  0.23650  0.23118  0.64586  1.0000
  C   C90       1.0  0.32362  0.45223  0.55806  1.0000
  H   H92       1.0  0.21156  0.27793  0.55054  1.0000
  C   C91       1.0  0.28656  0.46243  0.54560  1.0000
  S   S27       1.0  0.10463  0.54163  0.50158  1.0000
  H   H93       1.0  0.37742  0.52638  0.47155  1.0000
  Fe  Fe14      1.0  0.29037  0.25890  0.67718  1.0000
  S   S28       1.0  0.16074  0.57306  0.59971  1.0000
  C   C92       1.0  0.09823  0.24497  0.63481  1.0000
  H   H94       1.0  0.14201  0.66217  0.64795  1.0000
  C   C93       1.0  0.23543  0.34918  0.49053  1.0000
  C   C94       1.0  0.93032  0.43220  0.60453  1.0000
  C   C95       1.0  0.37241  0.49855  0.69318  1.0000
  C   C96       1.0  0.12051  0.21127  0.64499  1.0000
  C   C97       1.0  0.98444  0.62170  0.59739  1.0000
  C   C98       1.0  0.03958  0.36637  0.56102  1.0000
  H   H95       1.0  0.17562  0.38140  0.65059  1.0000
  H   H96       1.0  0.09247  0.27834  0.47976  1.0000
  H   H97       1.0  0.98080  0.47053  0.62885  1.0000
  C   C99       1.0  0.34296  0.34048  0.70538  1.0000
  C   C100      1.0  0.90792  0.36623  0.65873  1.0000
  C   C101      1.0  0.98282  0.47835  0.53040  1.0000
  H   H98       1.0  0.29233  0.31331  0.47917  1.0000
  C   C102      1.0  0.04791  0.32317  0.54349  1.0000
  Fe  Fe15      1.0  0.25220  0.16935  0.67654  1.0000
  H   H99       1.0  0.06649  0.30344  0.67673  1.0000
  Fe  Fe16      1.0  0.34744  0.18485  0.61258  1.0000
  H   H100      1.0  0.06662  0.65210  0.70449  1.0000
  C   C103      1.0  0.00385  0.58181  0.67573  1.0000
  H   H101      1.0  0.09766  0.63651  0.50900  1.0000
  Fe  Fe17      1.0  0.01467  0.22372  0.52092  1.0000
  S   S29       1.0  0.04070  0.55100  0.69463  1.0000
  S   S30       1.0  0.95586  0.19880  0.50049  1.0000
  H   H102      1.0  0.01212  0.37567  0.60206  1.0000
  Fe  Fe18      1.0  0.14112  0.48160  0.48183  1.0000
  H   H103      1.0  0.37243  0.51587  0.65122  1.0000
  H   H104      1.0  0.05888  0.43093  0.53697  1.0000
  H   H105      1.0  0.13244  0.18663  0.60548  1.0000
  H   H106      1.0  0.96808  0.41103  0.69581  1.0000
  H   H107      1.0  0.17674  0.30087  0.62797  1.0000
  H   H108      1.0  0.00980  0.50015  0.52208  1.0000
  C   C104      1.0  0.28163  0.44897  0.48456  1.0000
  N   N4        1.0  0.21598  0.34609  0.56318  1.0000
  C   C105      1.0  0.08434  0.31140  0.49142  1.0000
  H   H109      1.0  0.32753  0.46184  0.60551  1.0000
  H   H110      1.0  0.15723  0.37942  0.58174  1.0000
  S   S31       1.0  0.01178  0.28440  0.58522  1.0000
  H   H111      1.0  0.27105  0.37369  0.58346  1.0000
  C   C106      1.0  0.19133  0.30568  0.57410  1.0000
  S   S32       1.0  0.13275  0.47396  0.58886  1.0000
  C   C107      1.0  0.01366  0.59772  0.61321  1.0000
  H   H112      1.0  0.20262  0.41284  0.58231  1.0000
  H   H113      1.0  0.26674  0.31664  0.58629  1.0000
  C   C108      1.0  0.18677  0.38152  0.59537  1.0000
  C   C109      1.0  0.93074  0.44004  0.49045  1.0000
  C   C110      1.0  0.93585  0.61685  0.70877  1.0000
  S   S33       1.0  0.91033  0.66235  0.62336  1.0000
  S   S34       1.0  0.20379  0.51597  0.46117  1.0000
  H   H114      1.0  0.99102  0.17378  0.92716  1.0000
  H   H115      1.0  0.26218  0.51570  0.85047  1.0000
  C   C111      1.0  0.12568  0.54639  0.88429  1.0000
  N   N5        1.0  0.29349  0.45749  0.85149  1.0000
  C   C112      1.0  0.37244  0.45232  0.79949  1.0000
  N   N6        1.0  0.13803  0.55503  0.81316  1.0000
  H   H116      1.0  0.07417  0.55340  0.80861  1.0000
  C   C113      1.0  0.16820  0.38108  0.86962  1.0000
  H   H117      1.0  0.01715  0.62326  0.79836  1.0000
  H   H118      1.0  0.18254  0.21488  0.78008  1.0000
  C   C114      1.0  0.95874  0.18412  0.94026  1.0000
  H   H119      1.0  0.30775  0.50208  0.92248  1.0000
  C   C115      1.0  0.14512  0.51352  0.77329  1.0000
  C   C116      1.0  0.29786  0.46821  0.91800  1.0000
  C   C117      1.0  0.33436  0.49103  0.74359  1.0000
  N   N7        1.0  0.11836  0.23650  0.82393  1.0000
  H   H120      1.0  0.11549  0.49384  0.78261  1.0000
  H   H121      1.0  0.10926  0.30194  0.86325  1.0000
  H   H122      1.0  0.07829  0.30107  0.78251  1.0000
  C   C118      1.0  0.16418  0.24006  0.81559  1.0000
  H   H123      1.0  0.06182  0.26906  0.88337  1.0000
  H   H124      1.0  0.90580  0.62436  0.74586  1.0000
  H   H125      1.0  0.17067  0.23627  0.86284  1.0000
  C   C119      1.0  0.25634  0.48066  0.84855  1.0000
  H   H126      1.0  0.12028  0.16757  0.81762  1.0000
  S   S35       1.0  0.08175  0.39324  0.77685  1.0000
  S   S36       1.0  0.01194  0.37837  0.95535  1.0000
  C   C120      1.0  0.93520  0.42281  0.71637  1.0000
  H   H127      1.0  0.39644  0.35872  0.94467  1.0000
  H   H128      1.0  0.24794  0.47047  0.80313  1.0000
  H   H129      1.0  0.25475  0.40192  0.88405  1.0000
  H   H130      1.0  0.95671  0.57900  0.77228  1.0000
  H   H131      1.0  0.94028  0.57745  0.92899  1.0000
  C   C121      1.0  0.00612  0.64669  0.84170  1.0000
  C   C122      1.0  0.36887  0.34246  0.74588  1.0000
  C   C123      1.0  0.15486  0.41132  0.92348  1.0000
  H   H132      1.0  0.22758  0.47436  0.89132  1.0000
  H   H133      1.0  0.28225  0.58677  0.71199  1.0000
  C   C124      1.0  0.09639  0.26950  0.87586  1.0000
  H   H134      1.0  0.32130  0.44832  0.92862  1.0000
  H   H135      1.0  0.16815  0.49376  0.78533  1.0000
  Fe  Fe19      1.0  0.97421  0.31903  0.94997  1.0000
  H   H136      1.0  0.28019  0.40211  0.79613  1.0000
  H   H137      1.0  0.07270  0.45230  0.88825  1.0000
  H   H138      1.0  0.15780  0.35399  0.77979  1.0000
  C   C125      1.0  0.25152  0.59794  0.74318  1.0000
  H   H139      1.0  0.11838  0.57599  0.91728  1.0000
  C   C126      1.0  0.12182  0.43834  0.92828  1.0000
  H   H140      1.0  0.15664  0.51803  0.71904  1.0000
  H   H141      1.0  0.30971  0.39181  0.85013  1.0000
  H   H142      1.0  0.27456  0.66112  0.76038  1.0000
  C   C127      1.0  0.20786  0.65410  0.81079  1.0000
  C   C128      1.0  0.10016  0.43335  0.88188  1.0000
  H   H143      1.0  0.09997  0.26453  0.92488  1.0000
  H   H144      1.0  0.93633  0.45747  0.73049  1.0000
  C   C129      1.0  0.21644  0.57016  0.75642  1.0000
  H   H145      1.0  0.10472  0.19135  0.89969  1.0000
  H   H146      1.0  0.97119  0.64232  0.86313  1.0000
  H   H147      1.0  0.14324  0.63896  0.85833  1.0000
  S   S37       1.0  0.98175  0.32097  0.84194  1.0000
  H   H148      1.0  0.26758  0.46284  0.95855  1.0000
  Fe  Fe20      1.0  0.33641  0.58198  0.95450  1.0000
  H   H149      1.0  0.17784  0.27135  0.79726  1.0000
  C   C130      1.0  0.11185  0.24043  0.75902  1.0000
  H   H150      1.0  0.92040  0.40720  0.76353  1.0000
  S   S38       1.0  0.28555  0.59493  0.91212  1.0000
  H   H151      1.0  0.35738  0.18560  0.80774  1.0000
  H   H152      1.0  0.95533  0.20618  0.74859  1.0000
  C   C131      1.0  0.96467  0.59127  0.72367  1.0000
  H   H153      1.0  0.01990  0.63804  0.87992  1.0000
  H   H154      1.0  0.15161  0.53067  0.89557  1.0000
  H   H155      1.0  0.35634  0.33271  0.79619  1.0000
  H   H156      1.0  0.30615  0.50321  0.73777  1.0000
  H   H157      1.0  0.37454  0.23856  0.82061  1.0000
  Fe  Fe21      1.0  0.01675  0.38263  0.84860  1.0000
  H   H158      1.0  0.11121  0.58489  0.74894  1.0000
  H   H159      1.0  0.21002  0.64000  0.93497  1.0000
  H   H160      1.0  0.06832  0.18961  0.85278  1.0000
  C   C132      1.0  0.33330  0.46771  0.79866  1.0000
  C   C133      1.0  0.28419  0.41139  0.84516  1.0000
  H   H161      1.0  0.39072  0.21199  0.73802  1.0000
  S   S39       1.0  0.29075  0.32106  0.73442  1.0000
  H   H162      1.0  0.93368  0.50078  0.94948  1.0000
  H   H163      1.0  0.09697  0.52550  0.89920  1.0000
  C   C134      1.0  0.38506  0.20781  0.79162  1.0000
  C   C135      1.0  0.11305  0.40300  0.82839  1.0000
  C   C136      1.0  0.17569  0.58382  0.79706  1.0000
  C   C137      1.0  0.17265  0.62654  0.82467  1.0000
  H   H164      1.0  0.22212  0.53813  0.73427  1.0000
  C   C138      1.0  0.24723  0.63983  0.77020  1.0000
  H   H165      1.0  0.37413  0.43303  0.83831  1.0000
  C   C139      1.0  0.09040  0.27507  0.74612  1.0000
  C   C140      1.0  0.27947  0.17416  0.90957  1.0000
  C   C141      1.0  0.10217  0.57535  0.80095  1.0000
  C   C142      1.0  0.10215  0.19446  0.84943  1.0000
  C   C143      1.0  0.14794  0.37772  0.82096  1.0000
  H   H166      1.0  0.19391  0.36014  0.86556  1.0000
  H   H167      1.0  0.09087  0.60399  0.83466  1.0000
  S   S40       1.0  0.26710  0.22051  0.88056  1.0000
  S   S41       1.0  0.95908  0.42278  0.87285  1.0000
  Fe  Fe22      1.0  0.92340  0.36059  0.87507  1.0000
  H   H168      1.0  0.14488  0.18231  0.71133  1.0000
  H   H169      1.0  0.38541  0.16518  0.89408  1.0000
  S   S42       1.0  0.30295  0.19841  0.71473  1.0000
  C   C144      1.0  0.29835  0.17656  0.95955  1.0000
  C   C145      1.0  0.94072  0.21435  0.71104  1.0000
  C   C146      1.0  0.31009  0.13925  0.98024  1.0000
  H   H170      1.0  0.96286  0.84496  0.11432  1.0000
  S   S43       1.0  0.31603  0.05289  0.97857  1.0000
  H   H171      1.0  0.35128  0.00480  0.18733  1.0000
  Fe  Fe23      1.0  0.15973  0.99489  0.17134  1.0000
  C   C147      1.0  0.11661  0.93168  0.97407  1.0000
  Fe  Fe24      1.0  0.99602  0.66712  0.06038  1.0000
  C   C148      1.0  0.06307  0.88353  0.04196  1.0000
  C   C149      1.0  0.23206  0.79931  0.00993  1.0000
  C   C150      1.0  0.18449  0.67119  0.15018  1.0000
  C   C151      1.0  0.39193  0.79470  0.04717  1.0000
  C   C152      1.0  0.92074  0.13897  0.09085  1.0000
  C   C153      1.0  0.92853  0.86833  0.96819  1.0000
  C   C154      1.0  0.10078  0.14982  0.17559  1.0000
  C   C155      1.0  0.11327  0.10706  0.16693  1.0000
  C   C156      1.0  0.26048  0.66817  0.11705  1.0000
  H   H172      1.0  0.27412  0.92333  0.02300  1.0000
  H   H173      1.0  0.26601  0.80337  0.99020  1.0000
  H   H174      1.0  0.32613  0.87803  0.16421  1.0000
  N   N8        1.0  0.02438  0.87530  0.09811  1.0000
  H   H175      1.0  0.97402  0.90735  0.17523  1.0000
  H   H176      1.0  0.02442  0.93340  0.15814  1.0000
  C   C157      1.0  0.37972  0.68118  0.16403  1.0000
  C   C158      1.0  0.99289  0.11618  0.18029  1.0000
  H   H177      1.0  0.04703  0.81835  0.12465  1.0000
  H   H178      1.0  0.11080  0.78246  0.08204  1.0000
  H   H179      1.0  0.22394  0.94574  0.03207  1.0000
  H   H180      1.0  0.99431  0.93501  0.10117  1.0000
  C   C159      1.0  0.34710  0.89448  0.18812  1.0000
  H   H181      1.0  0.18565  0.15028  0.19397  1.0000
  H   H182      1.0  0.15419  0.67215  0.19209  1.0000
  H   H183      1.0  0.07442  0.81661  0.00741  1.0000
  Fe  Fe25      1.0  0.19415  0.90665  0.17487  1.0000
  H   H184      1.0  0.28875  0.66779  0.13381  1.0000
  C   C160      1.0  0.91147  0.05042  0.08617  1.0000
  H   H185      1.0  0.23383  0.06490  0.14153  1.0000
  C   C161      1.0  0.99282  0.85094  0.07350  1.0000
  C   C162      1.0  0.16375  0.12116  0.05994  1.0000
  H   H186      1.0  0.02501  0.13917  0.01803  1.0000
  H   H187      1.0  0.90776  0.01600  0.08452  1.0000
  N   N9        1.0  0.98841  0.13453  0.12075  1.0000
  S   S44       1.0  0.22139  0.97264  0.17656  1.0000
  C   C163      1.0  0.26284  0.15979  0.20758  1.0000
  H   H188      1.0  0.00612  0.08378  0.16896  1.0000
  H   H189      1.0  0.14832  0.83024  0.14373  1.0000
  H   H190      1.0  0.27191  0.97777  0.01064  1.0000
  Fe  Fe26      1.0  0.08423  0.70707  0.02557  1.0000
  N   N10       1.0  0.22094  0.66757  0.17449  1.0000
  H   H191      1.0  0.00733  0.84501  0.19046  1.0000
  C   C164      1.0  0.38994  0.72301  0.18123  1.0000
  H   H192      1.0  0.28403  0.09225  0.11885  1.0000
  H   H193      1.0  0.18659  0.70015  0.12253  1.0000
  C   C165      1.0  0.08049  0.92512  0.02835  1.0000
  C   C166      1.0  0.03524  0.85031  0.14622  1.0000
  C   C167      1.0  0.24937  0.09688  0.14040  1.0000
  H   H194      1.0  0.32521  0.76483  0.02554  1.0000
  C   C168      1.0  0.02716  0.12578  0.06365  1.0000
  S   S45       1.0  0.23663  0.85547  0.11136  1.0000
  C   C169      1.0  0.14485  0.09273  0.10882  1.0000
  C   C170      1.0  0.95145  0.11480  0.10487  1.0000
  H   H195      1.0  0.38747  0.92021  0.09825  1.0000
  C   C171      1.0  0.20957  0.82061  0.07028  1.0000
  C   C172      1.0  0.25811  0.94609  0.00199  1.0000
  H   H196      1.0  0.26340  0.69664  0.08836  1.0000
  H   H197      1.0  0.05994  0.86696  0.16426  1.0000
  C   C173      1.0  0.16668  0.76858  0.99904  1.0000
  S   S46       1.0  0.13451  0.92843  0.16170  1.0000
  S   S47       1.0  0.09315  0.68917  0.11917  1.0000
  H   H198      1.0  0.01473  0.13533  0.20156  1.0000
  H   H199      1.0  0.37045  0.81885  0.04077  1.0000
  H   H200      1.0  0.98507  0.86863  0.03598  1.0000
  S   S48       1.0  0.01981  0.73321  0.07632  1.0000
  H   H201      1.0  0.96835  0.04927  0.11022  1.0000
  H   H202      1.0  0.06676  0.95321  0.05849  1.0000
  H   H203      1.0  0.23846  0.11337  0.10481  1.0000
  H   H204      1.0  0.22879  0.75294  0.15259  1.0000
  C   C174      1.0  0.16578  0.81450  0.09646  1.0000
  H   H205      1.0  0.37311  0.77263  0.08456  1.0000
  C   C175      1.0  0.34142  0.74659  0.98003  1.0000
  Fe  Fe27      1.0  0.02692  0.70967  0.16884  1.0000
  H   H206      1.0  0.22652  0.01390  0.98180  1.0000
  C   C176      1.0  0.21049  0.77441  0.97329  1.0000
  Fe  Fe28      1.0  0.37104  0.06588  0.01572  1.0000
  H   H207      1.0  0.92530  0.89483  0.00478  1.0000
  H   H208      1.0  0.18865  0.11062  0.01538  1.0000
  C   C177      1.0  0.08493  0.84921  0.99934  1.0000
  H   H209      1.0  0.32529  0.14128  0.01800  1.0000
  C   C178      1.0  0.14451  0.78762  0.06150  1.0000
  H   H210      1.0  0.03272  0.09107  0.05223  1.0000
  H   H211      1.0  0.12911  0.96365  0.96415  1.0000
  S   S49       1.0  0.37518  0.11525  0.09515  1.0000
  C   C179      1.0  0.94601  0.06986  0.10118  1.0000
  S   S50       1.0  0.16094  0.03951  0.09349  1.0000
  C   C180      1.0  0.00355  0.91465  0.13449  1.0000
  H   H212      1.0  0.00417  0.81937  0.04942  1.0000
  C   C181      1.0  0.38160  0.91813  0.15093  1.0000
  C   C182      1.0  0.22578  0.74626  0.20294  1.0000
  N   N11       1.0  0.23820  0.11960  0.20744  1.0000
  H   H213      1.0  0.05583  0.14010  0.07355  1.0000
  H   H214      1.0  0.09860  0.08532  0.20505  1.0000
  H   H215      1.0  0.28175  0.72221  0.97139  1.0000
  C   C183      1.0  0.24488  0.08963  0.25342  1.0000
  H   H216      1.0  0.07403  0.79143  0.30978  1.0000
  H   H217      1.0  0.01494  0.82836  0.37269  1.0000
  C   C184      1.0  0.33113  0.72283  0.28340  1.0000
  H   H218      1.0  0.96202  0.11441  0.22067  1.0000
  C   C185      1.0  0.28873  0.04327  0.36803  1.0000
  C   C186      1.0  0.04320  0.02168  0.43959  1.0000
  H   H219      1.0  0.98896  0.69157  0.37222  1.0000
  H   H220      1.0  0.94199  0.84010  0.43798  1.0000
  Fe  Fe29      1.0  0.10943  0.93456  0.27298  1.0000
  H   H221      1.0  0.37800  0.14537  0.31264  1.0000
  C   C187      1.0  0.22307  0.77466  0.31301  1.0000
  C   C188      1.0  0.32096  0.68088  0.26647  1.0000
  H   H222      1.0  0.90513  0.93152  0.31306  1.0000
  H   H223      1.0  0.31249  0.73880  0.32977  1.0000
  H   H224      1.0  0.10788  0.96719  0.41717  1.0000
  H   H225      1.0  0.26207  0.16076  0.31083  1.0000
  C   C189      1.0  0.00720  0.94023  0.31145  1.0000
  H   H226      1.0  0.18304  0.14732  0.27892  1.0000
  C   C190      1.0  0.22119  0.70387  0.22290  1.0000
  Fe  Fe30      1.0  0.06766  0.15164  0.43378  1.0000
  C   C191      1.0  0.93670  0.94469  0.30388  1.0000
  H   H227      1.0  0.31964  0.88117  0.44855  1.0000
  S   S51       1.0  0.38070  0.79468  0.26506  1.0000
  H   H228      1.0  0.21243  0.66779  0.31092  1.0000
  C   C192      1.0  0.95869  0.76578  0.27450  1.0000
  H   H229      1.0  0.08682  0.84017  0.34999  1.0000
  H   H230      1.0  0.17260  0.10057  0.23315  1.0000
  C   C193      1.0  0.29361  0.99893  0.26813  1.0000
  S   S52       1.0  0.01118  0.75287  0.26133  1.0000
  N   N12       1.0  0.35879  0.91145  0.36138  1.0000
  H   H231      1.0  0.11879  0.73365  0.36712  1.0000
  C   C194      1.0  0.95733  0.67883  0.37877  1.0000
  C   C195      1.0  0.16727  0.14736  0.42206  1.0000
  H   H232      1.0  0.07700  0.16125  0.22097  1.0000
  H   H233      1.0  0.06517  0.72362  0.36773  1.0000
  H   H234      1.0  0.27918  0.08549  0.24476  1.0000
  C   C196      1.0  0.10150  0.80528  0.44970  1.0000
  H   H235      1.0  0.22482  0.80156  0.34699  1.0000
  C   C197      1.0  0.33419  0.01535  0.23781  1.0000
  C   C198      1.0  0.33019  0.05830  0.33859  1.0000
  S   S53       1.0  0.21763  0.99775  0.36654  1.0000
  C   C199      1.0  0.38159  0.68795  0.39594  1.0000
  C   C200      1.0  0.21633  0.69864  0.29065  1.0000
  S   S54       1.0  0.13083  0.00249  0.28177  1.0000
  C   C201      1.0  0.01908  0.97741  0.27783  1.0000
  H   H236      1.0  0.12539  0.79986  0.31787  1.0000
  C   C202      1.0  0.36621  0.74356  0.24141  1.0000
  H   H237      1.0  0.23049  0.05769  0.24778  1.0000
  C   C203      1.0  0.00382  0.81508  0.42061  1.0000
  H   H238      1.0  0.07872  0.72314  0.44277  1.0000
  H   H239      1.0  0.31242  0.87260  0.28188  1.0000
  C   C204      1.0  0.19747  0.12805  0.44248  1.0000
  C   C205      1.0  0.21753  0.73361  0.33461  1.0000
  C   C206      1.0  0.94550  0.80783  0.29067  1.0000
  C   C207      1.0  0.03049  0.79183  0.44515  1.0000
  C   C208      1.0  0.32322  0.88259  0.39488  1.0000
  C   C209      1.0  0.10495  0.99449  0.45454  1.0000
  C   C210      1.0  0.36585  0.91350  0.28940  1.0000
  H   H240      1.0  0.32878  0.84934  0.37264  1.0000
  H   H241      1.0  0.39238  0.89169  0.42487  1.0000
  H   H242      1.0  0.94083  0.70185  0.25002  1.0000
  H   H243      1.0  0.29404  0.66478  0.29945  1.0000
  H   H244      1.0  0.31937  0.96625  0.39125  1.0000
  C   C211      1.0  0.96560  0.92475  0.32655  1.0000
  H   H245      1.0  0.34400  0.08145  0.36586  1.0000
  H   H246      1.0  0.35473  0.67766  0.38023  1.0000
  H   H247      1.0  0.22932  0.09991  0.30654  1.0000
  H   H248      1.0  0.96713  0.83183  0.30036  1.0000
  H   H249      1.0  0.29252  0.89342  0.39244  1.0000
  H   H250      1.0  0.28036  0.97485  0.24155  1.0000
  C   C212      1.0  0.35271  0.04474  0.27303  1.0000
  H   H251      1.0  0.37449  0.97827  0.37324  1.0000
  H   H252      1.0  0.39100  0.06933  0.42130  1.0000
  C   C213      1.0  0.27037  0.01378  0.33243  1.0000
  C   C214      1.0  0.98966  0.99842  0.25782  1.0000
  H   H253      1.0  0.95593  0.89688  0.35444  1.0000
  H   H254      1.0  0.99921  0.02671  0.23106  1.0000
  S   S55       1.0  0.12803  0.11623  0.40215  1.0000
  H   H255      1.0  0.05105  0.98969  0.26596  1.0000
  H   H256      1.0  0.23102  0.81301  0.23064  1.0000
  C   C215      1.0  0.94885  0.98136  0.26906  1.0000
  H   H257      1.0  0.03944  0.99576  0.40338  1.0000
  S   S56       1.0  0.91474  0.00369  0.23411  1.0000
  C   C216      1.0  0.19286  0.12989  0.22916  1.0000
  C   C217      1.0  0.93104  0.73446  0.26174  1.0000
  S   S57       1.0  0.16668  0.90676  0.28556  1.0000
  C   C218      1.0  0.09111  0.80512  0.34387  1.0000
  S   S58       1.0  0.01338  0.12280  0.40503  1.0000
  H   H258      1.0  0.21502  0.72850  0.38546  1.0000
  Fe  Fe31      1.0  0.19007  0.97424  0.28691  1.0000
  C   C219      1.0  0.08502  0.73955  0.39617  1.0000
  H   H259      1.0  0.92929  0.72936  0.44744  1.0000
  C   C220      1.0  0.34932  0.95449  0.39514  1.0000
  C   C221      1.0  0.22681  0.78101  0.24743  1.0000
  C   C222      1.0  0.33921  0.89202  0.25632  1.0000
  H   H260      1.0  0.06468  0.04643  0.41095  1.0000
  S   S59       1.0  0.04481  0.91167  0.33093  1.0000
  H   H261      1.0  0.27059  0.05521  0.41760  1.0000
  H   H262      1.0  0.12330  0.02191  0.42831  1.0000
  H   H263      1.0  0.13599  0.80063  0.42491  1.0000
  C   C223      1.0  0.90548  0.81906  0.28961  1.0000
  N   N13       1.0  0.07612  0.78568  0.40892  1.0000
  H   H264      1.0  0.19550  0.09410  0.44827  1.0000
  C   C224      1.0  0.23047  0.15251  0.45482  1.0000
  H   H265      1.0  0.34630  0.95476  0.44873  1.0000
  H   H266      1.0  0.36627  0.15566  0.39988  1.0000
  C   C225      1.0  0.92240  0.70058  0.42184  1.0000
  C   C226      1.0  0.96141  0.82195  0.45785  1.0000
  H   H267      1.0  0.09604  0.84012  0.45943  1.0000
  C   C227      1.0  0.39742  0.89601  0.37157  1.0000
  C   C228      1.0  0.37513  0.70698  0.45946  1.0000
  Fe  Fe32      1.0  0.97712  0.13437  0.51284  1.0000
  H   H268      1.0  0.04054  0.86814  0.56945  1.0000
  C   C229      1.0  0.19339  0.08041  0.63160  1.0000
  H   H269      1.0  0.18586  0.70875  0.69942  1.0000
  S   S60       1.0  0.03230  0.15994  0.54244  1.0000
  C   C230      1.0  0.25818  0.95818  0.56980  1.0000
  C   C231      1.0  0.10945  0.66636  0.52522  1.0000
  S   S61       1.0  0.13332  0.96963  0.60611  1.0000
  C   C232      1.0  0.96912  0.78163  0.54465  1.0000
  Fe  Fe33      1.0  0.11573  0.91853  0.67811  1.0000
  C   C233      1.0  0.05861  0.03921  0.54169  1.0000
  S   S62       1.0  0.93826  0.08153  0.56834  1.0000
  C   C234      1.0  0.01151  0.77469  0.50783  1.0000
  C   C235      1.0  0.13080  0.02728  0.70981  1.0000
  C   C236      1.0  0.27127  0.99957  0.55385  1.0000
  H   H270      1.0  0.28545  0.79739  0.55014  1.0000
  C   C237      1.0  0.17819  0.08868  0.70055  1.0000
  H   H271      1.0  0.28609  0.09093  0.68410  1.0000
  H   H272      1.0  0.15142  0.77384  0.58297  1.0000
  H   H273      1.0  0.38417  0.02905  0.61336  1.0000
  C   C238      1.0  0.05178  0.93048  0.53106  1.0000
  H   H274      1.0  0.12184  0.98707  0.48927  1.0000
  H   H275      1.0  0.04773  0.68796  0.58553  1.0000
  C   C239      1.0  0.03380  0.96826  0.52034  1.0000
  H   H276      1.0  0.91336  0.13338  0.69580  1.0000
  C   C240      1.0  0.29251  0.02435  0.59090  1.0000
  C   C241      1.0  0.94426  0.80576  0.52015  1.0000
  H   H277      1.0  0.92954  0.93874  0.59121  1.0000
  S   S63       1.0  0.29791  0.14990  0.57683  1.0000
  H   H278      1.0  0.21775  0.10058  0.60124  1.0000
  H   H279      1.0  0.20138  0.72243  0.50613  1.0000
  H   H280      1.0  0.25739  0.90858  0.63340  1.0000
  C   C242      1.0  0.36246  0.05429  0.64297  1.0000
  H   H281      1.0  0.02587  0.05053  0.56721  1.0000
  H   H282      1.0  0.07098  0.02793  0.58008  1.0000
  N   N14       1.0  0.05989  0.00501  0.48940  1.0000
  H   H283      1.0  0.37973  0.07363  0.67243  1.0000
  Fe  Fe34      1.0  0.08645  0.82592  0.68808  1.0000
  H   H284      1.0  0.96276  0.87322  0.60645  1.0000
  H   H285      1.0  0.91663  0.11602  0.46220  1.0000
  C   C243      1.0  0.96371  0.93627  0.57397  1.0000
  H   H286      1.0  0.07840  0.06731  0.52064  1.0000
  H   H287      1.0  0.08556  0.92678  0.51754  1.0000
  C   C244      1.0  0.12773  0.67777  0.69678  1.0000
  H   H288      1.0  0.29554  0.94966  0.69743  1.0000
  H   H289      1.0  0.92037  0.94733  0.47015  1.0000
  H   H290      1.0  0.01223  0.03731  0.46243  1.0000
  H   H291      1.0  0.25408  0.13738  0.46977  1.0000
  C   C245      1.0  0.02622  0.89656  0.56128  1.0000
  C   C246      1.0  0.98234  0.89940  0.58244  1.0000
  C   C247      1.0  0.26758  0.94089  0.62140  1.0000
  S   S64       1.0  0.37177  0.82499  0.52830  1.0000
  H   H292      1.0  0.97295  0.99861  0.54035  1.0000
  H   H293      1.0  0.36026  0.86154  0.66034  1.0000
  C   C248      1.0  0.17757  0.04507  0.60195  1.0000
  C   C249      1.0  0.98894  0.97036  0.54408  1.0000
  C   C250      1.0  0.09623  0.73427  0.58937  1.0000
  C   C251      1.0  0.08124  0.69550  0.56828  1.0000
  H   H294      1.0  0.95574  0.76839  0.59272  1.0000
  C   C252      1.0  0.25151  0.81790  0.65178  1.0000
  C   C253      1.0  0.16781  0.71511  0.52270  1.0000
  H   H295      1.0  0.91168  0.81186  0.54966  1.0000
  C   C254      1.0  0.28934  0.96519  0.65829  1.0000
  S   S65       1.0  0.05964  0.77062  0.64094  1.0000
  H   H296      1.0  0.18964  0.03819  0.54871  1.0000
  C   C255      1.0  0.32691  0.82928  0.59874  1.0000
  H   H297      1.0  0.24014  0.93972  0.54269  1.0000
  C   C256      1.0  0.15270  0.67613  0.50216  1.0000
  H   H298      1.0  0.37794  0.13504  0.49658  1.0000
  C   C257      1.0  0.13959  0.74407  0.56671  1.0000
  H   H299      1.0  0.22130  0.80559  0.64932  1.0000
  H   H300      1.0  0.35724  0.07593  0.60802  1.0000
  C   C258      1.0  0.28780  0.81306  0.59586  1.0000
  H   H301      1.0  0.34320  0.71182  0.49290  1.0000
  H   H302      1.0  0.09349  0.79157  0.49872  1.0000
  H   H303      1.0  0.30067  0.05668  0.57782  1.0000
  C   C259      1.0  0.33002  0.84926  0.65787  1.0000
  S   S66       1.0  0.15023  0.85710  0.64780  1.0000
  H   H304      1.0  0.26365  0.01294  0.51383  1.0000
  C   C260      1.0  0.30182  0.00815  0.64488  1.0000
  C   C261      1.0  0.14782  0.01737  0.64157  1.0000
  N   N15       1.0  0.32219  0.03594  0.68574  1.0000
  H   H305      1.0  0.02946  0.75609  0.52940  1.0000
  C   C262      1.0  0.14529  0.06348  0.73895  1.0000
  H   H306      1.0  0.00318  0.67969  0.73108  1.0000
  C   C263      1.0  0.00125  0.71950  0.88453  1.0000
  C   C264      1.0  0.92869  0.15845  0.92131  1.0000
  C   C265      1.0  0.12090  0.85618  0.94511  1.0000
  H   H307      1.0  0.32954  0.92140  0.91281  1.0000
  C   C266      1.0  0.15245  0.70413  0.72554  1.0000
  C   C267      1.0  0.27222  0.13456  0.88048  1.0000
  C   C268      1.0  0.21174  0.97702  0.81341  1.0000
  H   H308      1.0  0.20780  0.96780  0.76559  1.0000
  H   H309      1.0  0.90546  0.99984  0.71530  1.0000
  C   C269      1.0  0.30216  0.09958  0.95199  1.0000
  H   H310      1.0  0.93846  0.77523  0.83499  1.0000
  C   C270      1.0  0.29368  0.07132  0.71962  1.0000
  H   H311      1.0  0.26291  0.05933  0.75281  1.0000
  C   C271      1.0  0.92394  0.92832  0.74980  1.0000
  H   H312      1.0  0.96088  0.70066  0.79908  1.0000
  H   H313      1.0  0.96609  0.71706  0.90584  1.0000
  C   C272      1.0  0.99591  0.70184  0.77626  1.0000
  H   H314      1.0  0.01353  0.71109  0.92459  1.0000
  C   C273      1.0  0.08437  0.67271  0.72939  1.0000
  C   C274      1.0  0.91185  0.95717  0.86195  1.0000
  C   C275      1.0  0.31587  0.72243  0.94933  1.0000
  H   H315      1.0  0.00520  0.73445  0.75940  1.0000
  H   H316      1.0  0.13683  0.82950  0.91264  1.0000
  H   H317      1.0  0.93070  0.98668  0.84599  1.0000
  C   C276      1.0  0.09078  0.71976  0.82114  1.0000
  S   S67       1.0  0.20107  0.12843  0.74106  1.0000
  H   H318      1.0  0.07885  0.73689  0.86910  1.0000
  S   S68       1.0  0.13980  0.73718  0.95345  1.0000
  C   C277      1.0  0.28347  0.09727  0.90180  1.0000
  H   H319      1.0  0.99544  0.82992  0.81963  1.0000
  C   C278      1.0  0.23483  0.95170  0.83985  1.0000
  H   H320      1.0  0.21682  0.88485  0.95223  1.0000
  C   C279      1.0  0.13411  0.72469  0.78786  1.0000
  H   H321      1.0  0.13174  0.07127  0.79171  1.0000
  S   S69       1.0  0.09004  0.82395  0.79096  1.0000
  H   H322      1.0  0.30808  0.09336  0.75009  1.0000
  H   H323      1.0  0.94255  0.90094  0.75461  1.0000
  H   H324      1.0  0.93757  0.12794  0.89441  1.0000
  H   H325      1.0  0.34933  0.03466  0.76516  1.0000
  C   C280      1.0  0.33396  0.69794  0.89046  1.0000
  C   C281      1.0  0.33201  0.01359  0.73765  1.0000
  H   H326      1.0  0.20463  0.68648  0.83306  1.0000
  C   C282      1.0  0.13634  0.89735  0.93217  1.0000
  S   S70       1.0  0.20936  0.84663  0.78018  1.0000
  H   H327      1.0  0.31646  0.92942  0.83933  1.0000
  H   H328      1.0  0.18528  0.05588  0.93589  1.0000
  H   H329      1.0  0.29695  0.86789  0.75981  1.0000
  N   N16       1.0  0.01779  0.69097  0.82336  1.0000
  C   C283      1.0  0.96791  0.83211  0.86356  1.0000
  C   C284      1.0  0.19356  0.01417  0.84845  1.0000
  H   H330      1.0  0.31397  0.67893  0.86745  1.0000
  H   H331      1.0  0.25732  0.13288  0.84211  1.0000
  H   H332      1.0  0.39178  0.67726  0.81700  1.0000
  H   H333      1.0  0.91001  0.14837  0.78025  1.0000
  C   C285      1.0  0.93546  0.80124  0.87200  1.0000
  H   H334      1.0  0.94778  0.95423  0.73275  1.0000
  H   H335      1.0  0.24900  0.92379  0.81005  1.0000
  Fe  Fe35      1.0  0.05971  0.88761  0.81035  1.0000
  C   C286      1.0  0.96468  0.86547  0.91204  1.0000
  C   C287      1.0  0.37775  0.69718  0.86198  1.0000
  H   H336      1.0  0.30283  0.00259  0.77556  1.0000
  C   C288      1.0  0.90005  0.80325  0.92922  1.0000
  Fe  Fe36      1.0  0.15163  0.85958  0.75245  1.0000
  H   H337      1.0  0.15346  0.74530  0.81021  1.0000
  N   N17       1.0  0.26398  0.93520  0.93048  1.0000
  H   H338      1.0  0.25698  0.87663  0.87317  1.0000
  C   C289      1.0  0.29406  0.85289  0.71424  1.0000
  S   S71       1.0  0.12163  0.92361  0.78022  1.0000
  H   H339      1.0  0.10641  0.00707  0.74015  1.0000
  H   H340      1.0  0.26905  0.86940  0.94614  1.0000
  H   H341      1.0  0.35259  0.98590  0.71545  1.0000
  C   C290      1.0  0.06424  0.69466  0.79176  1.0000
  H   H342      1.0  0.17599  0.03392  0.82802  1.0000
  H   H343      1.0  0.00944  0.75344  0.87431  1.0000
  H   H344      1.0  0.16362  0.90257  0.88937  1.0000
  C   C291      1.0  0.22198  0.00144  0.93598  1.0000
  H   H345      1.0  0.22771  0.75946  0.92520  1.0000
  H   H346      1.0  0.27831  0.06676  0.87871  1.0000
  H   H347      1.0  0.32015  0.97401  0.89511  1.0000
  C   C292      1.0  0.30949  0.94008  0.89267  1.0000
  C   C293      1.0  0.23947  0.96239  0.90312  1.0000
  S   S72       1.0  0.00562  0.90363  0.90294  1.0000
  C   C294      1.0  0.19877  0.02644  0.90937  1.0000
  C   C295      1.0  0.25108  0.88977  0.92494  1.0000
  H   H348      1.0  0.93365  0.93350  0.86848  1.0000
  H   H349      1.0  0.90942  0.91866  0.71052  1.0000
  C   C296      1.0  0.38633  0.74645  0.95224  1.0000
  C   C297      1.0  0.25459  0.83808  0.71091  1.0000
  S   S73       1.0  0.05158  0.88725  0.71012  1.0000
  C   C298      1.0  0.41793  0.23597  0.17460  1.0000
  H   H350      1.0  0.71272  0.35985  0.05528  1.0000
  Fe  Fe37      1.0  0.78535  0.16583  0.96951  1.0000
  S   S74       1.0  0.76554  0.17387  0.08067  1.0000
  C   C299      1.0  0.49457  0.43343  0.15449  1.0000
  C   C300      1.0  0.83109  0.62076  0.97902  1.0000
  C   C301      1.0  0.55363  0.18555  0.17600  1.0000
  S   S75       1.0  0.71594  0.28949  0.13003  1.0000
  S   S76       1.0  0.45964  0.20005  0.01394  1.0000
  H   H351      1.0  0.40073  0.23117  0.13916  1.0000
  C   C302      1.0  0.68168  0.34480  0.07114  1.0000
  C   C303      1.0  0.42061  0.48163  0.15570  1.0000
  S   S77       1.0  0.66900  0.18618  0.07721  1.0000
  C   C304      1.0  0.82115  0.34971  0.10042  1.0000
  C   C305      1.0  0.57238  0.62610  0.96311  1.0000
  H   H352      1.0  0.47270  0.62029  0.15774  1.0000
  H   H353      1.0  0.48287  0.37411  0.06463  1.0000
  H   H354      1.0  0.55609  0.21687  0.15750  1.0000
  H   H355      1.0  0.65710  0.47022  0.18515  1.0000
  H   H356      1.0  0.84229  0.41456  0.10974  1.0000
  C   C306      1.0  0.54030  0.21353  0.01823  1.0000
  C   C307      1.0  0.69506  0.65153  0.98021  1.0000
  H   H357      1.0  0.74275  0.57023  0.07229  1.0000
  N   N18       1.0  0.45386  0.41178  0.15601  1.0000
  H   H358      1.0  0.46349  0.27889  0.11485  1.0000
  S   S78       1.0  0.61113  0.46372  0.06702  1.0000
  H   H359      1.0  0.81320  0.35391  0.05577  1.0000
  H   H360      1.0  0.42650  0.37957  0.08647  1.0000
  H   H361      1.0  0.44720  0.49035  0.11382  1.0000
  H   H362      1.0  0.60420  0.22091  0.02141  1.0000
  C   C308      1.0  0.51424  0.19454  0.98363  1.0000
  H   H363      1.0  0.83384  0.54271  0.11199  1.0000
  H   H364      1.0  0.87861  0.23824  0.14793  1.0000
  C   C309      1.0  0.84450  0.22869  0.16318  1.0000
  C   C310      1.0  0.50353  0.62312  0.16446  1.0000
  H   H365      1.0  0.83411  0.65235  0.19423  1.0000
  C   C311      1.0  0.87541  0.21146  0.97249  1.0000
  S   S79       1.0  0.57204  0.35298  0.03255  1.0000
  C   C312      1.0  0.82595  0.30304  0.18462  1.0000
  H   H366      1.0  0.80445  0.28400  0.09992  1.0000
  C   C313      1.0  0.76831  0.59376  0.05928  1.0000
  S   S80       1.0  0.73372  0.49648  0.97463  1.0000
  C   C314      1.0  0.61050  0.33718  0.06489  1.0000
  C   C315      1.0  0.45630  0.39643  0.08735  1.0000
  C   C316      1.0  0.77151  0.62642  0.10583  1.0000
  H   H367      1.0  0.84097  0.19672  0.18332  1.0000
  H   H368      1.0  0.46139  0.42296  0.05387  1.0000
  H   H369      1.0  0.57284  0.28596  0.11619  1.0000
  C   C317      1.0  0.64963  0.35864  0.04920  1.0000
  Fe  Fe38      1.0  0.57322  0.50822  0.03319  1.0000
  C   C318      1.0  0.60289  0.30269  0.10461  1.0000
  Fe  Fe39      1.0  0.72631  0.22721  0.07070  1.0000
  H   H370      1.0  0.56989  0.60985  0.00872  1.0000
  C   C319      1.0  0.83452  0.65364  0.02503  1.0000
  H   H371      1.0  0.49291  0.44896  0.20392  1.0000
  C   C320      1.0  0.58389  0.20610  0.99510  1.0000
  H   H372      1.0  0.73178  0.38060  0.15502  1.0000
  H   H373      1.0  0.84339  0.22240  0.98426  1.0000
  Fe  Fe40      1.0  0.66640  0.48148  0.97959  1.0000
  C   C321      1.0  0.79808  0.59094  0.99610  1.0000
  Fe  Fe41      1.0  0.69578  0.17930  0.96681  1.0000
  H   H374      1.0  0.74723  0.62753  0.15388  1.0000
  H   H375      1.0  0.64374  0.41504  0.19681  1.0000
  S   S81       1.0  0.51823  0.54566  0.09874  1.0000
  H   H376      1.0  0.65593  0.38484  0.01781  1.0000
  H   H377      1.0  0.52695  0.23355  0.06294  1.0000
  C   C322      1.0  0.84806  0.37831  0.18748  1.0000
  C   C323      1.0  0.78057  0.52980  0.19768  1.0000
  H   H378      1.0  0.59421  0.56790  0.13167  1.0000
  C   C324      1.0  0.67416  0.31024  0.11067  1.0000
  C   C325      1.0  0.73731  0.46612  0.18763  1.0000
  H   H379      1.0  0.52133  0.41089  0.13964  1.0000
  S   S82       1.0  0.55453  0.45979  0.96503  1.0000
  H   H380      1.0  0.50410  0.45798  0.11770  1.0000
  C   C326      1.0  0.80497  0.65725  0.09033  1.0000
  S   S83       1.0  0.42809  0.56585  0.02430  1.0000
  Fe  Fe42      1.0  0.59536  0.41630  0.99420  1.0000
  H   H381      1.0  0.62879  0.26283  0.15908  1.0000
  H   H382      1.0  0.61401  0.63356  0.18816  1.0000
  C   C327      1.0  0.81630  0.30969  0.12608  1.0000
  C   C328      1.0  0.83727  0.38389  0.13086  1.0000
  C   C329      1.0  0.57206  0.59359  0.14964  1.0000
  C   C330      1.0  0.63462  0.28947  0.12819  1.0000
  H   H383      1.0  0.68517  0.43019  0.12452  1.0000
  H   H384      1.0  0.83536  0.22482  0.11733  1.0000
  C   C331      1.0  0.45332  0.26297  0.16088  1.0000
  C   C332      1.0  0.53238  0.59024  0.14065  1.0000
  C   C333      1.0  0.41848  0.44170  0.18298  1.0000
  C   C334      1.0  0.79906  0.48659  0.09473  1.0000
  H   H385      1.0  0.50435  0.28861  0.19413  1.0000
  H   H386      1.0  0.76369  0.24271  0.18282  1.0000
  C   C335      1.0  0.67071  0.43791  0.17869  1.0000
  H   H387      1.0  0.47756  0.35374  0.17586  1.0000
  C   C336      1.0  0.47628  0.26829  0.20520  1.0000
  C   C337      1.0  0.76438  0.45949  0.12105  1.0000
  C   C338      1.0  0.58311  0.63050  0.18182  1.0000
  C   C339      1.0  0.44927  0.37408  0.19544  1.0000
  H   H388      1.0  0.75900  0.43325  0.08870  1.0000
  H   H389      1.0  0.82007  0.48023  0.04458  1.0000
  C   C340      1.0  0.80712  0.52165  0.13290  1.0000
  H   H390      1.0  0.42155  0.35368  0.19370  1.0000
  C   C341      1.0  0.51484  0.66009  0.19571  1.0000
  H   H391      1.0  0.50204  0.16513  0.14071  1.0000
  C   C342      1.0  0.71739  0.39217  0.20768  1.0000
  H   H392      1.0  0.89645  0.26779  0.01697  1.0000
  C   C343      1.0  0.58098  0.17451  0.20909  1.0000
  H   H393      1.0  0.79551  0.56554  0.96034  1.0000
  C   C344      1.0  0.75751  0.49492  0.39901  1.0000
  S   S84       1.0  0.89107  0.38377  0.34004  1.0000
  H   H394      1.0  0.78689  0.55728  0.22708  1.0000
  C   C345      1.0  0.63194  0.29038  0.35862  1.0000
  H   H395      1.0  0.42504  0.48063  0.39976  1.0000
  H   H396      1.0  0.46346  0.58879  0.28358  1.0000
  H   H397      1.0  0.53879  0.48768  0.44964  1.0000
  C   C346      1.0  0.77317  0.24845  0.22799  1.0000
  Fe  Fe43      1.0  0.75185  0.30674  0.43944  1.0000
  C   C347      1.0  0.44973  0.16603  0.33605  1.0000
  H   H398      1.0  0.42480  0.47742  0.31615  1.0000
  C   C348      1.0  0.46367  0.24701  0.26362  1.0000
  Fe  Fe44      1.0  0.53460  0.41554  0.37523  1.0000
  Fe  Fe45      1.0  0.52811  0.31992  0.38265  1.0000
  S   S85       1.0  0.72900  0.24365  0.40550  1.0000
  H   H399      1.0  0.39933  0.21039  0.44657  1.0000
  H   H400      1.0  0.69990  0.44409  0.31723  1.0000
  C   C349      1.0  0.44074  0.49328  0.35040  1.0000
  S   S86       1.0  0.50791  0.36403  0.32168  1.0000
  C   C350      1.0  0.75438  0.56758  0.37180  1.0000
  C   C351      1.0  0.60912  0.25361  0.34881  1.0000
  H   H401      1.0  0.45471  0.59499  0.40636  1.0000
  C   C352      1.0  0.68418  0.24771  0.38038  1.0000
  C   C353      1.0  0.85796  0.18891  0.37374  1.0000
  C   C354      1.0  0.58787  0.58888  0.36028  1.0000
  H   H402      1.0  0.81230  0.53418  0.35423  1.0000
  H   H403      1.0  0.65539  0.52577  0.43899  1.0000
  H   H404      1.0  0.69146  0.59116  0.39206  1.0000
  H   H405      1.0  0.84504  0.63331  0.39740  1.0000
  C   C355      1.0  0.56958  0.59109  0.42937  1.0000
  C   C356      1.0  0.41076  0.22655  0.39921  1.0000
  C   C357      1.0  0.66286  0.21075  0.36651  1.0000
  C   C358      1.0  0.40552  0.21381  0.23223  1.0000
  H   H406      1.0  0.79985  0.20633  0.45013  1.0000
  S   S87       1.0  0.67638  0.66120  0.32604  1.0000
  H   H407      1.0  0.54266  0.20406  0.44485  1.0000
  H   H408      1.0  0.65225  0.42218  0.30609  1.0000
  H   H409      1.0  0.86356  0.26602  0.26639  1.0000
  S   S88       1.0  0.55818  0.37135  0.43245  1.0000
  H   H410      1.0  0.44099  0.24276  0.39888  1.0000
  H   H411      1.0  0.68566  0.31625  0.38472  1.0000
  H   H412      1.0  0.47418  0.48261  0.33379  1.0000
  H   H413      1.0  0.82215  0.22733  0.29452  1.0000
  C   C359      1.0  0.42776  0.21920  0.27918  1.0000
  H   H414      1.0  0.60051  0.61726  0.33504  1.0000
  Fe  Fe46      1.0  0.44819  0.37288  0.40735  1.0000
  H   H415      1.0  0.44583  0.38365  0.24829  1.0000
  C   C360      1.0  0.67856  0.44555  0.28684  1.0000
  H   H416      1.0  0.60267  0.54841  0.26983  1.0000
  C   C361      1.0  0.74616  0.50257  0.22498  1.0000
  H   H417      1.0  0.72701  0.51073  0.27546  1.0000
  C   C362      1.0  0.82940  0.25918  0.27445  1.0000
  H   H418      1.0  0.49653  0.54374  0.26974  1.0000
  S   S89       1.0  0.77964  0.61512  0.34216  1.0000
  H   H419      1.0  0.62123  0.32111  0.35289  1.0000
  H   H420      1.0  0.66353  0.47728  0.29666  1.0000
  H   H421      1.0  0.69147  0.36885  0.22934  1.0000
  C   C363      1.0  0.66905  0.28753  0.37532  1.0000
  H   H422      1.0  0.81029  0.28176  0.31437  1.0000
  N   N19       1.0  0.41585  0.19609  0.34055  1.0000
  C   C364      1.0  0.81470  0.18535  0.40680  1.0000
  H   H423      1.0  0.77592  0.46769  0.39929  1.0000
  C   C365      1.0  0.68961  0.52756  0.42116  1.0000
  H   H424      1.0  0.74175  0.38993  0.23263  1.0000
  C   C366      1.0  0.77811  0.53241  0.37304  1.0000
  H   H425      1.0  0.76504  0.21876  0.25484  1.0000
  H   H426      1.0  0.48132  0.18207  0.32600  1.0000
  C   C367      1.0  0.71015  0.56481  0.39481  1.0000
  H   H427      1.0  0.87713  0.21215  0.39198  1.0000
  N   N20       1.0  0.43825  0.54023  0.35216  1.0000
  H   H428      1.0  0.77747  0.65515  0.22562  1.0000
  S   S90       1.0  0.57153  0.46522  0.30974  1.0000
  S   S91       1.0  0.76879  0.36073  0.37277  1.0000
  C   C368      1.0  0.46284  0.55359  0.28505  1.0000
  C   C369      1.0  0.71330  0.49288  0.42426  1.0000
  H   H429      1.0  0.48295  0.25185  0.29585  1.0000
  C   C370      1.0  0.87589  0.64703  0.39323  1.0000
  H   H430      1.0  0.44740  0.54654  0.44867  1.0000
  C   C371      1.0  0.58872  0.55000  0.32336  1.0000
  H   H431      1.0  0.85104  0.33656  0.25844  1.0000
  H   H432      1.0  0.60442  0.19751  0.21664  1.0000
  N   N21       1.0  0.70159  0.43619  0.21514  1.0000
  C   C372      1.0  0.45927  0.55994  0.39919  1.0000
  S   S92       1.0  0.55853  0.25701  0.34048  1.0000
  C   C373      1.0  0.55215  0.51585  0.42458  1.0000
  H   H433      1.0  0.60820  0.18506  0.34277  1.0000
  H   H434      1.0  0.45000  0.53898  0.24613  1.0000
  H   H435      1.0  0.75251  0.27394  0.25975  1.0000
  Fe  Fe47      1.0  0.82535  0.37140  0.40740  1.0000
  C   C374      1.0  0.57125  0.51344  0.35571  1.0000
  H   H436      1.0  0.67442  0.17988  0.37027  1.0000
  H   H437      1.0  0.49394  0.55480  0.38062  1.0000
  C   C375      1.0  0.62539  0.21369  0.35077  1.0000
  N   N22       1.0  0.81855  0.26074  0.21244  1.0000
  S   S93       1.0  0.47369  0.42717  0.45737  1.0000
  C   C376      1.0  0.84242  0.33857  0.21430  1.0000
  H   H438      1.0  0.86105  0.40494  0.21062  1.0000
  H   H439      1.0  0.59661  0.43660  0.53566  1.0000
  Fe  Fe48      1.0  0.49413  0.37720  0.50928  1.0000
  H   H440      1.0  0.59061  0.48971  0.51720  1.0000
  H   H441      1.0  0.60322  0.24256  0.48661  1.0000
  H   H442      1.0  0.50662  0.21908  0.62822  1.0000
  H   H443      1.0  0.59072  0.41974  0.64911  1.0000
  H   H444      1.0  0.80605  0.64979  0.50578  1.0000
  C   C377      1.0  0.40166  0.36581  0.61520  1.0000
  S   S94       1.0  0.41327  0.16484  0.59908  1.0000
  C   C378      1.0  0.87940  0.20577  0.67263  1.0000
  H   H445      1.0  0.41397  0.37512  0.56510  1.0000
  H   H446      1.0  0.55927  0.26754  0.54845  1.0000
  S   S95       1.0  0.46525  0.32280  0.46309  1.0000
  H   H447      1.0  0.53550  0.55667  0.51443  1.0000
  C   C379      1.0  0.76211  0.28014  0.65095  1.0000
  C   C380      1.0  0.73192  0.52228  0.58747  1.0000
  Fe  Fe49      1.0  0.73449  0.40063  0.46400  1.0000
  H   H448      1.0  0.54885  0.18954  0.63857  1.0000
  H   H449      1.0  0.59987  0.56254  0.57347  1.0000
  C   C381      1.0  0.50901  0.59598  0.68830  1.0000
  C   C382      1.0  0.41020  0.48291  0.69568  1.0000
  C   C383      1.0  0.73754  0.59092  0.67527  1.0000
  H   H450      1.0  0.49998  0.17945  0.50713  1.0000
  C   C384      1.0  0.73997  0.54912  0.69430  1.0000
  S   S96       1.0  0.79252  0.41647  0.49283  1.0000
  H   H451      1.0  0.59657  0.24103  0.57345  1.0000
  H   H452      1.0  0.74216  0.21459  0.65458  1.0000
  C   C385      1.0  0.86716  0.25435  0.59617  1.0000
  H   H453      1.0  0.50812  0.23499  0.51347  1.0000
  C   C386      1.0  0.51738  0.52082  0.69552  1.0000
  H   H454      1.0  0.54469  0.45876  0.55988  1.0000
  C   C387      1.0  0.85860  0.17327  0.64379  1.0000
  C   C388      1.0  0.86786  0.42995  0.70120  1.0000
  H   H455      1.0  0.73008  0.49571  0.55290  1.0000
  H   H456      1.0  0.73902  0.48195  0.65765  1.0000
  H   H457      1.0  0.55917  0.62676  0.61467  1.0000
  C   C389      1.0  0.57101  0.56015  0.61483  1.0000
  S   S97       1.0  0.81149  0.31388  0.46668  1.0000
  C   C390      1.0  0.84290  0.18137  0.59259  1.0000
  S   S98       1.0  0.71394  0.34626  0.52940  1.0000
  C   C391      1.0  0.54751  0.59712  0.63734  1.0000
  N   N23       1.0  0.55450  0.19868  0.53726  1.0000
  S   S99       1.0  0.78645  0.36388  0.64872  1.0000
  C   C392      1.0  0.73721  0.51485  0.64817  1.0000
  H   H458      1.0  0.49117  0.62480  0.70639  1.0000
  C   C393      1.0  0.55064  0.55483  0.46129  1.0000
  H   H459      1.0  0.53733  0.43454  0.66928  1.0000
  S   S100      1.0  0.48164  0.38120  0.61975  1.0000
  N   N24       1.0  0.58268  0.48225  0.62017  1.0000
  C   C394      1.0  0.52866  0.19238  0.60670  1.0000
  H   H460      1.0  0.88426  0.35604  0.63372  1.0000
  H   H461      1.0  0.88565  0.40189  0.55833  1.0000
  H   H462      1.0  0.72898  0.63007  0.60214  1.0000
  H   H463      1.0  0.75378  0.28463  0.60698  1.0000
  H   H464      1.0  0.64708  0.46293  0.60310  1.0000
  S   S101      1.0  0.57136  0.63856  0.47642  1.0000
  H   H465      1.0  0.86960  0.28590  0.57839  1.0000
  C   C395      1.0  0.77985  0.31374  0.68054  1.0000
  H   H466      1.0  0.43943  0.48766  0.65563  1.0000
  C   C396      1.0  0.55715  0.52100  0.64431  1.0000
  H   H467      1.0  0.50913  0.16271  0.61042  1.0000
  C   C397      1.0  0.42793  0.36708  0.65467  1.0000
  C   C398      1.0  0.72882  0.56364  0.57108  1.0000
  H   H468      1.0  0.72449  0.56917  0.52413  1.0000
  C   C399      1.0  0.88259  0.24671  0.64783  1.0000
  H   H469      1.0  0.83485  0.22798  0.52956  1.0000
  H   H470      1.0  0.63210  0.51113  0.65469  1.0000
  H   H471      1.0  0.62944  0.18133  0.55969  1.0000
  C   C400      1.0  0.56938  0.44742  0.66617  1.0000
  C   C401      1.0  0.62807  0.49216  0.61095  1.0000
  C   C402      1.0  0.52526  0.20438  0.49881  1.0000
  H   H472      1.0  0.84742  0.42339  0.66938  1.0000
  C   C403      1.0  0.75496  0.24046  0.67841  1.0000
  C   C404      1.0  0.84753  0.22168  0.56846  1.0000
  C   C405      1.0  0.57956  0.23896  0.53632  1.0000
  C   C406      1.0  0.73152  0.59789  0.61495  1.0000
  C   C407      1.0  0.57837  0.46619  0.55547  1.0000
  H   H473      1.0  0.64339  0.51042  0.56668  1.0000
  Fe  Fe50      1.0  0.77520  0.35859  0.55057  1.0000
  S   S102      1.0  0.68729  0.44739  0.46052  1.0000
  H   H474      1.0  0.89659  0.27318  0.66896  1.0000
  H   H475      1.0  0.74042  0.61866  0.70676  1.0000
  H   H476      1.0  0.89728  0.35066  0.70657  1.0000
  C   C408      1.0  0.53152  0.16836  0.92621  1.0000
  H   H477      1.0  0.61810  0.37596  0.79769  1.0000
  H   H478      1.0  0.68075  0.27849  0.88824  1.0000
  S   S103      1.0  0.48521  0.64108  0.87912  1.0000
  H   H479      1.0  0.57048  0.64234  0.78327  1.0000
  C   C409      1.0  0.41022  0.46017  0.74903  1.0000
  C   C410      1.0  0.76959  0.45517  0.93871  1.0000
  H   H480      1.0  0.67829  0.35629  0.81545  1.0000
  C   C411      1.0  0.52149  0.31215  0.90341  1.0000
  H   H481      1.0  0.68290  0.55946  0.81350  1.0000
  H   H482      1.0  0.71761  0.55962  0.86293  1.0000
  C   C412      1.0  0.79007  0.55812  0.75479  1.0000
  H   H483      1.0  0.46407  0.55718  0.75702  1.0000
  C   C413      1.0  0.82824  0.39018  0.88195  1.0000
  H   H484      1.0  0.62567  0.27474  0.93173  1.0000
  C   C414      1.0  0.57511  0.16295  0.90117  1.0000
  C   C415      1.0  0.75553  0.41365  0.92772  1.0000
  C   C416      1.0  0.59845  0.31673  0.84849  1.0000
  H   H485      1.0  0.85154  0.41482  0.74857  1.0000
  H   H486      1.0  0.48218  0.55177  0.89663  1.0000
  C   C417      1.0  0.64239  0.25538  0.79915  1.0000
  C   C418      1.0  0.52265  0.60120  0.84388  1.0000
  C   C419      1.0  0.84226  0.43160  0.89348  1.0000
  H   H487      1.0  0.65104  0.32585  0.92294  1.0000
  H   H488      1.0  0.49419  0.29496  0.93393  1.0000
  S   S104      1.0  0.86493  0.34982  0.84520  1.0000
  S   S105      1.0  0.62264  0.49947  0.78531  1.0000
  C   C420      1.0  0.51291  0.55979  0.86367  1.0000
  H   H489      1.0  0.59440  0.60776  0.92019  1.0000
  N   N25       1.0  0.42308  0.19144  0.80292  1.0000
  C   C421      1.0  0.81308  0.46405  0.92092  1.0000
  C   C422      1.0  0.78477  0.38134  0.89859  1.0000
  H   H490      1.0  0.87560  0.43895  0.88039  1.0000
  H   H491      1.0  0.56407  0.26483  0.90632  1.0000
  C   C423      1.0  0.56176  0.29497  0.88708  1.0000
  C   C424      1.0  0.50052  0.20645  0.78316  1.0000
  H   H492      1.0  0.70652  0.30923  0.78298  1.0000
  C   C425      1.0  0.53494  0.27182  0.73937  1.0000
  N   N26       1.0  0.74693  0.54263  0.75814  1.0000
  H   H493      1.0  0.72075  0.60194  0.81114  1.0000
  H   H494      1.0  0.56631  0.22104  0.76593  1.0000
  H   H495      1.0  0.79445  0.59276  0.74697  1.0000
  C   C426      1.0  0.59221  0.35675  0.82666  1.0000
  H   H496      1.0  0.61873  0.23290  0.82878  1.0000
  H   H497      1.0  0.56954  0.45847  0.71691  1.0000
  H   H498      1.0  0.77367  0.34927  0.89034  1.0000
  C   C427      1.0  0.51649  0.35159  0.88187  1.0000
  C   C428      1.0  0.46108  0.21930  0.77993  1.0000
  N   N27       1.0  0.64083  0.29825  0.83390  1.0000
  H   H499      1.0  0.67241  0.32736  0.74177  1.0000
  C   C429      1.0  0.54327  0.52830  0.84244  1.0000
  H   H500      1.0  0.53526  0.49663  0.85922  1.0000
  C   C430      1.0  0.49678  0.28553  0.73534  1.0000
  H   H501      1.0  0.62489  0.58605  0.74538  1.0000
  C   C431      1.0  0.56283  0.61053  0.79970  1.0000
  H   H502      1.0  0.78922  0.26424  0.81109  1.0000
  S   S106      1.0  0.65320  0.43099  0.90878  1.0000
  C   C432      1.0  0.71576  0.56698  0.81364  1.0000
  H   H503      1.0  0.43121  0.35770  0.75201  1.0000
  H   H504      1.0  0.83706  0.20950  0.80481  1.0000
  H   H505      1.0  0.54775  0.40475  0.82769  1.0000
  C   C433      1.0  0.55175  0.37373  0.84339  1.0000
  H   H506      1.0  0.71120  0.48370  0.77657  1.0000
  S   S107      1.0  0.41449  0.44867  0.94957  1.0000
  H   H507      1.0  0.79694  0.55317  0.80149  1.0000
  C   C434      1.0  0.60131  0.18147  0.93576  1.0000
  H   H508      1.0  0.43166  0.27245  0.75123  1.0000
  S   S108      1.0  0.75623  0.18484  0.77101  1.0000
  C   C435      1.0  0.67570  0.32420  0.79148  1.0000
  C   C436      1.0  0.64993  0.29418  0.89680  1.0000
  H   H509      1.0  0.56306  0.29193  0.72426  1.0000
  C   C437      1.0  0.41283  0.18716  0.87516  1.0000
  H   H510      1.0  0.72223  0.40604  0.94264  1.0000
  H   H511      1.0  0.88276  0.21895  0.83081  1.0000
  C   C438      1.0  0.59345  0.57863  0.77780  1.0000
  C   C439      1.0  0.78253  0.26821  0.76556  1.0000
  Fe  Fe51      1.0  0.61395  0.47966  0.88717  1.0000
  Fe  Fe52      1.0  0.42760  0.60671  0.94262  1.0000
  C   C440      1.0  0.87029  0.22206  0.78898  1.0000
  H   H512      1.0  0.85445  0.61840  0.92996  1.0000
  H   H513      1.0  0.43938  0.44707  0.75038  1.0000
  C   C441      1.0  0.79045  0.30773  0.73750  1.0000
  H   H514      1.0  0.49551  0.31624  0.71638  1.0000
  C   C442      1.0  0.41135  0.35604  0.72062  1.0000
  H   H515      1.0  0.76769  0.47729  0.73858  1.0000
  C   C443      1.0  0.46019  0.25987  0.75550  1.0000
  C   C444      1.0  0.88714  0.17232  0.93724  1.0000
  C   C445      1.0  0.74287  0.49733  0.77476  1.0000
  C   C446      1.0  0.76520  0.23428  0.73567  1.0000
  H   H516      1.0  0.74626  0.49357  0.82439  1.0000
  C   C447      1.0  0.58370  0.53774  0.80062  1.0000
  N   N28       1.0  0.89619  0.19861  0.72729  1.0000
  C   C448      1.0  0.53675  0.23231  0.76322  1.0000
  H   H517      1.0  0.63722  0.25682  0.75046  1.0000
  H   H518      1.0  0.80377  0.33379  0.76094  1.0000
  H   H519      1.0  0.67352  0.24012  0.78987  1.0000
  H   H520      1.0  0.86921  0.25669  0.78305  1.0000
  H   H521      1.0  0.48532  0.36530  0.89567  1.0000
  H   H522      1.0  0.66311  0.63476  0.90971  1.0000
  S   S109      1.0  0.62985  0.53137  0.95346  1.0000
  H   H523      1.0  0.43952  0.17423  0.88775  1.0000
  S   S110      1.0  0.39841  0.55630  0.89038  1.0000
  C   C449      1.0  0.49378  0.55782  0.71677  1.0000
  S   S111      1.0  0.75126  0.22351  0.95920  1.0000
  H   H524      1.0  0.82443  0.49595  0.92903  1.0000
  H   H525      1.0  0.40511  0.21846  0.90386  1.0000
  S   S112      1.0  0.65581  0.17604  0.90041  1.0000
  H   H526      1.0  0.50379  0.17608  0.80110  1.0000
  H   H527      1.0  0.50415  0.49271  0.72093  1.0000
  H   H528      1.0  0.72343  0.63472  0.95130  1.0000
  H   H529      1.0  0.54068  0.62286  0.95659  1.0000
  H   H530      1.0  0.81449  0.54127  0.71284  1.0000
  C   C450      1.0  0.66051  0.65183  0.95672  1.0000
  H   H531      1.0  0.86877  0.46496  0.71230  1.0000
  H   H532      1.0  0.52213  0.69286  0.99313  1.0000
  H   H533      1.0  0.82054  0.01948  0.98751  1.0000
  C   C451      1.0  0.60839  0.01025  0.02741  1.0000
  H   H534      1.0  0.71895  0.81316  0.13830  1.0000
  H   H535      1.0  0.74038  0.93363  0.12277  1.0000
  H   H536      1.0  0.68971  0.04411  0.96635  1.0000
  S   S113      1.0  0.49432  0.75942  0.15207  1.0000
  H   H537      1.0  0.52072  0.94975  0.10460  1.0000
  Fe  Fe53      1.0  0.46194  0.03938  0.98243  1.0000
  C   C452      1.0  0.77103  0.82983  0.02528  1.0000
  H   H538      1.0  0.57214  0.91691  0.14591  1.0000
  C   C453      1.0  0.71787  0.99731  0.13200  1.0000
  H   H539      1.0  0.78314  0.80532  0.04911  1.0000
  H   H540      1.0  0.86088  0.67567  0.00817  1.0000
  C   C454      1.0  0.64768  0.88222  0.97692  1.0000
  H   H541      1.0  0.55711  0.72962  0.01853  1.0000
  N   N29       1.0  0.62196  0.04705  0.98574  1.0000
  S   S114      1.0  0.82283  0.93422  0.02534  1.0000
  H   H542      1.0  0.56238  0.06200  0.97262  1.0000
  H   H543      1.0  0.74003  0.70244  0.17702  1.0000
  C   C455      1.0  0.78330  0.97236  0.05057  1.0000
  C   C456      1.0  0.54917  0.69518  0.01310  1.0000
  C   C457      1.0  0.56588  0.99472  0.04780  1.0000
  C   C458      1.0  0.65666  0.69421  0.07835  1.0000
  H   H544      1.0  0.42760  0.71599  0.02597  1.0000
  N   N30       1.0  0.41467  0.77128  0.98303  1.0000
  C   C459      1.0  0.70799  0.85572  0.00328  1.0000
  Fe  Fe54      1.0  0.41129  0.06689  0.12536  1.0000
  C   C460      1.0  0.80686  0.67366  0.20266  1.0000
  C   C461      1.0  0.61968  0.08615  0.02972  1.0000
  H   H545      1.0  0.68978  0.99139  0.17342  1.0000
  H   H546      1.0  0.43431  0.95912  0.15343  1.0000
  C   C462      1.0  0.63667  0.99129  0.05417  1.0000
  C   C463      1.0  0.77053  0.71971  0.15507  1.0000
  H   H547      1.0  0.70413  0.86525  0.12810  1.0000
  H   H548      1.0  0.46426  0.94952  0.02208  1.0000
  C   C464      1.0  0.49766  0.89086  0.00987  1.0000
  H   H549      1.0  0.46484  0.75962  0.02278  1.0000
  H   H550      1.0  0.63017  0.11472  0.00063  1.0000
  S   S115      1.0  0.47425  0.08724  0.05768  1.0000
  C   C465      1.0  0.53239  0.86701  0.97065  1.0000
  H   H551      1.0  0.54176  0.00796  0.03199  1.0000
  H   H552      1.0  0.77898  0.86085  0.04680  1.0000
  S   S116      1.0  0.40127  0.01523  0.05251  1.0000
  H   H553      1.0  0.66889  0.00244  0.04447  1.0000
  S   S117      1.0  0.54295  0.81778  0.99431  1.0000
  Fe  Fe55      1.0  0.43746  0.13249  0.02286  1.0000
  S   S118      1.0  0.73204  0.12163  0.96743  1.0000
  C   C466      1.0  0.79132  0.01278  0.02631  1.0000
  C   C467      1.0  0.70339  0.83124  0.11014  1.0000
  C   C468      1.0  0.88636  0.11914  0.07562  1.0000
  C   C469      1.0  0.71647  0.78105  0.01455  1.0000
  C   C470      1.0  0.73348  0.88769  0.96458  1.0000
  C   C471      1.0  0.66449  0.85421  0.00894  1.0000
  C   C472      1.0  0.76294  0.04558  0.05552  1.0000
  C   C473      1.0  0.88179  0.07502  0.07326  1.0000
  S   S119      1.0  0.69010  0.07854  0.14347  1.0000
  C   C474      1.0  0.40805  0.93990  0.18192  1.0000
  H   H554      1.0  0.64013  0.08433  0.06138  1.0000
  C   C475      1.0  0.69295  0.67243  0.04115  1.0000
  N   N31       1.0  0.58611  0.67124  0.96886  1.0000
  H   H555      1.0  0.58683  0.09184  0.06313  1.0000
  C   C476      1.0  0.62226  0.69533  0.05465  1.0000
  H   H556      1.0  0.53741  0.68220  0.06295  1.0000
  H   H557      1.0  0.71949  0.67190  0.05959  1.0000
  H   H558      1.0  0.78937  0.82651  0.97142  1.0000
  H   H559      1.0  0.61429  0.88059  0.98282  1.0000
  C   C477      1.0  0.58212  0.94271  0.11337  1.0000
  C   C478      1.0  0.89660  0.83682  0.97741  1.0000
  C   C479      1.0  0.49088  0.93109  0.99166  1.0000
  H   H560      1.0  0.64589  0.94383  0.11558  1.0000
  H   H561      1.0  0.47566  0.87816  0.05359  1.0000
  H   H562      1.0  0.87542  0.69994  0.10646  1.0000
  H   H563      1.0  0.86363  0.13792  0.06375  1.0000
  H   H564      1.0  0.41424  0.81227  0.06968  1.0000
  C   C480      1.0  0.62294  0.67351  0.99338  1.0000
  H   H565      1.0  0.84774  0.74398  0.15708  1.0000
  H   H566      1.0  0.65476  0.71003  0.12645  1.0000
  C   C481      1.0  0.44472  0.74242  0.99589  1.0000
  H   H567      1.0  0.68216  0.77337  0.02720  1.0000
  H   H568      1.0  0.66970  0.82041  0.12552  1.0000
  Fe  Fe56      1.0  0.52593  0.81771  0.10481  1.0000
  H   H569      1.0  0.39865  0.66507  0.11803  1.0000
  H   H570      1.0  0.76937  0.73374  0.10953  1.0000
  C   C482      1.0  0.55323  0.96127  0.08979  1.0000
  S   S120      1.0  0.87856  0.89729  0.15493  1.0000
  C   C483      1.0  0.62367  0.95787  0.09604  1.0000
  C   C484      1.0  0.74635  0.96456  0.10298  1.0000
  H   H571      1.0  0.41574  0.73959  0.14751  1.0000
  C   C485      1.0  0.52331  0.15628  0.16658  1.0000
  Fe  Fe57      1.0  0.82440  0.91751  0.12426  1.0000
  S   S121      1.0  0.48031  0.86197  0.17727  1.0000
  H   H572      1.0  0.64305  0.83124  0.03822  1.0000
  H   H573      1.0  0.86895  0.83902  0.02127  1.0000
  H   H574      1.0  0.77166  0.74664  0.19186  1.0000
  H   H575      1.0  0.77059  0.07717  0.03866  1.0000
  H   H576      1.0  0.72992  0.75733  0.03773  1.0000
  N   N32       1.0  0.72478  0.82517  0.03743  1.0000
  S   S122      1.0  0.77479  0.88137  0.19966  1.0000
  Fe  Fe58      1.0  0.71019  0.13255  0.07784  1.0000
  H   H577      1.0  0.84764  0.73621  0.07389  1.0000
  H   H578      1.0  0.85537  0.05982  0.06085  1.0000
  N   N33       1.0  0.80746  0.69181  0.14022  1.0000
  H   H579      1.0  0.59515  0.71267  0.08629  1.0000
  C   C486      1.0  0.72614  0.03785  0.10822  1.0000
  C   C487      1.0  0.84629  0.71896  0.11816  1.0000
  H   H580      1.0  0.51366  0.02674  0.18947  1.0000
  S   S123      1.0  0.57282  0.82239  0.16038  1.0000
  H   H581      1.0  0.59431  0.03864  0.16721  1.0000
  S   S124      1.0  0.81479  0.97761  0.18908  1.0000
  C   C488      1.0  0.55491  0.66420  0.20302  1.0000
  C   C489      1.0  0.51999  0.11587  0.19089  1.0000
  H   H582      1.0  0.49524  0.09504  0.18321  1.0000
  H   H583      1.0  0.81975  0.08903  0.20284  1.0000
  C   C490      1.0  0.87824  0.78762  0.27525  1.0000
  H   H584      1.0  0.77406  0.86645  0.40820  1.0000
  C   C491      1.0  0.59590  0.09013  0.45394  1.0000
  H   H585      1.0  0.55679  0.97586  0.38747  1.0000
  Fe  Fe59      1.0  0.45118  0.80384  0.22844  1.0000
  H   H586      1.0  0.61108  0.05371  0.23748  1.0000
  C   C492      1.0  0.78689  0.09243  0.23701  1.0000
  H   H587      1.0  0.42133  0.95589  0.27211  1.0000
  H   H588      1.0  0.70804  0.82902  0.33288  1.0000
  C   C493      1.0  0.62423  0.97239  0.36478  1.0000
  H   H589      1.0  0.80795  0.69908  0.24130  1.0000
  S   S125      1.0  0.70952  0.97010  0.33605  1.0000
  H   H590      1.0  0.73351  0.08456  0.40010  1.0000
  C   C494      1.0  0.45182  0.71726  0.43606  1.0000
  H   H591      1.0  0.72272  0.11943  0.34397  1.0000
  H   H592      1.0  0.50738  0.08585  0.35043  1.0000
  C   C495      1.0  0.66169  0.95458  0.32226  1.0000
  H   H593      1.0  0.48823  0.69283  0.33538  1.0000
  S   S126      1.0  0.81896  0.92275  0.30842  1.0000
  H   H594      1.0  0.42719  0.66881  0.30248  1.0000
  C   C496      1.0  0.57861  0.13396  0.23216  1.0000
  H   H595      1.0  0.60150  0.12649  0.25560  1.0000
  H   H596      1.0  0.68905  0.91164  0.23691  1.0000
  C   C497      1.0  0.53676  0.06777  0.32553  1.0000
  H   H597      1.0  0.62499  0.99382  0.40644  1.0000
  H   H598      1.0  0.42491  0.91834  0.35519  1.0000
  C   C498      1.0  0.65385  0.81231  0.30152  1.0000
  H   H599      1.0  0.58203  0.00537  0.23574  1.0000
  C   C499      1.0  0.58565  0.96212  0.35418  1.0000
  S   S127      1.0  0.49137  0.80765  0.29501  1.0000
  C   C500      1.0  0.80248  0.05004  0.31566  1.0000
  C   C501      1.0  0.61011  0.81614  0.31653  1.0000
  N   N34       1.0  0.54433  0.06171  0.25308  1.0000
  H   H600      1.0  0.53314  0.03663  0.34836  1.0000
  H   H601      1.0  0.65203  0.05950  0.45505  1.0000
  H   H602      1.0  0.47801  0.04838  0.26802  1.0000
  H   H603      1.0  0.50787  0.00282  0.26504  1.0000
  Fe  Fe60      1.0  0.68444  0.73179  0.32933  1.0000
  H   H604      1.0  0.59397  0.79890  0.28565  1.0000
  C   C502      1.0  0.58665  0.83868  0.37541  1.0000
  Fe  Fe61      1.0  0.76891  0.94045  0.26678  1.0000
  H   H605      1.0  0.87775  0.99085  0.42526  1.0000
  C   C503      1.0  0.50951  0.03397  0.24296  1.0000
  H   H606      1.0  0.53739  0.69541  0.38967  1.0000
  Fe  Fe62      1.0  0.63356  0.67178  0.43121  1.0000
  C   C504      1.0  0.45735  0.69716  0.37178  1.0000
  H   H607      1.0  0.72098  0.06286  0.32909  1.0000
  C   C505      1.0  0.58459  0.03895  0.22206  1.0000
  C   C506      1.0  0.44271  0.05046  0.45128  1.0000
  S   S128      1.0  0.44898  0.00197  0.40497  1.0000
  H   H608      1.0  0.58617  0.06320  0.42707  1.0000
  H   H609      1.0  0.55271  0.83986  0.38848  1.0000
  H   H610      1.0  0.86843  0.10991  0.25299  1.0000
  H   H611      1.0  0.86969  0.72059  0.25368  1.0000
  Fe  Fe63      1.0  0.52455  0.86239  0.23700  1.0000
  C   C507      1.0  0.58410  0.93343  0.30159  1.0000
  C   C508      1.0  0.67442  0.83291  0.34328  1.0000
  C   C509      1.0  0.54744  0.10366  0.22508  1.0000
  C   C510      1.0  0.66032  0.92578  0.26945  1.0000
  Fe  Fe64      1.0  0.86523  0.95551  0.22516  1.0000
  C   C511      1.0  0.52949  0.72932  0.40598  1.0000
  H   H612      1.0  0.62041  0.89274  0.21862  1.0000
  C   C512      1.0  0.62144  0.91504  0.25921  1.0000
  H   H613      1.0  0.80710  0.04997  0.36485  1.0000
  S   S129      1.0  0.82919  0.80043  0.26962  1.0000
  C   C513      1.0  0.80816  0.12621  0.32833  1.0000
  Fe  Fe65      1.0  0.53686  0.76733  0.21453  1.0000
  H   H614      1.0  0.77448  0.12296  0.22868  1.0000
  C   C514      1.0  0.73833  0.08959  0.34711  1.0000
  C   C515      1.0  0.65100  0.85514  0.40202  1.0000
  H   H615      1.0  0.80280  0.69031  0.41423  1.0000
  H   H616      1.0  0.76805  0.06618  0.22094  1.0000
  C   C516      1.0  0.41057  0.07753  0.45224  1.0000
  C   C517      1.0  0.81490  0.71875  0.43713  1.0000
  C   C518      1.0  0.42255  0.68293  0.35226  1.0000
  H   H617      1.0  0.83405  0.04436  0.27827  1.0000
  H   H618      1.0  0.78178  0.02218  0.31203  1.0000
  C   C519      1.0  0.60707  0.85671  0.41928  1.0000
  S   S130      1.0  0.57103  0.71256  0.23354  1.0000
  Fe  Fe66      1.0  0.82801  0.86587  0.23631  1.0000
  H   H619      1.0  0.56318  0.08516  0.33758  1.0000
  H   H620      1.0  0.49257  0.68546  0.21389  1.0000
  S   S131      1.0  0.67957  0.77002  0.24846  1.0000
  H   H621      1.0  0.83215  0.73923  0.39624  1.0000
  S   S132      1.0  0.63788  0.74260  0.43186  1.0000
  C   C520      1.0  0.85220  0.13128  0.29490  1.0000
  S   S133      1.0  0.74009  0.73322  0.36607  1.0000
  H   H622      1.0  0.74633  0.93922  0.42788  1.0000
  S   S134      1.0  0.53550  0.92468  0.28703  1.0000
  H   H623      1.0  0.53116  0.74706  0.36214  1.0000
  N   N35       1.0  0.78402  0.09042  0.30770  1.0000
  C   C521      1.0  0.88040  0.68532  0.43025  1.0000
  C   C522      1.0  0.40026  0.93791  0.25012  1.0000
  H   H624      1.0  0.85110  0.10914  0.43170  1.0000
  H   H625      1.0  0.66659  0.86926  0.43582  1.0000
  H   H626      1.0  0.75696  0.15300  0.41394  1.0000
  C   C523      1.0  0.89061  0.74519  0.26363  1.0000
  S   S135      1.0  0.40314  0.06569  0.23378  1.0000
  H   H627      1.0  0.80404  0.97376  0.44137  1.0000
  H   H628      1.0  0.55551  0.74283  0.42367  1.0000
  H   H629      1.0  0.89584  0.85188  0.29933  1.0000
  H   H630      1.0  0.40689  0.86469  0.34390  1.0000
  H   H631      1.0  0.47761  0.79730  0.43832  1.0000
  C   C524      1.0  0.79003  0.15453  0.38474  1.0000
  S   S136      1.0  0.47418  0.88716  0.44491  1.0000
  C   C525      1.0  0.86355  0.96295  0.45140  1.0000
  H   H632      1.0  0.45198  0.14071  0.29577  1.0000
  C   C526      1.0  0.87656  0.16221  0.31749  1.0000
  Fe  Fe67      1.0  0.72854  0.66298  0.37082  1.0000
  H   H633      1.0  0.44357  0.15005  0.38277  1.0000
  N   N36       1.0  0.48761  0.73385  0.45818  1.0000
  H   H634      1.0  0.49063  0.67591  0.50278  1.0000
  H   H635      1.0  0.67337  0.11914  0.52021  1.0000
  C   C527      1.0  0.75704  0.86271  0.46170  1.0000
  C   C528      1.0  0.57097  0.12641  0.47372  1.0000
  H   H636      1.0  0.66663  0.66816  0.70648  1.0000
  S   S137      1.0  0.70421  0.78139  0.54984  1.0000
  H   H637      1.0  0.82343  0.76311  0.54282  1.0000
  H   H638      1.0  0.87212  0.74078  0.54118  1.0000
  C   C529      1.0  0.40278  0.11420  0.49547  1.0000
  H   H639      1.0  0.88798  0.88405  0.53112  1.0000
  S   S138      1.0  0.75557  0.07514  0.68303  1.0000
  H   H640      1.0  0.72436  0.85132  0.46579  1.0000
  H   H641      1.0  0.70016  0.88581  0.58020  1.0000
  C   C530      1.0  0.89181  0.09416  0.48692  1.0000
  Fe  Fe68      1.0  0.69285  0.73771  0.46867  1.0000
  C   C531      1.0  0.81834  0.67881  0.52714  1.0000
  C   C532      1.0  0.80146  0.91620  0.49475  1.0000
  H   H642      1.0  0.47934  0.03756  0.61567  1.0000
  C   C533      1.0  0.61969  0.15742  0.52825  1.0000
  Fe  Fe69      1.0  0.42010  0.87463  0.53646  1.0000
  Fe  Fe70      1.0  0.45841  0.95551  0.47272  1.0000
  H   H643      1.0  0.86964  0.77070  0.47301  1.0000
  S   S139      1.0  0.45989  0.87749  0.60380  1.0000
  C   C534      1.0  0.82730  0.89129  0.51850  1.0000
  C   C535      1.0  0.73313  0.93477  0.48191  1.0000
  C   C536      1.0  0.67924  0.71887  0.63949  1.0000
  H   H644      1.0  0.61473  0.97424  0.59387  1.0000
  H   H645      1.0  0.83863  0.66825  0.55537  1.0000
  H   H646      1.0  0.53814  0.09004  0.60571  1.0000
  C   C537      1.0  0.58224  0.16146  0.51135  1.0000
  S   S140      1.0  0.77125  0.06818  0.49605  1.0000
  H   H647      1.0  0.65008  0.94937  0.62673  1.0000
  N   N37       1.0  0.75710  0.90293  0.50264  1.0000
  C   C538      1.0  0.54381  0.94074  0.66364  1.0000
  C   C539      1.0  0.46859  0.06124  0.49028  1.0000
  C   C540      1.0  0.61929  0.94525  0.61734  1.0000
  H   H648      1.0  0.62205  0.91789  0.57995  1.0000
  H   H649      1.0  0.82640  0.15630  0.57242  1.0000
  C   C541      1.0  0.48207  0.77983  0.47879  1.0000
  Fe  Fe71      1.0  0.51278  0.89504  0.51357  1.0000
  C   C542      1.0  0.86367  0.04265  0.56932  1.0000
  H   H650      1.0  0.45410  0.78620  0.52345  1.0000
  C   C543      1.0  0.89553  0.07151  0.53862  1.0000
  C   C544      1.0  0.69902  0.75867  0.62453  1.0000
  S   S141      1.0  0.81779  0.73479  0.68346  1.0000
  C   C545      1.0  0.82643  0.03941  0.55252  1.0000
  H   H651      1.0  0.69958  0.92458  0.49022  1.0000
  H   H652      1.0  0.54214  0.91667  0.62372  1.0000
  S   S142      1.0  0.67102  0.04096  0.64429  1.0000
  H   H653      1.0  0.79029  0.69487  0.56335  1.0000
  H   H654      1.0  0.80131  0.01784  0.57741  1.0000
  S   S143      1.0  0.69819  0.14210  0.64071  1.0000
  H   H655      1.0  0.77238  0.83654  0.47691  1.0000
  Fe  Fe72      1.0  0.72909  0.08001  0.60005  1.0000
  C   C546      1.0  0.52379  0.07500  0.65173  1.0000
  S   S144      1.0  0.50206  0.96465  0.53331  1.0000
  S   S145      1.0  0.57848  0.87585  0.49979  1.0000
  C   C547      1.0  0.40963  0.72117  0.47952  1.0000
  H   H656      1.0  0.49481  0.04151  0.48711  1.0000
  H   H657      1.0  0.40288  0.73642  0.52891  1.0000
  H   H658      1.0  0.73181  0.81131  0.65824  1.0000
  H   H659      1.0  0.81505  0.86284  0.54396  1.0000
  C   C548      1.0  0.64489  0.12143  0.50681  1.0000
  Fe  Fe73      1.0  0.86949  0.70389  0.70695  1.0000
  H   H660      1.0  0.73419  0.92478  0.60599  1.0000
  C   C549      1.0  0.53848  0.08529  0.70555  1.0000
  H   H661      1.0  0.47932  0.10479  0.56604  1.0000
  C   C550      1.0  0.85261  0.74728  0.50944  1.0000
  C   C551      1.0  0.80966  0.93159  0.68123  1.0000
  H   H662      1.0  0.73301  0.96628  0.50955  1.0000
  C   C552      1.0  0.46046  0.09754  0.53387  1.0000
  H   H663      1.0  0.51700  0.72053  0.53082  1.0000
  Fe  Fe74      1.0  0.44654  0.94736  0.61942  1.0000
  H   H664      1.0  0.74687  0.86941  0.59167  1.0000
  C   C553      1.0  0.86949  0.90274  0.51043  1.0000
  C   C554      1.0  0.82096  0.95257  0.46092  1.0000
  C   C555      1.0  0.48879  0.71085  0.51555  1.0000
  H   H665      1.0  0.53191  0.86397  0.69380  1.0000
  H   H666      1.0  0.78652  0.73637  0.46925  1.0000
  C   C556      1.0  0.82131  0.06442  0.50447  1.0000
  N   N38       1.0  0.84250  0.70738  0.47530  1.0000
  C   C557      1.0  0.85477  0.09022  0.46937  1.0000
  C   C558      1.0  0.63292  0.08778  0.47005  1.0000
  C   C559      1.0  0.42688  0.12336  0.53774  1.0000
  H   H667      1.0  0.77816  0.99085  0.68905  1.0000
  C   C560      1.0  0.88762  0.93845  0.47677  1.0000
  S   S146      1.0  0.84960  0.85610  0.67391  1.0000
  C   C561      1.0  0.73370  0.89563  0.57317  1.0000
  H   H668      1.0  0.86707  0.02379  0.60741  1.0000
  H   H669      1.0  0.46042  0.71674  0.55973  1.0000
  H   H670      1.0  0.51002  0.79443  0.49071  1.0000
  N   N39       1.0  0.58388  0.93807  0.67901  1.0000
  C   C562      1.0  0.71691  0.78043  0.66881  1.0000
  H   H671      1.0  0.66385  0.70262  0.60688  1.0000
  C   C563      1.0  0.49094  0.04489  0.65696  1.0000
  H   H672      1.0  0.83936  0.94305  0.64815  1.0000
  S   S147      1.0  0.40169  0.94276  0.56033  1.0000
  H   H673      1.0  0.54090  0.97218  0.64543  1.0000
  S   S148      1.0  0.68539  0.66744  0.47576  1.0000
  S   S149      1.0  0.57754  0.12527  0.69914  1.0000
  Fe  Fe75      1.0  0.64171  0.10262  0.69367  1.0000
  H   H674      1.0  0.85342  0.14144  0.66047  1.0000
  C   C564      1.0  0.58939  0.89664  0.70328  1.0000
  H   H675      1.0  0.54249  0.12599  0.46029  1.0000
  C   C565      1.0  0.68004  0.69976  0.69658  1.0000
  C   C566      1.0  0.77490  0.95876  0.70427  1.0000
  C   C567      1.0  0.80604  0.89005  0.70170  1.0000
  H   H676      1.0  0.51564  0.93669  0.70837  1.0000
  C   C568      1.0  0.56041  0.86176  0.70673  1.0000
  S   S150      1.0  0.69228  0.97749  0.77858  1.0000
  H   H677      1.0  0.53017  0.07433  0.80764  1.0000
  C   C569      1.0  0.87568  0.00263  0.75482  1.0000
  H   H678      1.0  0.88728  0.87433  0.83525  1.0000
  H   H679      1.0  0.41795  0.82483  0.92461  1.0000
  C   C570      1.0  0.86629  0.90132  0.83749  1.0000
  H   H680      1.0  0.58836  0.14430  0.85485  1.0000
  C   C571      1.0  0.62612  0.88935  0.72039  1.0000
  H   H681      1.0  0.58649  0.86463  0.88202  1.0000
  H   H682      1.0  0.59443  0.02348  0.91113  1.0000
  C   C572      1.0  0.40362  0.72112  0.89208  1.0000
  S   S151      1.0  0.43529  0.98304  0.71918  1.0000
  C   C573      1.0  0.89555  0.15307  0.74105  1.0000
  H   H683      1.0  0.55613  0.97049  0.77500  1.0000
  C   C574      1.0  0.81178  0.04333  0.80296  1.0000
  C   C575      1.0  0.51952  0.06599  0.76527  1.0000
  Fe  Fe76      1.0  0.72070  0.13459  0.72745  1.0000
  H   H684      1.0  0.62255  0.67013  0.86416  1.0000
  H   H685      1.0  0.64976  0.91412  0.71829  1.0000
  C   C576      1.0  0.82335  0.98231  0.85673  1.0000
  H   H686      1.0  0.84534  0.89115  0.80751  1.0000
  C   C577      1.0  0.73296  0.90287  0.76759  1.0000
  H   H687      1.0  0.61049  0.72218  0.90453  1.0000
  S   S152      1.0  0.89301  0.76535  0.74346  1.0000
  C   C578      1.0  0.76763  0.87586  0.74489  1.0000
  H   H688      1.0  0.47264  0.02009  0.81596  1.0000
  C   C579      1.0  0.79825  0.01618  0.85447  1.0000
  H   H689      1.0  0.86255  0.14023  0.76037  1.0000
  C   C580      1.0  0.43132  0.14849  0.76789  1.0000
  Fe  Fe77      1.0  0.83802  0.79534  0.72709  1.0000
  H   H690      1.0  0.88858  0.96502  0.91184  1.0000
  H   H691      1.0  0.81215  0.96341  0.89921  1.0000
  S   S153      1.0  0.82835  0.68603  0.80757  1.0000
  C   C581      1.0  0.70054  0.72076  0.73827  1.0000
  H   H692      1.0  0.84661  0.90505  0.89043  1.0000
  C   C582      1.0  0.48670  0.03562  0.77024  1.0000
  H   H693      1.0  0.66964  0.01162  0.90982  1.0000
  H   H694      1.0  0.43745  0.71903  0.86827  1.0000
  C   C583      1.0  0.73648  0.94447  0.74778  1.0000
  C   C584      1.0  0.47291  0.02444  0.71561  1.0000
  H   H695      1.0  0.66198  0.84480  0.75137  1.0000
  N   N40       1.0  0.89073  0.94074  0.81342  1.0000
  H   H696      1.0  0.70337  0.89144  0.80080  1.0000
  H   H697      1.0  0.66025  0.93387  0.91289  1.0000
  H   H698      1.0  0.73228  0.77813  0.75862  1.0000
  C   C585      1.0  0.85036  0.03653  0.75324  1.0000
  S   S154      1.0  0.66240  0.09787  0.78276  1.0000
  H   H699      1.0  0.40249  0.12758  0.78132  1.0000
  C   C586      1.0  0.51916  0.94764  0.93475  1.0000
  C   C587      1.0  0.59515  0.05277  0.94349  1.0000
  C   C588      1.0  0.71625  0.91558  0.93257  1.0000
  C   C589      1.0  0.60482  0.81613  0.74142  1.0000
  C   C590      1.0  0.55358  0.92352  0.89541  1.0000
  S   S155      1.0  0.71285  0.69437  0.79866  1.0000
  H   H700      1.0  0.51136  0.15267  0.90041  1.0000
  C   C591      1.0  0.67349  0.91261  0.93835  1.0000
  C   C592      1.0  0.86280  0.97426  0.80683  1.0000
  H   H701      1.0  0.73617  0.93936  0.90239  1.0000
  H   H702      1.0  0.61284  0.97449  0.74447  1.0000
  H   H703      1.0  0.57628  0.93643  0.85244  1.0000
  H   H704      1.0  0.46007  0.78780  0.88950  1.0000
  S   S156      1.0  0.84967  0.14088  0.91342  1.0000
  H   H705      1.0  0.44202  0.15052  0.71307  1.0000
  C   C593      1.0  0.71731  0.76164  0.72568  1.0000
  H   H706      1.0  0.76450  0.84398  0.76069  1.0000
  C   C594      1.0  0.58392  0.97325  0.72944  1.0000
  H   H707      1.0  0.45573  0.13124  0.78049  1.0000
  Fe  Fe78      1.0  0.77787  0.72161  0.78699  1.0000
  H   H708      1.0  0.67535  0.06817  0.90489  1.0000
  H   H709      1.0  0.76862  0.02213  0.89378  1.0000
  H   H710      1.0  0.61123  0.78525  0.75479  1.0000
  S   S157      1.0  0.79410  0.78488  0.82954  1.0000
  H   H711      1.0  0.79261  0.07010  0.80214  1.0000
  C   C595      1.0  0.66599  0.04235  0.94002  1.0000
  Fe  Fe79      1.0  0.84769  0.75031  0.84285  1.0000
  H   H712      1.0  0.73060  0.77575  0.95976  1.0000
  H   H713      1.0  0.60714  0.07925  0.91043  1.0000
  C   C596      1.0  0.59791  0.68895  0.90268  1.0000
  C   C597      1.0  0.55961  0.88292  0.91247  1.0000
  S   S158      1.0  0.43110  0.08688  0.94091  1.0000
  C   C598      1.0  0.63354  0.84972  0.73921  1.0000
  S   S159      1.0  0.51305  0.99868  0.91249  1.0000
  Fe  Fe80      1.0  0.69590  0.03903  0.72996  1.0000
  S   S160      1.0  0.85968  0.76439  0.93978  1.0000
  H   H714      1.0  0.57028  0.68935  0.88427  1.0000
  H   H715      1.0  0.76674  0.89182  0.95833  1.0000
  H   H716      1.0  0.54626  0.79578  0.72642  1.0000
  C   C599      1.0  0.56826  0.82217  0.72549  1.0000
  H   H717      1.0  0.46705  0.72772  0.94939  1.0000
  C   C600      1.0  0.43921  0.80296  0.93693  1.0000
  H   H718      1.0  0.86096  0.05814  0.71371  1.0000
  H   H719      1.0  0.58193  0.00480  0.71075  1.0000
  H   H720      1.0  0.46046  0.82266  0.95872  1.0000
