data_image0
_chemical_formula_structural       FeSHFeS2FeHFeS3CHCH2CS2CFeS2FeS2Fe2S3FeS2FeS2FeSFeS2HCH2CHSHC3H3C2H2C4H2C2H4CHC6H4C3H2CH3CHCHC6H2CHC6H4C2HCHNH4CH2CHSHCH4SH2C5H3C2HCHCH4CHNC2HCNCH2CH3SC2H4CH5CH2C3HSCH3CH2C3HNC2NC2HCHCNH2CHC5HC4SHC2HCHNCH5CH5CH6CHCHCHCH2NHC3H2CH2CH3CHC2FeH4C2SH4CFeH2CHFeS2FeS2FeSFeS3HCHCFeS2FeS2FeSFeS3H3FeS3FeSFeS2CFeS2FeSFeCSFeS2FeS2FeSFeS3C3FeCFeS3C6H4C6H4C4H2C6H4CNH3C3H2C6H4C6H5C3NC2H4C2SHC7H5C2SHCHC2H2C2HCSC2H2C3H2C3H3NC9H14C3HNH4CH4C2HC2HC2H2NC9H16C2H2CHCHC7H3CHCH8C2H4C2NC5H3CH7CH2SH4CHC4HSCHNH3CHCH5C3H2C2HC4H7CH5NC3H4C2H2C2H6C3FeCSCHSH2CHCHSCH5FeCSC2H3NFeCH2CHCHCHCHC3H5CNH2CSC2HC2HCSNHC2H3C2H4NH2SCHC2HC6H3CH3C3H2NCHNH4CH5CFeCHC5H2C2HSH2CHCFe2S2FeS2FeHFeS3HFeHCHSH2FeS2FeS2FeSFeS3FeS2FeS2Fe2S3CFeS3H2CHC2HCFeH2FeS2FeS2FeSFeS3C3H2CH3C2HCHCH2C2H2CHCH2C7H4C5H2CH2C6H4C6H4C2H2CH3CHC5H4C2H2CH3CNC2HC7H5C3H5CH6SHSCHCH2C6HS3HCH3CH2C3HNHCHCHCH2C2NH3CHC2HSNH2C2FeCFeC2H5C2HCH2SCHCSC2H5CH2CH5CH2C2NCHC3NC9H14NC9H14CHFeH2CH2CHSHNC2H2CHC2HC2H6SC2H2C3H3CHCH2CH2CH3CH2CHC4SH2C3NHCHC2H4CH5CSCHSH3C8H4CHCH4NH3C2H4CHCNHFeCH3NHC2SCHCH3C3H3FeCH4CHFeSCFeS2FeSFeS3HFeS2FeS2FeSFeHS2C2SHCH2CH2C2N2HSHC2HCSCH2CH2CHNHCHCNH2SHC6HCH2C6H5C4H5C4H2C2HCHC6H4SCHCH4CHCNHFeCH4SCH2SCH5CHC2SFeH2C2H5CSCNC9H7CH4CH3CH2SH3NHNCHNHC2HS2HCH2C3HCH2CFeCHCH2CHCH2CH2CHC2HCHCH3CHFeH2CH3CHC5H5CNHCHFeS2C2SHSCHCH5C2SC3H2C3H2CH2CHSCNH4C2H2FeHC3H4CHCH2C3H2C4H2CH2C2FeCFeSFeSFe2S2FeS2FeS2FeSFeCS2HFeHSFeS2FeS2FeSFeS3FeHS3FeS2FeS2FeSFeS3C3FeS2H2S2HFeS2FeS2Fe2S4H4C2SC6H4C6H6CH2C7H4C6H4C6H5C6H4C3HSHCH2NC6H4C6H3CHCHFeCHFeHC3SCHCHCSH5CHNH2SC6HC2FeHCHCSHSCH3CH3C2H2C2H3C4H3C3HC2HCH3CFeC2FeHCNCFeH2C2HCH2NCHSCHC2H2C4HCHC3HC2HNC9H14NC6H12C2H2SHSNHC9HSH16FeH2C2SHCHCH2NC9H15CH5SCH2C3HC3H2C2HCNC9H14NC9H14NC5SH2CH10CHC3HC2SC2HCHCH2NH4CHCSH2C2SNC9H14SC4H4C2H3C2H3C2NH8C2H5SHCH2C2H4FeS2FeHSFeSH2S2FeSCFeSHFeSFeCS2H2CSFeH3CFe2SHCHCH4C2H8CHNCHCH4CHSCH2CH2C2HSC8H4C6H4CH7CH2C2FeCHNC2H2C2H3CFeHCHCHC3H2CHCSC2H6C2SH3C2S2HC2H3SNH2C4H8SNC2HCHCH4CHC2H3CNCHC4FeS2FeSHFeSFeS3FeS2FeH2FeHS2FeS2FeSFe2S3C2H2FeSC2H2CH2SH2CSC3HCH3C2H2CH6C2HCH4C6H8CHNCHC2H2CHCHC8H4CHC8H5CFeH2C2HC2HCNHCH2C2H2C2NS2H4SCH5CHCNCH4C2H2C2H2CHSNHCH2CH5CSH4C2H4SHFeCSHCH2C3H4SHCHC2HC2SCH6C2HC3HC2H4CH2SH2CFeS2FeSHFeHFeCS2FeS2FeHFeH2S2HSCH3CHCFeS2CSFeSFeS2CFeSFeS2FeSFeS3FeS2FeS2FeSFeS3HFeS2FeS2FeSFeS4H2C6FeH2CSHC6H4C6H4C6H4C6H4CH2CH2SHCSC6H5CH4C7H4C6H3CHCH2CSCH3C2HC3H2C6H6NC9H17C2H3C2HC2HCHC2HNC9H18SHC2HCHCH4C2H2SHCHFeC2H8C2H3CH4SCSHCH5C6NC9H11CH3C2H3CH7CH2SHFeC2H2NCNHC2H4CHC3HNCHNCH2CNC5SCSCNHCH3SH2CH2C3H2FeCH2C3Fe2SHC2HSCSH3C3H5C3H6CHCSCH3CH2C3FeCH2NCH3CH4C2H2SHC3H3NHC4H5C3NHC3H2CH2C3HCH2CHC3H2CH2CHS2CFeS2FeS2FeSFeS3CH6CFeCHFeHCFeS2FeHFeS3FeH2FeS2FeCFeS3HCHC2FeHFeS2FeS2FeSFeS3C6H6C2HCH2CHC6H4CH3CNH5CHC2H7CH2CH4CHCH8CH2N2H4C6H4C6H4C6H4C6H3SHCH2C8HCH2C5HCHCH2CNC9H14C3H3NH5SC2HCHSCHC3H7CHC3H2CHNCH2SH5SHCHC2H2NSC3H2NC2HCSNHCH2CHC2H3CHNC3SHFe2HCH2C2HCHC3H5CHCH2CH4CHCH2CH3CH2CHCHCSC3FeS2CH2FeSFeS3HS2FeS2FeCSFeSFeS2FeSCFeS2FeSFeS3FeS2FeS2FeNFeS3FeS2FeS2FeSFeS3FeS2FeS2FeHFeS3HCNH3CHCHSH8C6H5C2HCHCSHC6H4C6H4C6H4C6H4CH2C3SCH3CH3C6H6CH3CHCH3C6H10C2HCHCFeH3CH2C3HCH2CHSHC4H5C2HSCHSNCHSH3SHC4H4CHCHCHNC9H15C6H5NC9H13CNC9H4NCH7CNHC4HC4H2CHSCHCH3CH3CH3NH2NC3H3NCH2CHCHC2H4FeCHC5HCHCHC2H2CH2CHCH3CH2CH4CFeCH3CHFeC2HCH6C2HSCHCSCHC2HCH2C2H2CHSHCHNH2CHCHCH3C2NH2FeSHFeSCFeSFeS2FeHSFeCSHCFeSCSFeS2FeS2FeSFeS3FeS2FeS2FeSFeS3FeHSCH2FeSH2SHFeS2FeS2FeSFeS3H2Fe2S2Fe2S3CH3C3H2C2HC6H7CHCHCH2C6H4C6H4C6H4CH2C4SH2C6H4C4H2C6H4C4H2CH13NHCSC10H4NC6H11CNC9H14CSCH2CHCSH3C5H2CSCHCH2C2HC3H3SHC2HC2H4C4HCHC2HCHC2H2C4HC2NC9H15CHC3HC2H5NC9H11SCHCHSCH2N2HC4HSCH2CHNFeHCH2CHNH3C3HCHNCH6C2H2CHC2HSCH7CH2CH3C3H2NH3C3H3C3NCH4NCHCH4CHCH4C2FeSFeS2FeSFeS2HFeS2FeS2HFeS3FeCFeS2FeSFeS3FeS2FeS2FeHFeS3HSHFeS2FeS2FeSFeS3C7H4C6H4C6H2C6H4C6H4C6H5C2H4CH4FeH5CH4CNCHCHC4H2C6H4CHCH2C2H5C3H3CHSH2CHNCHCH3CHNSH2NC8SH5NHCH4CH4CHCHC5HC2H6CH2NC7H14CSHSH2CHNHCH2C2HCH3C2H3C5HCHC3HC2HCHC2NHC2HC3HC3HCNH2C2H5CHC3H4NC9H15C6HCH2SH2CSCH4CHCHC3HC3HC2H2CHCHC5H2CH6C4H4C3FeSFeS2FeSFeCS2FeS2FeS2FeSFeS3CHFeS2FeS2FeSFeS3HCHC2SH4C6H4C7H6C2FeSCH3C6H4C2H2C2HCH2C6HSH2C4H2C6H4C4HCSH2NC6H2NH2CH6S2CHCNC9H14CH2C2H3NH2C3H5CH5SHCH2C2H4NC5HC2H7C2H2CH3NC7H13CFeCHC2H3C4SH2CH3C2H2SCHNSHCHCNH3C4HCH2C3H2C2NHC3FeHSC2H2CH3FeSHC2FeS2FeSFeS2FeSFeS3FeS2FeS2FeSFeS3FeS2FeS2FeSFeS4Fe2SH2FeS2FeS2FeSFeS3H3CSHC3H2C8H4C9HFeH2C6H4C6H4CH2C3H4C6H4C6H4C2HC3H3C6H4C6H4C6H4C6HCH5CHC2HN2C9H14NC2HC3HC2H8C2H4C2H4C3SHCNC9H14CH2C2HNC2HC2HSHSCH2FeHC2H3CH3NC9H14NC7H11C2HSC2HCH6CH2CH3SCHCHCH2C2FeC4H6C3H6C2HNSH2CH10CHCHSH3NC3HCNH2CHC2H3C2S2CSH3C2H2CH4CNHCSH2NCHSH2C3HC3HNCSHCNHC2H4CHC4HSHCH4CSHC2H2FeSFeHCH2CH2C2HCH2SH3C3HCH2CHC3H2CH2SH3SCHFeSFeS2FeSFeS3FeS2FeSCFeSFeS3FeS2FeS2FeSFeS3FeS2FeS2FeSFeS5HC2H3CSCFeS2FeS2FeSFeS3H2CH2SHSCH2C8H4C4NCH3C7H4CHCSHC6H4C6H4C6H5C2H2C3HC2HCH2C6H4C6H5C6H4C6H4CH3CH2C2HCHCFeHCH3CHC2HCHCHCSH2CH4CFeH3CH3NC9H14NC9H14NC8H8CNC9H14NC6H12C2H2CNCH2CHC2H5SH2NC4H2C2H7CFeHCHCHS2HC2HC2H2CHCH3CH2CH2SH2CH2SFeNC6HFeCH3C2HCH5CHCH2C3HSNHCH3CHC2H4CHCH2C2HC5H2CHCHFeHNCH2C4NHCHCH6CHC2H3NHFeC2H3CH2C2HSCHC2NHC3SH4CH2CSH4C2HCH4CHCHC2H2C2H3C3HC2H3CSHNC3FeS2FeSCFeCFeS3FeS2FeS2HFeSHSCHC2H2CH2C2HCNCH2CSNHFeS2FeS2FeSFeHS2H5CHCH2C4H3C8H4CH2C6H4C4H6C6H4C2SH2C2H2FeHCHCHNH3C8H3SCH3C3HCH2CHC3H2CH6CSC3H8CH3C3H2C2NH3C4H2CHCH2CHCNC2SHCH2CH2C2H3NH2NCH2C2H5NHCH4C2H2C2HSCHCH2CH5CH3C3SCHFeS2FeSFeHFeHS2FeSCFeS2FeHFeS3FeS2FeS2FeSFeS3FeS2FeS2FeSFeS3FeS2FeS2FeSFeS3FeHCFeS2HFeSCSHCSFeS2FeS2FeSFeHS2C3H2CH2C2H2C2H4CHCHC3HCHC6H4C6H4C6H4CSHC6H3C6H4C2HSC2H4C6H4C6H4C7H3CHC4H4C6H6CHSH3CH2CSC2NHCSCHCHC4H8CNC2SFeCH2CH2NH5NC9H14CH2C2H4CH2CH3C3FeHSC2SH5CSHCHCHC8H5NC9H16CH2CHCH2CHCNC9H15C2H2C3HNC2H2NHC4H5SCHCHCH4CHCH5C3SCFeC2NC9H14NC7H12CHNC2HNH2CHSH2CHC2HNHSH4CNCH2CHCH3C2HCHCHCH2FeCH6CHCH2CH8NCHFeS2FeS2FeSFeCS2FeSNFeSHFeSFeS3H2C2HCHCH3CHNCHS2HC4H2CHCSHC3H4C2H3CH3C2H2C4HCHCHC3H3C2SH2C6H4C6H4C6H5C5HC3H2NCNCSCH2SH3CH3CHSC4H2SNHCH4NSC9HC2HCH5CH2CHCH4CNCFeHC3H2CH2CHCH5CHC2H2SC2H5FeH3SH4CHC3HCH2CH2C2HCH2CHC2HFeCHFeSHFeS2FeSFeS3FeCFeS3H3CHFeC3HFeS2NHC4H2SH2C3S2H2CH3C2HSHC3H2C2H5CHCHC7H4CHCSNH2C2HC6H13FeC4H4CNC2H2CH3CHCSC2H4CHC2HC3HCSCH6FeSCH4C2H3CHSH5CHC2H4C2SCHCN2HC2NCH2CH3CHCHCH3C3HNC2H4C3HC2HCFeCH2FeCFeS2FeS2FeSFeS3FeS2FeS2Fe2S3FeS2FeS2FeSFeS3CS2FeS2FeS2FeSFeS3FeS2FeS2FeSFeS3H3FeC3FeS2FeS2FeSFeS3CH2CH2C4HFeC5H2C5HCH2CHC6H4C6H7C2H2C3HC6H4C4H3C6H4C6H5SC6H4C6H4C2HC6H4SCHC5H2NC7H12NC9H17CSCHCHCNCHCS3CH4SHNC6H7NC9H14NC6H9NC9H15CHCHCHCH5CH2CHNCH3CHC2HC2H2CH3CH2CH2CHC2HNC9H14NC9H11FeH2C2H2C2H3CHC3HC2H2SH3FeCNC9H11CNCHCSC2HC2HCHC2HSCHFeHNC2H2S2CH4FeC2HCHCHNH3NHCHNCFeH4SHC2H3C5H5CH2C2H3C2HCHC2H4CH2CHCH2C4H10FeHSHSH2NH2CH2CH2CH5CH3CHC3HFeCSFeHSC4SHFeS2FeS2FeSFeS2FeS3FeS2FeSFe2S3CHFeC2H4NHCH2SH3CNHSHC2HCH2C2H6C2H3C2H2SC2H2C2H2CH2CH2FeHC5HC2HCH2C6H4C6H4C6H4SH2C2HCHC2H2C2HCH2SCH2SHFeCSH4C3HC3H3C3H3CHC2H3CHCNCH4SH2FeCHSNC2HSH6NCHCH3CHCHCH4C2HNCHFeS2HC3H2CFeHC2NCH2C3HC8H3CH2SCHCH2C2HSHCSC4H2C3HCHC3H7NH2C3H4SHCH3CFeHCHSFeSCFeSFeS4FeS2FeSFeSFeHFeSC3NSH2FeHCFeSFeCSFeS2FeSCS2FeS2FeSFeS2CS2HCHFeS2C6H4CHC6H4C6H4C2FeCSHC2HSH5CH2SC7H4C6H3SC8H5SHSH4C2FeC2HSH5C2SHSC2H2CHC2HCH2SCH5C4HCHNC9H15C2HC2S2CH4CHCS2H2FeCNC9H15CHCHSH4NH2C2H3C2H2CHNHCHC4HCNHC2H3CNH3CH2FeCSCFeCHFeHC3SC2SFeCH4CHCH2CH2CH6CH3CHCHCH2FeHCHCHSFeHCHCH4CH4CH2NFeC2H2CHC2H2CHC2HCHNC3H3NHSNH4C2FeNHC2H2CH2C3HC2H2CNCH2C2HCH6CHC2HCHS2HCHCFeSH3FeHFeSHCFeSCFeS2Fe2S3CSCHSFeS2FeS2FeSFeS3FeSFeS2FeSFeS2FeSFeS3FeSFeS2FeSFeS3H2CHCH4C6H4C6H4C6H6C3H3C6H4C6H4C2HC7H4C6H4C2HC4H6C4H2C2NH4CHCHCHCNCSH2C2HSCH2C2H3FeSH2C2HCHC4SCHC2H3NHCH4CHCSH3C2SHC3NH2CSC2HCHC2H2CHC3SCH2CH2SCH3C2H2CHSH9CHS2HNC4HCHCH15NC9H15CFeCSC2NCH2NC5HC2H8FeCH2FeSHC5H6NC9H13C2H2FeC3H3C3H2CHCH3C2H2CNH3C5H2CH2CHFeS2FeSHFeSFeHS2FeS2FeHSFeS2HFeHSHSFeS2Fe2HSHFeS2FeS2Fe2S3C6H4C6H7CNHC6H4C6HCH4C7H4CH3FeH6CSCH7SH5CH3CHNC2HNHSHCSC2HCHCHSHFeC3HCH2C4HC2SHSC2HCHNCHCHCHFeNCHCHCSCHCHC2HSH4C2H3C2SCHC3H4CHCH4C2HNCFeH3CH2SH2C2H7CH4C2HCHC2SHC2HCHC2
_chemical_formula_sum              "Fe512 S1024 H4608 C3840 N256"
_cell_length_a       79.4412
_cell_length_b       80.4071
_cell_length_c       112.569
_cell_angle_alpha    74.1872
_cell_angle_beta     74.1587
_cell_angle_gamma    74.1524

_space_group_name_H-M_alt    "P 1"
_space_group_IT_number       1

loop_
  _space_group_symop_operation_xyz
  'x, y, z'

loop_
  _atom_site_type_symbol
  _atom_site_label
  _atom_site_symmetry_multiplicity
  _atom_site_fract_x
  _atom_site_fract_y
  _atom_site_fract_z
  _atom_site_occupancy
  Fe  Fe1       1.0  0.45900  0.10257  0.01870  1.0000
  S   S1        1.0  0.43496  0.12485  0.01816  1.0000
  H   H1        1.0  0.45055  0.22472  0.12246  1.0000
  Fe  Fe2       1.0  0.43749  0.07419  0.03038  1.0000
  S   S2        1.0  0.41120  0.09387  0.03110  1.0000
  S   S3        1.0  0.44315  0.04483  0.03823  1.0000
  Fe  Fe3       1.0  0.42420  0.10661  0.01151  1.0000
  H   H2        1.0  0.43312  0.27217  0.11719  1.0000
  Fe  Fe4       1.0  0.42434  0.11033  0.03774  1.0000
  S   S4        1.0  0.41287  0.12110  0.05564  1.0000
  S   S5        1.0  0.44944  0.08560  0.01040  1.0000
  S   S6        1.0  0.44947  0.08941  0.03862  1.0000
  C   C1        1.0  0.25755  0.32202  0.21310  1.0000
  H   H3        1.0  0.40227  0.08359  0.08358  1.0000
  C   C2        1.0  0.28826  0.19303  0.23024  1.0000
  H   H4        1.0  0.42847  0.27853  0.13206  1.0000
  H   H5        1.0  0.32832  0.27897  0.09960  1.0000
  C   C3        1.0  0.43845  0.24291  0.13546  1.0000
  S   S7        1.0  0.40757  0.99734  0.02019  1.0000
  S   S8        1.0  0.48956  0.19581  0.08324  1.0000
  C   C4        1.0  0.39531  0.29364  0.15743  1.0000
  Fe  Fe5       1.0  0.43054  0.20179  0.07431  1.0000
  S   S9        1.0  0.44461  0.18298  0.08906  1.0000
  S   S10       1.0  0.42809  0.19419  0.05698  1.0000
  Fe  Fe6       1.0  0.42644  0.23375  0.08572  1.0000
  S   S11       1.0  0.44070  0.21740  0.10105  1.0000
  S   S12       1.0  0.41375  0.26246  0.08600  1.0000
  Fe  Fe7       1.0  0.45968  0.20419  0.08590  1.0000
  Fe  Fe8       1.0  0.42419  0.19802  0.10278  1.0000
  S   S13       1.0  0.41143  0.18545  0.12245  1.0000
  S   S14       1.0  0.44697  0.22230  0.07028  1.0000
  S   S15       1.0  0.40856  0.21507  0.08828  1.0000
  Fe  Fe9       1.0  0.32619  0.24081  0.15945  1.0000
  S   S16       1.0  0.34475  0.24620  0.16913  1.0000
  S   S17       1.0  0.33554  0.23002  0.14171  1.0000
  Fe  Fe10      1.0  0.29276  0.25995  0.17532  1.0000
  S   S18       1.0  0.30852  0.26710  0.18611  1.0000
  S   S19       1.0  0.26290  0.26919  0.18025  1.0000
  Fe  Fe11      1.0  0.32715  0.27347  0.16749  1.0000
  S   S20       1.0  0.33577  0.29946  0.16045  1.0000
  Fe  Fe12      1.0  0.32422  0.23924  0.18690  1.0000
  S   S21       1.0  0.31007  0.26862  0.15650  1.0000
  S   S22       1.0  0.30701  0.23146  0.17737  1.0000
  H   H6        1.0  0.46598  0.24496  0.14395  1.0000
  C   C5        1.0  0.35840  0.29751  0.16006  1.0000
  H   H7        1.0  0.48970  0.06583  0.98594  1.0000
  H   H8        1.0  0.28481  0.29496  0.16808  1.0000
  C   C6        1.0  0.45850  0.25793  0.13941  1.0000
  H   H9        1.0  0.49271  0.18638  0.02153  1.0000
  S   S23       1.0  0.48711  0.10588  0.01150  1.0000
  H   H10       1.0  0.25920  0.24322  0.20286  1.0000
  C   C7        1.0  0.41300  0.09781  0.98788  1.0000
  C   C8        1.0  0.25739  0.29220  0.17494  1.0000
  C   C9        1.0  0.39433  0.01566  0.07161  1.0000
  H   H11       1.0  0.46825  0.11640  0.03527  1.0000
  H   H12       1.0  0.45209  0.25656  0.08432  1.0000
  H   H13       1.0  0.45977  0.24978  0.11117  1.0000
  C   C10       1.0  0.39890  0.04942  0.07181  1.0000
  C   C11       1.0  0.37414  0.17289  0.07678  1.0000
  H   H14       1.0  0.42143  0.06860  0.05403  1.0000
  H   H15       1.0  0.38042  0.28275  0.10056  1.0000
  C   C12       1.0  0.38528  0.30935  0.15151  1.0000
  C   C13       1.0  0.29442  0.19301  0.21734  1.0000
  C   C14       1.0  0.30668  0.20335  0.20979  1.0000
  C   C15       1.0  0.41246  0.23402  0.15131  1.0000
  H   H16       1.0  0.28988  0.18482  0.21319  1.0000
  H   H17       1.0  0.31173  0.20289  0.19992  1.0000
  C   C16       1.0  0.36759  0.27992  0.10581  1.0000
  C   C17       1.0  0.46498  0.25062  0.11918  1.0000
  H   H18       1.0  0.46805  0.26696  0.13523  1.0000
  H   H19       1.0  0.34550  0.22558  0.09714  1.0000
  H   H20       1.0  0.50011  0.15987  0.10068  1.0000
  H   H21       1.0  0.38661  0.18240  0.05746  1.0000
  C   C18       1.0  0.49104  0.03317  0.04573  1.0000
  H   H22       1.0  0.36175  0.27156  0.17224  1.0000
  C   C19       1.0  0.39207  0.19946  0.12912  1.0000
  C   C20       1.0  0.38583  0.21616  0.12207  1.0000
  C   C21       1.0  0.36882  0.22604  0.12641  1.0000
  C   C22       1.0  0.35822  0.21958  0.13803  1.0000
  C   C23       1.0  0.36498  0.20344  0.14554  1.0000
  C   C24       1.0  0.38187  0.19331  0.14103  1.0000
  H   H23       1.0  0.39375  0.22115  0.11300  1.0000
  H   H24       1.0  0.36358  0.23833  0.12046  1.0000
  H   H25       1.0  0.35674  0.19825  0.15445  1.0000
  H   H26       1.0  0.38666  0.18037  0.14653  1.0000
  C   C25       1.0  0.42711  0.27516  0.08825  1.0000
  C   C26       1.0  0.41895  0.29161  0.09147  1.0000
  C   C27       1.0  0.42908  0.30159  0.09397  1.0000
  H   H27       1.0  0.34725  0.21951  0.11333  1.0000
  H   H28       1.0  0.37123  0.21993  0.08086  1.0000
  C   C28       1.0  0.44563  0.26905  0.08706  1.0000
  H   H29       1.0  0.40477  0.29673  0.09200  1.0000
  H   H30       1.0  0.42960  0.02309  0.99723  1.0000
  H   H31       1.0  0.43036  0.05795  0.06778  1.0000
  C   C29       1.0  0.39516  0.99839  0.99238  1.0000
  H   H32       1.0  0.39891  0.02441  0.05141  1.0000
  C   C30       1.0  0.37222  0.26551  0.14004  1.0000
  H   H33       1.0  0.48886  0.24938  0.09619  1.0000
  C   C31       1.0  0.43329  0.03184  0.03303  1.0000
  C   C32       1.0  0.42029  0.03961  0.02578  1.0000
  C   C33       1.0  0.41229  0.02887  0.02204  1.0000
  C   C34       1.0  0.41757  0.01037  0.02525  1.0000
  C   C35       1.0  0.43068  0.00262  0.03241  1.0000
  C   C36       1.0  0.43833  0.01336  0.03644  1.0000
  H   H34       1.0  0.41619  0.05386  0.02324  1.0000
  H   H35       1.0  0.40206  0.03492  0.01655  1.0000
  C   C37       1.0  0.42812  0.21664  0.13564  1.0000
  H   H36       1.0  0.44809  0.00736  0.04229  1.0000
  C   C38       1.0  0.41873  0.14068  0.05602  1.0000
  C   C39       1.0  0.42424  0.15254  0.04485  1.0000
  C   C40       1.0  0.42745  0.16868  0.04534  1.0000
  C   C41       1.0  0.42553  0.17301  0.05697  1.0000
  C   C42       1.0  0.42067  0.16088  0.06817  1.0000
  C   C43       1.0  0.41705  0.14488  0.06769  1.0000
  H   H37       1.0  0.42545  0.14957  0.03582  1.0000
  H   H38       1.0  0.43112  0.17800  0.03663  1.0000
  H   H39       1.0  0.41905  0.16412  0.07720  1.0000
  H   H40       1.0  0.41280  0.13580  0.07638  1.0000
  C   C44       1.0  0.36831  0.28202  0.16634  1.0000
  C   C45       1.0  0.37141  0.20674  0.08019  1.0000
  H   H41       1.0  0.31190  0.22135  0.23225  1.0000
  C   C46       1.0  0.50001  0.19379  0.04206  1.0000
  H   H42       1.0  0.40505  0.21083  0.14997  1.0000
  N   N1        1.0  0.37741  0.27346  0.12638  1.0000
  H   H43       1.0  0.40072  0.00909  0.99343  1.0000
  H   H44       1.0  0.47500  0.22996  0.08977  1.0000
  H   H45       1.0  0.44850  0.26385  0.14701  1.0000
  H   H46       1.0  0.48210  0.02461  0.04660  1.0000
  C   C47       1.0  0.35497  0.28128  0.09884  1.0000
  H   H47       1.0  0.27427  0.28770  0.19824  1.0000
  H   H48       1.0  0.38911  0.08052  0.05566  1.0000
  C   C48       1.0  0.39528  0.03664  0.08321  1.0000
  H   H49       1.0  0.45814  0.20126  0.03644  1.0000
  S   S24       1.0  0.41859  0.29060  0.15483  1.0000
  H   H50       1.0  0.47894  0.12714  0.04996  1.0000
  C   C49       1.0  0.48721  0.12600  0.04070  1.0000
  H   H51       1.0  0.45931  0.00019  0.00889  1.0000
  H   H52       1.0  0.48292  0.05815  0.01386  1.0000
  H   H53       1.0  0.47473  0.05622  0.03649  1.0000
  H   H54       1.0  0.38660  0.06950  0.09033  1.0000
  S   S25       1.0  0.41239  0.11580  0.99416  1.0000
  H   H55       1.0  0.47511  0.21415  0.02959  1.0000
  H   H56       1.0  0.23556  0.22713  0.20890  1.0000
  C   C50       1.0  0.49666  0.23687  0.09414  1.0000
  C   C51       1.0  0.39468  0.26223  0.12126  1.0000
  C   C52       1.0  0.48124  0.11974  0.03242  1.0000
  C   C53       1.0  0.36469  0.19406  0.09075  1.0000
  C   C54       1.0  0.39776  0.02790  0.06031  1.0000
  H   H57       1.0  0.36250  0.16635  0.09636  1.0000
  H   H58       1.0  0.37062  0.17291  0.11322  1.0000
  H   H59       1.0  0.39447  0.26801  0.16974  1.0000
  C   C55       1.0  0.38679  0.28006  0.16499  1.0000
  C   C56       1.0  0.40003  0.04451  0.06036  1.0000
  H   H60       1.0  0.23048  0.25718  0.20040  1.0000
  C   C57       1.0  0.45588  0.27940  0.08908  1.0000
  H   H61       1.0  0.38279  0.99754  0.99992  1.0000
  C   C58       1.0  0.38032  0.18569  0.06662  1.0000
  H   H62       1.0  0.32995  0.19981  0.10187  1.0000
  H   H63       1.0  0.32068  0.27051  0.12301  1.0000
  H   H64       1.0  0.33239  0.19678  0.11781  1.0000
  H   H65       1.0  0.36754  0.30020  0.12899  1.0000
  C   C59       1.0  0.43936  0.27315  0.12464  1.0000
  H   H66       1.0  0.33152  0.16468  0.21767  1.0000
  N   N2        1.0  0.45020  0.25580  0.12974  1.0000
  C   C60       1.0  0.33906  0.19304  0.10853  1.0000
  C   C61       1.0  0.27092  0.30171  0.16927  1.0000
  H   H67       1.0  0.39276  0.00274  0.07148  1.0000
  C   C62       1.0  0.49844  0.20445  0.05065  1.0000
  N   N3        1.0  0.45780  0.01415  0.98976  1.0000
  C   C63       1.0  0.38025  0.29135  0.12524  1.0000
  H   H68       1.0  0.22897  0.29387  0.18094  1.0000
  H   H69       1.0  0.38990  0.09461  0.06513  1.0000
  C   C64       1.0  0.31311  0.21347  0.21517  1.0000
  H   H70       1.0  0.38473  0.21213  0.06051  1.0000
  H   H71       1.0  0.46511  0.17281  0.05284  1.0000
  H   H72       1.0  0.28635  0.30014  0.20300  1.0000
  S   S26       1.0  0.32968  0.22514  0.20609  1.0000
  C   C65       1.0  0.27277  0.27660  0.22466  1.0000
  C   C66       1.0  0.35406  0.21688  0.10375  1.0000
  H   H73       1.0  0.37569  0.15965  0.07543  1.0000
  H   H74       1.0  0.47393  0.23772  0.12230  1.0000
  H   H75       1.0  0.24087  0.31627  0.19741  1.0000
  H   H76       1.0  0.36008  0.27394  0.14481  1.0000
  C   C67       1.0  0.33376  0.27329  0.11816  1.0000
  H   H77       1.0  0.39287  0.24916  0.12093  1.0000
  H   H78       1.0  0.42213  0.25657  0.15046  1.0000
  H   H79       1.0  0.40471  0.25978  0.12706  1.0000
  H   H80       1.0  0.48731  0.16536  0.05586  1.0000
  H   H81       1.0  0.35839  0.28494  0.08860  1.0000
  C   C68       1.0  0.42429  0.24550  0.14612  1.0000
  H   H82       1.0  0.47547  0.01408  0.00134  1.0000
  H   H83       1.0  0.40179  0.23627  0.15948  1.0000
  C   C69       1.0  0.44011  0.22797  0.13043  1.0000
  C   C70       1.0  0.24364  0.29297  0.23351  1.0000
  C   C71       1.0  0.48891  0.22596  0.09041  1.0000
  H   H84       1.0  0.24699  0.21116  0.22016  1.0000
  S   S27       1.0  0.41701  0.32099  0.12169  1.0000
  C   C72       1.0  0.49925  0.20997  0.08740  1.0000
  H   H85       1.0  0.27119  0.22916  0.21438  1.0000
  H   H86       1.0  0.42274  0.08170  0.06403  1.0000
  H   H87       1.0  0.22898  0.30978  0.21308  1.0000
  C   C73       1.0  0.46988  0.20463  0.03813  1.0000
  H   H88       1.0  0.45244  0.02362  0.00694  1.0000
  H   H89       1.0  0.35053  0.18495  0.21662  1.0000
  C   C74       1.0  0.36656  0.17691  0.08870  1.0000
  C   C75       1.0  0.20672  0.27890  0.22911  1.0000
  C   C76       1.0  0.36889  0.18739  0.11212  1.0000
  H   H90       1.0  0.36702  0.22113  0.10133  1.0000
  N   N4        1.0  0.35681  0.19791  0.10350  1.0000
  C   C77       1.0  0.44757  0.29550  0.09281  1.0000
  C   C78       1.0  0.40014  0.07017  0.08424  1.0000
  N   N5        1.0  0.48400  0.18862  0.04104  1.0000
  C   C79       1.0  0.41723  0.06619  0.99002  1.0000
  C   C80       1.0  0.41654  0.08058  0.99503  1.0000
  H   H91       1.0  0.34001  0.17858  0.11027  1.0000
  C   C81       1.0  0.38816  0.08113  0.06556  1.0000
  H   H92       1.0  0.34203  0.26811  0.13532  1.0000
  C   C82       1.0  0.37914  0.20249  0.06835  1.0000
  N   N6        1.0  0.40165  0.06703  0.07155  1.0000
  H   H93       1.0  0.47745  0.04485  0.00561  1.0000
  H   H94       1.0  0.36377  0.19023  0.12178  1.0000
  C   C83       1.0  0.23944  0.30119  0.17671  1.0000
  H   H95       1.0  0.38252  0.19036  0.10852  1.0000
  C   C84       1.0  0.21046  0.27810  0.20730  1.0000
  C   C85       1.0  0.36685  0.31127  0.15282  1.0000
  C   C86       1.0  0.48763  0.17854  0.03102  1.0000
  C   C87       1.0  0.34388  0.17827  0.22574  1.0000
  C   C88       1.0  0.33809  0.27793  0.10501  1.0000
  H   H96       1.0  0.49323  0.30345  0.11363  1.0000
  C   C89       1.0  0.43879  0.01319  0.99189  1.0000
  C   C90       1.0  0.25810  0.29120  0.22291  1.0000
  C   C91       1.0  0.30684  0.21362  0.22805  1.0000
  C   C92       1.0  0.41980  0.06890  0.06406  1.0000
  S   S28       1.0  0.45594  0.31167  0.12957  1.0000
  H   H97       1.0  0.41047  0.06050  0.08909  1.0000
  C   C93       1.0  0.47695  0.17736  0.05325  1.0000
  C   C94       1.0  0.22400  0.26278  0.20866  1.0000
  H   H98       1.0  0.20659  0.28377  0.19828  1.0000
  C   C95       1.0  0.48697  0.05098  0.03994  1.0000
  H   H99       1.0  0.41841  0.07834  0.00452  1.0000
  N   N7        1.0  0.24293  0.23820  0.22178  1.0000
  C   C96       1.0  0.22908  0.25484  0.22043  1.0000
  H   H100      1.0  0.46435  0.21168  0.04603  1.0000
  H   H101      1.0  0.39026  0.29093  0.13065  1.0000
  H   H102      1.0  0.45279  0.04266  0.98669  1.0000
  H   H103      1.0  0.19139  0.29807  0.21643  1.0000
  H   H104      1.0  0.47534  0.17479  0.03056  1.0000
  C   C97       1.0  0.36376  0.27494  0.11921  1.0000
  H   H105      1.0  0.37430  0.08011  0.07084  1.0000
  H   H106      1.0  0.44770  0.28326  0.12025  1.0000
  H   H107      1.0  0.40300  0.05338  0.05129  1.0000
  H   H108      1.0  0.38520  0.29777  0.11525  1.0000
  H   H109      1.0  0.36962  0.25208  0.14152  1.0000
  C   C98       1.0  0.26006  0.24091  0.21288  1.0000
  H   H110      1.0  0.27276  0.31074  0.19168  1.0000
  H   H111      1.0  0.41964  0.05300  0.99575  1.0000
  H   H112      1.0  0.43652  0.99996  0.99740  1.0000
  H   H113      1.0  0.38285  0.26415  0.14515  1.0000
  H   H114      1.0  0.40099  0.26834  0.11158  1.0000
  H   H115      1.0  0.47253  0.18448  0.06114  1.0000
  C   C99       1.0  0.27355  0.30051  0.20058  1.0000
  H   H116      1.0  0.49699  0.16068  0.08088  1.0000
  C   C100      1.0  0.41429  0.21969  0.14601  1.0000
  H   H117      1.0  0.42957  0.20537  0.13161  1.0000
  C   C101      1.0  0.46152  0.01290  0.00225  1.0000
  H   H118      1.0  0.47024  0.27490  0.08784  1.0000
  C   C102      1.0  0.39306  0.02002  0.08303  1.0000
  H   H119      1.0  0.39045  0.01040  0.09180  1.0000
  H   H120      1.0  0.24152  0.29318  0.20427  1.0000
  N   N8        1.0  0.25783  0.30457  0.21090  1.0000
  H   H121      1.0  0.47662  0.13092  0.99019  1.0000
  C   C103      1.0  0.34628  0.27194  0.12519  1.0000
  C   C104      1.0  0.20186  0.28616  0.21750  1.0000
  C   C105      1.0  0.49254  0.11696  0.02084  1.0000
  H   H122      1.0  0.48567  0.20897  0.05657  1.0000
  H   H123      1.0  0.39424  0.03906  0.09237  1.0000
  C   C106      1.0  0.33314  0.16684  0.22635  1.0000
  H   H124      1.0  0.26414  0.25249  0.21395  1.0000
  H   H125      1.0  0.49389  0.31727  0.13063  1.0000
  C   C107      1.0  0.23708  0.22403  0.21885  1.0000
  H   H126      1.0  0.49581  0.07676  0.99554  1.0000
  H   H127      1.0  0.28443  0.27414  0.21719  1.0000
  H   H128      1.0  0.47361  0.26056  0.11517  1.0000
  C   C108      1.0  0.22009  0.26351  0.23062  1.0000
  H   H129      1.0  0.22399  0.22189  0.22512  1.0000
  C   C109      1.0  0.24161  0.30596  0.20627  1.0000
  C   C110      1.0  0.48825  0.04635  0.00953  1.0000
  Fe  Fe13      1.0  0.42735  0.31275  0.13943  1.0000
  H   H130      1.0  0.49387  0.15135  0.98485  1.0000
  H   H131      1.0  0.49754  0.16592  0.03286  1.0000
  H   H132      1.0  0.39167  0.32006  0.14591  1.0000
  H   H133      1.0  0.49505  0.07563  0.03364  1.0000
  C   C111      1.0  0.49865  0.06197  0.03846  1.0000
  C   C112      1.0  0.26653  0.32014  0.16526  1.0000
  S   S29       1.0  0.46037  0.30755  0.09637  1.0000
  H   H134      1.0  0.23213  0.30388  0.23299  1.0000
  H   H135      1.0  0.42264  0.31427  0.09641  1.0000
  H   H136      1.0  0.49059  0.03479  0.01746  1.0000
  H   H137      1.0  0.44835  0.12434  0.99034  1.0000
  C   C113      1.0  0.23504  0.31970  0.17299  1.0000
  Fe  Fe14      1.0  0.44532  0.32225  0.11183  1.0000
  H   H138      1.0  0.26897  0.32129  0.21729  1.0000
  H   H139      1.0  0.49872  0.30081  0.08464  1.0000
  C   C114      1.0  0.50048  0.06545  0.99065  1.0000
  H   H140      1.0  0.35925  0.32334  0.14803  1.0000
  Fe  Fe15      1.0  0.40909  0.08397  0.44078  1.0000
  S   S30       1.0  0.43603  0.07679  0.42815  1.0000
  S   S31       1.0  0.40693  0.07396  0.46173  1.0000
  Fe  Fe16      1.0  0.38961  0.09773  0.41860  1.0000
  S   S32       1.0  0.41531  0.09269  0.40440  1.0000
  S   S33       1.0  0.36255  0.10420  0.41325  1.0000
  Fe  Fe17      1.0  0.42126  0.06707  0.41798  1.0000
  S   S34       1.0  0.42906  0.04171  0.41142  1.0000
  Fe  Fe18      1.0  0.42724  0.10330  0.41603  1.0000
  S   S35       1.0  0.44598  0.12174  0.40575  1.0000
  S   S36       1.0  0.39531  0.07148  0.43182  1.0000
  S   S37       1.0  0.40074  0.11114  0.42914  1.0000
  H   H141      1.0  0.49213  0.09581  0.40351  1.0000
  C   C115      1.0  0.19184  0.16558  0.34793  1.0000
  H   H142      1.0  0.02829  0.13491  0.35685  1.0000
  C   C116      1.0  0.37824  0.02916  0.44461  1.0000
  Fe  Fe19      1.0  0.33072  0.08116  0.36010  1.0000
  S   S38       1.0  0.33409  0.06589  0.34526  1.0000
  S   S39       1.0  0.35616  0.08431  0.36392  1.0000
  Fe  Fe20      1.0  0.29015  0.08904  0.36443  1.0000
  S   S40       1.0  0.29005  0.07472  0.35007  1.0000
  S   S41       1.0  0.26524  0.10346  0.37576  1.0000
  Fe  Fe21      1.0  0.31154  0.05401  0.35828  1.0000
  S   S42       1.0  0.27353  0.17929  0.23948  1.0000
  Fe  Fe22      1.0  0.31243  0.08769  0.33810  1.0000
  S   S43       1.0  0.31262  0.09633  0.31731  1.0000
  S   S44       1.0  0.31001  0.06728  0.37387  1.0000
  S   S45       1.0  0.31079  0.10410  0.35179  1.0000
  H   H143      1.0  0.36684  0.03026  0.35832  1.0000
  H   H144      1.0  0.26308  0.12037  0.32673  1.0000
  H   H145      1.0  0.30313  0.04972  0.31605  1.0000
  Fe  Fe23      1.0  0.22406  0.17788  0.27792  1.0000
  S   S46       1.0  0.22641  0.19525  0.28960  1.0000
  S   S47       1.0  0.19931  0.16679  0.28422  1.0000
  S   S48       1.0  0.26259  0.20323  0.26825  1.0000
  Fe  Fe24      1.0  0.25566  0.18256  0.28571  1.0000
  S   S49       1.0  0.27021  0.17492  0.30160  1.0000
  Fe  Fe25      1.0  0.23308  0.21400  0.27111  1.0000
  S   S50       1.0  0.22163  0.24305  0.26621  1.0000
  S   S51       1.0  0.25291  0.16359  0.27538  1.0000
  C   C117      1.0  0.42949  0.02364  0.37906  1.0000
  Fe  Fe26      1.0  0.04818  0.21034  0.32984  1.0000
  S   S52       1.0  0.06279  0.22087  0.33954  1.0000
  S   S53       1.0  0.05807  0.21280  0.30904  1.0000
  Fe  Fe27      1.0  0.05866  0.19678  0.35476  1.0000
  S   S54       1.0  0.08193  0.18046  0.36357  1.0000
  Fe  Fe28      1.0  0.03546  0.23380  0.34889  1.0000
  C   C118      1.0  0.18784  0.02526  0.31893  1.0000
  S   S55       1.0  0.04561  0.18528  0.34440  1.0000
  Fe  Fe29      1.0  0.19269  0.08733  0.33148  1.0000
  S   S56       1.0  0.17856  0.11125  0.33961  1.0000
  S   S57       1.0  0.21543  0.08817  0.31460  1.0000
  Fe  Fe30      1.0  0.17018  0.06350  0.35089  1.0000
  S   S58       1.0  0.15380  0.08531  0.36094  1.0000
  S   S59       1.0  0.17045  0.03423  0.35648  1.0000
  Fe  Fe31      1.0  0.15358  0.10218  0.34139  1.0000
  S   S60       1.0  0.13048  0.12181  0.33396  1.0000
  Fe  Fe32      1.0  0.18022  0.09269  0.35831  1.0000
  S   S61       1.0  0.18666  0.10245  0.37316  1.0000
  S   S62       1.0  0.16769  0.07965  0.33156  1.0000
  S   S63       1.0  0.19659  0.06954  0.35002  1.0000
  C   C119      1.0  0.33624  0.17376  0.24855  1.0000
  C   C120      1.0  0.01156  0.27621  0.38772  1.0000
  C   C121      1.0  0.29425  0.20361  0.23554  1.0000
  Fe  Fe33      1.0  0.12953  0.28121  0.29488  1.0000
  C   C122      1.0  0.19952  0.23935  0.28970  1.0000
  Fe  Fe34      1.0  0.09274  0.29630  0.28960  1.0000
  S   S64       1.0  0.06524  0.29245  0.29124  1.0000
  S   S65       1.0  0.14007  0.30526  0.28343  1.0000
  S   S66       1.0  0.10454  0.29633  0.30562  1.0000
  C   C123      1.0  0.06099  0.23462  0.30328  1.0000
  C   C124      1.0  0.04865  0.24721  0.29687  1.0000
  C   C125      1.0  0.05006  0.26498  0.29317  1.0000
  C   C126      1.0  0.06408  0.27009  0.29558  1.0000
  C   C127      1.0  0.07668  0.25743  0.30176  1.0000
  C   C128      1.0  0.07494  0.23974  0.30581  1.0000
  H   H146      1.0  0.03779  0.24330  0.29501  1.0000
  H   H147      1.0  0.04034  0.27477  0.28838  1.0000
  H   H148      1.0  0.08744  0.26140  0.30370  1.0000
  H   H149      1.0  0.08428  0.23007  0.31096  1.0000
  C   C129      1.0  0.09664  0.16514  0.35484  1.0000
  C   C130      1.0  0.09465  0.16528  0.34285  1.0000
  C   C131      1.0  0.10573  0.15234  0.33628  1.0000
  C   C132      1.0  0.11885  0.13920  0.34165  1.0000
  C   C133      1.0  0.12144  0.13951  0.35339  1.0000
  C   C134      1.0  0.11031  0.15248  0.35998  1.0000
  H   H150      1.0  0.08445  0.17523  0.33867  1.0000
  H   H151      1.0  0.10378  0.15218  0.32717  1.0000
  H   H152      1.0  0.13159  0.12941  0.35758  1.0000
  H   H153      1.0  0.11201  0.15242  0.36922  1.0000
  C   C135      1.0  0.20137  0.24797  0.27696  1.0000
  C   C136      1.0  0.18667  0.25982  0.27266  1.0000
  C   C137      1.0  0.17003  0.26271  0.28104  1.0000
  C   C138      1.0  0.43478  0.00529  0.38076  1.0000
  H   H154      1.0  0.18803  0.26646  0.26280  1.0000
  H   H155      1.0  0.15861  0.27143  0.27755  1.0000
  C   C139      1.0  0.20355  0.14423  0.29134  1.0000
  C   C140      1.0  0.18962  0.13693  0.29983  1.0000
  C   C141      1.0  0.19315  0.11938  0.30656  1.0000
  C   C142      1.0  0.21060  0.10910  0.30479  1.0000
  C   C143      1.0  0.22436  0.11609  0.29584  1.0000
  C   C144      1.0  0.22082  0.13367  0.28910  1.0000
  H   H156      1.0  0.17616  0.14491  0.30142  1.0000
  H   H157      1.0  0.18233  0.11384  0.31312  1.0000
  H   H158      1.0  0.23782  0.10808  0.29433  1.0000
  H   H159      1.0  0.23144  0.13900  0.28219  1.0000
  C   C145      1.0  0.11021  0.20329  0.29521  1.0000
  N   N9        1.0  0.45580  0.13713  0.46210  1.0000
  H   H160      1.0  0.24321  0.15099  0.31097  1.0000
  H   H161      1.0  0.22472  0.14248  0.31051  1.0000
  H   H162      1.0  0.09202  0.10885  0.35437  1.0000
  C   C146      1.0  0.03579  0.27206  0.35656  1.0000
  C   C147      1.0  0.02992  0.29010  0.35656  1.0000
  C   C148      1.0  0.03832  0.29820  0.36216  1.0000
  H   H163      1.0  0.24726  0.12961  0.30800  1.0000
  H   H164      1.0  0.23186  0.10541  0.33917  1.0000
  C   C149      1.0  0.30088  0.11814  0.31294  1.0000
  C   C150      1.0  0.29970  0.13087  0.31962  1.0000
  C   C151      1.0  0.29041  0.14831  0.31595  1.0000
  C   C152      1.0  0.28197  0.15301  0.30574  1.0000
  C   C153      1.0  0.28291  0.14019  0.29917  1.0000
  C   C154      1.0  0.29256  0.12284  0.30266  1.0000
  H   H165      1.0  0.30629  0.12740  0.32745  1.0000
  H   H166      1.0  0.28974  0.15817  0.32106  1.0000
  H   H167      1.0  0.27617  0.14354  0.29147  1.0000
  H   H168      1.0  0.29330  0.11295  0.29755  1.0000
  C   C155      1.0  0.24382  0.10267  0.37443  1.0000
  C   C156      1.0  0.24131  0.09332  0.36640  1.0000
  C   C157      1.0  0.22383  0.09302  0.36588  1.0000
  C   C158      1.0  0.20889  0.10213  0.37335  1.0000
  C   C159      1.0  0.21152  0.11143  0.38130  1.0000
  C   C160      1.0  0.22884  0.11172  0.38182  1.0000
  H   H169      1.0  0.25275  0.08620  0.36070  1.0000
  H   H170      1.0  0.22189  0.08559  0.35985  1.0000
  H   H171      1.0  0.20006  0.11846  0.38711  1.0000
  H   H172      1.0  0.23059  0.11895  0.38806  1.0000
  H   H173      1.0  0.13554  0.04712  0.34975  1.0000
  C   C161      1.0  0.46233  0.12589  0.41185  1.0000
  C   C162      1.0  0.46906  0.14109  0.40570  1.0000
  C   C163      1.0  0.48256  0.14492  0.40963  1.0000
  N   N10       1.0  0.04642  0.31931  0.32113  1.0000
  C   C164      1.0  0.48364  0.11776  0.42560  1.0000
  C   C165      1.0  0.46948  0.11424  0.42196  1.0000
  H   H174      1.0  0.46367  0.15010  0.39788  1.0000
  H   H175      1.0  0.28858  0.00618  0.38685  1.0000
  H   H176      1.0  0.48733  0.15694  0.40489  1.0000
  H   H177      1.0  0.46436  0.10243  0.42674  1.0000
  C   C166      1.0  0.40983  0.03703  0.40938  1.0000
  C   C167      1.0  0.39365  0.04963  0.40963  1.0000
  S   S67       1.0  0.02480  0.26253  0.34947  1.0000
  H   H178      1.0  0.39308  0.06306  0.40997  1.0000
  C   C168      1.0  0.44629  0.00880  0.45371  1.0000
  C   C169      1.0  0.36148  0.09647  0.40019  1.0000
  C   C170      1.0  0.34538  0.09288  0.39962  1.0000
  C   C171      1.0  0.34378  0.08830  0.38879  1.0000
  C   C172      1.0  0.35811  0.08779  0.37832  1.0000
  C   C173      1.0  0.37435  0.09078  0.37905  1.0000
  C   C174      1.0  0.37606  0.09503  0.38993  1.0000
  H   H179      1.0  0.33409  0.09382  0.40755  1.0000
  H   H180      1.0  0.33144  0.08549  0.38842  1.0000
  H   H181      1.0  0.38554  0.09036  0.37102  1.0000
  H   H182      1.0  0.38844  0.09794  0.39014  1.0000
  H   H183      1.0  0.46828  0.07046  0.39442  1.0000
  C   C175      1.0  0.14923  0.23320  0.27324  1.0000
  C   C176      1.0  0.15816  0.02508  0.34997  1.0000
  S   S68       1.0  0.02119  0.22534  0.33775  1.0000
  H   H184      1.0  0.32588  0.01997  0.38537  1.0000
  C   C177      1.0  0.37531  0.01306  0.44416  1.0000
  H   H185      1.0  0.40380  0.03807  0.46879  1.0000
  C   C178      1.0  0.37863  0.02748  0.40897  1.0000
  C   C179      1.0  0.06719  0.13240  0.34259  1.0000
  H   H186      1.0  0.00632  0.15584  0.36845  1.0000
  H   H187      1.0  0.16018  0.18079  0.29403  1.0000
  C   C180      1.0  0.38324  0.01711  0.46622  1.0000
  C   C181      1.0  0.20522  0.17247  0.33854  1.0000
  H   H188      1.0  0.43714  0.03087  0.38167  1.0000
  C   C182      1.0  0.27283  0.26463  0.23631  1.0000
  S   S69       1.0  0.03261  0.21083  0.36530  1.0000
  C   C183      1.0  0.27474  0.02394  0.34491  1.0000
  C   C184      1.0  0.28390  0.04277  0.39836  1.0000
  H   H189      1.0  0.28963  0.20376  0.24544  1.0000
  H   H190      1.0  0.16030  0.23995  0.26752  1.0000
  C   C185      1.0  0.49003  0.13331  0.41950  1.0000
  C   C186      1.0  0.23760  0.13893  0.31369  1.0000
  C   C187      1.0  0.16950  0.21386  0.28585  1.0000
  H   H191      1.0  0.18161  0.23586  0.30798  1.0000
  H   H192      1.0  0.25224  0.05618  0.38055  1.0000
  C   C188      1.0  0.04326  0.15789  0.37705  1.0000
  C   C189      1.0  0.02538  0.16142  0.37630  1.0000
  C   C190      1.0  0.14185  0.20516  0.28714  1.0000
  H   H193      1.0  0.04640  0.10950  0.35403  1.0000
  H   H194      1.0  0.04737  0.16509  0.38225  1.0000
  H   H195      1.0  0.36972  0.02865  0.38538  1.0000
  N   N11       1.0  0.29497  0.12866  0.38855  1.0000
  C   C191      1.0  0.28530  0.13750  0.37812  1.0000
  C   C192      1.0  0.29598  0.10938  0.39120  1.0000
  C   C193      1.0  0.28401  0.13529  0.39999  1.0000
  C   C194      1.0  0.31342  0.13181  0.38493  1.0000
  C   C195      1.0  0.32470  0.12889  0.37317  1.0000
  C   C196      1.0  0.32114  0.13659  0.39320  1.0000
  C   C197      1.0  0.34239  0.13102  0.36978  1.0000
  C   C198      1.0  0.33891  0.13856  0.38974  1.0000
  C   C199      1.0  0.34949  0.13582  0.37806  1.0000
  H   H196      1.0  0.29082  0.13133  0.36975  1.0000
  H   H197      1.0  0.27098  0.13642  0.38098  1.0000
  H   H198      1.0  0.28574  0.15178  0.37497  1.0000
  H   H199      1.0  0.30288  0.10374  0.38268  1.0000
  H   H200      1.0  0.28241  0.10626  0.39426  1.0000
  H   H201      1.0  0.30346  0.10218  0.39879  1.0000
  H   H202      1.0  0.28922  0.12775  0.40860  1.0000
  H   H203      1.0  0.28357  0.14960  0.39879  1.0000
  H   H204      1.0  0.26992  0.13373  0.40204  1.0000
  H   H205      1.0  0.32024  0.12422  0.36668  1.0000
  H   H206      1.0  0.31400  0.13836  0.40255  1.0000
  H   H207      1.0  0.35091  0.12808  0.36094  1.0000
  H   H208      1.0  0.34480  0.14144  0.39640  1.0000
  H   H209      1.0  0.36344  0.13670  0.37566  1.0000
  C   C200      1.0  0.08225  0.11851  0.35977  1.0000
  C   C201      1.0  0.34545  0.18171  0.23681  1.0000
  C   C202      1.0  0.11512  0.18638  0.30239  1.0000
  H   H210      1.0  0.31944  0.13881  0.28021  1.0000
  N   N12       1.0  0.06455  0.12383  0.35621  1.0000
  H   H211      1.0  0.18101  0.17424  0.35301  1.0000
  H   H212      1.0  0.22435  0.00017  0.34080  1.0000
  H   H213      1.0  0.33754  0.17724  0.25682  1.0000
  H   H214      1.0  0.33325  0.15440  0.27315  1.0000
  C   C203      1.0  0.31145  0.03714  0.31959  1.0000
  H   H215      1.0  0.45933  0.04677  0.38996  1.0000
  H   H216      1.0  0.47738  0.13350  0.44602  1.0000
  H   H217      1.0  0.43857  0.16273  0.46307  1.0000
  H   H218      1.0  0.40135  0.99646  0.37204  1.0000
  C   C204      1.0  0.26286  0.04754  0.38509  1.0000
  C   C205      1.0  0.18175  0.99923  0.31545  1.0000
  H   H219      1.0  0.40347  0.11215  0.45742  1.0000
  C   C206      1.0  0.26995  0.05373  0.39266  1.0000
  C   C207      1.0  0.40672  0.10596  0.46657  1.0000
  H   H220      1.0  0.06966  0.14377  0.37164  1.0000
  C   C208      1.0  0.12327  0.21270  0.28778  1.0000
  C   C209      1.0  0.45653  0.01119  0.43116  1.0000
  H   H221      1.0  0.17614  0.21147  0.26169  1.0000
  H   H222      1.0  0.08977  0.29212  0.34544  1.0000
  N   N13       1.0  0.12713  0.21198  0.33131  1.0000
  C   C210      1.0  0.13284  0.22438  0.33632  1.0000
  C   C211      1.0  0.12043  0.22184  0.31974  1.0000
  C   C212      1.0  0.11187  0.20581  0.34097  1.0000
  C   C213      1.0  0.14243  0.19735  0.32811  1.0000
  C   C214      1.0  0.14119  0.17926  0.33194  1.0000
  C   C215      1.0  0.15903  0.20102  0.32050  1.0000
  C   C216      1.0  0.15576  0.16579  0.32853  1.0000
  C   C217      1.0  0.17354  0.18745  0.31718  1.0000
  C   C218      1.0  0.17190  0.16986  0.32119  1.0000
  H   H223      1.0  0.14215  0.23196  0.32900  1.0000
  H   H224      1.0  0.12130  0.23465  0.33976  1.0000
  H   H225      1.0  0.13952  0.21717  0.34433  1.0000
  H   H226      1.0  0.13104  0.22719  0.31211  1.0000
  H   H227      1.0  0.10922  0.23332  0.32157  1.0000
  H   H228      1.0  0.11544  0.21315  0.31594  1.0000
  H   H229      1.0  0.10540  0.19810  0.33737  1.0000
  H   H230      1.0  0.11614  0.19748  0.34977  1.0000
  H   H231      1.0  0.10099  0.21701  0.34380  1.0000
  H   H232      1.0  0.12910  0.17514  0.33755  1.0000
  H   H233      1.0  0.16083  0.21447  0.31694  1.0000
  H   H234      1.0  0.15445  0.15207  0.33154  1.0000
  H   H235      1.0  0.18612  0.19054  0.31136  1.0000
  H   H236      1.0  0.18313  0.15937  0.31853  1.0000
  H   H237      1.0  0.06867  0.09720  0.35363  1.0000
  H   H238      1.0  0.42312  0.01076  0.40709  1.0000
  C   C219      1.0  0.05819  0.10732  0.35819  1.0000
  C   C220      1.0  0.41055  0.02018  0.40794  1.0000
  H   H239      1.0  0.20805  0.05015  0.31660  1.0000
  H   H240      1.0  0.25189  0.24117  0.23737  1.0000
  C   C221      1.0  0.45396  0.11851  0.46481  1.0000
  H   H241      1.0  0.26478  0.06725  0.39391  1.0000
  C   C222      1.0  0.29120  0.02516  0.39655  1.0000
  H   H242      1.0  0.15567  0.20502  0.26266  1.0000
  C   C223      1.0  0.25835  0.26674  0.24649  1.0000
  C   C224      1.0  0.32166  0.00808  0.39207  1.0000
  C   C225      1.0  0.22007  0.14278  0.33458  1.0000
  C   C226      1.0  0.38212  0.03127  0.45545  1.0000
  C   C227      1.0  0.05121  0.13632  0.36349  1.0000
  C   C228      1.0  0.19258  0.14745  0.35096  1.0000
  C   C229      1.0  0.40325  0.00451  0.48078  1.0000
  H   H243      1.0  0.42131  0.02329  0.43890  1.0000
  H   H244      1.0  0.20639  0.12224  0.34750  1.0000
  H   H245      1.0  0.16295  0.21985  0.29422  1.0000
  C   C230      1.0  0.47563  0.05717  0.39741  1.0000
  H   H246      1.0  0.46532  0.15610  0.44558  1.0000
  C   C231      1.0  0.28797  0.99369  0.35345  1.0000
  H   H247      1.0  0.01875  0.29792  0.39143  1.0000
  H   H248      1.0  0.38418  0.04414  0.45514  1.0000
  H   H249      1.0  0.06957  0.26252  0.37220  1.0000
  H   H250      1.0  0.30803  0.17916  0.26853  1.0000
  H   H251      1.0  0.28571  0.04376  0.34778  1.0000
  H   H252      1.0  0.18242  0.14195  0.35848  1.0000
  H   H253      1.0  0.16613  0.30459  0.25827  1.0000
  H   H254      1.0  0.29730  0.13620  0.27113  1.0000
  C   C232      1.0  0.28349  0.01925  0.38889  1.0000
  C   C233      1.0  0.05272  0.28837  0.36771  1.0000
  H   H255      1.0  0.03327  0.31193  0.36248  1.0000
  H   H256      1.0  0.48933  0.10871  0.43327  1.0000
  H   H257      1.0  0.37390  0.01152  0.36988  1.0000
  H   H258      1.0  0.29521  0.02163  0.31688  1.0000
  C   C234      1.0  0.48679  0.08559  0.40158  1.0000
  C   C235      1.0  0.49304  0.14516  0.47406  1.0000
  N   N14       1.0  0.38667  0.03326  0.36702  1.0000
  C   C236      1.0  0.37302  0.03984  0.37755  1.0000
  C   C237      1.0  0.39038  0.04863  0.35660  1.0000
  C   C238      1.0  0.37880  0.02229  0.36220  1.0000
  C   C239      1.0  0.40319  0.02345  0.37163  1.0000
  C   C240      1.0  0.41379  0.03259  0.37478  1.0000
  H   H259      1.0  0.17840  0.00104  0.34908  1.0000
  H   H260      1.0  0.06358  0.31953  0.30269  1.0000
  H   H261      1.0  0.35348  0.19097  0.23622  1.0000
  C   C241      1.0  0.03161  0.31462  0.31787  1.0000
  H   H262      1.0  0.37761  0.04872  0.38148  1.0000
  H   H263      1.0  0.36032  0.04744  0.37459  1.0000
  H   H264      1.0  0.28417  0.25360  0.23744  1.0000
  H   H265      1.0  0.37865  0.05525  0.35214  1.0000
  H   H266      1.0  0.40010  0.99117  0.48381  1.0000
  H   H267      1.0  0.39309  0.05924  0.35996  1.0000
  H   H268      1.0  0.38869  0.01639  0.35453  1.0000
  C   C242      1.0  0.21926  0.16125  0.33204  1.0000
  H   H269      1.0  0.24061  0.00656  0.31896  1.0000
  H   H270      1.0  0.40973  0.04669  0.37432  1.0000
  S   S70       1.0  0.12331  0.99667  0.33946  1.0000
  H   H271      1.0  0.11840  0.22576  0.28251  1.0000
  H   H272      1.0  0.48918  0.14726  0.45584  1.0000
  H   H273      1.0  0.45294  0.02588  0.42923  1.0000
  H   H274      1.0  0.29336  0.16450  0.27666  1.0000
  C   C243      1.0  0.30457  0.14189  0.26155  1.0000
  H   H275      1.0  0.38071  0.04724  0.47518  1.0000
  C   C244      1.0  0.30157  0.16931  0.26725  1.0000
  C   C245      1.0  0.32509  0.16210  0.24954  1.0000
  C   C246      1.0  0.16507  0.00790  0.34778  1.0000
  C   C247      1.0  0.30707  0.02133  0.32001  1.0000
  H   H276      1.0  0.22304  0.25868  0.23992  1.0000
  S   S71       1.0  0.13457  0.31005  0.24816  1.0000
  C   C248      1.0  0.32681  0.14532  0.27092  1.0000
  H   H277      1.0  0.00306  0.25716  0.38232  1.0000
  N   N15       1.0  0.31471  0.15466  0.26204  1.0000
  H   H278      1.0  0.29412  0.14839  0.25586  1.0000
  H   H279      1.0  0.32957  0.04921  0.32369  1.0000
  H   H280      1.0  0.18942  0.00626  0.37379  1.0000
  C   C249      1.0  0.27595  0.00581  0.34652  1.0000
  H   H281      1.0  0.49790  0.07569  0.42281  1.0000
  C   C250      1.0  0.17700  0.01727  0.31531  1.0000
  H   H282      1.0  0.31511  0.15084  0.23771  1.0000
  H   H283      1.0  0.31810  0.03305  0.40443  1.0000
  H   H284      1.0  0.14182  0.24072  0.28078  1.0000
  H   H285      1.0  0.14033  0.23475  0.26673  1.0000
  H   H286      1.0  0.16453  0.02503  0.31269  1.0000
  C   C251      1.0  0.14637  0.18773  0.29439  1.0000
  C   C252      1.0  0.16526  0.20509  0.26824  1.0000
  C   C253      1.0  0.29891  0.99963  0.35857  1.0000
  H   H287      1.0  0.43567  0.03691  0.44679  1.0000
  H   H288      1.0  0.47084  0.00692  0.43185  1.0000
  C   C254      1.0  0.05856  0.30356  0.32704  1.0000
  C   C255      1.0  0.06024  0.28632  0.32520  1.0000
  H   H289      1.0  0.17989  0.22134  0.27991  1.0000
  C   C256      1.0  0.07208  0.27171  0.33059  1.0000
  C   C257      1.0  0.08173  0.29054  0.33960  1.0000
  C   C258      1.0  0.08278  0.27380  0.33779  1.0000
  C   C259      1.0  0.06992  0.30523  0.33426  1.0000
  H   H290      1.0  0.45548  0.00752  0.42258  1.0000
  H   H291      1.0  0.02447  0.30603  0.32616  1.0000
  H   H292      1.0  0.28893  0.04854  0.40392  1.0000
  H   H293      1.0  0.17705  0.20028  0.28909  1.0000
  H   H294      1.0  0.02246  0.26648  0.39134  1.0000
  H   H295      1.0  0.37227  0.01150  0.43574  1.0000
  H   H296      1.0  0.29230  0.17644  0.26079  1.0000
  C   C260      1.0  0.44086  0.02696  0.45433  1.0000
  H   H297      1.0  0.05243  0.28371  0.31970  1.0000
  H   H298      1.0  0.44610  0.11663  0.45862  1.0000
  H   H299      1.0  0.07264  0.25868  0.32931  1.0000
  H   H300      1.0  0.42954  0.14831  0.45791  1.0000
  H   H301      1.0  0.09162  0.26242  0.34220  1.0000
  N   N16       1.0  0.21581  0.02319  0.32673  1.0000
  C   C261      1.0  0.23384  0.02075  0.31828  1.0000
  C   C262      1.0  0.20917  0.04245  0.32631  1.0000
  C   C263      1.0  0.21754  0.01436  0.33988  1.0000
  H   H302      1.0  0.46732  0.10936  0.46332  1.0000
  H   H303      1.0  0.03653  0.30765  0.30988  1.0000
  H   H304      1.0  0.33760  0.13489  0.26695  1.0000
  H   H305      1.0  0.17163  0.19103  0.27171  1.0000
  C   C264      1.0  0.39509  0.01552  0.40747  1.0000
  C   C265      1.0  0.13735  0.00785  0.34262  1.0000
  H   H306      1.0  0.24999  0.12353  0.34205  1.0000
  H   H307      1.0  0.24295  0.02701  0.32077  1.0000
  C   C266      1.0  0.46392  0.14207  0.44844  1.0000
  C   C267      1.0  0.31257  0.02128  0.41011  1.0000
  H   H308      1.0  0.21836  0.04806  0.32927  1.0000
  H   H309      1.0  0.19590  0.04516  0.33285  1.0000
  H   H310      1.0  0.34837  0.02118  0.33196  1.0000
  H   H311      1.0  0.22562  0.02060  0.34339  1.0000
  H   H312      1.0  0.20419  0.01509  0.34643  1.0000
  H   H313      1.0  0.48826  0.08836  0.39115  1.0000
  C   C268      1.0  0.48322  0.14409  0.46580  1.0000
  C   C269      1.0  0.41322  0.07970  0.48270  1.0000
  C   C270      1.0  0.05604  0.14551  0.37080  1.0000
  Fe  Fe35      1.0  0.25738  0.18526  0.25817  1.0000
  C   C271      1.0  0.28619  0.02985  0.34964  1.0000
  S   S72       1.0  0.22822  0.19764  0.25971  1.0000
  C   C272      1.0  0.16814  0.25402  0.29378  1.0000
  H   H314      1.0  0.47939  0.06547  0.42519  1.0000
  S   S73       1.0  0.11690  0.27912  0.27997  1.0000
  H   H315      1.0  0.18307  0.03920  0.31887  1.0000
  H   H316      1.0  0.26427  0.02563  0.37713  1.0000
  C   C273      1.0  0.37795  0.04478  0.40961  1.0000
  H   H317      1.0  0.36532  0.05433  0.41035  1.0000
  C   C274      1.0  0.18293  0.24240  0.29812  1.0000
  H   H318      1.0  0.21098  0.23060  0.29312  1.0000
  S   S74       1.0  0.14719  0.25705  0.30415  1.0000
  C   C275      1.0  0.15483  0.99945  0.34392  1.0000
  H   H319      1.0  0.10487  0.17922  0.30812  1.0000
  H   H320      1.0  0.11709  0.03185  0.34343  1.0000
  H   H321      1.0  0.31365  0.13060  0.25752  1.0000
  H   H322      1.0  0.32370  0.01191  0.41431  1.0000
  H   H323      1.0  0.47223  0.08795  0.40607  1.0000
  Fe  Fe36      1.0  0.12526  0.30452  0.26935  1.0000
  C   C276      1.0  0.14102  0.03390  0.34803  1.0000
  S   S75       1.0  0.35903  0.02029  0.41063  1.0000
  C   C277      1.0  0.47032  0.04361  0.39474  1.0000
  C   C278      1.0  0.20651  0.13616  0.34448  1.0000
  H   H324      1.0  0.08863  0.12994  0.35754  1.0000
  H   H325      1.0  0.40203  0.04454  0.34910  1.0000
  H   H326      1.0  0.07790  0.12400  0.33669  1.0000
  N   N17       1.0  0.15608  0.21429  0.27877  1.0000
  Fe  Fe37      1.0  0.01984  0.20153  0.35349  1.0000
  C   C279      1.0  0.43770  0.14873  0.46441  1.0000
  H   H327      1.0  0.08108  0.11242  0.37002  1.0000
  H   H328      1.0  0.09612  0.20910  0.29535  1.0000
  C   C280      1.0  0.33692  0.02065  0.32879  1.0000
  H   H329      1.0  0.30177  0.02509  0.41817  1.0000
  C   C281      1.0  0.40883  0.00469  0.37366  1.0000
  H   H330      1.0  0.05448  0.24803  0.36237  1.0000
  C   C282      1.0  0.13058  0.02522  0.34449  1.0000
  H   H331      1.0  0.05448  0.10138  0.36846  1.0000
  C   C283      1.0  0.46649  0.13882  0.47047  1.0000
  H   H332      1.0  0.20484  0.18654  0.33637  1.0000
  C   C284      1.0  0.02021  0.15273  0.36920  1.0000
  C   C285      1.0  0.23166  0.11314  0.32938  1.0000
  C   C286      1.0  0.25155  0.12923  0.33170  1.0000
  H   H333      1.0  0.24212  0.10507  0.32313  1.0000
  H   H334      1.0  0.01866  0.29779  0.35240  1.0000
  H   H335      1.0  0.43780  0.04666  0.46495  1.0000
  H   H336      1.0  0.22960  0.16715  0.32510  1.0000
  H   H337      1.0  0.23244  0.28231  0.25300  1.0000
  C   C287      1.0  0.13317  0.17861  0.30200  1.0000
  N   N18       1.0  0.23490  0.13114  0.32748  1.0000
  H   H338      1.0  0.25532  0.14219  0.32988  1.0000
  H   H339      1.0  0.07114  0.14526  0.34084  1.0000
  C   C288      1.0  0.05849  0.27021  0.36785  1.0000
  S   S76       1.0  0.31411  0.02455  0.36150  1.0000
  C   C289      1.0  0.31741  0.00510  0.32497  1.0000
  C   C290      1.0  0.44204  0.03271  0.46469  1.0000
  H   H340      1.0  0.21858  0.11385  0.32723  1.0000
  C   C291      1.0  0.32635  0.03681  0.32395  1.0000
  C   C292      1.0  0.00950  0.29396  0.38777  1.0000
  H   H341      1.0  0.01212  0.26440  0.30958  1.0000
  C   C293      1.0  0.05000  0.26202  0.36229  1.0000
  S   S77       1.0  0.06361  0.29869  0.37441  1.0000
  N   N19       1.0  0.38762  0.01868  0.47780  1.0000
  H   H342      1.0  0.13697  0.16528  0.30743  1.0000
  C   C294      1.0  0.03292  0.14057  0.36271  1.0000
  C   C295      1.0  0.20396  0.01526  0.32280  1.0000
  H   H343      1.0  0.23305  0.02671  0.30823  1.0000
  H   H344      1.0  0.37742  0.04010  0.43649  1.0000
  H   H345      1.0  0.26548  0.03343  0.33957  1.0000
  C   C296      1.0  0.42438  0.99584  0.37818  1.0000
  C   C297      1.0  0.29854  0.01771  0.35630  1.0000
  H   H346      1.0  0.31861  0.00026  0.38646  1.0000
  H   H347      1.0  0.05474  0.13533  0.33899  1.0000
  H   H348      1.0  0.33341  0.99962  0.39598  1.0000
  H   H349      1.0  0.45574  0.14053  0.44235  1.0000
  N   N20       1.0  0.30617  0.01322  0.40222  1.0000
  H   H350      1.0  0.44664  0.99830  0.38448  1.0000
  H   H351      1.0  0.01553  0.17124  0.38098  1.0000
  S   S78       1.0  0.26300  0.99848  0.33935  1.0000
  C   C298      1.0  0.40926  0.08757  0.47078  1.0000
  H   H352      1.0  0.16029  0.99997  0.37707  1.0000
  C   C299      1.0  0.26957  0.03032  0.38324  1.0000
  C   C300      1.0  0.47862  0.02599  0.39854  1.0000
  H   H353      1.0  0.25829  0.25735  0.25549  1.0000
  C   C301      1.0  0.15494  0.31694  0.24177  1.0000
  C   C302      1.0  0.42603  0.00867  0.44097  1.0000
  C   C303      1.0  0.49371  0.06509  0.42040  1.0000
  C   C304      1.0  0.33262  0.00426  0.32965  1.0000
  C   C305      1.0  0.39216  0.03585  0.47670  1.0000
  C   C306      1.0  0.16813  0.31272  0.24882  1.0000
  H   H354      1.0  0.31289  0.99345  0.32529  1.0000
  H   H355      1.0  0.25650  0.21889  0.23561  1.0000
  H   H356      1.0  0.23416  0.22930  0.24186  1.0000
  C   C307      1.0  0.48980  0.05338  0.40386  1.0000
  H   H357      1.0  0.39596  0.00263  0.40595  1.0000
  H   H358      1.0  0.42987  0.14475  0.47414  1.0000
  H   H359      1.0  0.11733  0.32232  0.37297  1.0000
  C   C308      1.0  0.24376  0.28082  0.24507  1.0000
  C   C309      1.0  0.32376  0.15891  0.23803  1.0000
  C   C310      1.0  0.44854  0.02062  0.47474  1.0000
  H   H360      1.0  0.00765  0.17640  0.34231  1.0000
  H   H361      1.0  0.19997  0.28518  0.23705  1.0000
  N   N21       1.0  0.49624  0.06734  0.40654  1.0000
  C   C311      1.0  0.40774  0.11641  0.47445  1.0000
  H   H362      1.0  0.44687  0.11407  0.47470  1.0000
  N   N22       1.0  0.44479  0.00300  0.44270  1.0000
  H   H363      1.0  0.47423  0.01550  0.39665  1.0000
  H   H364      1.0  0.40527  0.13065  0.47133  1.0000
  H   H365      1.0  0.42452  0.00436  0.43277  1.0000
  H   H366      1.0  0.44916  0.02513  0.48284  1.0000
  C   C312      1.0  0.45433  0.00276  0.47434  1.0000
  H   H367      1.0  0.41671  0.00292  0.44946  1.0000
  H   H368      1.0  0.41461  0.00427  0.47247  1.0000
  H   H369      1.0  0.13929  0.99200  0.36935  1.0000
  H   H370      1.0  0.06970  0.31780  0.33601  1.0000
  H   H371      1.0  0.17309  0.99308  0.31285  1.0000
  C   C313      1.0  0.20839  0.99688  0.32284  1.0000
  Fe  Fe38      1.0  0.11393  0.32037  0.29286  1.0000
  C   C314      1.0  0.49240  0.02183  0.40497  1.0000
  H   H372      1.0  0.28818  0.00026  0.41772  1.0000
  C   C315      1.0  0.37993  0.00097  0.46548  1.0000
  C   C316      1.0  0.18844  0.99279  0.37451  1.0000
  C   C317      1.0  0.49786  0.03526  0.40769  1.0000
  C   C318      1.0  0.37609  0.99901  0.45459  1.0000
  C   C319      1.0  0.45336  0.99687  0.46398  1.0000
  H   H373      1.0  0.19432  0.31550  0.24899  1.0000
  H   H374      1.0  0.49887  0.00809  0.40787  1.0000
  C   C320      1.0  0.30037  0.99698  0.41035  1.0000
  C   C321      1.0  0.18408  0.31886  0.24355  1.0000
  H   H375      1.0  0.45961  0.99341  0.48212  1.0000
  S   S79       1.0  0.09988  0.32169  0.27775  1.0000
  H   H376      1.0  0.36843  0.99529  0.32278  1.0000
  H   H377      1.0  0.33648  0.99204  0.35331  1.0000
  C   C322      1.0  0.46031  0.13488  0.48380  1.0000
  H   H378      1.0  0.35789  0.99653  0.34495  1.0000
  C   C323      1.0  0.24651  0.23167  0.23471  1.0000
  Fe  Fe39      1.0  0.36668  0.99083  0.41270  1.0000
  Fe  Fe40      1.0  0.45202  0.10497  0.52782  1.0000
  S   S80       1.0  0.42299  0.11869  0.52927  1.0000
  S   S81       1.0  0.47275  0.11979  0.52689  1.0000
  Fe  Fe41      1.0  0.44577  0.07082  0.52538  1.0000
  S   S82       1.0  0.41637  0.08163  0.52645  1.0000
  S   S83       1.0  0.45889  0.04255  0.52468  1.0000
  Fe  Fe42      1.0  0.42458  0.10595  0.51338  1.0000
  H   H379      1.0  0.34719  0.13510  0.55447  1.0000
  Fe  Fe43      1.0  0.41759  0.09301  0.54212  1.0000
  S   S84       1.0  0.39795  0.08536  0.56008  1.0000
  S   S85       1.0  0.45403  0.09414  0.51102  1.0000
  S   S86       1.0  0.44649  0.08046  0.54202  1.0000
  H   H380      1.0  0.15434  0.17570  0.67778  1.0000
  Fe  Fe44      1.0  0.14393  0.31324  0.67577  1.0000
  H   H381      1.0  0.14292  0.20306  0.66153  1.0000
  C   C324      1.0  0.21739  0.05304  0.61802  1.0000
  H   H382      1.0  0.48655  0.05089  0.48930  1.0000
  S   S87       1.0  0.16425  0.29277  0.66617  1.0000
  H   H383      1.0  0.41557  0.00310  0.55742  1.0000
  H   H384      1.0  0.02643  0.28245  0.61017  1.0000
  Fe  Fe45      1.0  0.16571  0.12263  0.67121  1.0000
  S   S88       1.0  0.18366  0.10094  0.68223  1.0000
  S   S89       1.0  0.13838  0.13503  0.68106  1.0000
  Fe  Fe46      1.0  0.19274  0.12203  0.64647  1.0000
  S   S90       1.0  0.21284  0.10025  0.65540  1.0000
  S   S91       1.0  0.19661  0.13506  0.62587  1.0000
  Fe  Fe47      1.0  0.18947  0.08774  0.66582  1.0000
  S   S92       1.0  0.19144  0.05819  0.66880  1.0000
  Fe  Fe48      1.0  0.20509  0.11567  0.67072  1.0000
  S   S93       1.0  0.22713  0.12123  0.67712  1.0000
  S   S94       1.0  0.16980  0.10849  0.65570  1.0000
  S   S95       1.0  0.18666  0.13837  0.66097  1.0000
  Fe  Fe49      1.0  0.05764  0.24733  0.63892  1.0000
  S   S96       1.0  0.04145  0.25107  0.65812  1.0000
  S   S97       1.0  0.05617  0.26939  0.62187  1.0000
  Fe  Fe50      1.0  0.07339  0.20870  0.64844  1.0000
  S   S98       1.0  0.05828  0.20929  0.66834  1.0000
  S   S99       1.0  0.09224  0.18472  0.64213  1.0000
  Fe  Fe51      1.0  0.03495  0.22501  0.65944  1.0000
  Fe  Fe52      1.0  0.06657  0.23516  0.66479  1.0000
  S   S100      1.0  0.08256  0.23863  0.67746  1.0000
  S   S101      1.0  0.04960  0.22243  0.63978  1.0000
  S   S102      1.0  0.08309  0.23346  0.64536  1.0000
  C   C325      1.0  0.41455  0.09010  0.49043  1.0000
  Fe  Fe53      1.0  0.26869  0.20674  0.68734  1.0000
  S   S103      1.0  0.28887  0.20235  0.66932  1.0000
  S   S104      1.0  0.23980  0.21672  0.68609  1.0000
  S   S105      1.0  0.26843  0.22714  0.69779  1.0000
  H   H385      1.0  0.17000  0.01353  0.65803  1.0000
  H   H386      1.0  0.03485  0.14617  0.63863  1.0000
  C   C326      1.0  0.12603  0.08588  0.66927  1.0000
  H   H387      1.0  0.25086  0.20089  0.66238  1.0000
  C   C327      1.0  0.01704  0.27587  0.60831  1.0000
  C   C328      1.0  0.43811  0.13036  0.55267  1.0000
  H   H388      1.0  0.13701  0.05215  0.69430  1.0000
  C   C329      1.0  0.40712  0.11879  0.59516  1.0000
  Fe  Fe54      1.0  0.23487  0.19663  0.70414  1.0000
  H   H389      1.0  0.27011  0.99261  0.64545  1.0000
  H   H390      1.0  0.24092  0.02183  0.62439  1.0000
  Fe  Fe55      1.0  0.30823  0.12513  0.63419  1.0000
  S   S106      1.0  0.30853  0.14555  0.61604  1.0000
  S   S107      1.0  0.29648  0.13000  0.65389  1.0000
  Fe  Fe56      1.0  0.32139  0.09423  0.62097  1.0000
  S   S108      1.0  0.32258  0.11197  0.60188  1.0000
  S   S109      1.0  0.33036  0.06487  0.62220  1.0000
  Fe  Fe57      1.0  0.33481  0.12819  0.60903  1.0000
  S   S110      1.0  0.35738  0.13952  0.59517  1.0000
  Fe  Fe58      1.0  0.29638  0.12770  0.61028  1.0000
  S   S111      1.0  0.27621  0.13977  0.59799  1.0000
  S   S112      1.0  0.33579  0.10916  0.62774  1.0000
  S   S113      1.0  0.29393  0.10847  0.62896  1.0000
  C   C330      1.0  0.29982  0.06482  0.61502  1.0000
  C   C331      1.0  0.31622  0.05506  0.61799  1.0000
  C   C332      1.0  0.32151  0.03707  0.61764  1.0000
  H   H391      1.0  0.29571  0.07875  0.61519  1.0000
  H   H392      1.0  0.33415  0.02949  0.61997  1.0000
  C   C333      1.0  0.31047  0.02880  0.61443  1.0000
  H   H393      1.0  0.31473  0.01494  0.61418  1.0000
  H   H394      1.0  0.46945  0.13108  0.55675  1.0000
  H   H395      1.0  0.34965  0.10919  0.56709  1.0000
  C   C334      1.0  0.32378  0.14456  0.57406  1.0000
  C   C335      1.0  0.11833  0.20358  0.69132  1.0000
  H   H396      1.0  0.42347  0.15713  0.56444  1.0000
  C   C336      1.0  0.50015  0.07712  0.48674  1.0000
  H   H397      1.0  0.07271  0.15167  0.65183  1.0000
  C   C337      1.0  0.15615  0.23783  0.67920  1.0000
  H   H398      1.0  0.34998  0.99995  0.56527  1.0000
  H   H399      1.0  0.21785  0.02214  0.66152  1.0000
  C   C338      1.0  0.00555  0.20817  0.64660  1.0000
  C   C339      1.0  0.17556  0.21083  0.68749  1.0000
  H   H400      1.0  0.20363  0.01939  0.61211  1.0000
  H   H401      1.0  0.46528  0.13286  0.50208  1.0000
  C   C340      1.0  0.13369  0.05797  0.68482  1.0000
  H   H402      1.0  0.36870  0.00357  0.49059  1.0000
  C   C341      1.0  0.17072  0.02732  0.65587  1.0000
  H   H403      1.0  0.28828  0.23066  0.71587  1.0000
  H   H404      1.0  0.30450  0.25087  0.71911  1.0000
  C   C342      1.0  0.41172  0.10845  0.48640  1.0000
  C   C343      1.0  0.29078  0.18247  0.66480  1.0000
  C   C344      1.0  0.30068  0.17981  0.65280  1.0000
  C   C345      1.0  0.30243  0.16385  0.64919  1.0000
  C   C346      1.0  0.29443  0.15046  0.65767  1.0000
  C   C347      1.0  0.28453  0.15321  0.66960  1.0000
  C   C348      1.0  0.28261  0.16915  0.67313  1.0000
  H   H405      1.0  0.30706  0.19009  0.64632  1.0000
  H   H406      1.0  0.31018  0.16184  0.63998  1.0000
  H   H407      1.0  0.27830  0.14300  0.67619  1.0000
  H   H408      1.0  0.27497  0.17105  0.68236  1.0000
  C   C349      1.0  0.18046  0.05110  0.66001  1.0000
  C   C350      1.0  0.17969  0.03320  0.66261  1.0000
  C   C351      1.0  0.16217  0.03943  0.64666  1.0000
  C   C352      1.0  0.16305  0.05727  0.64402  1.0000
  C   C353      1.0  0.17218  0.06308  0.65065  1.0000
  H   H409      1.0  0.15665  0.06666  0.63680  1.0000
  H   H410      1.0  0.17279  0.07683  0.64846  1.0000
  C   C354      1.0  0.23599  0.14806  0.68310  1.0000
  H   H411      1.0  0.24401  0.16760  0.68901  1.0000
  H   H412      1.0  0.24884  0.14436  0.67704  1.0000
  C   C355      1.0  0.25435  0.13718  0.60541  1.0000
  C   C356      1.0  0.25082  0.12611  0.61732  1.0000
  C   C357      1.0  0.23313  0.12541  0.62367  1.0000
  C   C358      1.0  0.21889  0.13543  0.61798  1.0000
  C   C359      1.0  0.22245  0.14603  0.60584  1.0000
  C   C360      1.0  0.24015  0.14697  0.59959  1.0000
  H   H413      1.0  0.26167  0.11821  0.62173  1.0000
  H   H414      1.0  0.23061  0.11713  0.63294  1.0000
  H   H415      1.0  0.21149  0.15375  0.60137  1.0000
  H   H416      1.0  0.24280  0.15554  0.59035  1.0000
  C   C361      1.0  0.12589  0.14935  0.67022  1.0000
  C   C362      1.0  0.13279  0.15108  0.65722  1.0000
  C   C363      1.0  0.12239  0.16202  0.64864  1.0000
  C   C364      1.0  0.10527  0.17163  0.65302  1.0000
  C   C365      1.0  0.09851  0.17019  0.66602  1.0000
  C   C366      1.0  0.10875  0.15893  0.67462  1.0000
  H   H417      1.0  0.14610  0.14391  0.65373  1.0000
  H   H418      1.0  0.12770  0.16315  0.63858  1.0000
  H   H419      1.0  0.08526  0.17740  0.66950  1.0000
  H   H420      1.0  0.10337  0.15762  0.68467  1.0000
  C   C367      1.0  0.19536  0.27018  0.67180  1.0000
  C   C368      1.0  0.20867  0.26340  0.67899  1.0000
  H   H421      1.0  0.19658  0.26525  0.66350  1.0000
  H   H422      1.0  0.22019  0.25338  0.67616  1.0000
  C   C369      1.0  0.09454  0.26200  0.68510  1.0000
  H   H423      1.0  0.10492  0.25083  0.68785  1.0000
  H   H424      1.0  0.10401  0.28009  0.69151  1.0000
  H   H425      1.0  0.19231  0.03203  0.62393  1.0000
  C   C370      1.0  0.05930  0.14848  0.65353  1.0000
  H   H426      1.0  0.12097  0.07616  0.64270  1.0000
  C   C371      1.0  0.05342  0.30505  0.61796  1.0000
  C   C372      1.0  0.05670  0.28854  0.62615  1.0000
  C   C373      1.0  0.06027  0.28732  0.63787  1.0000
  C   C374      1.0  0.06034  0.30257  0.64151  1.0000
  C   C375      1.0  0.29820  0.24209  0.72720  1.0000
  H   H427      1.0  0.05058  0.30605  0.60890  1.0000
  H   H428      1.0  0.06329  0.27461  0.64410  1.0000
  H   H429      1.0  0.06270  0.30150  0.65072  1.0000
  H   H430      1.0  0.45755  0.00648  0.52557  1.0000
  C   C376      1.0  0.48786  0.09471  0.54539  1.0000
  C   C377      1.0  0.22707  0.02123  0.62439  1.0000
  H   H431      1.0  0.27998  0.02042  0.63656  1.0000
  H   H432      1.0  0.13363  0.29642  0.65326  1.0000
  C   C378      1.0  0.02759  0.16006  0.65409  1.0000
  H   H433      1.0  0.47654  0.08869  0.54734  1.0000
  H   H434      1.0  0.12356  0.11304  0.67072  1.0000
  H   H435      1.0  0.14395  0.17467  0.69438  1.0000
  C   C379      1.0  0.29392  0.03840  0.61172  1.0000
  N   N23       1.0  0.04519  0.16479  0.65157  1.0000
  C   C380      1.0  0.06806  0.27434  0.67631  1.0000
  C   C381      1.0  0.48946  0.10970  0.53566  1.0000
  H   H436      1.0  0.41742  0.08401  0.49963  1.0000
  C   C382      1.0  0.49658  0.04398  0.53946  1.0000
  C   C383      1.0  0.38757  0.10068  0.56972  1.0000
  C   C384      1.0  0.38858  0.11850  0.56551  1.0000
  C   C385      1.0  0.37954  0.13047  0.57343  1.0000
  C   C386      1.0  0.36943  0.12458  0.58546  1.0000
  C   C387      1.0  0.36859  0.10674  0.58962  1.0000
  C   C388      1.0  0.37768  0.09482  0.58178  1.0000
  H   H437      1.0  0.39609  0.12306  0.55615  1.0000
  H   H438      1.0  0.38017  0.14429  0.57021  1.0000
  H   H439      1.0  0.36118  0.10202  0.59900  1.0000
  H   H440      1.0  0.37701  0.08101  0.58512  1.0000
  H   H441      1.0  0.40815  0.00628  0.48862  1.0000
  C   C389      1.0  0.41874  0.03905  0.51101  1.0000
  C   C390      1.0  0.43214  0.04538  0.51312  1.0000
  C   C391      1.0  0.44553  0.03383  0.51897  1.0000
  H   H442      1.0  0.28816  0.30294  0.73135  1.0000
  H   H443      1.0  0.41521  0.06549  0.48597  1.0000
  H   H444      1.0  0.40773  0.04823  0.50723  1.0000
  H   H445      1.0  0.43199  0.05928  0.51046  1.0000
  H   H446      1.0  0.15757  0.07932  0.67527  1.0000
  C   C392      1.0  0.08158  0.25981  0.67966  1.0000
  H   H447      1.0  0.18823  0.06255  0.61999  1.0000
  H   H448      1.0  0.12273  0.21829  0.66706  1.0000
  H   H449      1.0  0.18752  0.20421  0.69122  1.0000
  H   H450      1.0  0.19114  0.28836  0.70122  1.0000
  H   H451      1.0  0.44775  0.13078  0.48805  1.0000
  H   H452      1.0  0.10806  0.19654  0.69128  1.0000
  S   S114      1.0  0.40119  0.01353  0.51303  1.0000
  H   H453      1.0  0.36071  0.04872  0.59140  1.0000
  S   S115      1.0  0.14983  0.03285  0.63857  1.0000
  C   C393      1.0  0.14170  0.17982  0.68458  1.0000
  H   H454      1.0  0.27591  0.06400  0.60980  1.0000
  C   C394      1.0  0.33707  0.10505  0.57099  1.0000
  H   H455      1.0  0.38276  0.04244  0.54453  1.0000
  H   H456      1.0  0.13188  0.17273  0.68389  1.0000
  C   C395      1.0  0.28896  0.23066  0.72533  1.0000
  C   C396      1.0  0.24646  0.31192  0.70363  1.0000
  C   C397      1.0  0.14441  0.22808  0.67851  1.0000
  C   C398      1.0  0.00774  0.14651  0.64813  1.0000
  C   C399      1.0  0.14801  0.20930  0.68220  1.0000
  C   C400      1.0  0.23734  0.03678  0.65071  1.0000
  H   H457      1.0  0.18572  0.02390  0.67003  1.0000
  S   S116      1.0  0.23150  0.21576  0.71631  1.0000
  S   S117      1.0  0.07861  0.31365  0.68753  1.0000
  S   S118      1.0  0.12752  0.30374  0.69482  1.0000
  H   H458      1.0  0.39587  0.03648  0.48542  1.0000
  C   C401      1.0  0.06721  0.29082  0.67880  1.0000
  H   H459      1.0  0.04343  0.16920  0.67003  1.0000
  H   H460      1.0  0.14383  0.09720  0.68246  1.0000
  H   H461      1.0  0.16781  0.30001  0.68882  1.0000
  C   C402      1.0  0.33794  0.08718  0.57676  1.0000
  H   H462      1.0  0.25940  0.04884  0.63963  1.0000
  H   H463      1.0  0.19688  0.30402  0.71359  1.0000
  C   C403      1.0  0.23113  0.03521  0.60224  1.0000
  C   C404      1.0  0.43174  0.10295  0.57633  1.0000
  C   C405      1.0  0.10949  0.28208  0.65041  1.0000
  H   H464      1.0  0.32303  0.06726  0.58760  1.0000
  N   N24       1.0  0.13502  0.19935  0.68180  1.0000
  H   H465      1.0  0.12098  0.19994  0.70102  1.0000
  C   C406      1.0  0.32231  0.08102  0.58276  1.0000
  H   H466      1.0  0.05634  0.14063  0.66338  1.0000
  C   C407      1.0  0.09954  0.30147  0.61329  1.0000
  H   H467      1.0  0.12203  0.19610  0.66823  1.0000
  C   C408      1.0  0.23143  0.02094  0.65607  1.0000
  H   H468      1.0  0.00540  0.13979  0.64178  1.0000
  H   H469      1.0  0.44287  0.11674  0.55089  1.0000
  C   C409      1.0  0.04574  0.17606  0.65989  1.0000
  C   C410      1.0  0.13058  0.20446  0.66911  1.0000
  N   N25       1.0  0.00206  0.27317  0.61938  1.0000
  H   H470      1.0  0.44040  0.15253  0.57361  1.0000
  H   H471      1.0  0.49347  0.00118  0.51521  1.0000
  H   H472      1.0  0.17648  0.27034  0.72263  1.0000
  C   C411      1.0  0.17168  0.22921  0.68369  1.0000
  H   H473      1.0  0.39002  0.05802  0.54978  1.0000
  C   C412      1.0  0.33322  0.13887  0.55302  1.0000
  C   C413      1.0  0.38118  0.01171  0.57228  1.0000
  H   H474      1.0  0.24498  0.03607  0.60197  1.0000
  S   S119      1.0  0.26950  0.20420  0.73375  1.0000
  N   N26       1.0  0.44134  0.13151  0.56476  1.0000
  H   H475      1.0  0.16123  0.29402  0.73447  1.0000
  H   H476      1.0  0.18990  0.16139  0.70492  1.0000
  C   C414      1.0  0.20545  0.14469  0.69186  1.0000
  C   C415      1.0  0.21114  0.30525  0.71062  1.0000
  Fe  Fe59      1.0  0.23900  0.23491  0.69827  1.0000
  C   C416      1.0  0.25479  0.03658  0.64371  1.0000
  Fe  Fe60      1.0  0.15587  0.00362  0.63887  1.0000
  C   C417      1.0  0.36775  0.00938  0.58323  1.0000
  C   C418      1.0  0.37977  0.04099  0.57497  1.0000
  H   H477      1.0  0.11200  0.21794  0.68949  1.0000
  H   H478      1.0  0.01399  0.17249  0.67039  1.0000
  H   H479      1.0  0.33692  0.13770  0.57660  1.0000
  H   H480      1.0  0.30203  0.16012  0.55728  1.0000
  H   H481      1.0  0.44537  0.13884  0.54438  1.0000
  C   C419      1.0  0.18290  0.27273  0.72920  1.0000
  C   C420      1.0  0.08016  0.29295  0.68431  1.0000
  H   H482      1.0  0.24591  0.04971  0.61709  1.0000
  C   C421      1.0  0.39448  0.04518  0.54668  1.0000
  H   H483      1.0  0.09548  0.29291  0.60912  1.0000
  H   H484      1.0  0.42360  0.13459  0.55253  1.0000
  S   S120      1.0  0.27933  0.02788  0.60860  1.0000
  C   C422      1.0  0.18069  0.28359  0.67523  1.0000
  H   H485      1.0  0.06205  0.17976  0.63632  1.0000
  C   C423      1.0  0.50064  0.08788  0.55297  1.0000
  S   S121      1.0  0.41358  0.12146  0.49610  1.0000
  C   C424      1.0  0.23923  0.25493  0.72844  1.0000
  C   C425      1.0  0.17919  0.28991  0.68595  1.0000
  H   H486      1.0  0.44624  0.15786  0.55675  1.0000
  H   H487      1.0  0.41277  0.04812  0.56240  1.0000
  H   H488      1.0  0.33153  0.15296  0.54787  1.0000
  H   H489      1.0  0.49451  0.14149  0.49346  1.0000
  H   H490      1.0  0.29749  0.13968  0.55661  1.0000
  C   C426      1.0  0.38776  0.02759  0.56788  1.0000
  H   H491      1.0  0.39705  0.12500  0.60226  1.0000
  H   H492      1.0  0.35007  0.02074  0.59857  1.0000
  C   C427      1.0  0.02448  0.15043  0.64633  1.0000
  H   H493      1.0  0.11213  0.09845  0.69094  1.0000
  H   H494      1.0  0.42095  0.01720  0.54235  1.0000
  H   H495      1.0  0.39985  0.01118  0.54699  1.0000
  H   H496      1.0  0.27491  0.30492  0.69628  1.0000
  H   H497      1.0  0.15023  0.07598  0.69208  1.0000
  C   C428      1.0  0.01001  0.26256  0.63035  1.0000
  H   H498      1.0  0.22602  0.04638  0.59487  1.0000
  H   H499      1.0  0.36306  0.99709  0.58655  1.0000
  C   C429      1.0  0.19975  0.26251  0.73087  1.0000
  C   C430      1.0  0.24290  0.00434  0.65441  1.0000
  N   N27       1.0  0.11162  0.30046  0.64421  1.0000
  C   C431      1.0  0.41932  0.02093  0.51413  1.0000
  H   H500      1.0  0.42229  0.07918  0.58651  1.0000
  C   C432      1.0  0.13023  0.30131  0.64374  1.0000
  C   C433      1.0  0.20272  0.15782  0.69870  1.0000
  C   C434      1.0  0.05763  0.31905  0.63321  1.0000
  N   N28       1.0  0.28086  0.09940  0.68966  1.0000
  C   C435      1.0  0.29960  0.10181  0.68466  1.0000
  C   C436      1.0  0.28165  0.08073  0.69655  1.0000
  C   C437      1.0  0.27258  0.10253  0.67869  1.0000
  C   C438      1.0  0.26989  0.11133  0.69823  1.0000
  C   C439      1.0  0.27684  0.12357  0.70157  1.0000
  C   C440      1.0  0.25154  0.11100  0.70344  1.0000
  C   C441      1.0  0.26592  0.13490  0.70945  1.0000
  C   C442      1.0  0.24079  0.12231  0.71138  1.0000
  C   C443      1.0  0.24794  0.13431  0.71432  1.0000
  H   H501      1.0  0.30699  0.09874  0.69236  1.0000
  H   H502      1.0  0.30735  0.09308  0.67795  1.0000
  H   H503      1.0  0.30003  0.11554  0.67922  1.0000
  H   H504      1.0  0.28734  0.07796  0.70507  1.0000
  H   H505      1.0  0.29008  0.07137  0.69045  1.0000
  H   H506      1.0  0.26818  0.07745  0.69977  1.0000
  H   H507      1.0  0.26950  0.11686  0.67425  1.0000
  H   H508      1.0  0.28147  0.09563  0.67117  1.0000
  H   H509      1.0  0.25981  0.09795  0.68135  1.0000
  H   H510      1.0  0.29053  0.12506  0.69795  1.0000
  H   H511      1.0  0.24516  0.10245  0.70104  1.0000
  H   H512      1.0  0.27132  0.14453  0.71156  1.0000
  H   H513      1.0  0.22663  0.12235  0.71481  1.0000
  H   H514      1.0  0.23937  0.14359  0.72003  1.0000
  N   N29       1.0  0.24596  0.16160  0.63988  1.0000
  C   C444      1.0  0.24701  0.14286  0.64660  1.0000
  C   C445      1.0  0.23369  0.16624  0.63103  1.0000
  C   C446      1.0  0.26408  0.16330  0.63216  1.0000
  C   C447      1.0  0.23901  0.17300  0.64926  1.0000
  C   C448      1.0  0.24962  0.18280  0.65176  1.0000
  C   C449      1.0  0.22113  0.17428  0.65638  1.0000
  C   C450      1.0  0.24243  0.19370  0.66051  1.0000
  C   C451      1.0  0.21406  0.18528  0.66506  1.0000
  C   C452      1.0  0.22465  0.19508  0.66705  1.0000
  H   H515      1.0  0.25522  0.13926  0.65391  1.0000
  H   H516      1.0  0.23358  0.14007  0.65151  1.0000
  H   H517      1.0  0.25322  0.13364  0.64006  1.0000
  H   H518      1.0  0.23073  0.18074  0.62707  1.0000
  H   H519      1.0  0.22075  0.16209  0.63555  1.0000
  H   H520      1.0  0.23954  0.15965  0.62289  1.0000
  H   H521      1.0  0.27435  0.15853  0.63806  1.0000
  H   H522      1.0  0.26856  0.15513  0.62485  1.0000
  H   H523      1.0  0.26436  0.17723  0.62710  1.0000
  H   H524      1.0  0.26357  0.18215  0.64722  1.0000
  H   H525      1.0  0.21261  0.16647  0.65547  1.0000
  H   H526      1.0  0.20049  0.18580  0.67056  1.0000
  H   H527      1.0  0.21922  0.20327  0.67399  1.0000
  H   H528      1.0  0.13233  0.23540  0.67525  1.0000
  C   C453      1.0  0.22227  0.13948  0.68427  1.0000
  H   H529      1.0  0.46462  0.10992  0.56443  1.0000
  Fe  Fe61      1.0  0.26107  0.20702  0.71537  1.0000
  H   H530      1.0  0.46368  0.12501  0.57378  1.0000
  H   H531      1.0  0.21568  0.30383  0.70059  1.0000
  C   C454      1.0  0.30193  0.14619  0.56241  1.0000
  H   H532      1.0  0.35085  0.07820  0.57689  1.0000
  H   H533      1.0  0.10214  0.28183  0.62989  1.0000
  C   C455      1.0  0.12492  0.07589  0.66095  1.0000
  H   H534      1.0  0.21877  0.02171  0.63406  1.0000
  S   S122      1.0  0.21331  0.18138  0.70727  1.0000
  H   H535      1.0  0.21861  0.29383  0.71657  1.0000
  N   N30       1.0  0.21305  0.32239  0.71210  1.0000
  C   C456      1.0  0.43763  0.15059  0.56496  1.0000
  C   C457      1.0  0.49729  0.01379  0.51099  1.0000
  H   H536      1.0  0.48565  0.07930  0.49133  1.0000
  H   H537      1.0  0.09554  0.28066  0.65149  1.0000
  C   C458      1.0  0.42126  0.09299  0.58627  1.0000
  H   H538      1.0  0.36000  0.02700  0.48656  1.0000
  C   C459      1.0  0.48662  0.14105  0.48709  1.0000
  C   C460      1.0  0.26057  0.00467  0.64716  1.0000
  H   H539      1.0  0.11765  0.12692  0.64972  1.0000
  C   C461      1.0  0.41750  0.12891  0.58524  1.0000
  C   C462      1.0  0.40902  0.10089  0.59568  1.0000
  H   H540      1.0  0.20576  0.25226  0.72550  1.0000
  H   H541      1.0  0.49517  0.07439  0.51213  1.0000
  H   H542      1.0  0.12190  0.05302  0.68483  1.0000
  H   H543      1.0  0.05227  0.16622  0.63132  1.0000
  H   H544      1.0  0.19209  0.32071  0.72891  1.0000
  H   H545      1.0  0.22809  0.00804  0.62253  1.0000
  S   S123      1.0  0.22422  0.26307  0.69822  1.0000
  C   C463      1.0  0.12299  0.10455  0.66492  1.0000
  C   C464      1.0  0.44696  0.01554  0.52124  1.0000
  H   H546      1.0  0.36980  0.00882  0.54446  1.0000
  H   H547      1.0  0.49913  0.07655  0.56067  1.0000
  C   C465      1.0  0.47024  0.13602  0.49194  1.0000
  C   C466      1.0  0.36041  0.02270  0.59005  1.0000
  C   C467      1.0  0.20734  0.27020  0.68950  1.0000
  H   H548      1.0  0.29147  0.14727  0.57124  1.0000
  H   H549      1.0  0.44089  0.09625  0.56919  1.0000
  H   H550      1.0  0.38383  0.05353  0.57209  1.0000
  C   C468      1.0  0.09403  0.27859  0.68721  1.0000
  H   H551      1.0  0.06061  0.13979  0.64702  1.0000
  C   C469      1.0  0.09908  0.31225  0.65238  1.0000
  H   H552      1.0  0.11900  0.27229  0.64507  1.0000
  H   H553      1.0  0.01236  0.28444  0.59976  1.0000
  C   C470      1.0  0.11876  0.10247  0.64493  1.0000
  H   H554      1.0  0.01862  0.24969  0.62846  1.0000
  H   H555      1.0  0.14544  0.05248  0.67786  1.0000
  C   C471      1.0  0.30469  0.11061  0.57707  1.0000
  H   H556      1.0  0.42248  0.02502  0.56690  1.0000
  H   H557      1.0  0.01880  0.26950  0.63256  1.0000
  H   H558      1.0  0.29144  0.11900  0.57799  1.0000
  C   C472      1.0  0.43019  0.12125  0.57549  1.0000
  H   H559      1.0  0.14013  0.29309  0.63735  1.0000
  H   H560      1.0  0.12718  0.06161  0.66328  1.0000
  C   C473      1.0  0.46057  0.12409  0.56495  1.0000
  H   H561      1.0  0.40457  0.04724  0.53764  1.0000
  C   C474      1.0  0.41693  0.03536  0.55928  1.0000
  C   C475      1.0  0.19250  0.28332  0.69300  1.0000
  C   C476      1.0  0.10017  0.31880  0.60684  1.0000
  C   C477      1.0  0.20183  0.03238  0.61456  1.0000
  S   S124      1.0  0.00636  0.22114  0.66675  1.0000
  H   H562      1.0  0.48689  0.05422  0.53486  1.0000
  H   H563      1.0  0.41500  0.14275  0.58535  1.0000
  C   C478      1.0  0.11459  0.08391  0.69176  1.0000
  C   C479      1.0  0.10340  0.29525  0.62534  1.0000
  C   C480      1.0  0.40982  0.01474  0.55061  1.0000
  N   N31       1.0  0.21916  0.03582  0.61487  1.0000
  H   H564      1.0  0.32420  0.15875  0.57009  1.0000
  C   C481      1.0  0.14603  0.08279  0.68299  1.0000
  H   H565      1.0  0.31025  0.18563  0.73012  1.0000
  C   C482      1.0  0.43387  0.00905  0.51870  1.0000
  C   C483      1.0  0.12133  0.08415  0.64898  1.0000
  H   H566      1.0  0.05647  0.30190  0.67649  1.0000
  H   H567      1.0  0.47881  0.02234  0.49865  1.0000
  H   H568      1.0  0.02497  0.26303  0.60590  1.0000
  H   H569      1.0  0.11635  0.10877  0.63555  1.0000
  C   C484      1.0  0.36641  0.03847  0.58595  1.0000
  H   H570      1.0  0.24340  0.07800  0.62224  1.0000
  H   H571      1.0  0.19532  0.04256  0.60731  1.0000
  H   H572      1.0  0.37488  0.01809  0.49740  1.0000
  H   H573      1.0  0.31345  0.14390  0.58305  1.0000
  H   H574      1.0  0.15313  0.25219  0.67641  1.0000
  C   C485      1.0  0.11951  0.11266  0.65291  1.0000
  S   S125      1.0  0.18451  0.99214  0.63130  1.0000
  C   C486      1.0  0.04970  0.17459  0.63827  1.0000
  H   H575      1.0  0.23536  0.24910  0.72198  1.0000
  S   S126      1.0  0.26389  0.18561  0.70498  1.0000
  H   H576      1.0  0.42811  0.03709  0.55083  1.0000
  H   H577      1.0  0.10095  0.30780  0.66228  1.0000
  H   H578      1.0  0.05799  0.27278  0.67212  1.0000
  C   C487      1.0  0.26638  0.02055  0.64198  1.0000
  C   C488      1.0  0.21670  0.16596  0.69785  1.0000
  C   C489      1.0  0.37211  0.01673  0.48855  1.0000
  C   C490      1.0  0.23275  0.05817  0.61878  1.0000
  C   C491      1.0  0.20068  0.06519  0.62033  1.0000
  C   C492      1.0  0.23148  0.07432  0.62175  1.0000
  C   C493      1.0  0.19958  0.08135  0.62325  1.0000
  C   C494      1.0  0.21491  0.08585  0.62400  1.0000
  H   H579      1.0  0.16783  0.18678  0.68998  1.0000
  H   H580      1.0  0.11217  0.27817  0.66012  1.0000
  H   H581      1.0  0.33222  0.13092  0.54664  1.0000
  H   H582      1.0  0.10209  0.08091  0.69101  1.0000
  C   C495      1.0  0.28865  0.05647  0.61194  1.0000
  H   H583      1.0  0.22832  0.04930  0.65210  1.0000
  C   C496      1.0  0.30573  0.09271  0.58292  1.0000
  H   H584      1.0  0.03871  0.18609  0.63604  1.0000
  H   H585      1.0  0.29362  0.08798  0.58793  1.0000
  H   H586      1.0  0.19479  0.13810  0.69287  1.0000
  H   H587      1.0  0.24038  0.26870  0.72357  1.0000
  N   N32       1.0  0.40199  0.03052  0.55634  1.0000
  H   H588      1.0  0.18675  0.09049  0.62498  1.0000
  H   H589      1.0  0.21392  0.09835  0.62629  1.0000
  H   H590      1.0  0.08495  0.31248  0.65267  1.0000
  C   C497      1.0  0.32040  0.11733  0.57079  1.0000
  C   C498      1.0  0.49342  0.02695  0.54407  1.0000
  H   H591      1.0  0.21439  0.31349  0.73178  1.0000
  H   H592      1.0  0.03566  0.18877  0.65875  1.0000
  H   H593      1.0  0.40054  0.09327  0.60320  1.0000
  H   H594      1.0  0.18062  0.23684  0.68436  1.0000
  C   C499      1.0  0.16399  0.20093  0.68676  1.0000
  H   H595      1.0  0.38621  0.00079  0.56752  1.0000
  C   C500      1.0  0.23323  0.16128  0.68983  1.0000
  N   N33       1.0  0.13001  0.07764  0.68197  1.0000
  H   H596      1.0  0.23245  0.02261  0.59938  1.0000
  Fe  Fe62      1.0  0.28956  0.99868  0.60914  1.0000
  C   C501      1.0  0.01310  0.16493  0.66407  1.0000
  H   H597      1.0  0.24486  0.29952  0.70254  1.0000
  H   H598      1.0  0.05904  0.17951  0.65768  1.0000
  H   H599      1.0  0.48156  0.02394  0.54286  1.0000
  N   N34       1.0  0.31974  0.13640  0.56513  1.0000
  H   H600      1.0  0.11688  0.07759  0.70147  1.0000
  C   C502      1.0  0.10800  0.30637  0.63130  1.0000
  C   C503      1.0  0.34829  0.99701  0.55686  1.0000
  S   S127      1.0  0.14527  0.99218  0.62693  1.0000
  C   C504      1.0  0.49357  0.04225  0.49642  1.0000
  H   H601      1.0  0.01862  0.21097  0.64238  1.0000
  C   C505      1.0  0.48912  0.02571  0.50161  1.0000
  H   H602      1.0  0.00494  0.19704  0.63133  1.0000
  H   H603      1.0  0.13247  0.31502  0.64039  1.0000
  H   H604      1.0  0.36637  0.00152  0.52550  1.0000
  C   C506      1.0  0.05396  0.32032  0.62149  1.0000
  C   C507      1.0  0.26389  0.31488  0.69996  1.0000
  C   C508      1.0  0.35949  0.00191  0.54522  1.0000
  H   H605      1.0  0.25287  0.24717  0.72943  1.0000
  H   H606      1.0  0.33437  0.19811  0.73122  1.0000
  H   H607      1.0  0.36241  0.19429  0.73366  1.0000
  Fe  Fe63      1.0  0.10432  0.32133  0.68682  1.0000
  C   C509      1.0  0.35752  0.99776  0.53452  1.0000
  H   H608      1.0  0.29921  0.99856  0.54494  1.0000
  H   H609      1.0  0.20863  0.99701  0.66187  1.0000
  H   H610      1.0  0.43456  0.99496  0.52092  1.0000
  H   H611      1.0  0.21691  0.99515  0.67579  1.0000
  C   C510      1.0  0.20583  0.32331  0.72558  1.0000
  H   H612      1.0  0.31116  0.99102  0.53071  1.0000
  Fe  Fe64      1.0  0.42690  0.05349  0.92519  1.0000
  S   S128      1.0  0.42049  0.07545  0.93543  1.0000
  C   C511      1.0  0.46836  0.13074  0.89009  1.0000
  Fe  Fe65      1.0  0.39180  0.04210  0.93775  1.0000
  S   S129      1.0  0.38205  0.06340  0.94898  1.0000
  S   S130      1.0  0.37756  0.01963  0.94290  1.0000
  Fe  Fe66      1.0  0.39347  0.08083  0.93091  1.0000
  S   S131      1.0  0.37993  0.10901  0.92407  1.0000
  Fe  Fe67      1.0  0.40982  0.05628  0.95248  1.0000
  S   S132      1.0  0.41596  0.05040  0.97176  1.0000
  S   S133      1.0  0.40067  0.06023  0.91924  1.0000
  S   S134      1.0  0.41876  0.03369  0.94264  1.0000
  H   H613      1.0  0.33013  0.22238  0.80985  1.0000
  Fe  Fe68      1.0  0.41518  0.17285  0.86336  1.0000
  S   S135      1.0  0.41276  0.17779  0.84320  1.0000
  S   S136      1.0  0.42622  0.14525  0.87334  1.0000
  Fe  Fe69      1.0  0.40526  0.21223  0.86356  1.0000
  S   S137      1.0  0.40164  0.22036  0.84363  1.0000
  S   S138      1.0  0.40232  0.23152  0.87548  1.0000
  Fe  Fe70      1.0  0.38778  0.19774  0.84896  1.0000
  S   S139      1.0  0.36038  0.20156  0.84525  1.0000
  Fe  Fe71      1.0  0.42683  0.19987  0.83988  1.0000
  H   H614      1.0  0.38657  0.27831  0.82238  1.0000
  S   S140      1.0  0.38922  0.19121  0.86943  1.0000
  S   S141      1.0  0.43135  0.19322  0.85954  1.0000
  C   C512      1.0  0.41004  0.10062  0.97568  1.0000
  C   C513      1.0  0.45371  0.22456  0.84038  1.0000
  S   S142      1.0  0.34482  0.29838  0.77105  1.0000
  H   H615      1.0  0.42756  0.15493  0.91259  1.0000
  C   C514      1.0  0.36443  0.13293  0.87903  1.0000
  H   H616      1.0  0.33637  0.15011  0.86763  1.0000
  H   H617      1.0  0.39448  0.13255  0.93509  1.0000
  C   C515      1.0  0.46674  0.12823  0.95908  1.0000
  H   H618      1.0  0.35476  0.13976  0.85683  1.0000
  H   H619      1.0  0.45863  0.01214  0.91058  1.0000
  C   C516      1.0  0.48840  0.25850  0.79906  1.0000
  C   C517      1.0  0.35555  0.16488  0.87645  1.0000
  N   N35       1.0  0.36267  0.15003  0.86974  1.0000
  N   N36       1.0  0.22647  0.25433  0.74088  1.0000
  H   H620      1.0  0.45931  0.24355  0.81213  1.0000
  S   S143      1.0  0.35561  0.20975  0.78869  1.0000
  H   H621      1.0  0.34162  0.16513  0.88197  1.0000
  C   C518      1.0  0.45327  0.27829  0.85730  1.0000
  C   C519      1.0  0.47901  0.16649  0.85426  1.0000
  H   H622      1.0  0.37812  0.16594  0.85423  1.0000
  C   C520      1.0  0.48756  0.13275  0.96994  1.0000
  S   S144      1.0  0.49321  0.23458  0.85169  1.0000
  C   C521      1.0  0.36460  0.29430  0.77653  1.0000
  H   H623      1.0  0.35517  0.17799  0.86976  1.0000
  H   H624      1.0  0.47933  0.17842  0.84641  1.0000
  C   C522      1.0  0.47561  0.31468  0.84740  1.0000
  H   H625      1.0  0.33639  0.13757  0.88902  1.0000
  H   H626      1.0  0.38565  0.14278  0.85515  1.0000
  C   C523      1.0  0.35081  0.11289  0.89769  1.0000
  H   H627      1.0  0.31219  0.29929  0.74036  1.0000
  N   N37       1.0  0.47024  0.26261  0.79640  1.0000
  H   H628      1.0  0.39317  0.12225  0.87238  1.0000
  C   C524      1.0  0.34936  0.12864  0.88851  1.0000
  H   H629      1.0  0.33928  0.11011  0.90508  1.0000
  C   C525      1.0  0.39577  0.28816  0.78581  1.0000
  N   N38       1.0  0.39136  0.00167  0.97962  1.0000
  H   H630      1.0  0.45783  0.02766  0.93745  1.0000
  H   H631      1.0  0.36397  0.16408  0.88311  1.0000
  S   S145      1.0  0.27490  0.27132  0.79825  1.0000
  H   H632      1.0  0.47920  0.26952  0.83767  1.0000
  C   C526      1.0  0.35919  0.20330  0.82959  1.0000
  C   C527      1.0  0.34344  0.21283  0.82551  1.0000
  C   C528      1.0  0.34225  0.21481  0.81297  1.0000
  C   C529      1.0  0.35658  0.20672  0.80458  1.0000
  C   C530      1.0  0.37203  0.19646  0.80884  1.0000
  C   C531      1.0  0.37352  0.19510  0.82125  1.0000
  H   H633      1.0  0.33221  0.21894  0.83199  1.0000
  C   C532      1.0  0.48548  0.05120  0.94045  1.0000
  H   H634      1.0  0.38312  0.19011  0.80240  1.0000
  H   H635      1.0  0.38567  0.18764  0.82436  1.0000
  C   C533      1.0  0.40164  0.25360  0.86722  1.0000
  C   C534      1.0  0.39573  0.26705  0.87402  1.0000
  C   C535      1.0  0.39435  0.28481  0.86767  1.0000
  C   C536      1.0  0.39896  0.28925  0.85447  1.0000
  C   C537      1.0  0.40530  0.27581  0.84762  1.0000
  C   C538      1.0  0.40671  0.25800  0.85400  1.0000
  H   H636      1.0  0.39188  0.26375  0.88423  1.0000
  H   H637      1.0  0.38949  0.29515  0.87301  1.0000
  H   H638      1.0  0.40882  0.27911  0.83744  1.0000
  H   H639      1.0  0.41173  0.24774  0.84870  1.0000
  H   H640      1.0  0.34870  0.16351  0.85465  1.0000
  C   C539      1.0  0.37826  0.00768  0.93174  1.0000
  C   C540      1.0  0.37913  0.01571  0.91895  1.0000
  C   C541      1.0  0.37975  0.00565  0.91030  1.0000
  C   C542      1.0  0.46214  0.09996  0.93858  1.0000
  H   H641      1.0  0.48703  0.15478  0.85029  1.0000
  H   H642      1.0  0.47453  0.19604  0.86264  1.0000
  H   H643      1.0  0.37913  0.02967  0.91575  1.0000
  H   H644      1.0  0.38044  0.01185  0.90041  1.0000
  H   H645      1.0  0.33820  0.19944  0.77180  1.0000
  C   C543      1.0  0.44621  0.30556  0.84254  1.0000
  C   C544      1.0  0.36316  0.19008  0.74380  1.0000
  C   C545      1.0  0.47499  0.03863  0.94358  1.0000
  C   C546      1.0  0.47441  0.13014  0.98132  1.0000
  H   H646      1.0  0.36123  0.19900  0.76510  1.0000
  H   H647      1.0  0.41636  0.00936  0.96984  1.0000
  C   C547      1.0  0.41083  0.08615  0.97062  1.0000
  C   C548      1.0  0.46609  0.03730  0.93485  1.0000
  H   H648      1.0  0.26920  0.31310  0.76320  1.0000
  C   C549      1.0  0.49113  0.21673  0.83460  1.0000
  H   H649      1.0  0.40847  0.08832  0.96126  1.0000
  C   C550      1.0  0.39276  0.11915  0.91001  1.0000
  C   C551      1.0  0.40928  0.10973  0.90443  1.0000
  C   C552      1.0  0.41942  0.11790  0.89316  1.0000
  C   C553      1.0  0.41320  0.13556  0.88750  1.0000
  C   C554      1.0  0.39688  0.14510  0.89321  1.0000
  C   C555      1.0  0.38658  0.13686  0.90440  1.0000
  H   H650      1.0  0.41416  0.09607  0.90870  1.0000
  H   H651      1.0  0.43206  0.11046  0.88878  1.0000
  H   H652      1.0  0.39223  0.15882  0.88905  1.0000
  H   H653      1.0  0.37385  0.14419  0.90874  1.0000
  S   S146      1.0  0.30959  0.23609  0.77850  1.0000
  C   C556      1.0  0.46513  0.28184  0.79113  1.0000
  H   H654      1.0  0.41380  0.01572  0.90535  1.0000
  C   C557      1.0  0.45622  0.25792  0.80778  1.0000
  H   H655      1.0  0.41830  0.02445  0.91684  1.0000
  H   H656      1.0  0.44167  0.12244  0.97072  1.0000
  H   H657      1.0  0.22633  0.25870  0.75905  1.0000
  H   H658      1.0  0.17566  0.29946  0.74958  1.0000
  C   C558      1.0  0.32736  0.19102  0.73993  1.0000
  H   H659      1.0  0.28382  0.30661  0.78095  1.0000
  C   C559      1.0  0.26338  0.27333  0.77702  1.0000
  N   N39       1.0  0.34628  0.19717  0.75222  1.0000
  H   H660      1.0  0.44279  0.26090  0.80545  1.0000
  Fe  Fe72      1.0  0.31817  0.25443  0.76010  1.0000
  C   C560      1.0  0.38160  0.02040  0.97661  1.0000
  H   H661      1.0  0.29229  0.17050  0.74944  1.0000
  H   H662      1.0  0.28381  0.29362  0.74814  1.0000
  H   H663      1.0  0.29877  0.16750  0.77031  1.0000
  H   H664      1.0  0.26569  0.30313  0.74028  1.0000
  S   S147      1.0  0.43000  0.29903  0.81661  1.0000
  C   C561      1.0  0.42003  0.14425  0.91719  1.0000
  H   H665      1.0  0.42031  0.99638  0.93267  1.0000
  H   H666      1.0  0.47365  0.03001  0.95282  1.0000
  S   S148      1.0  0.31180  0.25628  0.74122  1.0000
  C   C562      1.0  0.42475  0.01722  0.90907  1.0000
  H   H667      1.0  0.29225  0.23042  0.75920  1.0000
  H   H668      1.0  0.40621  0.00133  0.96063  1.0000
  H   H669      1.0  0.45706  0.00880  0.96685  1.0000
  H   H670      1.0  0.47939  0.18512  0.87790  1.0000
  H   H671      1.0  0.25149  0.32232  0.75476  1.0000
  C   C563      1.0  0.48169  0.21059  0.82839  1.0000
  H   H672      1.0  0.49737  0.03428  0.90336  1.0000
  C   C564      1.0  0.25972  0.27933  0.78822  1.0000
  C   C565      1.0  0.29276  0.31463  0.78169  1.0000
  S   S149      1.0  0.39074  0.32210  0.81134  1.0000
  Fe  Fe73      1.0  0.41506  0.30569  0.80114  1.0000
  H   H673      1.0  0.45827  0.27727  0.83287  1.0000
  H   H674      1.0  0.24148  0.29700  0.79969  1.0000
  C   C566      1.0  0.36927  0.30819  0.77933  1.0000
  C   C567      1.0  0.44444  0.10885  0.93825  1.0000
  H   H675      1.0  0.49337  0.16419  0.96908  1.0000
  H   H676      1.0  0.45461  0.26559  0.81499  1.0000
  H   H677      1.0  0.47469  0.03241  0.97888  1.0000
  H   H678      1.0  0.47835  0.25700  0.77761  1.0000
  H   H679      1.0  0.33936  0.22082  0.73810  1.0000
  C   C568      1.0  0.50013  0.12561  0.88870  1.0000
  S   S150      1.0  0.30792  0.27877  0.76807  1.0000
  C   C569      1.0  0.48554  0.15174  0.87488  1.0000
  N   N40       1.0  0.36981  0.26153  0.82189  1.0000
  C   C570      1.0  0.35939  0.27589  0.81359  1.0000
  C   C571      1.0  0.35744  0.25096  0.83124  1.0000
  C   C572      1.0  0.37715  0.27008  0.82893  1.0000
  C   C573      1.0  0.38377  0.24986  0.81426  1.0000
  C   C574      1.0  0.40228  0.24631  0.81440  1.0000
  C   C575      1.0  0.37894  0.24119  0.80666  1.0000
  C   C576      1.0  0.41498  0.23463  0.80751  1.0000
  C   C577      1.0  0.39183  0.22994  0.79952  1.0000
  C   C578      1.0  0.40977  0.22647  0.80008  1.0000
  H   H680      1.0  0.35258  0.27083  0.80833  1.0000
  H   H681      1.0  0.34880  0.28489  0.81905  1.0000
  H   H682      1.0  0.49555  0.07196  0.92588  1.0000
  H   H683      1.0  0.35001  0.24555  0.82664  1.0000
  H   H684      1.0  0.34724  0.25892  0.83766  1.0000
  H   H685      1.0  0.36489  0.23943  0.83723  1.0000
  H   H686      1.0  0.43265  0.02585  0.90135  1.0000
  C   C579      1.0  0.37570  0.27740  0.77816  1.0000
  H   H687      1.0  0.38420  0.26012  0.83600  1.0000
  H   H688      1.0  0.40734  0.25233  0.81980  1.0000
  H   H689      1.0  0.36515  0.24302  0.80614  1.0000
  H   H690      1.0  0.42896  0.23186  0.80794  1.0000
  C   C580      1.0  0.25191  0.28057  0.76855  1.0000
  H   H691      1.0  0.41968  0.21749  0.79471  1.0000
  H   H692      1.0  0.28924  0.30872  0.80670  1.0000
  H   H693      1.0  0.43427  0.01582  0.98294  1.0000
  C   C581      1.0  0.46730  0.99930  0.97127  1.0000
  H   H694      1.0  0.24812  0.25162  0.74997  1.0000
  H   H695      1.0  0.45142  0.28569  0.78915  1.0000
  S   S151      1.0  0.32735  0.25752  0.79182  1.0000
  H   H696      1.0  0.32902  0.22239  0.75407  1.0000
  H   H697      1.0  0.46530  0.28970  0.79782  1.0000
  H   H698      1.0  0.46491  0.08666  0.94430  1.0000
  N   N41       1.0  0.27797  0.32224  0.74316  1.0000
  H   H699      1.0  0.29859  0.32141  0.77203  1.0000
  N   N42       1.0  0.48598  0.16802  0.86480  1.0000
  C   C582      1.0  0.47628  0.10810  0.93169  1.0000
  H   H700      1.0  0.39485  0.09504  0.88825  1.0000
  N   N43       1.0  0.42177  0.13626  0.93047  1.0000
  H   H701      1.0  0.37229  0.26665  0.77591  1.0000
  C   C583      1.0  0.46312  0.23102  0.84636  1.0000
  C   C584      1.0  0.27906  0.30474  0.74058  1.0000
  H   H702      1.0  0.40727  0.11994  0.94651  1.0000
  S   S152      1.0  0.49507  0.05333  0.95209  1.0000
  S   S153      1.0  0.34609  0.25147  0.76271  1.0000
  H   H703      1.0  0.45618  0.25495  0.78550  1.0000
  C   C585      1.0  0.46297  0.21415  0.83152  1.0000
  H   H704      1.0  0.40710  0.11397  0.97020  1.0000
  H   H705      1.0  0.38994  0.15287  0.86627  1.0000
  C   C586      1.0  0.35006  0.15085  0.86190  1.0000
  C   C587      1.0  0.37989  0.15294  0.86102  1.0000
  C   C588      1.0  0.18248  0.28914  0.74431  1.0000
  H   H706      1.0  0.48086  0.25204  0.81980  1.0000
  C   C589      1.0  0.46998  0.25276  0.78707  1.0000
  H   H707      1.0  0.45581  0.23887  0.85333  1.0000
  H   H708      1.0  0.38782  0.22386  0.79353  1.0000
  C   C590      1.0  0.45511  0.13435  0.92422  1.0000
  Fe  Fe74      1.0  0.30127  0.26046  0.78663  1.0000
  C   C591      1.0  0.48318  0.13178  0.95874  1.0000
  H   H709      1.0  0.36095  0.00754  0.96944  1.0000
  C   C592      1.0  0.47277  0.12529  0.92457  1.0000
  H   H710      1.0  0.46359  0.12764  0.95048  1.0000
  H   H711      1.0  0.45518  0.03482  0.97295  1.0000
  C   C593      1.0  0.46769  0.04856  0.92290  1.0000
  H   H712      1.0  0.46484  0.16509  0.85721  1.0000
  C   C594      1.0  0.36716  0.10082  0.89756  1.0000
  H   H713      1.0  0.48384  0.13169  0.91940  1.0000
  H   H714      1.0  0.35348  0.17889  0.76901  1.0000
  C   C595      1.0  0.32088  0.18076  0.76270  1.0000
  H   H715      1.0  0.23607  0.27390  0.74555  1.0000
  H   H716      1.0  0.40015  0.26148  0.78362  1.0000
  C   C596      1.0  0.31149  0.31183  0.74247  1.0000
  H   H717      1.0  0.21516  0.23467  0.75577  1.0000
  C   C597      1.0  0.28089  0.21912  0.73568  1.0000
  C   C598      1.0  0.47857  0.06089  0.91957  1.0000
  H   H718      1.0  0.41842  0.14506  0.94754  1.0000
  C   C599      1.0  0.48185  0.22685  0.84365  1.0000
  H   H719      1.0  0.45571  0.12660  0.89411  1.0000
  C   C600      1.0  0.29958  0.24202  0.73939  1.0000
  H   H720      1.0  0.48321  0.10841  0.90131  1.0000
  H   H721      1.0  0.45313  0.14779  0.91878  1.0000
  H   H722      1.0  0.41128  0.11376  0.93150  1.0000
  C   C601      1.0  0.38208  0.10436  0.88818  1.0000
  H   H723      1.0  0.36835  0.08885  0.90489  1.0000
  Fe  Fe75      1.0  0.33472  0.27416  0.77257  1.0000
  H   H724      1.0  0.36827  0.28410  0.80646  1.0000
  H   H725      1.0  0.43924  0.22755  0.84270  1.0000
  C   C602      1.0  0.45814  0.12642  0.98153  1.0000
  H   H726      1.0  0.27506  0.26307  0.77489  1.0000
  H   H727      1.0  0.36643  0.27909  0.83434  1.0000
  H   H728      1.0  0.25502  0.27607  0.75983  1.0000
  C   C603      1.0  0.45044  0.00366  0.91815  1.0000
  H   H729      1.0  0.45675  0.15375  0.87797  1.0000
  C   C604      1.0  0.28209  0.21920  0.74789  1.0000
  C   C605      1.0  0.40824  0.12509  0.93617  1.0000
  C   C606      1.0  0.23310  0.29987  0.78242  1.0000
  C   C607      1.0  0.38088  0.12018  0.87907  1.0000
  C   C608      1.0  0.39144  0.27446  0.78255  1.0000
  H   H730      1.0  0.22013  0.23010  0.74030  1.0000
  H   H731      1.0  0.40586  0.15048  0.91652  1.0000
  H   H732      1.0  0.49223  0.13364  0.94960  1.0000
  H   H733      1.0  0.45944  0.99126  0.92190  1.0000
  H   H734      1.0  0.40325  0.15830  0.93756  1.0000
  C   C609      1.0  0.47551  0.29656  0.84890  1.0000
  N   N44       1.0  0.46112  0.29075  0.84609  1.0000
  H   H735      1.0  0.23796  0.22693  0.74798  1.0000
  C   C610      1.0  0.41452  0.06889  0.97780  1.0000
  H   H736      1.0  0.42485  0.13403  0.91135  1.0000
  Fe  Fe76      1.0  0.33665  0.23491  0.78184  1.0000
  S   S154      1.0  0.45105  0.20508  0.82482  1.0000
  S   S155      1.0  0.41430  0.28358  0.79279  1.0000
  C   C611      1.0  0.38472  0.30510  0.78409  1.0000
  C   C612      1.0  0.41724  0.15057  0.93750  1.0000
  S   S156      1.0  0.22384  0.30438  0.75984  1.0000
  H   H737      1.0  0.44471  0.01094  0.92594  1.0000
  S   S157      1.0  0.45429  0.04856  0.91290  1.0000
  C   C613      1.0  0.23688  0.29399  0.77117  1.0000
  H   H738      1.0  0.36809  0.02257  0.98293  1.0000
  C   C614      1.0  0.46027  0.03171  0.98175  1.0000
  H   H739      1.0  0.44831  0.28436  0.86574  1.0000
  H   H740      1.0  0.33948  0.30413  0.74325  1.0000
  H   H741      1.0  0.36086  0.32134  0.77791  1.0000
  H   H742      1.0  0.20488  0.28221  0.75273  1.0000
  H   H743      1.0  0.38015  0.02460  0.96661  1.0000
  C   C615      1.0  0.44037  0.12630  0.93087  1.0000
  C   C616      1.0  0.32740  0.31449  0.74397  1.0000
  S   S158      1.0  0.39667  0.31168  0.84685  1.0000
  C   C617      1.0  0.24445  0.29245  0.79099  1.0000
  C   C618      1.0  0.46944  0.00003  0.98324  1.0000
  C   C619      1.0  0.22483  0.23574  0.74649  1.0000
  H   H744      1.0  0.47954  0.06984  0.91041  1.0000
  H   H745      1.0  0.47478  0.23826  0.79039  1.0000
  C   C620      1.0  0.30700  0.17385  0.76182  1.0000
  C   C621      1.0  0.33159  0.18950  0.75171  1.0000
  C   C622      1.0  0.46913  0.14623  0.88074  1.0000
  H   H746      1.0  0.42623  0.16009  0.93330  1.0000
  H   H747      1.0  0.46035  0.18240  0.87355  1.0000
  C   C623      1.0  0.17429  0.28606  0.73587  1.0000
  H   H748      1.0  0.48996  0.10122  0.93208  1.0000
  H   H749      1.0  0.44171  0.27445  0.85573  1.0000
  C   C624      1.0  0.40857  0.99954  0.97026  1.0000
  H   H750      1.0  0.47440  0.28622  0.78212  1.0000
  S   S159      1.0  0.47095  0.31852  0.80473  1.0000
  C   C625      1.0  0.45432  0.12539  0.97045  1.0000
  N   N45       1.0  0.43627  0.99997  0.91356  1.0000
  H   H751      1.0  0.47508  0.29042  0.82687  1.0000
  H   H752      1.0  0.43534  0.30071  0.84096  1.0000
  H   H753      1.0  0.38808  0.31584  0.78639  1.0000
  H   H754      1.0  0.22127  0.30996  0.78461  1.0000
  C   C626      1.0  0.19941  0.27907  0.74601  1.0000
  C   C627      1.0  0.29141  0.23056  0.74975  1.0000
  H   H755      1.0  0.43982  0.31312  0.85016  1.0000
  H   H756      1.0  0.46304  0.26570  0.85974  1.0000
  Fe  Fe77      1.0  0.40696  0.31756  0.82585  1.0000
  H   H757      1.0  0.43421  0.10173  0.94389  1.0000
  C   C628      1.0  0.34988  0.19336  0.76508  1.0000
  C   C629      1.0  0.23453  0.25994  0.74922  1.0000
  C   C630      1.0  0.30339  0.17539  0.75009  1.0000
  H   H758      1.0  0.37470  0.19482  0.74454  1.0000
  H   H759      1.0  0.31726  0.31717  0.79434  1.0000
  H   H760      1.0  0.36648  0.17535  0.74624  1.0000
  H   H761      1.0  0.27592  0.21031  0.75595  1.0000
  C   C631      1.0  0.31359  0.18390  0.73917  1.0000
  H   H762      1.0  0.32276  0.17930  0.77210  1.0000
  C   C632      1.0  0.48756  0.06215  0.92835  1.0000
  H   H763      1.0  0.49127  0.26988  0.85425  1.0000
  H   H764      1.0  0.48889  0.20272  0.82142  1.0000
  C   C633      1.0  0.34160  0.21665  0.74791  1.0000
  C   C634      1.0  0.46875  0.28157  0.83541  1.0000
  C   C635      1.0  0.20864  0.26544  0.73925  1.0000
  H   H765      1.0  0.49586  0.01183  0.90594  1.0000
  H   H766      1.0  0.35227  0.22305  0.74810  1.0000
  C   C636      1.0  0.36628  0.99393  0.97349  1.0000
  C   C637      1.0  0.47457  0.18351  0.86997  1.0000
  C   C638      1.0  0.48384  0.12045  0.89408  1.0000
  C   C639      1.0  0.49153  0.25342  0.81153  1.0000
  H   H767      1.0  0.45080  0.31481  0.83358  1.0000
  H   H768      1.0  0.26859  0.30868  0.80333  1.0000
  C   C640      1.0  0.27755  0.31748  0.80290  1.0000
  H   H769      1.0  0.30393  0.30477  0.78547  1.0000
  H   H770      1.0  0.38888  0.02974  0.97772  1.0000
  C   C641      1.0  0.49026  0.28389  0.85306  1.0000
  C   C642      1.0  0.48949  0.31966  0.85008  1.0000
  Fe  Fe78      1.0  0.44109  0.32315  0.80659  1.0000
  C   C643      1.0  0.44329  0.99020  0.90320  1.0000
  Fe  Fe79      1.0  0.09569  0.60869  0.05130  1.0000
  S   S160      1.0  0.07940  0.58793  0.06056  1.0000
  Fe  Fe80      1.0  0.09294  0.60785  0.02482  1.0000
  S   S161      1.0  0.07679  0.58706  0.03221  1.0000
  Fe  Fe81      1.0  0.06161  0.60246  0.04702  1.0000
  Fe  Fe82      1.0  0.09572  0.57422  0.04512  1.0000
  S   S162      1.0  0.10382  0.54466  0.04939  1.0000
  S   S163      1.0  0.11366  0.59364  0.03663  1.0000
  Fe  Fe83      1.0  0.05182  0.48706  0.04360  1.0000
  S   S164      1.0  0.07830  0.48332  0.03013  1.0000
  S   S165      1.0  0.03971  0.51424  0.04730  1.0000
  Fe  Fe84      1.0  0.04971  0.44908  0.04802  1.0000
  S   S166      1.0  0.07659  0.44190  0.03522  1.0000
  S   S167      1.0  0.03306  0.42876  0.05825  1.0000
  Fe  Fe85      1.0  0.08585  0.45856  0.04436  1.0000
  S   S168      1.0  0.11433  0.45437  0.04679  1.0000
  Fe  Fe86      1.0  0.06688  0.46733  0.02231  1.0000
  C   C644      1.0  0.19043  0.44541  0.17767  1.0000
  S   S169      1.0  0.05985  0.46337  0.05846  1.0000
  S   S170      1.0  0.03945  0.47334  0.03443  1.0000
  H   H771      1.0  0.24501  0.32705  0.21963  1.0000
  Fe  Fe87      1.0  0.17988  0.59092  0.11773  1.0000
  H   H772      1.0  0.06589  0.56036  0.05116  1.0000
  S   S171      1.0  0.16716  0.56799  0.12849  1.0000
  Fe  Fe88      1.0  0.15336  0.46103  0.10318  1.0000
  S   S172      1.0  0.14027  0.48357  0.11306  1.0000
  S   S173      1.0  0.13384  0.44796  0.09940  1.0000
  Fe  Fe89      1.0  0.19046  0.46157  0.10616  1.0000
  S   S174      1.0  0.17992  0.48395  0.11631  1.0000
  S   S175      1.0  0.21967  0.44771  0.10370  1.0000
  Fe  Fe90      1.0  0.15789  0.46971  0.12676  1.0000
  S   S176      1.0  0.14463  0.46871  0.14711  1.0000
  Fe  Fe91      1.0  0.16335  0.49566  0.10159  1.0000
  S   S177      1.0  0.15898  0.52455  0.09221  1.0000
  S   S178      1.0  0.16957  0.44623  0.11790  1.0000
  S   S179      1.0  0.17542  0.47427  0.09047  1.0000
  Fe  Fe92      1.0  0.33666  0.58722  0.13673  1.0000
  H   H773      1.0  0.40021  0.50825  0.11467  1.0000
  S   S180      1.0  0.34828  0.56197  0.12946  1.0000
  S   S181      1.0  0.34813  0.59775  0.14880  1.0000
  S   S182      1.0  0.30870  0.59139  0.14846  1.0000
  Fe  Fe93      1.0  0.33413  0.45798  0.12093  1.0000
  S   S183      1.0  0.32736  0.45263  0.14207  1.0000
  S   S184      1.0  0.36339  0.44996  0.11190  1.0000
  Fe  Fe94      1.0  0.29511  0.47419  0.11904  1.0000
  S   S185      1.0  0.28549  0.46957  0.14007  1.0000
  S   S186      1.0  0.27398  0.48959  0.10797  1.0000
  Fe  Fe95      1.0  0.30942  0.47975  0.13962  1.0000
  S   S187      1.0  0.30624  0.49966  0.15134  1.0000
  Fe  Fe96      1.0  0.30439  0.44317  0.14017  1.0000
  S   S188      1.0  0.29890  0.41636  0.15016  1.0000
  S   S189      1.0  0.31798  0.48595  0.11852  1.0000
  S   S190      1.0  0.31213  0.44690  0.11906  1.0000
  C   C645      1.0  0.00184  0.60993  0.02356  1.0000
  C   C646      1.0  0.12834  0.42957  0.02279  1.0000
  C   C647      1.0  0.10570  0.41436  0.01494  1.0000
  Fe  Fe97      1.0  0.41437  0.34879  0.12357  1.0000
  S   S191      1.0  0.46901  0.34874  0.13869  1.0000
  S   S192      1.0  0.38671  0.36623  0.12404  1.0000
  H   H774      1.0  0.32741  0.64816  0.16359  1.0000
  H   H775      1.0  0.01978  0.40801  0.99846  1.0000
  S   S193      1.0  0.27855  0.63057  0.12989  1.0000
  S   S194      1.0  0.44207  0.35103  0.11193  1.0000
  H   H776      1.0  0.01836  0.51163  0.03148  1.0000
  Fe  Fe98      1.0  0.18605  0.38288  0.18751  1.0000
  S   S195      1.0  0.19190  0.38549  0.20526  1.0000
  S   S196      1.0  0.15849  0.39368  0.18358  1.0000
  Fe  Fe99      1.0  0.22347  0.36331  0.17847  1.0000
  S   S197      1.0  0.23274  0.36389  0.19538  1.0000
  S   S198      1.0  0.24337  0.35223  0.16274  1.0000
  Fe  Fe100     1.0  0.20652  0.35716  0.20647  1.0000
  Fe  Fe101     1.0  0.21748  0.39198  0.19266  1.0000
  S   S199      1.0  0.22917  0.41397  0.19350  1.0000
  S   S200      1.0  0.19857  0.35386  0.18971  1.0000
  S   S201      1.0  0.21028  0.39201  0.17476  1.0000
  S   S202      1.0  0.42273  0.34014  0.14215  1.0000
  H   H777      1.0  0.38282  0.61795  0.13750  1.0000
  H   H778      1.0  0.28950  0.60876  0.20412  1.0000
  H   H779      1.0  0.06551  0.56474  0.02133  1.0000
  H   H780      1.0  0.01073  0.52270  0.99375  1.0000
  C   C648      1.0  0.05565  0.44729  0.00274  1.0000
  C   C649      1.0  0.08650  0.61175  0.99504  1.0000
  S   S203      1.0  0.31370  0.63119  0.14675  1.0000
  C   C650      1.0  0.27950  0.41622  0.16218  1.0000
  C   C651      1.0  0.27081  0.40222  0.16500  1.0000
  C   C652      1.0  0.25548  0.40150  0.17468  1.0000
  C   C653      1.0  0.24880  0.41470  0.18170  1.0000
  C   C654      1.0  0.25739  0.42884  0.17885  1.0000
  C   C655      1.0  0.27269  0.42968  0.16900  1.0000
  H   H781      1.0  0.27571  0.39207  0.15954  1.0000
  H   H782      1.0  0.24880  0.39073  0.17663  1.0000
  H   H783      1.0  0.25218  0.43914  0.18421  1.0000
  H   H784      1.0  0.27940  0.44052  0.16687  1.0000
  C   C656      1.0  0.37047  0.42672  0.11526  1.0000
  C   C657      1.0  0.38830  0.41848  0.11083  1.0000
  C   C658      1.0  0.39369  0.39986  0.11347  1.0000
  C   C659      1.0  0.38124  0.38953  0.12057  1.0000
  C   C660      1.0  0.36356  0.39786  0.12502  1.0000
  C   C661      1.0  0.35819  0.41633  0.12242  1.0000
  H   H785      1.0  0.39782  0.42647  0.10520  1.0000
  H   H786      1.0  0.40727  0.39351  0.10974  1.0000
  H   H787      1.0  0.35394  0.39000  0.13055  1.0000
  H   H788      1.0  0.34450  0.42247  0.12600  1.0000
  H   H789      1.0  0.46803  0.64399  0.13632  1.0000
  H   H790      1.0  0.26004  0.62862  0.21011  1.0000
  C   C662      1.0  0.47868  0.62860  0.17543  1.0000
  H   H791      1.0  0.34634  0.49488  0.16516  1.0000
  H   H792      1.0  0.05358  0.44523  0.01290  1.0000
  C   C663      1.0  0.25649  0.63884  0.19097  1.0000
  C   C664      1.0  0.33504  0.54588  0.13520  1.0000
  C   C665      1.0  0.32440  0.54380  0.14745  1.0000
  C   C666      1.0  0.31528  0.52982  0.15220  1.0000
  C   C667      1.0  0.31676  0.51784  0.14476  1.0000
  C   C668      1.0  0.32694  0.52028  0.13239  1.0000
  C   C669      1.0  0.33607  0.53424  0.12764  1.0000
  H   H793      1.0  0.32373  0.55253  0.15344  1.0000
  H   H794      1.0  0.30744  0.52803  0.16179  1.0000
  H   H795      1.0  0.32820  0.51115  0.12661  1.0000
  H   H796      1.0  0.34419  0.53590  0.11815  1.0000
  C   C670      1.0  0.14928  0.44802  0.15727  1.0000
  C   C671      1.0  0.13637  0.44358  0.16814  1.0000
  C   C672      1.0  0.13942  0.42692  0.17621  1.0000
  C   C673      1.0  0.15570  0.41488  0.17375  1.0000
  C   C674      1.0  0.16890  0.41951  0.16306  1.0000
  C   C675      1.0  0.16552  0.43593  0.15466  1.0000
  H   H797      1.0  0.12380  0.45291  0.17018  1.0000
  H   H798      1.0  0.12916  0.42338  0.18442  1.0000
  H   H799      1.0  0.18146  0.41026  0.16105  1.0000
  H   H800      1.0  0.17551  0.43933  0.14626  1.0000
  C   C676      1.0  0.23467  0.45924  0.10523  1.0000
  C   C677      1.0  0.25246  0.45048  0.10566  1.0000
  C   C678      1.0  0.26459  0.45950  0.10686  1.0000
  C   C679      1.0  0.25899  0.47738  0.10748  1.0000
  C   C680      1.0  0.24119  0.48598  0.10730  1.0000
  C   C681      1.0  0.22907  0.47698  0.10615  1.0000
  H   H801      1.0  0.25692  0.43676  0.10491  1.0000
  H   H802      1.0  0.27837  0.45278  0.10695  1.0000
  H   H803      1.0  0.23690  0.49974  0.10781  1.0000
  H   H804      1.0  0.21560  0.48400  0.10554  1.0000
  H   H805      1.0  0.37152  0.49614  0.09916  1.0000
  C   C682      1.0  0.16386  0.55651  0.11842  1.0000
  C   C683      1.0  0.16501  0.56396  0.10551  1.0000
  C   C684      1.0  0.16298  0.55429  0.09751  1.0000
  C   C685      1.0  0.15996  0.53712  0.10239  1.0000
  C   C686      1.0  0.15830  0.52991  0.11534  1.0000
  C   C687      1.0  0.16022  0.53959  0.12334  1.0000
  H   H806      1.0  0.16722  0.57724  0.10170  1.0000
  H   H807      1.0  0.16401  0.56003  0.08752  1.0000
  H   H808      1.0  0.15537  0.51690  0.11925  1.0000
  H   H809      1.0  0.15905  0.53390  0.13335  1.0000
  C   C688      1.0  0.22283  0.64707  0.16301  1.0000
  C   C689      1.0  0.09032  0.52090  0.00062  1.0000
  C   C690      1.0  0.28072  0.36990  0.14095  1.0000
  H   H810      1.0  0.27786  0.35761  0.14702  1.0000
  S   S204      1.0  0.20307  0.62882  0.09671  1.0000
  H   H811      1.0  0.25779  0.59519  0.19022  1.0000
  C   C691      1.0  0.00375  0.60144  0.04565  1.0000
  H   H812      1.0  0.29314  0.35353  0.16245  1.0000
  H   H813      1.0  0.15208  0.44145  0.00361  1.0000
  N   N46       1.0  0.12510  0.43707  0.00979  1.0000
  C   C692      1.0  0.11909  0.45379  0.06142  1.0000
  C   C693      1.0  0.13584  0.45633  0.06162  1.0000
  C   C694      1.0  0.14038  0.45513  0.07314  1.0000
  C   C695      1.0  0.12834  0.45094  0.08460  1.0000
  C   C696      1.0  0.11157  0.44848  0.08439  1.0000
  C   C697      1.0  0.10685  0.45017  0.07286  1.0000
  H   H814      1.0  0.14541  0.45910  0.05282  1.0000
  H   H815      1.0  0.15338  0.45692  0.07317  1.0000
  H   H816      1.0  0.10221  0.44513  0.09320  1.0000
  H   H817      1.0  0.09397  0.44805  0.07286  1.0000
  C   C698      1.0  0.08550  0.53597  0.04999  1.0000
  C   C699      1.0  0.08812  0.51815  0.04975  1.0000
  C   C700      1.0  0.07375  0.51133  0.04967  1.0000
  C   C701      1.0  0.05695  0.52248  0.04903  1.0000
  C   C702      1.0  0.05419  0.54026  0.04943  1.0000
  C   C703      1.0  0.06838  0.54689  0.05018  1.0000
  H   H818      1.0  0.10125  0.50959  0.04938  1.0000
  H   H819      1.0  0.07576  0.49739  0.05016  1.0000
  H   H820      1.0  0.04109  0.54886  0.04927  1.0000
  C   C704      1.0  0.08282  0.53934  0.99928  1.0000
  H   H821      1.0  0.44208  0.61134  0.18110  1.0000
  C   C705      1.0  0.48567  0.62738  0.16281  1.0000
  H   H822      1.0  0.33468  0.36968  0.13138  1.0000
  Fe  Fe102     1.0  0.34153  0.62403  0.13559  1.0000
  C   C706      1.0  0.47613  0.60893  0.13819  1.0000
  H   H823      1.0  0.31970  0.34596  0.13088  1.0000
  Fe  Fe103     1.0  0.18496  0.61532  0.09201  1.0000
  H   H824      1.0  0.06254  0.63748  0.01454  1.0000
  C   C707      1.0  0.28001  0.62619  0.17500  1.0000
  C   C708      1.0  0.13753  0.37892  0.22203  1.0000
  C   C709      1.0  0.38686  0.63010  0.13667  1.0000
  S   S205      1.0  0.03196  0.60420  0.05419  1.0000
  C   C710      1.0  0.12542  0.62521  0.07764  1.0000
  H   H825      1.0  0.14736  0.40047  0.20830  1.0000
  C   C711      1.0  0.28950  0.61584  0.18425  1.0000
  H   H826      1.0  0.12410  0.46315  0.01217  1.0000
  C   C712      1.0  0.36127  0.62556  0.16924  1.0000
  S   S206      1.0  0.33226  0.61315  0.12257  1.0000
  H   H827      1.0  0.43966  0.37567  0.12957  1.0000
  H   H828      1.0  0.09523  0.49758  0.99320  1.0000
  H   H829      1.0  0.48791  0.63767  0.12488  1.0000
  H   H830      1.0  0.08694  0.57315  0.99323  1.0000
  H   H831      1.0  0.25651  0.64565  0.17110  1.0000
  C   C713      1.0  0.25236  0.62545  0.12092  1.0000
  H   H832      1.0  0.09408  0.54746  0.02436  1.0000
  N   N47       1.0  0.21881  0.62976  0.16398  1.0000
  H   H833      1.0  0.01455  0.57209  0.02438  1.0000
  H   H834      1.0  0.14328  0.62935  0.08749  1.0000
  S   S207      1.0  0.24511  0.58979  0.10459  1.0000
  C   C714      1.0  0.23460  0.61559  0.16657  1.0000
  C   C715      1.0  0.24639  0.60661  0.15717  1.0000
  C   C716      1.0  0.23922  0.61112  0.17855  1.0000
  C   C717      1.0  0.26151  0.59368  0.15978  1.0000
  C   C718      1.0  0.25431  0.59807  0.18108  1.0000
  C   C719      1.0  0.26547  0.58941  0.17170  1.0000
  H   H835      1.0  0.22115  0.32662  0.17438  1.0000
  C   C720      1.0  0.26569  0.62810  0.20028  1.0000
  C   C721      1.0  0.18668  0.32953  0.23134  1.0000
  Fe  Fe104     1.0  0.30505  0.61773  0.13523  1.0000
  H   H836      1.0  0.16716  0.47965  0.15926  1.0000
  C   C722      1.0  0.02884  0.65303  0.02842  1.0000
  H   H837      1.0  0.00913  0.40586  0.06950  1.0000
  C   C723      1.0  0.17346  0.33378  0.22433  1.0000
  S   S208      1.0  0.16408  0.61730  0.10984  1.0000
  H   H838      1.0  0.24446  0.60956  0.14763  1.0000
  S   S209      1.0  0.23562  0.65268  0.19540  1.0000
  C   C724      1.0  0.01380  0.42756  0.05378  1.0000
  H   H839      1.0  0.31584  0.34899  0.16395  1.0000
  H   H840      1.0  0.15807  0.40990  0.22351  1.0000
  H   H841      1.0  0.20116  0.63997  0.15080  1.0000
  C   C725      1.0  0.01995  0.53834  0.00948  1.0000
  H   H842      1.0  0.10748  0.53298  0.01428  1.0000
  H   H843      1.0  0.04429  0.50780  0.01373  1.0000
  H   H844      1.0  0.04073  0.65127  0.03189  1.0000
  C   C726      1.0  0.06468  0.46026  0.99482  1.0000
  C   C727      1.0  0.01773  0.56519  0.01673  1.0000
  H   H845      1.0  0.07413  0.65234  0.00229  1.0000
  H   H846      1.0  0.47937  0.36459  0.11196  1.0000
  C   C728      1.0  0.09354  0.56401  0.00076  1.0000
  C   C729      1.0  0.15141  0.39886  0.22672  1.0000
  H   H847      1.0  0.14753  0.33062  0.22401  1.0000
  H   H848      1.0  0.00095  0.50699  0.00631  1.0000
  H   H849      1.0  0.02435  0.61926  0.01063  1.0000
  C   C730      1.0  0.09168  0.41165  0.99915  1.0000
  C   C731      1.0  0.42697  0.38565  0.13147  1.0000
  C   C732      1.0  0.00443  0.41463  0.06133  1.0000
  C   C733      1.0  0.14285  0.43556  0.00092  1.0000
  H   H850      1.0  0.45342  0.60949  0.15913  1.0000
  H   H851      1.0  0.48255  0.60791  0.12822  1.0000
  H   H852      1.0  0.13700  0.43653  0.02512  1.0000
  C   C734      1.0  0.11366  0.42812  0.00633  1.0000
  C   C735      1.0  0.00486  0.51999  0.00401  1.0000
  C   C736      1.0  0.10997  0.43331  0.99403  1.0000
  H   H853      1.0  0.08637  0.52857  0.02431  1.0000
  C   C737      1.0  0.28620  0.40228  0.12526  1.0000
  C   C738      1.0  0.38916  0.50911  0.11006  1.0000
  H   H854      1.0  0.46183  0.61542  0.13810  1.0000
  C   C739      1.0  0.36118  0.48152  0.13721  1.0000
  H   H855      1.0  0.06805  0.56170  0.98741  1.0000
  H   H856      1.0  0.00683  0.49952  0.02646  1.0000
  H   H857      1.0  0.25905  0.40677  0.12328  1.0000
  C   C740      1.0  0.24860  0.32915  0.16721  1.0000
  Fe  Fe105     1.0  0.21565  0.60152  0.10610  1.0000
  C   C741      1.0  0.36560  0.49644  0.10930  1.0000
  C   C742      1.0  0.39256  0.47755  0.11541  1.0000
  Fe  Fe106     1.0  0.31947  0.60442  0.15910  1.0000
  H   H858      1.0  0.29326  0.59773  0.12078  1.0000
  C   C743      1.0  0.40372  0.62951  0.13877  1.0000
  N   N48       1.0  0.37948  0.49455  0.11641  1.0000
  C   C744      1.0  0.17672  0.45960  0.17436  1.0000
  Fe  Fe107     1.0  0.18337  0.62845  0.11539  1.0000
  H   H859      1.0  0.04279  0.42647  0.00364  1.0000
  H   H860      1.0  0.18943  0.43812  0.18741  1.0000
  C   C745      1.0  0.27974  0.60296  0.11930  1.0000
  C   C746      1.0  0.14548  0.39350  0.21811  1.0000
  H   H861      1.0  0.01262  0.54135  0.02925  1.0000
  C   C747      1.0  0.26697  0.38158  0.13542  1.0000
  H   H862      1.0  0.03090  0.57228  0.98479  1.0000
  H   H863      1.0  0.17531  0.34209  0.21495  1.0000
  N   N49       1.0  0.01726  0.52015  0.01173  1.0000
  C   C748      1.0  0.40915  0.64519  0.13768  1.0000
  H   H864      1.0  0.23165  0.61813  0.18595  1.0000
  S   S210      1.0  0.17293  0.65138  0.12541  1.0000
  C   C749      1.0  0.35080  0.62268  0.19176  1.0000
  H   H865      1.0  0.23490  0.64931  0.15543  1.0000
  C   C750      1.0  0.00934  0.51295  0.02511  1.0000
  C   C751      1.0  0.02684  0.56535  0.99445  1.0000
  H   H866      1.0  0.23118  0.62173  0.11403  1.0000
  H   H867      1.0  0.27706  0.32739  0.16091  1.0000
  C   C752      1.0  0.14232  0.62456  0.07966  1.0000
  C   C753      1.0  0.26971  0.39774  0.12756  1.0000
  C   C754      1.0  0.02843  0.61127  0.02969  1.0000
  C   C755      1.0  0.47731  0.62006  0.15640  1.0000
  H   H868      1.0  0.01481  0.44879  0.03722  1.0000
  C   C756      1.0  0.26376  0.63796  0.17831  1.0000
  H   H869      1.0  0.03321  0.49438  0.00929  1.0000
  C   C757      1.0  0.09481  0.40637  0.01135  1.0000
  C   C758      1.0  0.48248  0.63747  0.13513  1.0000
  C   C759      1.0  0.06546  0.55770  0.01411  1.0000
  H   H870      1.0  0.42715  0.39697  0.12317  1.0000
  C   C760      1.0  0.01883  0.61383  0.02035  1.0000
  C   C761      1.0  0.02248  0.57421  0.00428  1.0000
  H   H871      1.0  0.34316  0.61648  0.20064  1.0000
  N   N50       1.0  0.21967  0.53848  0.08746  1.0000
  C   C762      1.0  0.20809  0.53539  0.10029  1.0000
  C   C763      1.0  0.23454  0.54572  0.08830  1.0000
  C   C764      1.0  0.20917  0.55218  0.07886  1.0000
  C   C765      1.0  0.22579  0.52181  0.08280  1.0000
  C   C766      1.0  0.24418  0.51330  0.07979  1.0000
  C   C767      1.0  0.21313  0.51343  0.08129  1.0000
  C   C768      1.0  0.24938  0.49731  0.07573  1.0000
  C   C769      1.0  0.21850  0.49750  0.07718  1.0000
  C   C770      1.0  0.23658  0.48941  0.07447  1.0000
  H   H872      1.0  0.21552  0.52544  0.10709  1.0000
  H   H873      1.0  0.20286  0.54773  0.10403  1.0000
  H   H874      1.0  0.19628  0.53040  0.10051  1.0000
  H   H875      1.0  0.22949  0.55827  0.09179  1.0000
  H   H876      1.0  0.24359  0.54884  0.07888  1.0000
  H   H877      1.0  0.24256  0.53635  0.09505  1.0000
  H   H878      1.0  0.19673  0.54854  0.07867  1.0000
  H   H879      1.0  0.20478  0.56514  0.08176  1.0000
  H   H880      1.0  0.21717  0.55436  0.06898  1.0000
  H   H881      1.0  0.25483  0.51837  0.08084  1.0000
  H   H882      1.0  0.19889  0.51900  0.08345  1.0000
  H   H883      1.0  0.26342  0.49073  0.07392  1.0000
  H   H884      1.0  0.20856  0.49119  0.07633  1.0000
  H   H885      1.0  0.24063  0.47677  0.07167  1.0000
  N   N51       1.0  0.22285  0.44421  0.14562  1.0000
  C   C771      1.0  0.23726  0.42999  0.15052  1.0000
  C   C772      1.0  0.21682  0.43771  0.13671  1.0000
  C   C773      1.0  0.23093  0.45967  0.13867  1.0000
  C   C774      1.0  0.20726  0.44946  0.15563  1.0000
  C   C775      1.0  0.19300  0.46382  0.15257  1.0000
  C   C776      1.0  0.20549  0.44039  0.16849  1.0000
  H   H886      1.0  0.24910  0.42673  0.14287  1.0000
  H   H887      1.0  0.24224  0.43412  0.15736  1.0000
  H   H888      1.0  0.23265  0.41743  0.15521  1.0000
  H   H889      1.0  0.20715  0.44816  0.13173  1.0000
  H   H890      1.0  0.21010  0.42647  0.14174  1.0000
  H   H891      1.0  0.22822  0.43304  0.12924  1.0000
  H   H892      1.0  0.23441  0.46563  0.14529  1.0000
  H   H893      1.0  0.24348  0.45589  0.13171  1.0000
  H   H894      1.0  0.22191  0.47013  0.13319  1.0000
  H   H895      1.0  0.19303  0.47097  0.14293  1.0000
  H   H896      1.0  0.21551  0.42926  0.17172  1.0000
  H   H897      1.0  0.30815  0.64244  0.17457  1.0000
  C   C777      1.0  0.03470  0.50817  0.00800  1.0000
  C   C778      1.0  0.00760  0.43883  0.04316  1.0000
  H   H898      1.0  0.02273  0.58810  0.00225  1.0000
  H   H899      1.0  0.10744  0.55847  0.99607  1.0000
  S   S211      1.0  0.19965  0.58812  0.09964  1.0000
  H   H900      1.0  0.16836  0.60805  0.05428  1.0000
  S   S212      1.0  0.31066  0.60224  0.18007  1.0000
  N   N52       1.0  0.42482  0.39156  0.14328  1.0000
  H   H901      1.0  0.10277  0.45768  0.01500  1.0000
  C   C779      1.0  0.44149  0.39725  0.14245  1.0000
  C   C780      1.0  0.42335  0.37628  0.15415  1.0000
  C   C781      1.0  0.40835  0.40558  0.14495  1.0000
  C   C782      1.0  0.39145  0.40210  0.14571  1.0000
  C   C783      1.0  0.40843  0.42281  0.14598  1.0000
  C   C784      1.0  0.37565  0.41497  0.14744  1.0000
  C   C785      1.0  0.39251  0.43563  0.14767  1.0000
  C   C786      1.0  0.37618  0.43169  0.14841  1.0000
  C   C787      1.0  0.46120  0.61447  0.16334  1.0000
  H   H902      1.0  0.28003  0.58210  0.11051  1.0000
  S   S213      1.0  0.07626  0.62465  0.03881  1.0000
  H   H903      1.0  0.44380  0.40837  0.13421  1.0000
  H   H904      1.0  0.06490  0.60788  0.01107  1.0000
  H   H905      1.0  0.44123  0.40116  0.15126  1.0000
  H   H906      1.0  0.41196  0.37027  0.15491  1.0000
  H   H907      1.0  0.43563  0.36549  0.15336  1.0000
  H   H908      1.0  0.42137  0.38028  0.16324  1.0000
  H   H909      1.0  0.39029  0.38937  0.14489  1.0000
  H   H910      1.0  0.42059  0.42670  0.14555  1.0000
  H   H911      1.0  0.36292  0.41200  0.14792  1.0000
  H   H912      1.0  0.39277  0.44868  0.14850  1.0000
  H   H913      1.0  0.36386  0.44157  0.14975  1.0000
  H   H914      1.0  0.38607  0.46599  0.11901  1.0000
  H   H915      1.0  0.41256  0.61685  0.14126  1.0000
  H   H916      1.0  0.39939  0.47708  0.10542  1.0000
  H   H917      1.0  0.11567  0.43111  0.03008  1.0000
  H   H918      1.0  0.35818  0.48560  0.11303  1.0000
  Fe  Fe108     1.0  0.45062  0.34011  0.13054  1.0000
  H   H919      1.0  0.35554  0.50907  0.10974  1.0000
  H   H920      1.0  0.36360  0.51775  0.15304  1.0000
  C   C788      1.0  0.25467  0.60086  0.11164  1.0000
  C   C789      1.0  0.27222  0.59411  0.11353  1.0000
  S   S214      1.0  0.10222  0.61992  0.06565  1.0000
  H   H921      1.0  0.41598  0.37932  0.13180  1.0000
  C   C790      1.0  0.02079  0.60541  0.04238  1.0000
  H   H922      1.0  0.37992  0.52233  0.11013  1.0000
  C   C791      1.0  0.35165  0.61759  0.18070  1.0000
  H   H923      1.0  0.35962  0.47147  0.13312  1.0000
  H   H924      1.0  0.39534  0.50873  0.09996  1.0000
  N   N53       1.0  0.14380  0.40317  0.13808  1.0000
  C   C792      1.0  0.13235  0.38995  0.14387  1.0000
  C   C793      1.0  0.13637  0.41842  0.14433  1.0000
  C   C794      1.0  0.14252  0.40954  0.12458  1.0000
  C   C795      1.0  0.16239  0.39530  0.13984  1.0000
  C   C796      1.0  0.16564  0.38611  0.15197  1.0000
  C   C797      1.0  0.17770  0.39706  0.12984  1.0000
  C   C798      1.0  0.18303  0.37862  0.15390  1.0000
  C   C799      1.0  0.19507  0.38966  0.13191  1.0000
  C   C800      1.0  0.19772  0.38037  0.14390  1.0000
  H   H925      1.0  0.11872  0.39503  0.14176  1.0000
  H   H926      1.0  0.13844  0.37754  0.14031  1.0000
  H   H927      1.0  0.13013  0.38644  0.15436  1.0000
  H   H928      1.0  0.13614  0.41446  0.15464  1.0000
  H   H929      1.0  0.12242  0.42490  0.14324  1.0000
  H   H930      1.0  0.14455  0.42869  0.14025  1.0000
  H   H931      1.0  0.14920  0.42081  0.11981  1.0000
  H   H932      1.0  0.14847  0.39880  0.11923  1.0000
  H   H933      1.0  0.12839  0.41475  0.12348  1.0000
  H   H934      1.0  0.15482  0.38504  0.16021  1.0000
  H   H935      1.0  0.17666  0.40419  0.12035  1.0000
  H   H936      1.0  0.18507  0.37182  0.16331  1.0000
  H   H937      1.0  0.20655  0.39120  0.12416  1.0000
  H   H938      1.0  0.21118  0.37465  0.14551  1.0000
  H   H939      1.0  0.13847  0.60806  0.05126  1.0000
  C   C801      1.0  0.48915  0.35426  0.12917  1.0000
  H   H940      1.0  0.32724  0.33481  0.14527  1.0000
  H   H941      1.0  0.34477  0.60748  0.18099  1.0000
  H   H942      1.0  0.14934  0.42144  0.00079  1.0000
  H   H943      1.0  0.05809  0.56757  0.00724  1.0000
  H   H944      1.0  0.11344  0.63061  0.08392  1.0000
  S   S215      1.0  0.07269  0.47340  0.00113  1.0000
  C   C802      1.0  0.12389  0.61916  0.06746  1.0000
  H   H945      1.0  0.04655  0.60075  0.99955  1.0000
  H   H946      1.0  0.45357  0.38630  0.14115  1.0000
  C   C803      1.0  0.31684  0.65221  0.17168  1.0000
  C   C804      1.0  0.21388  0.63027  0.15204  1.0000
  C   C805      1.0  0.28230  0.61682  0.19690  1.0000
  H   H947      1.0  0.16490  0.46326  0.18146  1.0000
  C   C806      1.0  0.08926  0.51158  0.99212  1.0000
  C   C807      1.0  0.04955  0.43670  0.99750  1.0000
  C   C808      1.0  0.37200  0.50745  0.13606  1.0000
  H   H948      1.0  0.27045  0.58725  0.15237  1.0000
  H   H949      1.0  0.21198  0.61716  0.15179  1.0000
  C   C809      1.0  0.35366  0.49445  0.15555  1.0000
  C   C810      1.0  0.11648  0.45607  0.00896  1.0000
  H   H950      1.0  0.20043  0.61383  0.17622  1.0000
  C   C811      1.0  0.07404  0.54769  0.98907  1.0000
  N   N54       1.0  0.10852  0.57867  0.10128  1.0000
  C   C812      1.0  0.11819  0.57063  0.11177  1.0000
  C   C813      1.0  0.12169  0.57732  0.08920  1.0000
  C   C814      1.0  0.10132  0.59767  0.10166  1.0000
  C   C815      1.0  0.09381  0.57011  0.10211  1.0000
  C   C816      1.0  0.08185  0.57762  0.09376  1.0000
  C   C817      1.0  0.09100  0.55416  0.11097  1.0000
  C   C818      1.0  0.06743  0.57020  0.09466  1.0000
  C   C819      1.0  0.07660  0.54677  0.11173  1.0000
  C   C820      1.0  0.06473  0.55489  0.10370  1.0000
  H   H951      1.0  0.12535  0.55673  0.11150  1.0000
  H   H952      1.0  0.12861  0.57784  0.11122  1.0000
  H   H953      1.0  0.10892  0.57093  0.12116  1.0000
  H   H954      1.0  0.12763  0.56324  0.08858  1.0000
  H   H955      1.0  0.13290  0.58386  0.08809  1.0000
  H   H956      1.0  0.11554  0.58382  0.08084  1.0000
  H   H957      1.0  0.09021  0.59932  0.11006  1.0000
  H   H958      1.0  0.11183  0.60414  0.10206  1.0000
  H   H959      1.0  0.09615  0.60547  0.09310  1.0000
  H   H960      1.0  0.08355  0.58937  0.08645  1.0000
  H   H961      1.0  0.09967  0.54717  0.11748  1.0000
  H   H962      1.0  0.05833  0.57639  0.08827  1.0000
  H   H963      1.0  0.07457  0.53473  0.11866  1.0000
  H   H964      1.0  0.05349  0.54921  0.10440  1.0000
  N   N55       1.0  0.10664  0.50631  0.08264  1.0000
  C   C821      1.0  0.11749  0.49936  0.07134  1.0000
  C   C822      1.0  0.11466  0.52048  0.08356  1.0000
  C   C823      1.0  0.10841  0.49196  0.09401  1.0000
  C   C824      1.0  0.08756  0.51229  0.08177  1.0000
  C   C825      1.0  0.07814  0.53020  0.08111  1.0000
  C   C826      1.0  0.07780  0.50000  0.08154  1.0000
  C   C827      1.0  0.06001  0.53528  0.08054  1.0000
  C   C828      1.0  0.05971  0.50523  0.08096  1.0000
  C   C829      1.0  0.05082  0.52283  0.08050  1.0000
  H   H965      1.0  0.11230  0.48883  0.06974  1.0000
  H   H966      1.0  0.11779  0.51007  0.06269  1.0000
  H   H967      1.0  0.13168  0.49359  0.07212  1.0000
  H   H968      1.0  0.11486  0.53128  0.07489  1.0000
  H   H969      1.0  0.12889  0.51538  0.08450  1.0000
  H   H970      1.0  0.10732  0.52628  0.09193  1.0000
  H   H971      1.0  0.12268  0.48657  0.09453  1.0000
  H   H972      1.0  0.10109  0.49666  0.10283  1.0000
  H   H973      1.0  0.10335  0.48041  0.09400  1.0000
  H   H974      1.0  0.08465  0.54065  0.08047  1.0000
  H   H975      1.0  0.08420  0.48629  0.08147  1.0000
  H   H976      1.0  0.05326  0.54911  0.07948  1.0000
  H   H977      1.0  0.05270  0.49573  0.08037  1.0000
  H   H978      1.0  0.03699  0.52695  0.07952  1.0000
  N   N56       1.0  0.31185  0.36154  0.14507  1.0000
  C   C830      1.0  0.32888  0.36774  0.14173  1.0000
  C   C831      1.0  0.30562  0.35873  0.15901  1.0000
  C   C832      1.0  0.31594  0.34428  0.14134  1.0000
  C   C833      1.0  0.29767  0.37410  0.13887  1.0000
  C   C834      1.0  0.30005  0.39067  0.13076  1.0000
  S   S216      1.0  0.20656  0.33729  0.22497  1.0000
  H   H979      1.0  0.14190  0.44255  0.99107  1.0000
  H   H980      1.0  0.08854  0.39618  0.01813  1.0000
  C   C835      1.0  0.35979  0.63560  0.19143  1.0000
  H   H981      1.0  0.33931  0.35804  0.14648  1.0000
  H   H982      1.0  0.19051  0.63704  0.17211  1.0000
  H   H983      1.0  0.32686  0.38039  0.14474  1.0000
  H   H984      1.0  0.30287  0.37135  0.16221  1.0000
  H   H985      1.0  0.13506  0.41532  0.02407  1.0000
  H   H986      1.0  0.27748  0.57972  0.17359  1.0000
  H   H987      1.0  0.28826  0.41498  0.11932  1.0000
  H   H988      1.0  0.11503  0.46315  0.99920  1.0000
  H   H989      1.0  0.13344  0.37452  0.21516  1.0000
  H   H990      1.0  0.31231  0.39526  0.12877  1.0000
  C   C836      1.0  0.37030  0.63849  0.16880  1.0000
  H   H991      1.0  0.05970  0.65104  0.98801  1.0000
  C   C837      1.0  0.46312  0.62264  0.18205  1.0000
  C   C838      1.0  0.02575  0.54765  0.99698  1.0000
  C   C839      1.0  0.26979  0.61874  0.12290  1.0000
  H   H992      1.0  0.22412  0.63455  0.14359  1.0000
  C   C840      1.0  0.35260  0.48155  0.14984  1.0000
  C   C841      1.0  0.17807  0.46888  0.16185  1.0000
  S   S217      1.0  0.19716  0.60195  0.12508  1.0000
  C   C842      1.0  0.36339  0.50731  0.14870  1.0000
  C   C843      1.0  0.01654  0.54747  0.01938  1.0000
  H   H993      1.0  0.28480  0.62474  0.16535  1.0000
  C   C844      1.0  0.06989  0.60767  0.00122  1.0000
  H   H994      1.0  0.04132  0.61475  0.02721  1.0000
  C   C845      1.0  0.37101  0.49458  0.12988  1.0000
  H   H995      1.0  0.34440  0.47203  0.15509  1.0000
  H   H996      1.0  0.40298  0.47539  0.12089  1.0000
  N   N57       1.0  0.08385  0.54974  0.00796  1.0000
  H   H997      1.0  0.04123  0.51230  0.99792  1.0000
  H   H998      1.0  0.09706  0.51331  0.00815  1.0000
  H   H999      1.0  0.45765  0.62381  0.19179  1.0000
  H   H1000     1.0  0.30445  0.33758  0.14490  1.0000
  C   C846      1.0  0.37540  0.64641  0.13335  1.0000
  H   H1001     1.0  0.37869  0.51824  0.13127  1.0000
  C   C847      1.0  0.05935  0.60383  0.99461  1.0000
  S   S218      1.0  0.09948  0.61708  0.00343  1.0000
  H   H1002     1.0  0.25840  0.33229  0.20417  1.0000
  H   H1003     1.0  0.10736  0.40973  0.02458  1.0000
  C   C848      1.0  0.49059  0.36226  0.11634  1.0000
  C   C849      1.0  0.09337  0.53912  0.01814  1.0000
  S   S219      1.0  0.43029  0.64393  0.14057  1.0000
  N   N58       1.0  0.26540  0.53493  0.12604  1.0000
  C   C850      1.0  0.27203  0.54100  0.11230  1.0000
  C   C851      1.0  0.26703  0.54780  0.13277  1.0000
  C   C852      1.0  0.27741  0.51785  0.13033  1.0000
  C   C853      1.0  0.24649  0.53356  0.12833  1.0000
  C   C854      1.0  0.24134  0.51708  0.13091  1.0000
  C   C855      1.0  0.23263  0.54904  0.12736  1.0000
  C   C856      1.0  0.22333  0.51628  0.13303  1.0000
  C   C857      1.0  0.21472  0.54807  0.12952  1.0000
  C   C858      1.0  0.21003  0.53174  0.13247  1.0000
  H   H1004     1.0  0.28615  0.54251  0.11011  1.0000
  H   H1005     1.0  0.27152  0.53140  0.10696  1.0000
  H   H1006     1.0  0.26390  0.55405  0.10852  1.0000
  H   H1007     1.0  0.26100  0.56169  0.12872  1.0000
  H   H1008     1.0  0.28129  0.54774  0.13217  1.0000
  H   H1009     1.0  0.26055  0.54463  0.14298  1.0000
  H   H1010     1.0  0.27262  0.51211  0.14052  1.0000
  H   H1011     1.0  0.27880  0.50802  0.12467  1.0000
  H   H1012     1.0  0.29129  0.51940  0.12920  1.0000
  H   H1013     1.0  0.25097  0.50462  0.13134  1.0000
  H   H1014     1.0  0.23546  0.56208  0.12492  1.0000
  H   H1015     1.0  0.21967  0.50359  0.13517  1.0000
  H   H1016     1.0  0.20438  0.56010  0.12898  1.0000
  H   H1017     1.0  0.19604  0.53116  0.13422  1.0000
  S   S220      1.0  0.17923  0.61942  0.07267  1.0000
  C   C859      1.0  0.24471  0.61646  0.11545  1.0000
  C   C860      1.0  0.13946  0.61268  0.05917  1.0000
  C   C861      1.0  0.15639  0.61261  0.06093  1.0000
  C   C862      1.0  0.15789  0.61848  0.07120  1.0000
  H   H1018     1.0  0.05749  0.54736  0.01902  1.0000
  H   H1019     1.0  0.20417  0.62967  0.18335  1.0000
  H   H1020     1.0  0.25410  0.37803  0.13737  1.0000
  H   H1021     1.0  0.36178  0.62165  0.16063  1.0000
  C   C863      1.0  0.00826  0.40286  0.00426  1.0000
  C   C864      1.0  0.37000  0.64378  0.17994  1.0000
  H   H1022     1.0  0.47683  0.59523  0.14400  1.0000
  H   H1023     1.0  0.24476  0.63764  0.12367  1.0000
  H   H1024     1.0  0.01524  0.40355  0.02133  1.0000
  C   C865      1.0  0.04627  0.65202  0.99454  1.0000
  C   C866      1.0  0.45438  0.61563  0.17601  1.0000
  H   H1025     1.0  0.22537  0.64806  0.17202  1.0000
  H   H1026     1.0  0.09442  0.57229  0.00698  1.0000
  H   H1027     1.0  0.49743  0.63274  0.15803  1.0000
  C   C867      1.0  0.20286  0.62739  0.17437  1.0000
  C   C868      1.0  0.15773  0.32729  0.22948  1.0000
  N   N59       1.0  0.48485  0.61925  0.14293  1.0000
  H   H1028     1.0  0.35881  0.63904  0.20027  1.0000
  H   H1029     1.0  0.40243  0.63721  0.18511  1.0000
  H   H1030     1.0  0.48517  0.63464  0.17997  1.0000
  H   H1031     1.0  0.01398  0.64595  0.04751  1.0000
  H   H1032     1.0  0.30150  0.65620  0.11780  1.0000
  H   H1033     1.0  0.18033  0.65199  0.07838  1.0000
  H   H1034     1.0  0.16535  0.65349  0.10126  1.0000
  H   H1035     1.0  0.38627  0.64481  0.19825  1.0000
  C   C869      1.0  0.39285  0.64900  0.18820  1.0000
  C   C870      1.0  0.00576  0.40045  0.01735  1.0000
  H   H1036     1.0  0.04378  0.63839  0.99795  1.0000
  H   H1037     1.0  0.37755  0.64400  0.15961  1.0000
  H   H1038     1.0  0.48926  0.64590  0.13779  1.0000
  H   H1039     1.0  0.21050  0.65211  0.11448  1.0000
  H   H1040     1.0  0.02980  0.47687  0.98960  1.0000
  S   S221      1.0  0.35407  0.64789  0.13071  1.0000
  H   H1041     1.0  0.11497  0.44408  0.98710  1.0000
  C   C871      1.0  0.06194  0.65173  0.01004  1.0000
  H   H1042     1.0  0.08299  0.40566  0.99644  1.0000
  H   H1043     1.0  0.32329  0.65052  0.17966  1.0000
  C   C872      1.0  0.01340  0.65015  0.03758  1.0000
  C   C873      1.0  0.09930  0.42503  0.99050  1.0000
  H   H1044     1.0  0.02920  0.54139  0.98902  1.0000
  H   H1045     1.0  0.40046  0.65348  0.16315  1.0000
  H   H1046     1.0  0.00318  0.56139  0.43657  1.0000
  H   H1047     1.0  0.07569  0.34479  0.33937  1.0000
  Fe  Fe109     1.0  0.05062  0.45357  0.44872  1.0000
  S   S222      1.0  0.02954  0.47862  0.44897  1.0000
  S   S223      1.0  0.06112  0.44035  0.46640  1.0000
  Fe  Fe110     1.0  0.04853  0.45074  0.42273  1.0000
  H   H1048     1.0  0.15479  0.34968  0.27028  1.0000
  S   S224      1.0  0.05642  0.43846  0.40552  1.0000
  Fe  Fe111     1.0  0.04373  0.48681  0.42891  1.0000
  S   S225      1.0  0.04424  0.51534  0.42016  1.0000
  H   H1049     1.0  0.02859  0.41263  0.48358  1.0000
  H   H1050     1.0  0.00513  0.34941  0.41092  1.0000
  S   S226      1.0  0.06628  0.46278  0.42909  1.0000
  S   S227      1.0  0.03494  0.43944  0.44239  1.0000
  Fe  Fe112     1.0  0.05284  0.61435  0.46044  1.0000
  S   S228      1.0  0.07812  0.60353  0.44755  1.0000
  C   C874      1.0  0.08223  0.35267  0.33085  1.0000
  Fe  Fe113     1.0  0.02905  0.61248  0.44385  1.0000
  S   S229      1.0  0.05216  0.60168  0.42950  1.0000
  H   H1051     1.0  0.06961  0.38515  0.36823  1.0000
  Fe  Fe114     1.0  0.06292  0.58435  0.44629  1.0000
  S   S230      1.0  0.07287  0.55463  0.44971  1.0000
  Fe  Fe115     1.0  0.06501  0.62186  0.43185  1.0000
  C   C875      1.0  0.10153  0.35492  0.30980  1.0000
  S   S231      1.0  0.03878  0.59372  0.46043  1.0000
  S   S232      1.0  0.04090  0.63409  0.44498  1.0000
  H   H1052     1.0  0.10332  0.40680  0.37202  1.0000
  H   H1053     1.0  0.10058  0.47745  0.43339  1.0000
  C   C876      1.0  0.00818  0.54318  0.47975  1.0000
  S   S233      1.0  0.04077  0.36491  0.40604  1.0000
  Fe  Fe116     1.0  0.01520  0.46537  0.44102  1.0000
  H   H1054     1.0  0.08777  0.65539  0.34924  1.0000
  H   H1055     1.0  0.02152  0.32651  0.31466  1.0000
  H   H1056     1.0  0.08397  0.39105  0.38924  1.0000
  C   C877      1.0  0.10018  0.37283  0.30920  1.0000
  Fe  Fe117     1.0  0.05302  0.36489  0.35922  1.0000
  Fe  Fe118     1.0  0.04149  0.35782  0.38773  1.0000
  S   S234      1.0  0.06805  0.38138  0.34245  1.0000
  H   H1057     1.0  0.11377  0.63575  0.37361  1.0000
  C   C878      1.0  0.01867  0.42514  0.48127  1.0000
  H   H1058     1.0  0.03212  0.32498  0.33924  1.0000
  C   C879      1.0  0.10423  0.47751  0.44199  1.0000
  H   H1059     1.0  0.11239  0.39990  0.35730  1.0000
  H   H1060     1.0  0.01275  0.59084  0.40727  1.0000
  H   H1061     1.0  0.09415  0.33078  0.32130  1.0000
  H   H1062     1.0  0.10507  0.34733  0.38308  1.0000
  C   C880      1.0  0.08069  0.37074  0.33006  1.0000
  C   C881      1.0  0.01964  0.39777  0.45352  1.0000
  H   H1063     1.0  0.13448  0.34130  0.25559  1.0000
  H   H1064     1.0  0.08229  0.39919  0.35608  1.0000
  H   H1065     1.0  0.10340  0.63547  0.47966  1.0000
  H   H1066     1.0  0.00627  0.44751  0.42841  1.0000
  H   H1067     1.0  0.10427  0.52862  0.44263  1.0000
  H   H1068     1.0  0.10203  0.37227  0.38969  1.0000
  H   H1069     1.0  0.12151  0.64221  0.34569  1.0000
  H   H1070     1.0  0.10534  0.50599  0.47629  1.0000
  C   C882      1.0  0.14920  0.38980  0.23936  1.0000
  H   H1071     1.0  0.10030  0.63239  0.36445  1.0000
  N   N60       1.0  0.11761  0.50885  0.45632  1.0000
  C   C883      1.0  0.10786  0.35018  0.37289  1.0000
  H   H1072     1.0  0.12104  0.53537  0.44668  1.0000
  C   C884      1.0  0.10249  0.64239  0.36872  1.0000
  H   H1073     1.0  0.10564  0.38238  0.34593  1.0000
  H   H1074     1.0  0.13649  0.49385  0.46811  1.0000
  H   H1075     1.0  0.02026  0.60580  0.42112  1.0000
  H   H1076     1.0  0.04772  0.33898  0.33061  1.0000
  C   C885      1.0  0.00312  0.59382  0.41570  1.0000
  H   H1077     1.0  0.02724  0.34267  0.32610  1.0000
  S   S235      1.0  0.06642  0.34688  0.37458  1.0000
  C   C886      1.0  0.10411  0.46264  0.45186  1.0000
  H   H1078     1.0  0.09006  0.64562  0.37596  1.0000
  H   H1079     1.0  0.03234  0.39338  0.44740  1.0000
  C   C887      1.0  0.05651  0.64009  0.40024  1.0000
  H   H1080     1.0  0.13672  0.38875  0.26475  1.0000
  H   H1081     1.0  0.11569  0.38629  0.26306  1.0000
  C   C888      1.0  0.06700  0.48480  0.47365  1.0000
  C   C889      1.0  0.10826  0.46279  0.46307  1.0000
  H   H1082     1.0  0.05526  0.62713  0.40593  1.0000
  S   S236      1.0  0.04749  0.61967  0.47993  1.0000
  C   C890      1.0  0.00745  0.60215  0.42361  1.0000
  C   C891      1.0  0.12881  0.37895  0.26547  1.0000
  C   C892      1.0  0.05128  0.52606  0.42898  1.0000
  C   C893      1.0  0.06182  0.51640  0.43772  1.0000
  C   C894      1.0  0.06822  0.52530  0.44412  1.0000
  C   C895      1.0  0.06388  0.54382  0.44200  1.0000
  C   C896      1.0  0.05265  0.55337  0.43368  1.0000
  C   C897      1.0  0.04655  0.54454  0.42705  1.0000
  H   H1083     1.0  0.06550  0.50212  0.43924  1.0000
  H   H1084     1.0  0.07673  0.51780  0.45057  1.0000
  H   H1085     1.0  0.04889  0.56757  0.43211  1.0000
  H   H1086     1.0  0.03827  0.55207  0.42036  1.0000
  C   C898      1.0  0.04989  0.41886  0.40613  1.0000
  C   C899      1.0  0.04900  0.41518  0.39484  1.0000
  C   C900      1.0  0.04543  0.39898  0.39481  1.0000
  C   C901      1.0  0.04316  0.38616  0.40601  1.0000
  C   C902      1.0  0.04352  0.39005  0.41736  1.0000
  C   C903      1.0  0.04675  0.40640  0.41744  1.0000
  H   H1087     1.0  0.05120  0.42486  0.38609  1.0000
  H   H1088     1.0  0.04474  0.39627  0.38609  1.0000
  H   H1089     1.0  0.16434  0.36706  0.25910  1.0000
  H   H1090     1.0  0.04746  0.40912  0.42616  1.0000
  C   C904      1.0  0.10878  0.39494  0.36771  1.0000
  H   H1091     1.0  0.03229  0.50307  0.38748  1.0000
  H   H1092     1.0  0.01561  0.64018  0.47212  1.0000
  H   H1093     1.0  0.01798  0.63742  0.37436  1.0000
  H   H1094     1.0  0.04063  0.47248  0.38539  1.0000
  H   H1095     1.0  0.13465  0.64819  0.35401  1.0000
  H   H1096     1.0  0.10020  0.45116  0.45099  1.0000
  H   H1097     1.0  0.08398  0.62603  0.46977  1.0000
  C   C905      1.0  0.12269  0.65299  0.34967  1.0000
  H   H1098     1.0  0.08873  0.39461  0.31860  1.0000
  H   H1099     1.0  0.02561  0.52419  0.39946  1.0000
  C   C906      1.0  0.06370  0.45553  0.47409  1.0000
  C   C907      1.0  0.06354  0.47313  0.46781  1.0000
  Fe  Fe119     1.0  0.05132  0.32766  0.37352  1.0000
  C   C908      1.0  0.10383  0.36766  0.36553  1.0000
  H   H1100     1.0  0.06163  0.47751  0.45821  1.0000
  N   N61       1.0  0.13823  0.36605  0.25728  1.0000
  C   C909      1.0  0.00477  0.50222  0.39824  1.0000
  C   C910      1.0  0.12760  0.35222  0.26062  1.0000
  H   H1101     1.0  0.04850  0.34028  0.30447  1.0000
  H   H1102     1.0  0.12607  0.37227  0.27566  1.0000
  C   C911      1.0  0.07852  0.63031  0.47863  1.0000
  C   C912      1.0  0.02210  0.49537  0.39142  1.0000
  H   H1103     1.0  0.06766  0.49811  0.46853  1.0000
  H   H1104     1.0  0.00550  0.51198  0.41905  1.0000
  H   H1105     1.0  0.12901  0.35853  0.23702  1.0000
  C   C913      1.0  0.05702  0.32845  0.30941  1.0000
  Fe  Fe120     1.0  0.01705  0.35543  0.37196  1.0000
  H   H1106     1.0  0.10824  0.50364  0.43526  1.0000
  C   C914      1.0  0.01909  0.40592  0.46318  1.0000
  H   H1107     1.0  0.10749  0.45141  0.47089  1.0000
  C   C915      1.0  0.11528  0.35488  0.34660  1.0000
  H   H1108     1.0  0.10715  0.38072  0.30088  1.0000
  C   C916      1.0  0.11768  0.52371  0.44505  1.0000
  C   C917      1.0  0.15603  0.35738  0.26032  1.0000
  C   C918      1.0  0.02620  0.52347  0.46600  1.0000
  H   H1109     1.0  0.10693  0.52809  0.46819  1.0000
  H   H1110     1.0  0.03756  0.51197  0.46460  1.0000
  C   C919      1.0  0.10864  0.49256  0.44324  1.0000
  H   H1111     1.0  0.12568  0.34588  0.27085  1.0000
  C   C920      1.0  0.03806  0.33194  0.32967  1.0000
  S   S237      1.0  0.07834  0.64056  0.41537  1.0000
  C   C921      1.0  0.11246  0.47783  0.46449  1.0000
  C   C922      1.0  0.00844  0.55988  0.47128  1.0000
  H   H1112     1.0  0.01925  0.45280  0.39460  1.0000
  H   H1113     1.0  0.11403  0.35774  0.25850  1.0000
  H   H1114     1.0  0.07256  0.40511  0.37092  1.0000
  H   H1115     1.0  0.05211  0.52234  0.47801  1.0000
  H   H1116     1.0  0.16370  0.34804  0.25404  1.0000
  H   H1117     1.0  0.08030  0.37043  0.38853  1.0000
  C   C923      1.0  0.06664  0.64969  0.40304  1.0000
  C   C924      1.0  0.07941  0.39362  0.36642  1.0000
  S   S238      1.0  0.02740  0.47568  0.42103  1.0000
  H   H1118     1.0  0.00432  0.38982  0.44376  1.0000
  H   H1119     1.0  0.02911  0.53450  0.45782  1.0000
  H   H1120     1.0  0.00175  0.62726  0.39619  1.0000
  C   C925      1.0  0.14063  0.37522  0.24380  1.0000
  C   C926      1.0  0.08976  0.38071  0.31924  1.0000
  S   S239      1.0  0.02912  0.37735  0.37244  1.0000
  S   S240      1.0  0.03975  0.34506  0.35713  1.0000
  H   H1121     1.0  0.12765  0.51979  0.43665  1.0000
  C   C927      1.0  0.01505  0.46659  0.39526  1.0000
  C   C928      1.0  0.13580  0.50376  0.45907  1.0000
  H   H1122     1.0  0.03179  0.40727  0.46413  1.0000
  H   H1123     1.0  0.09061  0.51836  0.46594  1.0000
  H   H1124     1.0  0.04167  0.38024  0.42608  1.0000
  S   S241      1.0  0.02773  0.33655  0.38824  1.0000
  N   N62       1.0  0.09572  0.38340  0.37123  1.0000
  H   H1125     1.0  0.00908  0.54421  0.39743  1.0000
  H   H1126     1.0  0.14586  0.49789  0.45143  1.0000
  C   C929      1.0  0.11288  0.49318  0.45460  1.0000
  C   C930      1.0  0.10463  0.51557  0.46713  1.0000
  C   C931      1.0  0.09034  0.37899  0.38526  1.0000
  C   C932      1.0  0.09263  0.34475  0.32067  1.0000
  H   H1127     1.0  0.11493  0.47748  0.47355  1.0000
  H   H1128     1.0  0.00517  0.63404  0.46227  1.0000
  H   H1129     1.0  0.00117  0.37294  0.40649  1.0000
  H   H1130     1.0  0.06791  0.33288  0.31137  1.0000
  H   H1131     1.0  0.01399  0.51991  0.46531  1.0000
  H   H1132     1.0  0.01977  0.56190  0.46352  1.0000
  H   H1133     1.0  0.14011  0.51535  0.45997  1.0000
  H   H1134     1.0  0.15444  0.39418  0.24560  1.0000
  S   S242      1.0  0.11510  0.34599  0.29683  1.0000
  N   N63       1.0  0.02379  0.52821  0.47829  1.0000
  C   C933      1.0  0.11497  0.33559  0.36718  1.0000
  C   C934      1.0  0.02709  0.47777  0.39005  1.0000
  H   H1135     1.0  0.01770  0.53255  0.38484  1.0000
  C   C935      1.0  0.11852  0.33792  0.35408  1.0000
  H   H1136     1.0  0.12363  0.32656  0.34971  1.0000
  C   C936      1.0  0.10819  0.36956  0.35219  1.0000
  H   H1137     1.0  0.11783  0.35666  0.33640  1.0000
  H   H1138     1.0  0.12139  0.38766  0.37092  1.0000
  H   H1139     1.0  0.02458  0.43310  0.47206  1.0000
  H   H1140     1.0  0.04105  0.63924  0.38747  1.0000
  C   C937      1.0  0.00253  0.41252  0.47097  1.0000
  H   H1141     1.0  0.04384  0.54425  0.47037  1.0000
  C   C938      1.0  0.04854  0.64694  0.38971  1.0000
  C   C939      1.0  0.04020  0.53347  0.47852  1.0000
  H   H1142     1.0  0.01332  0.65359  0.40838  1.0000
  H   H1143     1.0  0.00811  0.34270  0.35272  1.0000
  H   H1144     1.0  0.01069  0.53159  0.43216  1.0000
  C   C940      1.0  0.08949  0.63569  0.48421  1.0000
  N   N64       1.0  0.00128  0.42182  0.48097  1.0000
  C   C941      1.0  0.00390  0.39562  0.45151  1.0000
  H   H1145     1.0  0.00493  0.63941  0.35625  1.0000
  C   C942      1.0  0.00247  0.64132  0.46993  1.0000
  C   C943      1.0  0.01360  0.53072  0.39530  1.0000
  C   C944      1.0  0.00502  0.63418  0.37600  1.0000
  C   C945      1.0  0.13508  0.36984  0.23468  1.0000
  Fe  Fe121     1.0  0.08803  0.47046  0.53722  1.0000
  S   S243      1.0  0.06193  0.47754  0.55076  1.0000
  S   S244      1.0  0.11308  0.45402  0.54355  1.0000
  Fe  Fe122     1.0  0.07217  0.48646  0.51394  1.0000
  S   S245      1.0  0.04495  0.49494  0.52550  1.0000
  H   H1146     1.0  0.06330  0.65618  0.59626  1.0000
  Fe  Fe123     1.0  0.05886  0.50354  0.53684  1.0000
  S   S246      1.0  0.04477  0.52970  0.54207  1.0000
  Fe  Fe124     1.0  0.05056  0.46828  0.53822  1.0000
  S   S247      1.0  0.02967  0.45190  0.54522  1.0000
  S   S248      1.0  0.08593  0.49740  0.52416  1.0000
  S   S249      1.0  0.07682  0.45896  0.52580  1.0000
  Fe  Fe125     1.0  0.08209  0.60255  0.54662  1.0000
  S   S250      1.0  0.10055  0.62141  0.54004  1.0000
  S   S251      1.0  0.09334  0.57326  0.55148  1.0000
  Fe  Fe126     1.0  0.04947  0.63195  0.54332  1.0000
  H   H1147     1.0  0.14263  0.34957  0.62749  1.0000
  H   H1148     1.0  0.00577  0.40852  0.53636  1.0000
  Fe  Fe127     1.0  0.07949  0.63812  0.55242  1.0000
  H   H1149     1.0  0.03417  0.50123  0.48721  1.0000
  S   S252      1.0  0.06821  0.61462  0.53054  1.0000
  S   S253      1.0  0.06198  0.61814  0.56008  1.0000
  Fe  Fe128     1.0  0.07404  0.38459  0.59751  1.0000
  S   S254      1.0  0.05369  0.40929  0.60085  1.0000
  S   S255      1.0  0.09703  0.38268  0.58069  1.0000
  Fe  Fe129     1.0  0.05743  0.36243  0.62245  1.0000
  S   S256      1.0  0.03577  0.38539  0.62759  1.0000
  Fe  Fe130     1.0  0.03398  0.39162  0.60724  1.0000
  Fe  Fe131     1.0  0.05787  0.40021  0.62076  1.0000
  S   S257      1.0  0.06258  0.41777  0.63142  1.0000
  S   S258      1.0  0.05410  0.36743  0.60252  1.0000
  S   S259      1.0  0.07974  0.37683  0.61688  1.0000
  C   C946      1.0  0.12644  0.38188  0.60417  1.0000
  C   C947      1.0  0.13469  0.37730  0.62756  1.0000
  H   H1150     1.0  0.03742  0.40216  0.57910  1.0000
  H   H1151     1.0  0.10627  0.42855  0.61739  1.0000
  Fe  Fe132     1.0  0.08464  0.63510  0.52514  1.0000
  S   S260      1.0  0.18327  0.37323  0.72717  1.0000
  C   C948      1.0  0.02064  0.38613  0.56806  1.0000
  C   C949      1.0  0.06658  0.63343  0.61926  1.0000
  H   H1152     1.0  0.04045  0.42055  0.66032  1.0000
  H   H1153     1.0  0.02961  0.35632  0.68871  1.0000
  C   C950      1.0  0.05388  0.63515  0.49639  1.0000
  H   H1154     1.0  0.11057  0.44274  0.60222  1.0000
  H   H1155     1.0  0.12740  0.40922  0.58324  1.0000
  S   S261      1.0  0.10559  0.34491  0.69347  1.0000
  H   H1156     1.0  0.12316  0.38291  0.59524  1.0000
  H   H1157     1.0  0.00193  0.42997  0.56475  1.0000
  C   C951      1.0  0.09971  0.55951  0.51718  1.0000
  S   S262      1.0  0.12217  0.37961  0.66338  1.0000
  C   C952      1.0  0.04519  0.40816  0.56987  1.0000
  C   C953      1.0  0.06100  0.40559  0.54880  1.0000
  C   C954      1.0  0.11895  0.57703  0.51904  1.0000
  H   H1158     1.0  0.05470  0.41959  0.54519  1.0000
  C   C955      1.0  0.12374  0.39713  0.60909  1.0000
  H   H1159     1.0  0.20748  0.33703  0.69399  1.0000
  H   H1160     1.0  0.07392  0.40611  0.55068  1.0000
  H   H1161     1.0  0.07990  0.59292  0.48772  1.0000
  C   C956      1.0  0.03230  0.39555  0.55824  1.0000
  C   C957      1.0  0.00446  0.38443  0.56633  1.0000
  H   H1162     1.0  0.12311  0.43190  0.58354  1.0000
  H   H1163     1.0  0.03965  0.33566  0.68367  1.0000
  C   C958      1.0  0.16877  0.36117  0.72533  1.0000
  H   H1164     1.0  0.20063  0.34994  0.70594  1.0000
  H   H1165     1.0  0.01788  0.53324  0.52771  1.0000
  H   H1166     1.0  0.03400  0.41169  0.53891  1.0000
  H   H1167     1.0  0.03152  0.58870  0.56883  1.0000
  H   H1168     1.0  0.10831  0.41590  0.65361  1.0000
  H   H1169     1.0  0.00251  0.33996  0.62667  1.0000
  C   C959      1.0  0.15353  0.35437  0.71158  1.0000
  C   C960      1.0  0.16337  0.36501  0.71379  1.0000
  H   H1170     1.0  0.05918  0.64463  0.51080  1.0000
  C   C961      1.0  0.25297  0.34358  0.70531  1.0000
  H   H1171     1.0  0.06435  0.39818  0.54113  1.0000
  H   H1172     1.0  0.14976  0.35724  0.70258  1.0000
  H   H1173     1.0  0.16718  0.37601  0.70642  1.0000
  H   H1174     1.0  0.09673  0.32368  0.59764  1.0000
  C   C962      1.0  0.07911  0.40677  0.64029  1.0000
  C   C963      1.0  0.08321  0.38827  0.64396  1.0000
  C   C964      1.0  0.09623  0.37969  0.65123  1.0000
  C   C965      1.0  0.10530  0.38967  0.65472  1.0000
  C   C966      1.0  0.10131  0.40815  0.65093  1.0000
  C   C967      1.0  0.08813  0.41668  0.64386  1.0000
  H   H1175     1.0  0.07594  0.38064  0.64151  1.0000
  H   H1176     1.0  0.09932  0.36544  0.65408  1.0000
  H   H1177     1.0  0.08492  0.43097  0.64117  1.0000
  H   H1178     1.0  0.09057  0.63628  0.59715  1.0000
  H   H1179     1.0  0.03390  0.39349  0.65910  1.0000
  H   H1180     1.0  0.06647  0.55171  0.51950  1.0000
  H   H1181     1.0  0.05221  0.34525  0.68971  1.0000
  H   H1182     1.0  0.06015  0.60031  0.50743  1.0000
  C   C968      1.0  0.02326  0.60924  0.53610  1.0000
  H   H1183     1.0  0.00763  0.50417  0.53516  1.0000
  N   N65       1.0  0.07446  0.57387  0.50529  1.0000
  C   C969      1.0  0.05864  0.58638  0.51076  1.0000
  H   H1184     1.0  0.07736  0.39136  0.68408  1.0000
  C   C970      1.0  0.13737  0.36267  0.62239  1.0000
  C   C971      1.0  0.06384  0.37580  0.67850  1.0000
  H   H1185     1.0  0.25542  0.35598  0.70580  1.0000
  H   H1186     1.0  0.07329  0.38020  0.56610  1.0000
  C   C972      1.0  0.09242  0.64209  0.60453  1.0000
  H   H1187     1.0  0.05804  0.55623  0.50559  1.0000
  C   C973      1.0  0.06538  0.34788  0.66477  1.0000
  H   H1188     1.0  0.02022  0.61709  0.57479  1.0000
  C   C974      1.0  0.00541  0.44770  0.53385  1.0000
  C   C975      1.0  0.13321  0.36494  0.61072  1.0000
  C   C976      1.0  0.05819  0.54111  0.54552  1.0000
  C   C977      1.0  0.05123  0.55874  0.54657  1.0000
  C   C978      1.0  0.06197  0.56861  0.54846  1.0000
  C   C979      1.0  0.07962  0.56076  0.54958  1.0000
  C   C980      1.0  0.08644  0.54291  0.54895  1.0000
  C   C981      1.0  0.07581  0.53314  0.54673  1.0000
  H   H1189     1.0  0.03758  0.56484  0.54576  1.0000
  H   H1190     1.0  0.05660  0.58226  0.54917  1.0000
  H   H1191     1.0  0.10005  0.53675  0.54994  1.0000
  H   H1192     1.0  0.08123  0.51948  0.54601  1.0000
  C   C982      1.0  0.07002  0.47919  0.48594  1.0000
  H   H1193     1.0  0.03724  0.42162  0.56662  1.0000
  C   C983      1.0  0.12778  0.41832  0.58899  1.0000
  C   C984      1.0  0.04300  0.39226  0.66502  1.0000
  C   C985      1.0  0.10872  0.43437  0.55409  1.0000
  C   C986      1.0  0.09283  0.43456  0.56331  1.0000
  C   C987      1.0  0.08931  0.41881  0.57164  1.0000
  C   C988      1.0  0.10139  0.40270  0.57058  1.0000
  C   C989      1.0  0.11734  0.40252  0.56139  1.0000
  C   C990      1.0  0.12112  0.41836  0.55328  1.0000
  H   H1194     1.0  0.08340  0.44692  0.56420  1.0000
  H   H1195     1.0  0.07723  0.41928  0.57884  1.0000
  H   H1196     1.0  0.12684  0.39014  0.56055  1.0000
  H   H1197     1.0  0.13346  0.41816  0.54617  1.0000
  H   H1198     1.0  0.04255  0.46404  0.51834  1.0000
  C   C991      1.0  0.05990  0.37947  0.56518  1.0000
  Fe  Fe133     1.0  0.12379  0.35149  0.67451  1.0000
  H   H1199     1.0  0.14202  0.41682  0.58927  1.0000
  H   H1200     1.0  0.03612  0.60500  0.53858  1.0000
  C   C992      1.0  0.06994  0.55614  0.50903  1.0000
  C   C993      1.0  0.02642  0.40368  0.54674  1.0000
  H   H1201     1.0  0.07115  0.36366  0.68341  1.0000
  C   C994      1.0  0.11386  0.56091  0.52176  1.0000
  C   C995      1.0  0.11017  0.59178  0.51150  1.0000
  H   H1202     1.0  0.06201  0.41993  0.67275  1.0000
  C   C996      1.0  0.06471  0.64060  0.50186  1.0000
  N   N66       1.0  0.04932  0.39721  0.56036  1.0000
  H   H1203     1.0  0.07214  0.45717  0.50181  1.0000
  C   C997      1.0  0.06969  0.46172  0.49237  1.0000
  H   H1204     1.0  0.10509  0.34353  0.60731  1.0000
  H   H1205     1.0  0.13523  0.35355  0.60671  1.0000
  C   C998      1.0  0.11567  0.42954  0.60796  1.0000
  C   C999      1.0  0.03486  0.36051  0.66341  1.0000
  H   H1206     1.0  0.06214  0.37039  0.55874  1.0000
  H   H1207     1.0  0.12041  0.54960  0.52793  1.0000
  C   C1000     1.0  0.09608  0.59052  0.50684  1.0000
  C   C1001     1.0  0.01744  0.59825  0.53106  1.0000
  N   N67       1.0  0.11652  0.41493  0.60195  1.0000
  S   S263      1.0  0.05961  0.33763  0.63755  1.0000
  S   S264      1.0  0.01987  0.63970  0.54392  1.0000
  H   H1208     1.0  0.02159  0.36817  0.66748  1.0000
  H   H1209     1.0  0.00166  0.53536  0.55598  1.0000
  H   H1210     1.0  0.01173  0.55287  0.53385  1.0000
  H   H1211     1.0  0.05336  0.37313  0.57477  1.0000
  S   S265      1.0  0.12059  0.32944  0.66737  1.0000
  C   C1002     1.0  0.00465  0.46036  0.51180  1.0000
  H   H1212     1.0  0.03921  0.36705  0.65337  1.0000
  H   H1213     1.0  0.06373  0.33458  0.66476  1.0000
  H   H1214     1.0  0.08928  0.41323  0.61050  1.0000
  H   H1215     1.0  0.12588  0.40491  0.62585  1.0000
  H   H1216     1.0  0.13774  0.37547  0.63674  1.0000
  C   C1003     1.0  0.12790  0.39430  0.62111  1.0000
  H   H1217     1.0  0.09611  0.54677  0.52005  1.0000
  C   C1004     1.0  0.02142  0.45295  0.53207  1.0000
  N   N68       1.0  0.04843  0.35856  0.67081  1.0000
  C   C1005     1.0  0.09810  0.41576  0.60097  1.0000
  H   H1218     1.0  0.04618  0.58605  0.50816  1.0000
  H   H1219     1.0  0.01057  0.61341  0.48825  1.0000
  H   H1220     1.0  0.02764  0.47075  0.50044  1.0000
  H   H1221     1.0  0.12912  0.42963  0.60910  1.0000
  C   C1006     1.0  0.05879  0.40772  0.67263  1.0000
  C   C1007     1.0  0.04659  0.40804  0.66569  1.0000
  H   H1222     1.0  0.09765  0.40571  0.59608  1.0000
  H   H1223     1.0  0.20468  0.33660  0.72730  1.0000
  C   C1008     1.0  0.06741  0.39163  0.67902  1.0000
  C   C1009     1.0  0.05157  0.37559  0.67144  1.0000
  H   H1224     1.0  0.11392  0.60442  0.50952  1.0000
  H   H1225     1.0  0.09203  0.42892  0.59569  1.0000
  C   C1010     1.0  0.15367  0.33649  0.73264  1.0000
  H   H1226     1.0  0.05281  0.63751  0.62481  1.0000
  S   S266      1.0  0.09050  0.64781  0.56529  1.0000
  N   N69       1.0  0.07508  0.64873  0.61273  1.0000
  H   H1227     1.0  0.06997  0.35439  0.65478  1.0000
  C   C1011     1.0  0.09024  0.57442  0.50966  1.0000
  H   H1228     1.0  0.05760  0.40979  0.57171  1.0000
  H   H1229     1.0  0.04026  0.63458  0.50137  1.0000
  C   C1012     1.0  0.02985  0.46050  0.51990  1.0000
  H   H1230     1.0  0.00829  0.65300  0.51029  1.0000
  H   H1231     1.0  0.05652  0.58337  0.52125  1.0000
  H   H1232     1.0  0.02591  0.58573  0.52946  1.0000
  H   H1233     1.0  0.08937  0.60245  0.50135  1.0000
  H   H1234     1.0  0.02375  0.38029  0.57729  1.0000
  C   C1013     1.0  0.20188  0.33661  0.70424  1.0000
  S   S267      1.0  0.07453  0.49429  0.49282  1.0000
  H   H1235     1.0  0.02030  0.51462  0.49794  1.0000
  H   H1236     1.0  0.14347  0.65228  0.53478  1.0000
  H   H1237     1.0  0.00274  0.39743  0.49488  1.0000
  H   H1238     1.0  0.06536  0.62632  0.61241  1.0000
  C   C1014     1.0  0.00528  0.36555  0.61491  1.0000
  C   C1015     1.0  0.06670  0.44985  0.48641  1.0000
  H   H1239     1.0  0.12942  0.57817  0.52305  1.0000
  H   H1240     1.0  0.10137  0.63157  0.61010  1.0000
  H   H1241     1.0  0.06685  0.43624  0.49132  1.0000
  H   H1242     1.0  0.11210  0.33313  0.62829  1.0000
  S   S268      1.0  0.09689  0.64346  0.50449  1.0000
  H   H1243     1.0  0.03294  0.34739  0.66314  1.0000
  Fe  Fe134     1.0  0.13082  0.32805  0.69956  1.0000
  C   C1016     1.0  0.01221  0.62539  0.53827  1.0000
  S   S269      1.0  0.14915  0.33615  0.68098  1.0000
  H   H1244     1.0  0.07642  0.34571  0.66967  1.0000
  C   C1017     1.0  0.04216  0.34859  0.68377  1.0000
  H   H1245     1.0  0.08119  0.54601  0.50514  1.0000
  H   H1246     1.0  0.05152  0.33299  0.61514  1.0000
  C   C1018     1.0  0.00644  0.54417  0.53021  1.0000
  C   C1019     1.0  0.08270  0.64030  0.49606  1.0000
  C   C1020     1.0  0.02147  0.46420  0.50972  1.0000
  H   H1247     1.0  0.01028  0.51677  0.54915  1.0000
  H   H1248     1.0  0.07454  0.62379  0.62595  1.0000
  H   H1249     1.0  0.01715  0.43286  0.48851  1.0000
  H   H1250     1.0  0.00224  0.55208  0.52131  1.0000
  S   S270      1.0  0.00850  0.39829  0.60021  1.0000
  H   H1251     1.0  0.01703  0.36550  0.61799  1.0000
  C   C1021     1.0  0.01013  0.40199  0.54514  1.0000
  H   H1252     1.0  0.00952  0.64819  0.56949  1.0000
  C   C1022     1.0  0.23172  0.32484  0.70830  1.0000
  C   C1023     1.0  0.07769  0.57921  0.49130  1.0000
  H   H1253     1.0  0.22493  0.35112  0.71256  1.0000
  C   C1024     1.0  0.14890  0.33986  0.72095  1.0000
  C   C1025     1.0  0.27105  0.33615  0.73287  1.0000
  S   S271      1.0  0.06502  0.65348  0.53686  1.0000
  C   C1026     1.0  0.23553  0.34070  0.70911  1.0000
  H   H1254     1.0  0.10072  0.32614  0.64914  1.0000
  H   H1255     1.0  0.01221  0.57516  0.56214  1.0000
  H   H1256     1.0  0.06598  0.57909  0.48770  1.0000
  H   H1257     1.0  0.01359  0.63687  0.49372  1.0000
  H   H1258     1.0  0.03860  0.53800  0.48734  1.0000
  H   H1259     1.0  0.10636  0.65370  0.61758  1.0000
  C   C1027     1.0  0.01766  0.59534  0.56883  1.0000
  C   C1028     1.0  0.01093  0.61175  0.57227  1.0000
  H   H1260     1.0  0.25874  0.33380  0.73128  1.0000
  C   C1029     1.0  0.00680  0.58769  0.56504  1.0000
  C   C1030     1.0  0.02200  0.51202  0.48841  1.0000
  C   C1031     1.0  0.10883  0.32388  0.62434  1.0000
  H   H1261     1.0  0.00477  0.63783  0.58615  1.0000
  C   C1032     1.0  0.10487  0.32997  0.61232  1.0000
  C   C1033     1.0  0.12902  0.65390  0.53519  1.0000
  H   H1262     1.0  0.08968  0.57031  0.48681  1.0000
  H   H1263     1.0  0.12796  0.64319  0.53108  1.0000
  H   H1264     1.0  0.28062  0.33303  0.69766  1.0000
  H   H1265     1.0  0.12214  0.65133  0.54536  1.0000
  C   C1034     1.0  0.26713  0.33069  0.70074  1.0000
  H   H1266     1.0  0.28121  0.33657  0.72382  1.0000
  H   H1267     1.0  0.01065  0.50646  0.48833  1.0000
  S   S272      1.0  0.13791  0.32514  0.71838  1.0000
  H   H1268     1.0  0.18796  0.33459  0.70631  1.0000
  H   H1269     1.0  0.09948  0.65301  0.59940  1.0000
  C   C1035     1.0  0.06081  0.62957  0.48494  1.0000
  Fe  Fe135     1.0  0.05993  0.42750  0.93085  1.0000
  S   S273      1.0  0.03586  0.44452  0.92351  1.0000
  S   S274      1.0  0.08453  0.41294  0.91949  1.0000
  Fe  Fe136     1.0  0.04436  0.43403  0.95751  1.0000
  S   S275      1.0  0.01920  0.45191  0.95234  1.0000
  H   H1270     1.0  0.46523  0.32533  0.84404  1.0000
  Fe  Fe137     1.0  0.01997  0.43176  0.94177  1.0000
  H   H1271     1.0  0.21749  0.63598  0.78608  1.0000
  Fe  Fe138     1.0  0.03753  0.46301  0.93469  1.0000
  C   C1036     1.0  0.41653  0.64161  0.84883  1.0000
  S   S276      1.0  0.04388  0.41299  0.94816  1.0000
  S   S277      1.0  0.06288  0.44686  0.94076  1.0000
  Fe  Fe139     1.0  0.06754  0.55778  0.94449  1.0000
  S   S278      1.0  0.06704  0.57318  0.92466  1.0000
  S   S279      1.0  0.07169  0.52835  0.95107  1.0000
  Fe  Fe140     1.0  0.05966  0.59058  0.95545  1.0000
  H   H1272     1.0  0.27884  0.41040  0.77065  1.0000
  Fe  Fe141     1.0  0.08264  0.58937  0.92906  1.0000
  H   H1273     1.0  0.39945  0.46712  0.82553  1.0000
  H   H1274     1.0  0.09505  0.53443  0.92621  1.0000
  S   S280      1.0  0.08509  0.57240  0.94832  1.0000
  S   S281      1.0  0.17058  0.36879  0.79157  1.0000
  H   H1275     1.0  0.18065  0.38866  0.83446  1.0000
  S   S282      1.0  0.41896  0.34146  0.81695  1.0000
  C   C1037     1.0  0.04757  0.39777  0.88711  1.0000
  H   H1276     1.0  0.08673  0.60778  0.96543  1.0000
  H   H1277     1.0  0.07385  0.38445  0.90904  1.0000
  H   H1278     1.0  0.46787  0.36432  0.82727  1.0000
  C   C1038     1.0  0.37002  0.63733  0.82660  1.0000
  H   H1279     1.0  0.35961  0.51490  0.82671  1.0000
  C   C1039     1.0  0.40937  0.49113  0.81836  1.0000
  Fe  Fe142     1.0  0.29568  0.45998  0.79319  1.0000
  S   S283      1.0  0.29377  0.44560  0.81340  1.0000
  S   S284      1.0  0.31164  0.48162  0.78521  1.0000
  C   C1040     1.0  0.23344  0.38140  0.82920  1.0000
  S   S285      1.0  0.26477  0.42665  0.80912  1.0000
  Fe  Fe143     1.0  0.26440  0.45175  0.81415  1.0000
  S   S286      1.0  0.24401  0.46459  0.82888  1.0000
  Fe  Fe144     1.0  0.29459  0.42186  0.80621  1.0000
  S   S287      1.0  0.30822  0.39433  0.81449  1.0000
  S   S288      1.0  0.26604  0.46742  0.79434  1.0000
  C   C1041     1.0  0.34130  0.37247  0.81421  1.0000
  Fe  Fe145     1.0  0.18423  0.60286  0.82544  1.0000
  S   S289      1.0  0.17104  0.61557  0.84209  1.0000
  Fe  Fe146     1.0  0.18558  0.56558  0.84151  1.0000
  S   S290      1.0  0.17318  0.57484  0.85958  1.0000
  S   S291      1.0  0.19415  0.53636  0.84209  1.0000
  Fe  Fe147     1.0  0.15435  0.59494  0.84851  1.0000
  S   S292      1.0  0.12496  0.59918  0.85775  1.0000
  Fe  Fe148     1.0  0.19081  0.59448  0.85194  1.0000
  S   S293      1.0  0.20297  0.60259  0.86472  1.0000
  S   S294      1.0  0.16551  0.58425  0.83078  1.0000
  S   S295      1.0  0.20532  0.58324  0.83490  1.0000
  Fe  Fe149     1.0  0.16192  0.43444  0.84844  1.0000
  S   S296      1.0  0.16527  0.45700  0.83178  1.0000
  S   S297      1.0  0.18673  0.41768  0.85482  1.0000
  Fe  Fe150     1.0  0.12231  0.44023  0.85002  1.0000
  S   S298      1.0  0.12264  0.46288  0.83319  1.0000
  S   S299      1.0  0.09527  0.43444  0.86014  1.0000
  Fe  Fe151     1.0  0.14804  0.44590  0.82451  1.0000
  S   S300      1.0  0.15799  0.44407  0.80404  1.0000
  Fe  Fe152     1.0  0.13973  0.47160  0.84219  1.0000
  S   S301      1.0  0.13186  0.50004  0.84414  1.0000
  S   S302      1.0  0.14625  0.42233  0.84056  1.0000
  S   S303      1.0  0.13788  0.44996  0.85962  1.0000
  H   H1280     1.0  0.36505  0.55981  0.80553  1.0000
  Fe  Fe153     1.0  0.30101  0.59111  0.80513  1.0000
  S   S304      1.0  0.30869  0.60546  0.81671  1.0000
  S   S305      1.0  0.28313  0.60398  0.79129  1.0000
  Fe  Fe154     1.0  0.31900  0.55480  0.81760  1.0000
  S   S306      1.0  0.32838  0.56596  0.83037  1.0000
  S   S307      1.0  0.32430  0.52490  0.82053  1.0000
  Fe  Fe155     1.0  0.30099  0.58346  0.83285  1.0000
  S   S308      1.0  0.28722  0.59017  0.85170  1.0000
  Fe  Fe156     1.0  0.33554  0.58707  0.81337  1.0000
  S   S309      1.0  0.36218  0.59547  0.80876  1.0000
  S   S310      1.0  0.29092  0.57066  0.82163  1.0000
  S   S311      1.0  0.32854  0.57439  0.80021  1.0000
  S   S312      1.0  0.05836  0.60887  0.93655  1.0000
  H   H1281     1.0  0.36931  0.55892  0.82720  1.0000
  H   H1282     1.0  0.35558  0.54090  0.81281  1.0000
  C   C1042     1.0  0.04262  0.39339  0.92232  1.0000
  C   C1043     1.0  0.38406  0.62933  0.81798  1.0000
  C   C1044     1.0  0.38152  0.61639  0.81271  1.0000
  C   C1045     1.0  0.36492  0.61142  0.81592  1.0000
  C   C1046     1.0  0.35088  0.61947  0.82452  1.0000
  C   C1047     1.0  0.35348  0.63224  0.82990  1.0000
  Fe  Fe157     1.0  0.04283  0.59100  0.93391  1.0000
  H   H1283     1.0  0.39249  0.61020  0.80610  1.0000
  H   H1284     1.0  0.33805  0.61572  0.82714  1.0000
  C   C1048     1.0  0.17413  0.65390  0.76798  1.0000
  S   S313      1.0  0.04528  0.42521  0.97809  1.0000
  H   H1285     1.0  0.30544  0.62675  0.79168  1.0000
  C   C1049     1.0  0.22645  0.59716  0.86210  1.0000
  C   C1050     1.0  0.23496  0.60628  0.86680  1.0000
  C   C1051     1.0  0.25367  0.60355  0.86389  1.0000
  C   C1052     1.0  0.26398  0.59173  0.85623  1.0000
  C   C1053     1.0  0.25555  0.58196  0.85198  1.0000
  C   C1054     1.0  0.23675  0.58469  0.85490  1.0000
  H   H1286     1.0  0.22709  0.61580  0.87246  1.0000
  H   H1287     1.0  0.26016  0.61096  0.86732  1.0000
  H   H1288     1.0  0.26350  0.57243  0.84636  1.0000
  H   H1289     1.0  0.23027  0.57727  0.85151  1.0000
  C   C1055     1.0  0.17688  0.52633  0.84249  1.0000
  C   C1056     1.0  0.15999  0.53650  0.84091  1.0000
  C   C1057     1.0  0.14622  0.52828  0.84155  1.0000
  C   C1058     1.0  0.14938  0.50983  0.84351  1.0000
  C   C1059     1.0  0.16629  0.49960  0.84501  1.0000
  C   C1060     1.0  0.17999  0.50787  0.84459  1.0000
  H   H1290     1.0  0.15743  0.55072  0.83925  1.0000
  H   H1291     1.0  0.13317  0.53625  0.84033  1.0000
  H   H1292     1.0  0.16879  0.48536  0.84653  1.0000
  H   H1293     1.0  0.19299  0.50000  0.84595  1.0000
  C   C1061     1.0  0.31361  0.49421  0.79529  1.0000
  C   C1062     1.0  0.31287  0.48711  0.80819  1.0000
  C   C1063     1.0  0.31607  0.49673  0.81578  1.0000
  C   C1064     1.0  0.31939  0.51382  0.81070  1.0000
  C   C1065     1.0  0.31955  0.52121  0.79789  1.0000
  C   C1066     1.0  0.31693  0.51132  0.79019  1.0000
  H   H1294     1.0  0.31043  0.47397  0.81227  1.0000
  H   H1295     1.0  0.31599  0.49087  0.82566  1.0000
  H   H1296     1.0  0.32218  0.53433  0.79384  1.0000
  H   H1297     1.0  0.31756  0.51693  0.78022  1.0000
  C   C1067     1.0  0.22873  0.45112  0.83719  1.0000
  C   C1068     1.0  0.23379  0.43272  0.83859  1.0000
  C   C1069     1.0  0.22103  0.42226  0.84453  1.0000
  C   C1070     1.0  0.20319  0.43028  0.84890  1.0000
  C   C1071     1.0  0.19828  0.44861  0.84775  1.0000
  C   C1072     1.0  0.21104  0.45901  0.84193  1.0000
  H   H1298     1.0  0.24755  0.42651  0.83523  1.0000
  H   H1299     1.0  0.22490  0.40806  0.84551  1.0000
  H   H1300     1.0  0.18458  0.45476  0.85135  1.0000
  H   H1301     1.0  0.20711  0.47319  0.84079  1.0000
  C   C1073     1.0  0.25415  0.39068  0.80501  1.0000
  H   H1302     1.0  0.27647  0.36478  0.78579  1.0000
  H   H1303     1.0  0.39694  0.63292  0.81550  1.0000
  C   C1074     1.0  0.33094  0.38740  0.80773  1.0000
  H   H1304     1.0  0.03119  0.39553  0.93049  1.0000
  H   H1305     1.0  0.03908  0.52747  0.92006  1.0000
  S   S314      1.0  0.10821  0.59650  0.91646  1.0000
  H   H1306     1.0  0.01148  0.54748  0.91937  1.0000
  C   C1075     1.0  0.06735  0.46286  0.98168  1.0000
  S   S315      1.0  0.03359  0.49202  0.92591  1.0000
  C   C1076     1.0  0.16658  0.39008  0.79457  1.0000
  C   C1077     1.0  0.17594  0.40277  0.78653  1.0000
  C   C1078     1.0  0.17303  0.41938  0.78944  1.0000
  C   C1079     1.0  0.16097  0.42330  0.80050  1.0000
  C   C1080     1.0  0.15169  0.41060  0.80860  1.0000
  C   C1081     1.0  0.15438  0.39408  0.80558  1.0000
  H   H1307     1.0  0.18547  0.39979  0.77810  1.0000
  H   H1308     1.0  0.18023  0.42917  0.78313  1.0000
  H   H1309     1.0  0.14218  0.41360  0.81706  1.0000
  H   H1310     1.0  0.14708  0.38433  0.81183  1.0000
  H   H1311     1.0  0.38284  0.53944  0.83510  1.0000
  C   C1082     1.0  0.36758  0.37640  0.79749  1.0000
  H   H1312     1.0  0.36771  0.48277  0.83067  1.0000
  H   H1313     1.0  0.26979  0.34580  0.77551  1.0000
  H   H1314     1.0  0.22189  0.42689  0.77381  1.0000
  H   H1315     1.0  0.16989  0.64525  0.81485  1.0000
  C   C1083     1.0  0.26137  0.64776  0.81387  1.0000
  C   C1084     1.0  0.11266  0.59588  0.90038  1.0000
  C   C1085     1.0  0.09911  0.59621  0.89451  1.0000
  C   C1086     1.0  0.10296  0.59710  0.88142  1.0000
  C   C1087     1.0  0.12034  0.59760  0.87419  1.0000
  C   C1088     1.0  0.13393  0.59675  0.88016  1.0000
  C   C1089     1.0  0.13010  0.59584  0.89321  1.0000
  H   H1316     1.0  0.08559  0.59631  0.89998  1.0000
  H   H1317     1.0  0.09240  0.59770  0.87685  1.0000
  H   H1318     1.0  0.14727  0.59735  0.87466  1.0000
  H   H1319     1.0  0.14060  0.59541  0.89777  1.0000
  C   C1090     1.0  0.04484  0.52007  0.92812  1.0000
  C   C1091     1.0  0.05132  0.49278  0.94338  1.0000
  C   C1092     1.0  0.06036  0.50075  0.94859  1.0000
  C   C1093     1.0  0.06124  0.51851  0.94382  1.0000
  C   C1094     1.0  0.05334  0.52824  0.93363  1.0000
  C   C1095     1.0  0.30074  0.36809  0.78819  1.0000
  H   H1320     1.0  0.05000  0.47933  0.94753  1.0000
  H   H1321     1.0  0.06634  0.49321  0.95651  1.0000
  H   H1322     1.0  0.05385  0.54199  0.92994  1.0000
  C   C1096     1.0  0.35711  0.64375  0.78495  1.0000
  H   H1323     1.0  0.25758  0.34628  0.79156  1.0000
  C   C1097     1.0  0.23707  0.61779  0.81141  1.0000
  H   H1324     1.0  0.38780  0.41265  0.79597  1.0000
  H   H1325     1.0  0.18528  0.38687  0.81355  1.0000
  C   C1098     1.0  0.15789  0.49845  0.80688  1.0000
  S   S316      1.0  0.25129  0.37437  0.75564  1.0000
  C   C1099     1.0  0.37680  0.44071  0.78056  1.0000
  H   H1326     1.0  0.14956  0.52042  0.81608  1.0000
  H   H1327     1.0  0.34260  0.63817  0.83669  1.0000
  H   H1328     1.0  0.15849  0.61730  0.89696  1.0000
  C   C1100     1.0  0.19545  0.38570  0.83357  1.0000
  C   C1101     1.0  0.26798  0.63718  0.77980  1.0000
  H   H1329     1.0  0.22202  0.57460  0.80836  1.0000
  C   C1102     1.0  0.06526  0.60383  0.98172  1.0000
  C   C1103     1.0  0.06102  0.45243  0.97643  1.0000
  C   C1104     1.0  0.23444  0.40327  0.76654  1.0000
  H   H1330     1.0  0.07440  0.47288  0.97556  1.0000
  H   H1331     1.0  0.06319  0.45440  0.96628  1.0000
  C   C1105     1.0  0.08759  0.42019  0.90303  1.0000
  C   C1106     1.0  0.10480  0.41677  0.89543  1.0000
  C   C1107     1.0  0.10733  0.42155  0.88221  1.0000
  C   C1108     1.0  0.09257  0.42923  0.87660  1.0000
  C   C1109     1.0  0.07536  0.43263  0.88419  1.0000
  C   C1110     1.0  0.07293  0.42847  0.89738  1.0000
  H   H1332     1.0  0.11618  0.41029  0.89976  1.0000
  H   H1333     1.0  0.12064  0.41872  0.87638  1.0000
  H   H1334     1.0  0.06392  0.43836  0.87983  1.0000
  H   H1335     1.0  0.05964  0.43089  0.90315  1.0000
  H   H1336     1.0  0.40698  0.54408  0.81605  1.0000
  H   H1337     1.0  0.42325  0.48420  0.81614  1.0000
  N   N70       1.0  0.14130  0.53400  0.88099  1.0000
  C   C1111     1.0  0.15925  0.53443  0.88233  1.0000
  C   C1112     1.0  0.14345  0.51832  0.87570  1.0000
  C   C1113     1.0  0.13516  0.55003  0.87165  1.0000
  C   C1114     1.0  0.12846  0.53385  0.89334  1.0000
  C   C1115     1.0  0.12501  0.54793  0.89960  1.0000
  C   C1116     1.0  0.11910  0.51998  0.89950  1.0000
  C   C1117     1.0  0.11309  0.54809  0.91130  1.0000
  C   C1118     1.0  0.10723  0.52025  0.91125  1.0000
  C   C1119     1.0  0.10425  0.53427  0.91712  1.0000
  H   H1338     1.0  0.16938  0.53401  0.87326  1.0000
  H   H1339     1.0  0.15924  0.54669  0.88510  1.0000
  H   H1340     1.0  0.16413  0.52295  0.88961  1.0000
  H   H1341     1.0  0.14839  0.50576  0.88214  1.0000
  H   H1342     1.0  0.15353  0.51864  0.86664  1.0000
  H   H1343     1.0  0.13075  0.51771  0.87362  1.0000
  H   H1344     1.0  0.13502  0.56242  0.87425  1.0000
  H   H1345     1.0  0.14411  0.55037  0.86212  1.0000
  H   H1346     1.0  0.12137  0.55082  0.87072  1.0000
  H   H1347     1.0  0.13149  0.55901  0.89549  1.0000
  H   H1348     1.0  0.12060  0.50881  0.89543  1.0000
  H   H1349     1.0  0.10019  0.50959  0.91585  1.0000
  H   H1350     1.0  0.36113  0.53899  0.83356  1.0000
  H   H1351     1.0  0.34298  0.46204  0.80050  1.0000
  H   H1352     1.0  0.01691  0.54328  0.94708  1.0000
  H   H1353     1.0  0.23094  0.62943  0.83935  1.0000
  H   H1354     1.0  0.48935  0.33358  0.84878  1.0000
  C   C1120     1.0  0.00514  0.58845  0.92519  1.0000
  C   C1121     1.0  0.32779  0.33016  0.74683  1.0000
  H   H1355     1.0  0.00099  0.47846  0.93202  1.0000
  H   H1356     1.0  0.43336  0.63372  0.86764  1.0000
  H   H1357     1.0  0.34158  0.62403  0.78852  1.0000
  C   C1122     1.0  0.37562  0.41375  0.80317  1.0000
  C   C1123     1.0  0.05126  0.39370  0.89936  1.0000
  H   H1358     1.0  0.12978  0.63626  0.90024  1.0000
  C   C1124     1.0  0.26653  0.33752  0.78519  1.0000
  C   C1125     1.0  0.29460  0.63472  0.78722  1.0000
  H   H1359     1.0  0.22645  0.45068  0.80476  1.0000
  C   C1126     1.0  0.22747  0.62487  0.83199  1.0000
  H   H1360     1.0  0.26245  0.33665  0.75773  1.0000
  C   C1127     1.0  0.12661  0.63854  0.89111  1.0000
  C   C1128     1.0  0.10404  0.64101  0.87963  1.0000
  H   H1361     1.0  0.31268  0.35566  0.75016  1.0000
  N   N71       1.0  0.08517  0.48409  0.88128  1.0000
  C   C1129     1.0  0.06649  0.48193  0.88368  1.0000
  C   C1130     1.0  0.09452  0.48027  0.86862  1.0000
  C   C1131     1.0  0.09435  0.47063  0.89075  1.0000
  C   C1132     1.0  0.08497  0.50209  0.88239  1.0000
  C   C1133     1.0  0.07647  0.50777  0.89391  1.0000
  C   C1134     1.0  0.09267  0.51459  0.87217  1.0000
  C   C1135     1.0  0.07560  0.52489  0.89506  1.0000
  C   C1136     1.0  0.09164  0.53169  0.87344  1.0000
  C   C1137     1.0  0.08315  0.53683  0.88485  1.0000
  H   H1362     1.0  0.05886  0.49243  0.87718  1.0000
  H   H1363     1.0  0.06607  0.46893  0.88221  1.0000
  H   H1364     1.0  0.05907  0.48254  0.89354  1.0000
  H   H1365     1.0  0.10881  0.48125  0.86629  1.0000
  H   H1366     1.0  0.08793  0.48936  0.86100  1.0000
  H   H1367     1.0  0.09459  0.46661  0.86809  1.0000
  H   H1368     1.0  0.08719  0.47131  0.90064  1.0000
  H   H1369     1.0  0.09530  0.45692  0.88984  1.0000
  H   H1370     1.0  0.10826  0.47218  0.88953  1.0000
  H   H1371     1.0  0.07014  0.49910  0.90208  1.0000
  H   H1372     1.0  0.09938  0.51159  0.86302  1.0000
  H   H1373     1.0  0.06893  0.52897  0.90392  1.0000
  H   H1374     1.0  0.09726  0.54108  0.86541  1.0000
  H   H1375     1.0  0.08232  0.55013  0.88579  1.0000
  H   H1376     1.0  0.03544  0.36775  0.91444  1.0000
  H   H1377     1.0  0.36318  0.39809  0.78174  1.0000
  H   H1378     1.0  0.33069  0.40770  0.79080  1.0000
  H   H1379     1.0  0.22626  0.37779  0.83883  1.0000
  S   S317      1.0  0.18389  0.34644  0.76215  1.0000
  H   H1380     1.0  0.00807  0.60095  0.98158  1.0000
  C   C1138     1.0  0.06959  0.38782  0.90019  1.0000
  C   C1139     1.0  0.34535  0.63591  0.78217  1.0000
  H   H1381     1.0  0.42334  0.61568  0.86939  1.0000
  C   C1140     1.0  0.13466  0.64152  0.86838  1.0000
  H   H1382     1.0  0.09643  0.42939  0.98111  1.0000
  C   C1141     1.0  0.25212  0.37813  0.82725  1.0000
  H   H1383     1.0  0.02789  0.39818  0.98076  1.0000
  H   H1384     1.0  0.01615  0.41417  0.90128  1.0000
  H   H1385     1.0  0.20367  0.39291  0.80166  1.0000
  H   H1386     1.0  0.02811  0.56691  0.92331  1.0000
  C   C1142     1.0  0.07289  0.53816  0.98073  1.0000
  C   C1143     1.0  0.39599  0.48147  0.82365  1.0000
  H   H1387     1.0  0.22395  0.62521  0.80936  1.0000
  H   H1388     1.0  0.17916  0.65271  0.77656  1.0000
  S   S318      1.0  0.21700  0.34759  0.77390  1.0000
  H   H1389     1.0  0.25536  0.50791  0.80666  1.0000
  C   C1144     1.0  0.02235  0.51625  0.96864  1.0000
  H   H1390     1.0  0.05079  0.40328  0.92101  1.0000
  Fe  Fe158     1.0  0.18907  0.36336  0.77322  1.0000
  C   C1145     1.0  0.19996  0.38584  0.81165  1.0000
  C   C1146     1.0  0.37816  0.49026  0.82655  1.0000
  H   H1391     1.0  0.17783  0.65589  0.74285  1.0000
  H   H1392     1.0  0.39231  0.56227  0.80837  1.0000
  H   H1393     1.0  0.21145  0.48986  0.77996  1.0000
  H   H1394     1.0  0.37369  0.54012  0.79925  1.0000
  H   H1395     1.0  0.18304  0.41616  0.81947  1.0000
  H   H1396     1.0  0.40353  0.54423  0.80071  1.0000
  H   H1397     1.0  0.38482  0.63199  0.87518  1.0000
  H   H1398     1.0  0.11070  0.55902  0.91590  1.0000
  C   C1147     1.0  0.40500  0.50966  0.81592  1.0000
  C   C1148     1.0  0.23120  0.65633  0.81023  1.0000
  H   H1399     1.0  0.26224  0.61538  0.83191  1.0000
  H   H1400     1.0  0.09044  0.64084  0.87963  1.0000
  H   H1401     1.0  0.41603  0.51629  0.81183  1.0000
  C   C1149     1.0  0.35707  0.39099  0.79082  1.0000
  H   H1402     1.0  0.20628  0.63696  0.76740  1.0000
  H   H1403     1.0  0.18479  0.64107  0.86819  1.0000
  H   H1404     1.0  0.28467  0.35158  0.74757  1.0000
  H   H1405     1.0  0.38002  0.42819  0.77714  1.0000
  S   S319      1.0  0.05089  0.59917  0.97415  1.0000
  C   C1150     1.0  0.29530  0.32486  0.74403  1.0000
  S   S320      1.0  0.19494  0.61549  0.80518  1.0000
  H   H1406     1.0  0.17367  0.65177  0.88686  1.0000
  C   C1151     1.0  0.47979  0.33101  0.81126  1.0000
  H   H1407     1.0  0.41456  0.63005  0.88045  1.0000
  H   H1408     1.0  0.19747  0.39152  0.84084  1.0000
  H   H1409     1.0  0.15289  0.64880  0.89721  1.0000
  H   H1410     1.0  0.27911  0.38531  0.76160  1.0000
  H   H1411     1.0  0.35970  0.38879  0.83167  1.0000
  C   C1152     1.0  0.34479  0.41318  0.82241  1.0000
  C   C1153     1.0  0.17227  0.48584  0.80208  1.0000
  C   C1154     1.0  0.02288  0.48804  0.98355  1.0000
  C   C1155     1.0  0.31217  0.33133  0.79251  1.0000
  C   C1156     1.0  0.01402  0.57149  0.92322  1.0000
  C   C1157     1.0  0.02646  0.38111  0.91287  1.0000
  N   N72       1.0  0.25583  0.51789  0.82244  1.0000
  C   C1158     1.0  0.23872  0.51295  0.83002  1.0000
  C   C1159     1.0  0.26399  0.50594  0.81344  1.0000
  C   C1160     1.0  0.26778  0.51460  0.83131  1.0000
  C   C1161     1.0  0.25363  0.53656  0.81536  1.0000
  C   C1162     1.0  0.23661  0.54835  0.81530  1.0000
  C   C1163     1.0  0.26888  0.54341  0.80808  1.0000
  C   C1164     1.0  0.23513  0.56583  0.80835  1.0000
  C   C1165     1.0  0.26723  0.56093  0.80126  1.0000
  C   C1166     1.0  0.25040  0.57211  0.80138  1.0000
  H   H1412     1.0  0.24084  0.49886  0.83524  1.0000
  H   H1413     1.0  0.23205  0.52112  0.83724  1.0000
  H   H1414     1.0  0.22920  0.51432  0.82399  1.0000
  H   H1415     1.0  0.27735  0.50811  0.80780  1.0000
  H   H1416     1.0  0.17709  0.64055  0.76583  1.0000
  H   H1417     1.0  0.16589  0.61027  0.88221  1.0000
  H   H1418     1.0  0.26920  0.50083  0.83711  1.0000
  H   H1419     1.0  0.28157  0.51623  0.82637  1.0000
  H   H1420     1.0  0.26246  0.52387  0.83789  1.0000
  H   H1421     1.0  0.22422  0.54443  0.82055  1.0000
  H   H1422     1.0  0.28224  0.53526  0.80760  1.0000
  C   C1167     1.0  0.19009  0.48499  0.80284  1.0000
  H   H1423     1.0  0.20583  0.45482  0.81627  1.0000
  H   H1424     1.0  0.03399  0.40176  0.88572  1.0000
  H   H1425     1.0  0.18041  0.61886  0.88746  1.0000
  C   C1168     1.0  0.20661  0.64507  0.79072  1.0000
  C   C1169     1.0  0.09253  0.61186  0.98206  1.0000
  H   H1426     1.0  0.23867  0.63074  0.76113  1.0000
  H   H1427     1.0  0.24924  0.58566  0.79603  1.0000
  H   H1428     1.0  0.22970  0.40086  0.79871  1.0000
  C   C1170     1.0  0.00396  0.54704  0.95371  1.0000
  H   H1429     1.0  0.01519  0.38170  0.92131  1.0000
  H   H1430     1.0  0.32637  0.36822  0.79111  1.0000
  H   H1431     1.0  0.14435  0.49850  0.80655  1.0000
  H   H1432     1.0  0.21835  0.65366  0.81080  1.0000
  H   H1433     1.0  0.20644  0.37158  0.81228  1.0000
  H   H1434     1.0  0.01421  0.63118  0.97207  1.0000
  H   H1435     1.0  0.25585  0.59829  0.82791  1.0000
  C   C1171     1.0  0.16617  0.62052  0.88707  1.0000
  H   H1436     1.0  0.05832  0.40080  0.86700  1.0000
  H   H1437     1.0  0.36186  0.63734  0.79353  1.0000
  S   S321      1.0  0.01638  0.60265  0.92802  1.0000
  H   H1438     1.0  0.19998  0.37106  0.83605  1.0000
  Fe  Fe159     1.0  0.21273  0.33300  0.76097  1.0000
  C   C1172     1.0  0.32337  0.34183  0.79289  1.0000
  C   C1173     1.0  0.31766  0.36016  0.79074  1.0000
  H   H1439     1.0  0.22207  0.40154  0.76525  1.0000
  H   H1440     1.0  0.02057  0.38225  0.90470  1.0000
  N   N73       1.0  0.40767  0.64128  0.86230  1.0000
  C   C1174     1.0  0.24505  0.64285  0.81489  1.0000
  N   N74       1.0  0.28306  0.32751  0.78984  1.0000
  H   H1441     1.0  0.18027  0.52005  0.81730  1.0000
  C   C1175     1.0  0.06137  0.39701  0.87632  1.0000
  C   C1176     1.0  0.08326  0.38695  0.88934  1.0000
  H   H1442     1.0  0.00793  0.60199  0.95502  1.0000
  H   H1443     1.0  0.00639  0.55230  0.96112  1.0000
  H   H1444     1.0  0.22459  0.61148  0.83625  1.0000
  H   H1445     1.0  0.39602  0.61943  0.86325  1.0000
  C   C1177     1.0  0.03129  0.50183  0.97647  1.0000
  H   H1446     1.0  0.06629  0.54483  0.97291  1.0000
  C   C1178     1.0  0.17811  0.51050  0.81299  1.0000
  C   C1179     1.0  0.17996  0.65024  0.80706  1.0000
  C   C1180     1.0  0.49833  0.32719  0.81042  1.0000
  H   H1447     1.0  0.16897  0.47677  0.79801  1.0000
  N   N75       1.0  0.03642  0.39519  0.91062  1.0000
  C   C1181     1.0  0.00564  0.48845  0.98269  1.0000
  H   H1448     1.0  0.03109  0.42366  0.90554  1.0000
  N   N76       1.0  0.24216  0.62467  0.82057  1.0000
  C   C1182     1.0  0.14006  0.63976  0.87980  1.0000
  H   H1449     1.0  0.27690  0.38047  0.81378  1.0000
  H   H1450     1.0  0.26972  0.61124  0.81606  1.0000
  C   C1183     1.0  0.00462  0.51715  0.96765  1.0000
  N   N77       1.0  0.38168  0.53861  0.81639  1.0000
  C   C1184     1.0  0.36847  0.54509  0.80816  1.0000
  C   C1185     1.0  0.37339  0.54421  0.82858  1.0000
  C   C1186     1.0  0.39689  0.54756  0.81010  1.0000
  C   C1187     1.0  0.38691  0.51904  0.81876  1.0000
  C   C1188     1.0  0.37365  0.50874  0.82421  1.0000
  S   S322      1.0  0.04222  0.57420  0.95339  1.0000
  C   C1189     1.0  0.39199  0.63304  0.86511  1.0000
  S   S323      1.0  0.22295  0.35169  0.74345  1.0000
  C   C1190     1.0  0.08048  0.52013  0.98226  1.0000
  N   N78       1.0  0.20482  0.39325  0.82067  1.0000
  H   H1451     1.0  0.38824  0.44114  0.78430  1.0000
  C   C1191     1.0  0.22455  0.38941  0.81899  1.0000
  H   H1452     1.0  0.25863  0.37236  0.83519  1.0000
  H   H1453     1.0  0.09717  0.38319  0.89013  1.0000
  H   H1454     1.0  0.45452  0.34762  0.81794  1.0000
  S   S324      1.0  0.29904  0.43551  0.78567  1.0000
  H   H1455     1.0  0.39761  0.65212  0.76812  1.0000
  H   H1456     1.0  0.37595  0.45175  0.77211  1.0000
  C   C1192     1.0  0.02384  0.41266  0.90854  1.0000
  H   H1457     1.0  0.01355  0.41472  0.91728  1.0000
  H   H1458     1.0  0.25809  0.63111  0.77864  1.0000
  C   C1193     1.0  0.33878  0.39651  0.79595  1.0000
  C   C1194     1.0  0.19791  0.41268  0.81818  1.0000
  C   C1195     1.0  0.26246  0.38267  0.81518  1.0000
  H   H1459     1.0  0.04495  0.50119  0.97689  1.0000
  H   H1460     1.0  0.02332  0.61012  0.95969  1.0000
  Fe  Fe160     1.0  0.26893  0.44155  0.78905  1.0000
  C   C1196     1.0  0.29357  0.65293  0.78256  1.0000
  H   H1461     1.0  0.20337  0.41921  0.80835  1.0000
  H   H1462     1.0  0.20138  0.41875  0.82475  1.0000
  C   C1197     1.0  0.25824  0.61194  0.82429  1.0000
  C   C1198     1.0  0.10887  0.63928  0.89097  1.0000
  C   C1199     1.0  0.01002  0.61394  0.95712  1.0000
  Fe  Fe161     1.0  0.19416  0.36596  0.74508  1.0000
  Fe  Fe162     1.0  0.40478  0.34450  0.80145  1.0000
  S   S325      1.0  0.37283  0.65304  0.83394  1.0000
  H   H1463     1.0  0.05076  0.37995  0.92529  1.0000
  C   C1200     1.0  0.17082  0.64183  0.86756  1.0000
  C   C1201     1.0  0.42026  0.62970  0.87030  1.0000
  H   H1464     1.0  0.21466  0.63359  0.82989  1.0000
  S   S326      1.0  0.19721  0.38421  0.75621  1.0000
  C   C1202     1.0  0.26643  0.40833  0.76967  1.0000
  S   S327      1.0  0.39078  0.37080  0.79144  1.0000
  H   H1465     1.0  0.26595  0.49174  0.81841  1.0000
  H   H1466     1.0  0.14392  0.64197  0.85934  1.0000
  H   H1467     1.0  0.33656  0.33574  0.79489  1.0000
  C   C1203     1.0  0.29632  0.34089  0.74656  1.0000
  C   C1204     1.0  0.04388  0.50231  0.93297  1.0000
  C   C1205     1.0  0.16080  0.51079  0.81227  1.0000
  H   H1468     1.0  0.34011  0.33188  0.74830  1.0000
  H   H1469     1.0  0.38702  0.38930  0.81471  1.0000
  H   H1470     1.0  0.00670  0.42669  0.98132  1.0000
  H   H1471     1.0  0.08987  0.39177  0.86902  1.0000
  H   H1472     1.0  0.26216  0.39480  0.79572  1.0000
  C   C1206     1.0  0.00463  0.56053  0.92095  1.0000
  C   C1207     1.0  0.25058  0.39167  0.76282  1.0000
  C   C1208     1.0  0.21221  0.64619  0.75950  1.0000
  H   H1473     1.0  0.17204  0.63158  0.86228  1.0000
  H   H1474     1.0  0.25832  0.32854  0.78474  1.0000
  H   H1475     1.0  0.24705  0.61863  0.80230  1.0000
  H   H1476     1.0  0.02975  0.52633  0.96327  1.0000
  H   H1477     1.0  0.42861  0.64745  0.84583  1.0000
  H   H1478     1.0  0.32957  0.63696  0.76908  1.0000
  C   C1209     1.0  0.26655  0.39415  0.76452  1.0000
  H   H1479     1.0  0.38234  0.64067  0.85896  1.0000
  C   C1210     1.0  0.37542  0.40014  0.81401  1.0000
  S   S328      1.0  0.42815  0.32823  0.79014  1.0000
  C   C1211     1.0  0.36001  0.39978  0.82356  1.0000
  H   H1480     1.0  0.01954  0.39336  0.96933  1.0000
  H   H1481     1.0  0.34427  0.45353  0.77582  1.0000
  H   H1482     1.0  0.34767  0.42990  0.78100  1.0000
  C   C1212     1.0  0.46881  0.34446  0.81733  1.0000
  H   H1483     1.0  0.36655  0.45967  0.79885  1.0000
  H   H1484     1.0  0.33263  0.41258  0.82968  1.0000
  C   C1213     1.0  0.28187  0.62680  0.78576  1.0000
  C   C1214     1.0  0.21512  0.46126  0.80806  1.0000
  C   C1215     1.0  0.20081  0.45929  0.79250  1.0000
  Fe  Fe163     1.0  0.22502  0.36754  0.75645  1.0000
  C   C1216     1.0  0.35962  0.36705  0.80914  1.0000
  H   H1485     1.0  0.33525  0.36535  0.82331  1.0000
  H   H1486     1.0  0.21276  0.44955  0.78888  1.0000
  N   N79       1.0  0.35982  0.44216  0.79028  1.0000
  C   C1217     1.0  0.34534  0.44239  0.78421  1.0000
  H   H1487     1.0  0.35584  0.47068  0.78568  1.0000
  H   H1488     1.0  0.42089  0.62811  0.84679  1.0000
  H   H1489     1.0  0.09901  0.63760  0.89979  1.0000
  C   C1218     1.0  0.47639  0.35396  0.82256  1.0000
  H   H1490     1.0  0.33276  0.43699  0.81126  1.0000
  H   H1491     1.0  0.19426  0.46619  0.78439  1.0000
  H   H1492     1.0  0.10539  0.61503  0.97715  1.0000
  H   H1493     1.0  0.22104  0.46939  0.81168  1.0000
  C   C1219     1.0  0.33862  0.64315  0.77123  1.0000
  C   C1220     1.0  0.23550  0.39414  0.80685  1.0000
  H   H1494     1.0  0.27030  0.32657  0.80944  1.0000
  H   H1495     1.0  0.19168  0.45151  0.79980  1.0000
  S   S329      1.0  0.24968  0.43937  0.77820  1.0000
  H   H1496     1.0  0.38809  0.64522  0.79174  1.0000
  C   C1221     1.0  0.25035  0.42031  0.77295  1.0000
  C   C1222     1.0  0.35622  0.45935  0.79399  1.0000
  C   C1223     1.0  0.26679  0.65544  0.77532  1.0000
  H   H1497     1.0  0.27910  0.56589  0.79584  1.0000
  H   H1498     1.0  0.40719  0.64953  0.84257  1.0000
  H   H1499     1.0  0.36766  0.35600  0.81446  1.0000
  N   N80       1.0  0.15884  0.63851  0.88026  1.0000
  H   H1500     1.0  0.29639  0.38239  0.78660  1.0000
  C   C1224     1.0  0.08200  0.60773  0.97541  1.0000
  C   C1225     1.0  0.23438  0.41765  0.77141  1.0000
  C   C1226     1.0  0.19254  0.49770  0.80848  1.0000
  C   C1227     1.0  0.34493  0.42698  0.81171  1.0000
  H   H1501     1.0  0.33193  0.44414  0.79066  1.0000
  H   H1502     1.0  0.22987  0.47192  0.78329  1.0000
  H   H1503     1.0  0.22392  0.48976  0.79115  1.0000
  H   H1504     1.0  0.20566  0.49780  0.80949  1.0000
  H   H1505     1.0  0.07969  0.51274  0.97575  1.0000
  C   C1228     1.0  0.36026  0.42760  0.80166  1.0000
  C   C1229     1.0  0.07918  0.39176  0.87743  1.0000
  C   C1230     1.0  0.21824  0.48130  0.78764  1.0000
  N   N81       1.0  0.20569  0.47187  0.79783  1.0000
  H   H1506     1.0  0.23581  0.60374  0.81502  1.0000
  C   C1231     1.0  0.11690  0.64210  0.86838  1.0000
  C   C1232     1.0  0.19364  0.63848  0.80082  1.0000
  C   C1233     1.0  0.01733  0.39245  0.97967  1.0000
  H   H1507     1.0  0.01104  0.62432  0.94823  1.0000
  H   H1508     1.0  0.16600  0.65511  0.86184  1.0000
  C   C1234     1.0  0.15960  0.65165  0.88705  1.0000
  H   H1509     1.0  0.16725  0.34409  0.74380  1.0000
  H   H1510     1.0  0.27269  0.63847  0.81713  1.0000
  C   C1235     1.0  0.29486  0.33895  0.78985  1.0000
  C   C1236     1.0  0.31232  0.34343  0.74800  1.0000
  C   C1237     1.0  0.26482  0.32364  0.75524  1.0000
  H   H1511     1.0  0.25426  0.65065  0.74324  1.0000
  C   C1238     1.0  0.28941  0.35774  0.78776  1.0000
  H   H1512     1.0  0.14982  0.32554  0.74003  1.0000
  H   H1513     1.0  0.11321  0.64269  0.85964  1.0000
  C   C1239     1.0  0.23975  0.65353  0.74585  1.0000
  H   H1514     1.0  0.00593  0.52006  0.94312  1.0000
  C   C1240     1.0  0.23093  0.64236  0.75594  1.0000
  C   C1241     1.0  0.49496  0.35007  0.82175  1.0000
  C   C1242     1.0  0.05231  0.43920  0.98435  1.0000
  H   H1515     1.0  0.01987  0.37820  0.98441  1.0000
  H   H1516     1.0  0.26728  0.34957  0.73505  1.0000
  C   C1243     1.0  0.16352  0.34707  0.73482  1.0000
  H   H1517     1.0  0.14525  0.65959  0.09525  1.0000
  H   H1518     1.0  0.19223  0.76878  0.19244  1.0000
  C   C1244     1.0  0.49922  0.74328  0.13582  1.0000
  H   H1519     1.0  0.44232  0.90484  0.04324  1.0000
  S   S330      1.0  0.40440  0.91057  0.04390  1.0000
  S   S331      1.0  0.44410  0.92099  0.01559  1.0000
  C   C1245     1.0  0.49865  0.85115  0.10573  1.0000
  Fe  Fe164     1.0  0.43772  0.84852  0.09824  1.0000
  S   S332      1.0  0.41515  0.87015  0.10399  1.0000
  S   S333      1.0  0.45422  0.85527  0.07863  1.0000
  Fe  Fe165     1.0  0.43140  0.82506  0.12427  1.0000
  S   S334      1.0  0.40823  0.84507  0.13222  1.0000
  S   S335      1.0  0.43966  0.79966  0.13780  1.0000
  Fe  Fe166     1.0  0.39988  0.84897  0.11408  1.0000
  S   S336      1.0  0.37144  0.85461  0.11196  1.0000
  Fe  Fe167     1.0  0.42555  0.86445  0.12147  1.0000
  S   S337      1.0  0.42526  0.88842  0.12806  1.0000
  S   S338      1.0  0.42165  0.82742  0.10677  1.0000
  S   S339      1.0  0.44951  0.84416  0.11510  1.0000
  C   C1246     1.0  0.38801  0.79904  0.18351  1.0000
  H   H1520     1.0  0.40529  0.98602  0.99453  1.0000
  H   H1521     1.0  0.27412  0.78897  0.21466  1.0000
  H   H1522     1.0  0.19686  0.78760  0.19554  1.0000
  H   H1523     1.0  0.23730  0.76308  0.20819  1.0000
  H   H1524     1.0  0.21918  0.69271  0.09664  1.0000
  H   H1525     1.0  0.47448  0.89400  0.09502  1.0000
  C   C1247     1.0  0.24054  0.77807  0.18227  1.0000
  Fe  Fe168     1.0  0.42151  0.96876  0.02070  1.0000
  C   C1248     1.0  0.39430  0.80390  0.16064  1.0000
  H   H1526     1.0  0.05624  0.68178  0.99317  1.0000
  Fe  Fe169     1.0  0.22427  0.69540  0.15513  1.0000
  H   H1527     1.0  0.39451  0.91819  0.07071  1.0000
  C   C1249     1.0  0.39560  0.82705  0.16974  1.0000
  Fe  Fe170     1.0  0.24724  0.70972  0.16646  1.0000
  S   S340      1.0  0.23062  0.70402  0.18607  1.0000
  S   S341      1.0  0.27225  0.72080  0.16036  1.0000
  Fe  Fe171     1.0  0.23044  0.67853  0.18159  1.0000
  H   H1528     1.0  0.38645  0.88292  0.08996  1.0000
  Fe  Fe172     1.0  0.20718  0.71501  0.17670  1.0000
  S   S342      1.0  0.18441  0.73605  0.18406  1.0000
  S   S343      1.0  0.24916  0.68321  0.16286  1.0000
  S   S344      1.0  0.22391  0.72255  0.15718  1.0000
  Fe  Fe173     1.0  0.43690  0.66825  0.14319  1.0000
  H   H1529     1.0  0.37939  0.75814  0.19925  1.0000
  H   H1530     1.0  0.42619  0.91731  0.10326  1.0000
  Fe  Fe174     1.0  0.44034  0.70696  0.13577  1.0000
  S   S345      1.0  0.44988  0.70524  0.15318  1.0000
  S   S346      1.0  0.43728  0.73198  0.12072  1.0000
  Fe  Fe175     1.0  0.46706  0.67927  0.14950  1.0000
  C   C1250     1.0  0.49754  0.91850  0.06247  1.0000
  Fe  Fe176     1.0  0.42822  0.68998  0.16300  1.0000
  S   S347      1.0  0.40746  0.69424  0.18063  1.0000
  S   S348      1.0  0.45908  0.68190  0.13127  1.0000
  S   S349      1.0  0.41740  0.69362  0.14581  1.0000
  H   H1531     1.0  0.35739  0.80780  0.21049  1.0000
  C   C1251     1.0  0.27153  0.69498  0.11221  1.0000
  H   H1532     1.0  0.48048  0.90945  0.05472  1.0000
  C   C1252     1.0  0.21729  0.74430  0.20335  1.0000
  C   C1253     1.0  0.39763  0.66149  0.13442  1.0000
  Fe  Fe177     1.0  0.41914  0.93009  0.02946  1.0000
  H   H1533     1.0  0.42160  0.91863  0.99032  1.0000
  Fe  Fe178     1.0  0.31349  0.81677  0.17432  1.0000
  S   S350      1.0  0.33788  0.80997  0.18239  1.0000
  S   S351      1.0  0.30811  0.84145  0.15945  1.0000
  Fe  Fe179     1.0  0.30198  0.78213  0.18878  1.0000
  S   S352      1.0  0.32623  0.77230  0.19730  1.0000
  S   S353      1.0  0.28111  0.76539  0.19589  1.0000
  Fe  Fe180     1.0  0.32020  0.79976  0.20075  1.0000
  S   S354      1.0  0.32127  0.80066  0.22041  1.0000
  Fe  Fe181     1.0  0.34121  0.78352  0.17812  1.0000
  S   S355      1.0  0.36724  0.77352  0.16576  1.0000
  S   S356      1.0  0.29517  0.80919  0.19310  1.0000
  S   S357      1.0  0.31756  0.79074  0.16918  1.0000
  C   C1254     1.0  0.39563  0.71615  0.17694  1.0000
  C   C1255     1.0  0.40163  0.72680  0.16532  1.0000
  C   C1256     1.0  0.39278  0.74438  0.16208  1.0000
  C   C1257     1.0  0.37755  0.75135  0.17034  1.0000
  C   C1258     1.0  0.37115  0.74071  0.18194  1.0000
  C   C1259     1.0  0.38032  0.72305  0.18530  1.0000
  H   H1534     1.0  0.41323  0.72153  0.15881  1.0000
  H   H1535     1.0  0.39780  0.75259  0.15315  1.0000
  H   H1536     1.0  0.35936  0.74611  0.18836  1.0000
  H   H1537     1.0  0.37561  0.71483  0.19432  1.0000
  H   H1538     1.0  0.49801  0.71601  0.17043  1.0000
  H   H1539     1.0  0.26072  0.78912  0.16751  1.0000
  C   C1260     1.0  0.27303  0.67329  0.13162  1.0000
  C   C1261     1.0  0.36741  0.78207  0.20611  1.0000
  H   H1540     1.0  0.36716  0.91200  0.11406  1.0000
  C   C1262     1.0  0.25053  0.78141  0.16987  1.0000
  H   H1541     1.0  0.40178  0.67365  0.13335  1.0000
  H   H1542     1.0  0.26335  0.66695  0.12985  1.0000
  C   C1263     1.0  0.18808  0.66123  0.12865  1.0000
  H   H1543     1.0  0.40378  0.83300  0.16063  1.0000
  C   C1264     1.0  0.27550  0.73240  0.17047  1.0000
  C   C1265     1.0  0.28765  0.74365  0.16585  1.0000
  C   C1266     1.0  0.28999  0.75345  0.17368  1.0000
  C   C1267     1.0  0.28029  0.75187  0.18619  1.0000
  C   C1268     1.0  0.26885  0.73995  0.19096  1.0000
  C   C1269     1.0  0.26634  0.73034  0.18311  1.0000
  H   H1544     1.0  0.29494  0.74514  0.15612  1.0000
  H   H1545     1.0  0.29890  0.76256  0.16993  1.0000
  H   H1546     1.0  0.26170  0.73837  0.20071  1.0000
  H   H1547     1.0  0.25730  0.72140  0.18684  1.0000
  C   C1270     1.0  0.48164  0.75794  0.15281  1.0000
  H   H1548     1.0  0.42191  0.78581  0.17110  1.0000
  H   H1549     1.0  0.22583  0.67612  0.07974  1.0000
  H   H1550     1.0  0.43468  0.98836  0.03504  1.0000
  C   C1271     1.0  0.38899  0.78051  0.18636  1.0000
  N   N82       1.0  0.49672  0.75852  0.14160  1.0000
  H   H1551     1.0  0.47811  0.89750  0.00051  1.0000
  H   H1552     1.0  0.03654  0.65985  0.98857  1.0000
  H   H1553     1.0  0.12502  0.84655  0.22590  1.0000
  H   H1554     1.0  0.49739  0.90920  0.09407  1.0000
  H   H1555     1.0  0.29940  0.83407  0.20996  1.0000
  C   C1272     1.0  0.48665  0.72631  0.12653  1.0000
  H   H1556     1.0  0.47421  0.98859  0.03385  1.0000
  C   C1273     1.0  0.16673  0.74836  0.20554  1.0000
  C   C1274     1.0  0.17764  0.73381  0.20059  1.0000
  H   H1557     1.0  0.23124  0.73657  0.20312  1.0000
  H   H1558     1.0  0.37889  0.88985  0.11219  1.0000
  H   H1559     1.0  0.48397  0.74509  0.15971  1.0000
  H   H1560     1.0  0.16196  0.76049  0.19920  1.0000
  H   H1561     1.0  0.46606  0.89343  0.07553  1.0000
  H   H1562     1.0  0.49079  0.87606  0.12315  1.0000
  H   H1563     1.0  0.25805  0.76596  0.22649  1.0000
  C   C1275     1.0  0.36127  0.92428  0.09083  1.0000
  H   H1564     1.0  0.48602  0.90129  0.01253  1.0000
  H   H1565     1.0  0.18912  0.68710  0.14799  1.0000
  C   C1276     1.0  0.48446  0.90937  0.06325  1.0000
  H   H1566     1.0  0.23083  0.66754  0.11859  1.0000
  H   H1567     1.0  0.47955  0.77695  0.12960  1.0000
  H   H1568     1.0  0.29180  0.68625  0.15428  1.0000
  H   H1569     1.0  0.48267  0.69857  0.16335  1.0000
  C   C1277     1.0  0.29953  0.67253  0.15707  1.0000
  H   H1570     1.0  0.36264  0.88914  0.09196  1.0000
  C   C1278     1.0  0.18013  0.68022  0.08812  1.0000
  H   H1571     1.0  0.24359  0.78365  0.18893  1.0000
  H   H1572     1.0  0.26487  0.68317  0.13729  1.0000
  H   H1573     1.0  0.16835  0.67275  0.14326  1.0000
  H   H1574     1.0  0.26195  0.70449  0.11775  1.0000
  H   H1575     1.0  0.47985  0.76873  0.15778  1.0000
  H   H1576     1.0  0.49837  0.86525  0.10095  1.0000
  H   H1577     1.0  0.32160  0.67174  0.11665  1.0000
  H   H1578     1.0  0.26288  0.68873  0.10924  1.0000
  C   C1279     1.0  0.22762  0.76736  0.18582  1.0000
  H   H1579     1.0  0.21522  0.76520  0.21799  1.0000
  H   H1580     1.0  0.22106  0.78385  0.20628  1.0000
  N   N83       1.0  0.39873  0.80751  0.17154  1.0000
  N   N84       1.0  0.37980  0.65707  0.17989  1.0000
  H   H1581     1.0  0.49714  0.95349  0.07259  1.0000
  H   H1582     1.0  0.23307  0.75871  0.15658  1.0000
  H   H1583     1.0  0.31042  0.66965  0.14880  1.0000
  H   H1584     1.0  0.18915  0.77059  0.20843  1.0000
  C   C1280     1.0  0.35459  0.85142  0.12574  1.0000
  C   C1281     1.0  0.35822  0.83969  0.13694  1.0000
  C   C1282     1.0  0.34407  0.83646  0.14741  1.0000
  C   C1283     1.0  0.32637  0.84538  0.14679  1.0000
  C   C1284     1.0  0.32295  0.85752  0.13572  1.0000
  C   C1285     1.0  0.33694  0.86034  0.12520  1.0000
  H   H1585     1.0  0.37181  0.83281  0.13745  1.0000
  H   H1586     1.0  0.34683  0.82704  0.15589  1.0000
  H   H1587     1.0  0.30934  0.86444  0.13519  1.0000
  H   H1588     1.0  0.33403  0.86936  0.11657  1.0000
  C   C1286     1.0  0.43911  0.78100  0.13290  1.0000
  C   C1287     1.0  0.43544  0.76595  0.14200  1.0000
  C   C1288     1.0  0.43479  0.75094  0.13827  1.0000
  C   C1289     1.0  0.43796  0.75080  0.12546  1.0000
  C   C1290     1.0  0.44168  0.76587  0.11635  1.0000
  C   C1291     1.0  0.44220  0.78100  0.12006  1.0000
  H   H1589     1.0  0.43287  0.76593  0.15195  1.0000
  H   H1590     1.0  0.43164  0.73955  0.14533  1.0000
  H   H1591     1.0  0.44428  0.76579  0.10641  1.0000
  H   H1592     1.0  0.44534  0.79250  0.11298  1.0000
  C   C1292     1.0  0.47879  0.90378  0.12182  1.0000
  C   C1293     1.0  0.47850  0.88602  0.12314  1.0000
  C   C1294     1.0  0.46214  0.88113  0.12479  1.0000
  C   C1295     1.0  0.44611  0.89398  0.12535  1.0000
  C   C1296     1.0  0.44652  0.91167  0.12404  1.0000
  C   C1297     1.0  0.46281  0.91658  0.12213  1.0000
  H   H1593     1.0  0.15384  0.75872  0.22237  1.0000
  H   H1594     1.0  0.46183  0.86739  0.12615  1.0000
  H   H1595     1.0  0.43417  0.92161  0.12458  1.0000
  H   H1596     1.0  0.46299  0.93030  0.12116  1.0000
  C   C1298     1.0  0.41861  0.89471  0.05308  1.0000
  C   C1299     1.0  0.41157  0.88191  0.06297  1.0000
  C   C1300     1.0  0.42245  0.86987  0.07088  1.0000
  C   C1301     1.0  0.44058  0.87019  0.06866  1.0000
  C   C1302     1.0  0.44778  0.88262  0.05852  1.0000
  C   C1303     1.0  0.43676  0.89503  0.05085  1.0000
  H   H1597     1.0  0.39771  0.88130  0.06450  1.0000
  H   H1598     1.0  0.41688  0.86012  0.07856  1.0000
  H   H1599     1.0  0.46181  0.88284  0.05670  1.0000
  S   S358      1.0  0.44714  0.96261  0.00670  1.0000
  H   H1600     1.0  0.15897  0.70012  0.07237  1.0000
  C   C1304     1.0  0.47774  0.96323  0.02944  1.0000
  H   H1601     1.0  0.48465  0.85009  0.11043  1.0000
  H   H1602     1.0  0.48638  0.93240  0.99860  1.0000
  C   C1305     1.0  0.15224  0.69163  0.08094  1.0000
  C   C1306     1.0  0.17838  0.71689  0.22199  1.0000
  C   C1307     1.0  0.39266  0.91311  0.09109  1.0000
  C   C1308     1.0  0.28031  0.78691  0.22285  1.0000
  C   C1309     1.0  0.22489  0.76092  0.17607  1.0000
  C   C1310     1.0  0.40094  0.91785  0.07812  1.0000
  C   C1311     1.0  0.20582  0.65960  0.12185  1.0000
  C   C1312     1.0  0.16217  0.74740  0.21864  1.0000
  H   H1603     1.0  0.39738  0.77231  0.17987  1.0000
  C   C1313     1.0  0.31508  0.68339  0.12050  1.0000
  H   H1604     1.0  0.19187  0.70675  0.20512  1.0000
  H   H1605     1.0  0.27812  0.85767  0.22023  1.0000
  C   C1314     1.0  0.33461  0.68150  0.15631  1.0000
  C   C1315     1.0  0.36642  0.80019  0.20376  1.0000
  C   C1316     1.0  0.41785  0.92201  0.07439  1.0000
  C   C1317     1.0  0.24794  0.77435  0.16067  1.0000
  C   C1318     1.0  0.48367  0.97675  0.03169  1.0000
  H   H1606     1.0  0.42401  0.92516  0.06442  1.0000
  C   C1319     1.0  0.18354  0.71808  0.20884  1.0000
  H   H1607     1.0  0.35821  0.69178  0.14629  1.0000
  C   C1320     1.0  0.41903  0.91767  0.09622  1.0000
  H   H1608     1.0  0.39941  0.83081  0.17730  1.0000
  H   H1609     1.0  0.49109  0.78707  0.13622  1.0000
  C   C1321     1.0  0.21733  0.66832  0.12420  1.0000
  N   N85       1.0  0.38171  0.78841  0.12413  1.0000
  C   C1322     1.0  0.38942  0.79477  0.13220  1.0000
  C   C1323     1.0  0.38056  0.76965  0.12984  1.0000
  C   C1324     1.0  0.39437  0.78873  0.11165  1.0000
  C   C1325     1.0  0.36367  0.79965  0.12333  1.0000
  C   C1326     1.0  0.34929  0.79888  0.13410  1.0000
  C   C1327     1.0  0.36008  0.81235  0.11224  1.0000
  C   C1328     1.0  0.33230  0.80973  0.13364  1.0000
  C   C1329     1.0  0.34304  0.82315  0.11191  1.0000
  C   C1330     1.0  0.32917  0.82179  0.12257  1.0000
  H   H1610     1.0  0.38065  0.79470  0.14177  1.0000
  H   H1611     1.0  0.40270  0.78631  0.13351  1.0000
  H   H1612     1.0  0.39118  0.80859  0.12799  1.0000
  H   H1613     1.0  0.39409  0.76072  0.12971  1.0000
  H   H1614     1.0  0.37341  0.76482  0.12467  1.0000
  H   H1615     1.0  0.37354  0.76766  0.13995  1.0000
  H   H1616     1.0  0.39766  0.80198  0.10738  1.0000
  H   H1617     1.0  0.40741  0.77934  0.11245  1.0000
  H   H1618     1.0  0.38888  0.78487  0.10494  1.0000
  H   H1619     1.0  0.35117  0.79035  0.14310  1.0000
  H   H1620     1.0  0.37032  0.81464  0.10379  1.0000
  H   H1621     1.0  0.32167  0.80936  0.14208  1.0000
  H   H1622     1.0  0.34075  0.83312  0.10349  1.0000
  H   H1623     1.0  0.31615  0.83060  0.12244  1.0000
  C   C1331     1.0  0.41806  0.80013  0.17130  1.0000
  C   C1332     1.0  0.28935  0.70494  0.12831  1.0000
  C   C1333     1.0  0.30072  0.71313  0.13119  1.0000
  H   H1624     1.0  0.37635  0.89919  0.07801  1.0000
  H   H1625     1.0  0.38110  0.67101  0.16041  1.0000
  H   H1626     1.0  0.35607  0.89750  0.11105  1.0000
  N   N86       1.0  0.28388  0.68157  0.11966  1.0000
  H   H1627     1.0  0.27510  0.71026  0.13079  1.0000
  H   H1628     1.0  0.29514  0.72453  0.13553  1.0000
  H   H1629     1.0  0.32786  0.71284  0.13113  1.0000
  H   H1630     1.0  0.20212  0.66809  0.07428  1.0000
  H   H1631     1.0  0.37473  0.82277  0.19137  1.0000
  S   S359      1.0  0.49887  0.91051  0.11967  1.0000
  C   C1334     1.0  0.31838  0.68322  0.16561  1.0000
  C   C1335     1.0  0.31417  0.69758  0.17176  1.0000
  H   H1632     1.0  0.29299  0.77671  0.22156  1.0000
  C   C1336     1.0  0.32563  0.70928  0.16886  1.0000
  H   H1633     1.0  0.03216  0.68589  0.99672  1.0000
  S   S360      1.0  0.22659  0.68859  0.13635  1.0000
  C   C1337     1.0  0.23508  0.76421  0.16375  1.0000
  H   H1634     1.0  0.04363  0.68546  0.00851  1.0000
  C   C1338     1.0  0.17082  0.66460  0.07555  1.0000
  C   C1339     1.0  0.19082  0.69438  0.10061  1.0000
  C   C1340     1.0  0.48996  0.94768  0.02707  1.0000
  H   H1635     1.0  0.42172  0.80167  0.17975  1.0000
  H   H1636     1.0  0.30191  0.70032  0.17870  1.0000
  H   H1637     1.0  0.21152  0.65823  0.16072  1.0000
  H   H1638     1.0  0.32198  0.72028  0.17358  1.0000
  H   H1639     1.0  0.35645  0.67819  0.17901  1.0000
  H   H1640     1.0  0.46864  0.75950  0.15028  1.0000
  H   H1641     1.0  0.34065  0.68633  0.12178  1.0000
  C   C1341     1.0  0.29089  0.67328  0.17906  1.0000
  H   H1642     1.0  0.20935  0.74109  0.21319  1.0000
  C   C1342     1.0  0.37511  0.89440  0.08838  1.0000
  C   C1343     1.0  0.37874  0.77223  0.19746  1.0000
  C   C1344     1.0  0.49586  0.84352  0.08715  1.0000
  H   H1643     1.0  0.21149  0.73908  0.19758  1.0000
  H   H1644     1.0  0.30203  0.67296  0.10327  1.0000
  C   C1345     1.0  0.48117  0.90061  0.08589  1.0000
  H   H1645     1.0  0.35025  0.71634  0.15752  1.0000
  N   N87       1.0  0.37488  0.90840  0.09478  1.0000
  C   C1346     1.0  0.32630  0.69165  0.12349  1.0000
  H   H1646     1.0  0.47231  0.75033  0.13214  1.0000
  H   H1647     1.0  0.36086  0.93521  0.09528  1.0000
  S   S361      1.0  0.40755  0.95240  0.01492  1.0000
  H   H1648     1.0  0.46366  0.96464  0.02989  1.0000
  H   H1649     1.0  0.28159  0.66286  0.13751  1.0000
  H   H1650     1.0  0.39831  0.78962  0.16035  1.0000
  H   H1651     1.0  0.37961  0.80812  0.16101  1.0000
  H   H1652     1.0  0.40090  0.65851  0.18804  1.0000
  S   S362      1.0  0.44629  0.66369  0.16111  1.0000
  H   H1653     1.0  0.34763  0.92137  0.09354  1.0000
  C   C1347     1.0  0.02882  0.65725  0.01529  1.0000
  H   H1654     1.0  0.48251  0.84008  0.09130  1.0000
  C   C1348     1.0  0.21209  0.68013  0.08464  1.0000
  C   C1349     1.0  0.16784  0.73159  0.22691  1.0000
  H   H1655     1.0  0.49286  0.85787  0.08280  1.0000
  H   H1656     1.0  0.35916  0.77574  0.21460  1.0000
  N   N88       1.0  0.30654  0.67061  0.16839  1.0000
  S   S363      1.0  0.20542  0.68888  0.17385  1.0000
  C   C1350     1.0  0.42692  0.92185  0.08342  1.0000
  C   C1351     1.0  0.29700  0.83264  0.22009  1.0000
  C   C1352     1.0  0.29328  0.66766  0.11229  1.0000
  H   H1657     1.0  0.29515  0.67204  0.18795  1.0000
  H   H1658     1.0  0.42663  0.80684  0.16275  1.0000
  N   N89       1.0  0.16510  0.67536  0.08538  1.0000
  C   C1353     1.0  0.20839  0.68952  0.09411  1.0000
  C   C1354     1.0  0.21150  0.67801  0.13377  1.0000
  H   H1659     1.0  0.37223  0.67473  0.12936  1.0000
  C   C1355     1.0  0.36906  0.90173  0.10861  1.0000
  S   S364      1.0  0.43060  0.94718  0.03655  1.0000
  N   N90       1.0  0.04511  0.65989  0.00536  1.0000
  H   H1660     1.0  0.15934  0.66070  0.07390  1.0000
  C   C1356     1.0  0.29620  0.69001  0.12263  1.0000
  H   H1661     1.0  0.44009  0.92493  0.08049  1.0000
  H   H1662     1.0  0.25605  0.77658  0.15117  1.0000
  C   C1357     1.0  0.38088  0.66208  0.13217  1.0000
  H   H1663     1.0  0.14095  0.68847  0.07849  1.0000
  C   C1358     1.0  0.34150  0.70713  0.15977  1.0000
  C   C1359     1.0  0.31915  0.70653  0.12877  1.0000
  H   H1664     1.0  0.28366  0.66194  0.10987  1.0000
  H   H1665     1.0  0.21483  0.75329  0.17787  1.0000
  H   H1666     1.0  0.39921  0.96546  0.98772  1.0000
  C   C1360     1.0  0.37650  0.80865  0.19265  1.0000
  H   H1667     1.0  0.36416  0.92935  0.08040  1.0000
  N   N91       1.0  0.21676  0.76358  0.19884  1.0000
  C   C1361     1.0  0.22291  0.76921  0.20819  1.0000
  C   C1362     1.0  0.19794  0.77305  0.19883  1.0000
  C   C1363     1.0  0.40209  0.91351  0.10006  1.0000
  S   S365      1.0  0.48262  0.93016  0.02523  1.0000
  H   H1668     1.0  0.40138  0.81088  0.15146  1.0000
  Fe  Fe182     1.0  0.43380  0.94500  0.00173  1.0000
  Fe  Fe183     1.0  0.45485  0.93939  0.02184  1.0000
  H   H1669     1.0  0.38132  0.83347  0.16949  1.0000
  C   C1364     1.0  0.19385  0.67942  0.14073  1.0000
  H   H1670     1.0  0.39703  0.91008  0.11015  1.0000
  H   H1671     1.0  0.49188  0.81920  0.10792  1.0000
  C   C1365     1.0  0.36698  0.67229  0.18465  1.0000
  C   C1366     1.0  0.30612  0.81765  0.22735  1.0000
  H   H1672     1.0  0.16355  0.69355  0.10324  1.0000
  C   C1367     1.0  0.28497  0.84598  0.22591  1.0000
  H   H1673     1.0  0.27910  0.70261  0.10358  1.0000
  C   C1368     1.0  0.49436  0.90957  0.08520  1.0000
  C   C1369     1.0  0.19823  0.67556  0.08160  1.0000
  C   C1370     1.0  0.18210  0.67131  0.13802  1.0000
  H   H1674     1.0  0.27624  0.75408  0.23379  1.0000
  H   H1675     1.0  0.49773  0.88267  0.00542  1.0000
  H   H1676     1.0  0.06352  0.65853  0.01691  1.0000
  H   H1677     1.0  0.47540  0.72463  0.12359  1.0000
  H   H1678     1.0  0.33850  0.67118  0.15099  1.0000
  C   C1371     1.0  0.47631  0.90039  0.07494  1.0000
  H   H1679     1.0  0.39722  0.67398  0.16753  1.0000
  C   C1372     1.0  0.49170  0.92593  0.99036  1.0000
  H   H1680     1.0  0.28253  0.66330  0.18111  1.0000
  H   H1681     1.0  0.18806  0.70119  0.10827  1.0000
  C   C1373     1.0  0.49712  0.69605  0.16124  1.0000
  H   H1682     1.0  0.23208  0.78285  0.23456  1.0000
  H   H1683     1.0  0.38391  0.94399  0.98612  1.0000
  H   H1684     1.0  0.01079  0.66334  0.00232  1.0000
  H   H1685     1.0  0.17724  0.67192  0.06626  1.0000
  C   C1374     1.0  0.01213  0.65957  0.01203  1.0000
  H   H1686     1.0  0.14616  0.69973  0.08824  1.0000
  C   C1375     1.0  0.49062  0.89678  0.00341  1.0000
  H   H1687     1.0  0.28415  0.79944  0.22225  1.0000
  H   H1688     1.0  0.18269  0.70459  0.22835  1.0000
  C   C1376     1.0  0.17688  0.68984  0.09769  1.0000
  H   H1689     1.0  0.28174  0.68642  0.17691  1.0000
  H   H1690     1.0  0.48567  0.98604  0.99748  1.0000
  H   H1691     1.0  0.29042  0.66334  0.15883  1.0000
  C   C1377     1.0  0.48497  0.74095  0.13152  1.0000
  H   H1692     1.0  0.36017  0.66853  0.19471  1.0000
  H   H1693     1.0  0.48002  0.92605  0.98665  1.0000
  C   C1378     1.0  0.34597  0.69328  0.15349  1.0000
  H   H1694     1.0  0.37382  0.68296  0.18415  1.0000
  C   C1379     1.0  0.49245  0.77531  0.13233  1.0000
  H   H1695     1.0  0.14889  0.67262  0.10450  1.0000
  C   C1380     1.0  0.15568  0.66488  0.09705  1.0000
  S   S366      1.0  0.49665  0.66999  0.14961  1.0000
  C   C1381     1.0  0.04427  0.67911  0.00071  1.0000
  C   C1382     1.0  0.39001  0.66412  0.16716  1.0000
  C   C1383     1.0  0.48314  0.98683  0.98837  1.0000
  Fe  Fe184     1.0  0.39502  0.95825  0.40769  1.0000
  S   S367      1.0  0.37587  0.93990  0.41729  1.0000
  S   S368      1.0  0.42436  0.94734  0.39984  1.0000
  C   C1384     1.0  0.30294  0.81595  0.24046  1.0000
  H   H1696     1.0  0.01912  0.78656  0.30813  1.0000
  H   H1697     1.0  0.17276  0.89329  0.26499  1.0000
  Fe  Fe185     1.0  0.36729  0.95608  0.43222  1.0000
  S   S369      1.0  0.36155  0.94606  0.45341  1.0000
  Fe  Fe186     1.0  0.35613  0.96077  0.40703  1.0000
  S   S370      1.0  0.33213  0.96002  0.40000  1.0000
  S   S371      1.0  0.38731  0.97310  0.42326  1.0000
  S   S372      1.0  0.37596  0.97776  0.39614  1.0000
  H   H1698     1.0  0.08436  0.71917  0.28917  1.0000
  S   S373      1.0  0.05567  0.73721  0.32788  1.0000
  S   S374      1.0  0.03766  0.76057  0.35547  1.0000
  Fe  Fe187     1.0  0.15415  0.76861  0.27323  1.0000
  S   S375      1.0  0.14157  0.77375  0.25669  1.0000
  S   S376      1.0  0.13748  0.77065  0.29254  1.0000
  Fe  Fe188     1.0  0.19171  0.76559  0.25717  1.0000
  C   C1385     1.0  0.22163  0.82480  0.23865  1.0000
  S   S377      1.0  0.22063  0.75851  0.25813  1.0000
  Fe  Fe189     1.0  0.16078  0.79160  0.24718  1.0000
  S   S378      1.0  0.18264  0.77071  0.23904  1.0000
  Fe  Fe190     1.0  0.16435  0.75235  0.25018  1.0000
  S   S379      1.0  0.17168  0.78822  0.26417  1.0000
  S   S380      1.0  0.17518  0.74550  0.26777  1.0000
  Fe  Fe191     1.0  0.03457  0.85419  0.30365  1.0000
  S   S381      1.0  0.05213  0.85505  0.31624  1.0000
  C   C1386     1.0  0.20393  0.97957  0.37326  1.0000
  Fe  Fe192     1.0  0.06550  0.85203  0.28095  1.0000
  S   S382      1.0  0.08556  0.85181  0.29148  1.0000
  S   S383      1.0  0.07231  0.85410  0.25998  1.0000
  Fe  Fe193     1.0  0.07121  0.83350  0.30718  1.0000
  S   S384      1.0  0.08763  0.80974  0.31770  1.0000
  Fe  Fe194     1.0  0.06523  0.87355  0.29956  1.0000
  S   S385      1.0  0.07777  0.89697  0.29681  1.0000
  S   S386      1.0  0.05306  0.83131  0.29577  1.0000
  S   S387      1.0  0.04575  0.87497  0.28785  1.0000
  Fe  Fe195     1.0  0.12251  0.93543  0.33497  1.0000
  S   S388      1.0  0.12709  0.96042  0.32070  1.0000
  S   S389      1.0  0.10132  0.91933  0.33892  1.0000
  Fe  Fe196     1.0  0.15525  0.93220  0.34554  1.0000
  S   S390      1.0  0.16307  0.95642  0.33207  1.0000
  S   S391      1.0  0.16883  0.91360  0.36075  1.0000
  Fe  Fe197     1.0  0.13369  0.96869  0.33623  1.0000
  N   N92       1.0  0.47048  0.92844  0.47780  1.0000
  Fe  Fe198     1.0  0.15600  0.94650  0.31766  1.0000
  S   S392      1.0  0.17419  0.94728  0.29850  1.0000
  S   S393      1.0  0.12624  0.94507  0.35090  1.0000
  S   S394      1.0  0.15107  0.92094  0.33077  1.0000
  Fe  Fe199     1.0  0.24180  0.82322  0.28765  1.0000
  S   S395      1.0  0.22955  0.84074  0.27165  1.0000
  S   S396      1.0  0.24242  0.79407  0.29367  1.0000
  Fe  Fe200     1.0  0.25193  0.85368  0.29377  1.0000
  S   S397      1.0  0.24032  0.87366  0.27827  1.0000
  S   S398      1.0  0.26463  0.85927  0.30767  1.0000
  Fe  Fe201     1.0  0.21757  0.85948  0.28473  1.0000
  S   S399      1.0  0.18800  0.87122  0.28818  1.0000
  Fe  Fe202     1.0  0.25345  0.85296  0.26662  1.0000
  S   S400      1.0  0.04141  0.67106  0.36839  1.0000
  S   S401      1.0  0.22807  0.84103  0.30122  1.0000
  S   S402      1.0  0.26688  0.83385  0.28166  1.0000
  Fe  Fe203     1.0  0.26051  0.93371  0.35474  1.0000
  S   S403      1.0  0.25405  0.95310  0.33726  1.0000
  S   S404      1.0  0.24164  0.91953  0.37033  1.0000
  Fe  Fe204     1.0  0.29932  0.93762  0.34834  1.0000
  S   S405      1.0  0.29623  0.95633  0.32978  1.0000
  S   S406      1.0  0.32582  0.93107  0.35450  1.0000
  Fe  Fe205     1.0  0.27041  0.96902  0.34109  1.0000
  H   H1699     1.0  0.28624  0.86071  0.26428  1.0000
  Fe  Fe206     1.0  0.28035  0.93830  0.32764  1.0000
  S   S407      1.0  0.28052  0.93213  0.30906  1.0000
  S   S408      1.0  0.27402  0.95113  0.35965  1.0000
  S   S409      1.0  0.28614  0.91814  0.34508  1.0000
  H   H1700     1.0  0.12457  0.89602  0.24154  1.0000
  C   C1387     1.0  0.01828  0.85015  0.24660  1.0000
  N   N93       1.0  0.15231  0.96689  0.37927  1.0000
  H   H1701     1.0  0.01216  0.70781  0.29851  1.0000
  H   H1702     1.0  0.14107  0.87590  0.24444  1.0000
  H   H1703     1.0  0.00971  0.86024  0.24053  1.0000
  C   C1388     1.0  0.09233  0.73652  0.26525  1.0000
  H   H1704     1.0  0.00663  0.67764  0.30767  1.0000
  C   C1389     1.0  0.00383  0.86467  0.26479  1.0000
  H   H1705     1.0  0.11929  0.87482  0.24380  1.0000
  S   S410      1.0  0.00468  0.85482  0.31046  1.0000
  H   H1706     1.0  0.28297  0.78925  0.24517  1.0000
  H   H1707     1.0  0.07453  0.76690  0.30760  1.0000
  H   H1708     1.0  0.39833  0.94958  0.44366  1.0000
  H   H1709     1.0  0.00303  0.66966  0.34377  1.0000
  H   H1710     1.0  0.20082  0.97495  0.31956  1.0000
  H   H1711     1.0  0.00994  0.67314  0.38823  1.0000
  H   H1712     1.0  0.27843  0.90865  0.25428  1.0000
  H   H1713     1.0  0.28812  0.82753  0.25645  1.0000
  C   C1390     1.0  0.26793  0.87999  0.30813  1.0000
  C   C1391     1.0  0.26349  0.89537  0.29912  1.0000
  C   C1392     1.0  0.26730  0.91133  0.29950  1.0000
  C   C1393     1.0  0.27509  0.91214  0.30910  1.0000
  C   C1394     1.0  0.27891  0.89688  0.31835  1.0000
  C   C1395     1.0  0.27551  0.88087  0.31779  1.0000
  H   H1714     1.0  0.25732  0.89495  0.29180  1.0000
  H   H1715     1.0  0.26418  0.92311  0.29237  1.0000
  H   H1716     1.0  0.28495  0.89729  0.32576  1.0000
  H   H1717     1.0  0.27892  0.86904  0.32482  1.0000
  H   H1718     1.0  0.30417  0.85722  0.27190  1.0000
  C   C1396     1.0  0.47014  0.94623  0.47943  1.0000
  C   C1397     1.0  0.05060  0.66346  0.38196  1.0000
  H   H1719     1.0  0.33406  0.96929  0.32835  1.0000
  C   C1398     1.0  0.45818  0.94546  0.40313  1.0000
  H   H1720     1.0  0.11553  0.71483  0.35511  1.0000
  C   C1399     1.0  0.28163  0.84417  0.23905  1.0000
  S   S411      1.0  0.26661  0.86112  0.24612  1.0000
  H   H1721     1.0  0.01592  0.75641  0.32968  1.0000
  C   C1400     1.0  0.17711  0.92713  0.29432  1.0000
  C   C1401     1.0  0.19291  0.92068  0.28622  1.0000
  C   C1402     1.0  0.19612  0.90363  0.28402  1.0000
  C   C1403     1.0  0.18361  0.89301  0.29003  1.0000
  C   C1404     1.0  0.16753  0.89975  0.29774  1.0000
  C   C1405     1.0  0.16421  0.91685  0.29979  1.0000
  H   H1722     1.0  0.20282  0.92871  0.28187  1.0000
  H   H1723     1.0  0.20822  0.89879  0.27766  1.0000
  H   H1724     1.0  0.15775  0.89173  0.30233  1.0000
  H   H1725     1.0  0.15164  0.92212  0.30559  1.0000
  C   C1406     1.0  0.18945  0.91551  0.36256  1.0000
  C   C1407     1.0  0.19575  0.90499  0.37324  1.0000
  C   C1408     1.0  0.21181  0.90631  0.37541  1.0000
  C   C1409     1.0  0.22188  0.91801  0.36684  1.0000
  C   C1410     1.0  0.21567  0.92857  0.35607  1.0000
  C   C1411     1.0  0.19940  0.92736  0.35394  1.0000
  H   H1726     1.0  0.18808  0.89585  0.37995  1.0000
  H   H1727     1.0  0.21644  0.89819  0.38377  1.0000
  H   H1728     1.0  0.22319  0.93785  0.34951  1.0000
  H   H1729     1.0  0.19461  0.93553  0.34565  1.0000
  C   C1412     1.0  0.08402  0.90300  0.30873  1.0000
  C   C1413     1.0  0.09467  0.91565  0.30515  1.0000
  C   C1414     1.0  0.10041  0.92052  0.31426  1.0000
  C   C1415     1.0  0.09509  0.91310  0.32708  1.0000
  C   C1416     1.0  0.08428  0.90056  0.33067  1.0000
  C   C1417     1.0  0.07887  0.89542  0.32154  1.0000
  H   H1730     1.0  0.09841  0.92182  0.29530  1.0000
  H   H1731     1.0  0.10857  0.93032  0.31140  1.0000
  H   H1732     1.0  0.07998  0.89490  0.34060  1.0000
  H   H1733     1.0  0.07049  0.88581  0.32443  1.0000
  C   C1418     1.0  0.22645  0.76899  0.26774  1.0000
  C   C1419     1.0  0.23990  0.75965  0.27437  1.0000
  C   C1420     1.0  0.24479  0.76754  0.28221  1.0000
  C   C1421     1.0  0.23668  0.78504  0.28315  1.0000
  C   C1422     1.0  0.22339  0.79456  0.27637  1.0000
  C   C1423     1.0  0.21816  0.78647  0.26874  1.0000
  H   H1734     1.0  0.24635  0.74614  0.27361  1.0000
  H   H1735     1.0  0.25496  0.76010  0.28751  1.0000
  H   H1736     1.0  0.21685  0.80797  0.27723  1.0000
  H   H1737     1.0  0.20789  0.79382  0.26354  1.0000
  C   C1424     1.0  0.09420  0.84369  0.25375  1.0000
  H   H1738     1.0  0.28822  0.76636  0.24534  1.0000
  H   H1739     1.0  0.35549  0.97428  0.35107  1.0000
  C   C1425     1.0  0.12947  0.82817  0.24322  1.0000
  C   C1426     1.0  0.12198  0.82217  0.25601  1.0000
  C   C1427     1.0  0.10437  0.83004  0.26131  1.0000
  S   S412      1.0  0.01497  0.72712  0.31983  1.0000
  C   C1428     1.0  0.00289  0.83379  0.29522  1.0000
  H   H1740     1.0  0.12982  0.81161  0.26184  1.0000
  H   H1741     1.0  0.09870  0.82561  0.27122  1.0000
  H   H1742     1.0  0.32152  0.90250  0.38182  1.0000
  C   C1429     1.0  0.11416  0.75371  0.31131  1.0000
  H   H1743     1.0  0.15639  0.91926  0.27425  1.0000
  H   H1744     1.0  0.09455  0.74085  0.32543  1.0000
  H   H1745     1.0  0.10804  0.76665  0.31338  1.0000
  C   C1430     1.0  0.05156  0.77465  0.34566  1.0000
  C   C1431     1.0  0.04411  0.79208  0.34031  1.0000
  C   C1432     1.0  0.05515  0.80289  0.33161  1.0000
  C   C1433     1.0  0.07370  0.79649  0.32869  1.0000
  C   C1434     1.0  0.08117  0.77929  0.33444  1.0000
  C   C1435     1.0  0.07007  0.76820  0.34264  1.0000
  H   H1746     1.0  0.02979  0.79709  0.34269  1.0000
  H   H1747     1.0  0.04931  0.81623  0.32729  1.0000
  H   H1748     1.0  0.09552  0.77447  0.33248  1.0000
  H   H1749     1.0  0.07585  0.75475  0.34681  1.0000
  H   H1750     1.0  0.09532  0.79574  0.27089  1.0000
  H   H1751     1.0  0.35843  0.98401  0.31574  1.0000
  C   C1436     1.0  0.31321  0.91020  0.28486  1.0000
  H   H1752     1.0  0.08077  0.79490  0.29347  1.0000
  H   H1753     1.0  0.44177  0.97644  0.45248  1.0000
  H   H1754     1.0  0.13548  0.70775  0.30303  1.0000
  C   C1437     1.0  0.27711  0.89562  0.26064  1.0000
  H   H1755     1.0  0.18978  0.77518  0.28737  1.0000
  C   C1438     1.0  0.09102  0.66567  0.35264  1.0000
  H   H1756     1.0  0.01727  0.83183  0.29243  1.0000
  H   H1757     1.0  0.15883  0.94257  0.39279  1.0000
  H   H1758     1.0  0.42171  0.97824  0.40908  1.0000
  C   C1439     1.0  0.33141  0.95323  0.38651  1.0000
  C   C1440     1.0  0.34659  0.94419  0.37923  1.0000
  C   C1441     1.0  0.34482  0.93773  0.36925  1.0000
  C   C1442     1.0  0.32796  0.94048  0.36641  1.0000
  C   C1443     1.0  0.31303  0.95020  0.37335  1.0000
  C   C1444     1.0  0.31471  0.95638  0.38340  1.0000
  H   H1759     1.0  0.35952  0.94162  0.38158  1.0000
  H   H1760     1.0  0.35648  0.93022  0.36393  1.0000
  H   H1761     1.0  0.30009  0.95272  0.37118  1.0000
  H   H1762     1.0  0.30293  0.96345  0.38892  1.0000
  H   H1763     1.0  0.14876  0.73363  0.29103  1.0000
  H   H1764     1.0  0.46219  0.93327  0.39977  1.0000
  H   H1765     1.0  0.07756  0.73881  0.26893  1.0000
  H   H1766     1.0  0.48958  0.90383  0.47669  1.0000
  H   H1767     1.0  0.48019  0.95272  0.47203  1.0000
  H   H1768     1.0  0.21046  0.76444  0.30157  1.0000
  C   C1445     1.0  0.18034  0.78311  0.29414  1.0000
  C   C1446     1.0  0.30740  0.88289  0.25122  1.0000
  H   H1769     1.0  0.18323  0.79660  0.29135  1.0000
  C   C1447     1.0  0.47094  0.95178  0.40635  1.0000
  H   H1770     1.0  0.12424  0.97873  0.37958  1.0000
  C   C1448     1.0  0.31135  0.89275  0.28963  1.0000
  Fe  Fe207     1.0  0.07525  0.71190  0.33313  1.0000
  H   H1771     1.0  0.23043  0.95049  0.31637  1.0000
  H   H1772     1.0  0.28915  0.97973  0.35470  1.0000
  H   H1773     1.0  0.02179  0.69177  0.33453  1.0000
  C   C1449     1.0  0.03190  0.84321  0.26440  1.0000
  H   H1774     1.0  0.16670  0.78439  0.29276  1.0000
  H   H1775     1.0  0.13538  0.95158  0.39400  1.0000
  C   C1450     1.0  0.47712  0.93727  0.45402  1.0000
  C   C1451     1.0  0.13711  0.98252  0.37861  1.0000
  C   C1452     1.0  0.11396  0.72262  0.31491  1.0000
  H   H1776     1.0  0.48186  0.94446  0.43364  1.0000
  C   C1453     1.0  0.13699  0.73522  0.29853  1.0000
  H   H1777     1.0  0.16174  0.94403  0.37067  1.0000
  H   H1778     1.0  0.10963  0.68162  0.39231  1.0000
  C   C1454     1.0  0.30549  0.88416  0.28276  1.0000
  H   H1779     1.0  0.02508  0.77404  0.32984  1.0000
  S   S413      1.0  0.05671  0.69466  0.33421  1.0000
  H   H1780     1.0  0.06172  0.68622  0.37916  1.0000
  C   C1455     1.0  0.46579  0.96773  0.41046  1.0000
  C   C1456     1.0  0.16988  0.97152  0.37715  1.0000
  C   C1457     1.0  0.36117  0.98445  0.32483  1.0000
  C   C1458     1.0  0.10164  0.84949  0.24098  1.0000
  H   H1781     1.0  0.31373  0.88608  0.29898  1.0000
  H   H1782     1.0  0.32074  0.87489  0.25285  1.0000
  H   H1783     1.0  0.00090  0.81861  0.28271  1.0000
  H   H1784     1.0  0.48471  0.94452  0.40543  1.0000
  H   H1785     1.0  0.09508  0.74761  0.25709  1.0000
  C   C1459     1.0  0.11369  0.70224  0.36137  1.0000
  C   C1460     1.0  0.45110  0.92457  0.46442  1.0000
  H   H1786     1.0  0.28159  0.86690  0.27917  1.0000
  S   S414      1.0  0.34589  0.97521  0.42299  1.0000
  C   C1461     1.0  0.29151  0.86658  0.27003  1.0000
  H   H1787     1.0  0.13921  0.95480  0.37034  1.0000
  S   S415      1.0  0.02599  0.71985  0.35152  1.0000
  N   N94       1.0  0.29449  0.88455  0.26337  1.0000
  C   C1462     1.0  0.14861  0.95521  0.39195  1.0000
  H   H1788     1.0  0.31095  0.93268  0.26943  1.0000
  S   S416      1.0  0.48070  0.97733  0.41417  1.0000
  H   H1789     1.0  0.23993  0.83904  0.24034  1.0000
  H   H1790     1.0  0.38034  0.98966  0.47332  1.0000
  H   H1791     1.0  0.11252  0.69142  0.34647  1.0000
  S   S417      1.0  0.06810  0.71135  0.35398  1.0000
  H   H1792     1.0  0.03127  0.84555  0.24029  1.0000
  C   C1463     1.0  0.17368  0.79464  0.32314  1.0000
  C   C1464     1.0  0.16072  0.80444  0.33132  1.0000
  C   C1465     1.0  0.13724  0.79683  0.32543  1.0000
  C   C1466     1.0  0.14255  0.80546  0.33250  1.0000
  H   H1793     1.0  0.18750  0.79448  0.32265  1.0000
  H   H1794     1.0  0.16482  0.81117  0.33684  1.0000
  H   H1795     1.0  0.12307  0.79772  0.32624  1.0000
  H   H1796     1.0  0.13253  0.81290  0.33892  1.0000
  C   C1467     1.0  0.38608  0.95105  0.47919  1.0000
  H   H1797     1.0  0.31697  0.91702  0.29050  1.0000
  C   C1468     1.0  0.29054  0.82905  0.24633  1.0000
  H   H1798     1.0  0.09664  0.72430  0.26136  1.0000
  C   C1469     1.0  0.09783  0.76792  0.27243  1.0000
  H   H1799     1.0  0.10428  0.76894  0.26256  1.0000
  N   N95       1.0  0.13120  0.85969  0.30862  1.0000
  C   C1470     1.0  0.14596  0.85740  0.31503  1.0000
  C   C1471     1.0  0.12914  0.87735  0.29997  1.0000
  C   C1472     1.0  0.11439  0.85956  0.31850  1.0000
  C   C1473     1.0  0.13545  0.84576  0.30128  1.0000
  C   C1474     1.0  0.12410  0.83389  0.30324  1.0000
  C   C1475     1.0  0.15129  0.84395  0.29165  1.0000
  C   C1476     1.0  0.12823  0.82128  0.29584  1.0000
  C   C1477     1.0  0.15534  0.83121  0.28436  1.0000
  C   C1478     1.0  0.14370  0.82004  0.28638  1.0000
  H   H1800     1.0  0.15879  0.85909  0.30823  1.0000
  H   H1801     1.0  0.14292  0.86736  0.32097  1.0000
  H   H1802     1.0  0.14841  0.84400  0.32124  1.0000
  H   H1803     1.0  0.14150  0.87902  0.29263  1.0000
  H   H1804     1.0  0.12598  0.88818  0.30517  1.0000
  H   H1805     1.0  0.11798  0.87973  0.29509  1.0000
  H   H1806     1.0  0.10248  0.86224  0.31428  1.0000
  H   H1807     1.0  0.11496  0.84675  0.32551  1.0000
  H   H1808     1.0  0.11173  0.87007  0.32392  1.0000
  H   H1809     1.0  0.11183  0.83406  0.31038  1.0000
  H   H1810     1.0  0.16061  0.85248  0.28962  1.0000
  H   H1811     1.0  0.11936  0.81232  0.29749  1.0000
  H   H1812     1.0  0.16750  0.83009  0.27705  1.0000
  H   H1813     1.0  0.14658  0.81031  0.28068  1.0000
  H   H1814     1.0  0.30269  0.87630  0.24557  1.0000
  C   C1479     1.0  0.29918  0.91066  0.39711  1.0000
  C   C1480     1.0  0.29573  0.91570  0.40885  1.0000
  C   C1481     1.0  0.31745  0.90634  0.39084  1.0000
  C   C1482     1.0  0.30962  0.91711  0.41370  1.0000
  C   C1483     1.0  0.33123  0.90751  0.39589  1.0000
  C   C1484     1.0  0.32732  0.91311  0.40719  1.0000
  H   H1815     1.0  0.26975  0.89760  0.40998  1.0000
  H   H1816     1.0  0.28225  0.91882  0.41431  1.0000
  H   H1817     1.0  0.30669  0.92157  0.42245  1.0000
  H   H1818     1.0  0.34504  0.90465  0.39077  1.0000
  H   H1819     1.0  0.33802  0.91469  0.41079  1.0000
  N   N96       1.0  0.21264  0.88705  0.32687  1.0000
  C   C1485     1.0  0.22409  0.87241  0.33431  1.0000
  C   C1486     1.0  0.19382  0.88801  0.33395  1.0000
  C   C1487     1.0  0.21451  0.88238  0.31463  1.0000
  C   C1488     1.0  0.21731  0.90444  0.32452  1.0000
  C   C1489     1.0  0.23138  0.90681  0.32900  1.0000
  C   C1490     1.0  0.20772  0.91969  0.31739  1.0000
  C   C1491     1.0  0.23581  0.92331  0.32616  1.0000
  C   C1492     1.0  0.21235  0.93612  0.31453  1.0000
  C   C1493     1.0  0.22650  0.93789  0.31881  1.0000
  H   H1820     1.0  0.22270  0.87475  0.34388  1.0000
  H   H1821     1.0  0.22047  0.85947  0.33572  1.0000
  H   H1822     1.0  0.23845  0.87071  0.32938  1.0000
  H   H1823     1.0  0.19150  0.89291  0.34274  1.0000
  H   H1824     1.0  0.19007  0.87492  0.33669  1.0000
  H   H1825     1.0  0.18424  0.89707  0.32826  1.0000
  H   H1826     1.0  0.21158  0.86916  0.31599  1.0000
  H   H1827     1.0  0.20520  0.89191  0.30888  1.0000
  H   H1828     1.0  0.22836  0.88216  0.30883  1.0000
  H   H1829     1.0  0.23940  0.89612  0.33458  1.0000
  H   H1830     1.0  0.19665  0.91899  0.31386  1.0000
  H   H1831     1.0  0.24688  0.92464  0.32943  1.0000
  H   H1832     1.0  0.20499  0.94743  0.30882  1.0000
  C   C1494     1.0  0.45851  0.93340  0.44158  1.0000
  N   N97       1.0  0.12040  0.88152  0.26084  1.0000
  C   C1495     1.0  0.10062  0.88789  0.26341  1.0000
  C   C1496     1.0  0.12663  0.88212  0.24707  1.0000
  C   C1497     1.0  0.12432  0.86285  0.26776  1.0000
  C   C1498     1.0  0.12993  0.89199  0.26470  1.0000
  C   C1499     1.0  0.12091  0.90673  0.27039  1.0000
  C   C1500     1.0  0.14890  0.88740  0.26289  1.0000
  C   C1501     1.0  0.13046  0.91643  0.27371  1.0000
  C   C1502     1.0  0.15826  0.89711  0.26635  1.0000
  C   C1503     1.0  0.14907  0.91168  0.27165  1.0000
  H   H1833     1.0  0.09659  0.90179  0.25829  1.0000
  H   H1834     1.0  0.09386  0.87976  0.26039  1.0000
  H   H1835     1.0  0.09488  0.88705  0.27369  1.0000
  H   H1836     1.0  0.37043  0.97177  0.32797  1.0000
  N   N98       1.0  0.34432  0.98727  0.33445  1.0000
  C   C1504     1.0  0.00803  0.69524  0.33362  1.0000
  H   H1837     1.0  0.12097  0.86193  0.27814  1.0000
  H   H1838     1.0  0.11639  0.85485  0.26584  1.0000
  H   H1839     1.0  0.13858  0.85620  0.26502  1.0000
  H   H1840     1.0  0.10647  0.91101  0.27246  1.0000
  H   H1841     1.0  0.15667  0.87624  0.25879  1.0000
  H   H1842     1.0  0.45816  0.98291  0.46424  1.0000
  H   H1843     1.0  0.21474  0.95203  0.37331  1.0000
  C   C1505     1.0  0.08619  0.75151  0.29318  1.0000
  N   N99       1.0  0.28417  0.90995  0.39195  1.0000
  H   H1844     1.0  0.26349  0.92921  0.40112  1.0000
  C   C1506     1.0  0.09259  0.78342  0.27709  1.0000
  C   C1507     1.0  0.08427  0.78301  0.28974  1.0000
  C   C1508     1.0  0.43527  0.97065  0.40848  1.0000
  C   C1509     1.0  0.27535  0.89553  0.40017  1.0000
  H   H1845     1.0  0.10635  0.65795  0.38433  1.0000
  C   C1510     1.0  0.08077  0.76717  0.29770  1.0000
  C   C1511     1.0  0.44026  0.95489  0.40424  1.0000
  C   C1512     1.0  0.15007  0.78702  0.31726  1.0000
  C   C1513     1.0  0.09523  0.75138  0.28040  1.0000
  H   H1846     1.0  0.26020  0.92758  0.38656  1.0000
  H   H1847     1.0  0.27727  0.93835  0.38662  1.0000
  C   C1514     1.0  0.39459  0.95053  0.45343  1.0000
  H   H1848     1.0  0.34481  0.95925  0.34117  1.0000
  S   S418      1.0  0.10356  0.70461  0.32222  1.0000
  C   C1515     1.0  0.16871  0.78539  0.31596  1.0000
  H   H1849     1.0  0.16561  0.75649  0.30830  1.0000
  C   C1516     1.0  0.27075  0.92698  0.39157  1.0000
  H   H1850     1.0  0.29681  0.91696  0.37229  1.0000
  H   H1851     1.0  0.16042  0.98639  0.34207  1.0000
  H   H1852     1.0  0.14860  0.96178  0.39947  1.0000
  C   C1517     1.0  0.27693  0.77815  0.24551  1.0000
  H   H1853     1.0  0.20314  0.76657  0.31770  1.0000
  H   H1854     1.0  0.14516  0.78074  0.31193  1.0000
  H   H1855     1.0  0.01211  0.83838  0.25076  1.0000
  C   C1518     1.0  0.28988  0.90664  0.37893  1.0000
  H   H1856     1.0  0.41967  0.95610  0.45313  1.0000
  H   H1857     1.0  0.46451  0.97835  0.44410  1.0000
  H   H1858     1.0  0.07875  0.67114  0.35916  1.0000
  N   N100      1.0  0.02085  0.85755  0.25656  1.0000
  H   H1859     1.0  0.29897  0.89345  0.37856  1.0000
  H   H1860     1.0  0.32305  0.97329  0.34397  1.0000
  N   N101      1.0  0.18199  0.77468  0.30733  1.0000
  C   C1519     1.0  0.17855  0.75657  0.31031  1.0000
  C   C1520     1.0  0.20087  0.77283  0.30800  1.0000
  C   C1521     1.0  0.30965  0.91903  0.27303  1.0000
  H   H1861     1.0  0.26403  0.89454  0.39650  1.0000
  H   H1862     1.0  0.30997  0.80437  0.24613  1.0000
  H   H1863     1.0  0.20495  0.78582  0.30492  1.0000
  N   N102      1.0  0.10176  0.73504  0.27531  1.0000
  C   C1522     1.0  0.40688  0.95377  0.45892  1.0000
  H   H1864     1.0  0.28502  0.88252  0.40075  1.0000
  H   H1865     1.0  0.17828  0.75021  0.32045  1.0000
  C   C1523     1.0  0.47330  0.93890  0.44228  1.0000
  H   H1866     1.0  0.04496  0.83758  0.25861  1.0000
  C   C1524     1.0  0.25322  0.81266  0.23782  1.0000
  H   H1867     1.0  0.12455  0.74301  0.26118  1.0000
  C   C1525     1.0  0.44798  0.97703  0.41147  1.0000
  C   C1526     1.0  0.03101  0.87172  0.25012  1.0000
  H   H1868     1.0  0.12708  0.71985  0.26671  1.0000
  H   H1869     1.0  0.00348  0.69566  0.37276  1.0000
  H   H1870     1.0  0.02490  0.83220  0.26931  1.0000
  H   H1871     1.0  0.27827  0.90678  0.37511  1.0000
  Fe  Fe208     1.0  0.04796  0.69592  0.35471  1.0000
  C   C1527     1.0  0.46613  0.93003  0.46548  1.0000
  H   H1872     1.0  0.36050  0.94639  0.47920  1.0000
  C   C1528     1.0  0.44751  0.92616  0.45262  1.0000
  C   C1529     1.0  0.09885  0.71875  0.28500  1.0000
  C   C1530     1.0  0.10646  0.73915  0.31803  1.0000
  C   C1531     1.0  0.21973  0.80895  0.23690  1.0000
  C   C1532     1.0  0.12130  0.73268  0.26977  1.0000
  H   H1873     1.0  0.30372  0.87088  0.28731  1.0000
  C   C1533     1.0  0.30398  0.91052  0.26599  1.0000
  H   H1874     1.0  0.29743  0.98895  0.40483  1.0000
  C   C1534     1.0  0.11287  0.69969  0.37424  1.0000
  H   H1875     1.0  0.45667  0.95501  0.47916  1.0000
  C   C1535     1.0  0.10848  0.66998  0.37750  1.0000
  C   C1536     1.0  0.06029  0.67333  0.38495  1.0000
  H   H1876     1.0  0.37364  0.98654  0.45423  1.0000
  H   H1877     1.0  0.43586  0.92208  0.45203  1.0000
  C   C1537     1.0  0.23836  0.82667  0.23907  1.0000
  H   H1878     1.0  0.10580  0.71673  0.29279  1.0000
  H   H1879     1.0  0.44818  0.97948  0.43574  1.0000
  C   C1538     1.0  0.45005  0.98348  0.44391  1.0000
  H   H1880     1.0  0.08360  0.73965  0.30002  1.0000
  C   C1539     1.0  0.37351  0.94832  0.47357  1.0000
  H   H1881     1.0  0.09382  0.86000  0.23511  1.0000
  H   H1882     1.0  0.27093  0.88914  0.25583  1.0000
  H   H1883     1.0  0.18898  0.74788  0.30448  1.0000
  C   C1540     1.0  0.12951  0.72057  0.30538  1.0000
  H   H1884     1.0  0.11406  0.71027  0.37801  1.0000
  H   H1885     1.0  0.45551  0.93480  0.43246  1.0000
  C   C1541     1.0  0.37769  0.94825  0.46062  1.0000
  H   H1886     1.0  0.03512  0.84796  0.27176  1.0000
  H   H1887     1.0  0.09362  0.67644  0.34422  1.0000
  H   H1888     1.0  0.12878  0.73311  0.27666  1.0000
  H   H1889     1.0  0.30937  0.89596  0.24517  1.0000
  C   C1542     1.0  0.06828  0.66644  0.39547  1.0000
  Fe  Fe209     1.0  0.03635  0.72000  0.33098  1.0000
  C   C1543     1.0  0.17163  0.98893  0.37646  1.0000
  H   H1890     1.0  0.12341  0.92772  0.27795  1.0000
  H   H1891     1.0  0.44166  0.91933  0.47256  1.0000
  H   H1892     1.0  0.10420  0.70666  0.28097  1.0000
  C   C1544     1.0  0.00107  0.71195  0.32693  1.0000
  H   H1893     1.0  0.15698  0.96476  0.35993  1.0000
  Fe  Fe210     1.0  0.04677  0.73523  0.34880  1.0000
  C   C1545     1.0  0.12910  0.75187  0.30136  1.0000
  C   C1546     1.0  0.30139  0.89292  0.27074  1.0000
  H   H1894     1.0  0.26737  0.77587  0.25480  1.0000
  C   C1547     1.0  0.33612  0.97173  0.33706  1.0000
  H   H1895     1.0  0.30129  0.91796  0.25690  1.0000
  H   H1896     1.0  0.31103  0.98799  0.41520  1.0000
  H   H1897     1.0  0.26737  0.89816  0.26949  1.0000
  H   H1898     1.0  0.42825  0.98148  0.37995  1.0000
  H   H1899     1.0  0.20666  0.80750  0.23665  1.0000
  H   H1900     1.0  0.03570  0.87641  0.25682  1.0000
  C   C1548     1.0  0.20267  0.96233  0.37417  1.0000
  C   C1549     1.0  0.11186  0.68874  0.35651  1.0000
  H   H1901     1.0  0.26594  0.81490  0.23800  1.0000
  S   S419      1.0  0.16111  0.72979  0.24338  1.0000
  C   C1550     1.0  0.11039  0.68356  0.38227  1.0000
  H   H1902     1.0  0.02272  0.88336  0.24482  1.0000
  C   C1551     1.0  0.15261  0.95725  0.36966  1.0000
  S   S420      1.0  0.15150  0.81888  0.23634  1.0000
  C   C1552     1.0  0.26387  0.76470  0.23471  1.0000
  H   H1903     1.0  0.04347  0.86698  0.24337  1.0000
  C   C1553     1.0  0.11930  0.84193  0.23578  1.0000
  C   C1554     1.0  0.18594  0.95828  0.37616  1.0000
  H   H1904     1.0  0.18572  0.94464  0.37690  1.0000
  C   C1555     1.0  0.40274  0.95390  0.47179  1.0000
  H   H1905     1.0  0.44402  0.98935  0.41456  1.0000
  H   H1906     1.0  0.07578  0.67408  0.39777  1.0000
  C   C1556     1.0  0.10885  0.67229  0.36445  1.0000
  C   C1557     1.0  0.48865  0.91720  0.47819  1.0000
  H   H1907     1.0  0.22036  0.98843  0.32574  1.0000
  H   H1908     1.0  0.48881  0.94170  0.45404  1.0000
  C   C1558     1.0  0.34875  0.98758  0.34639  1.0000
  H   H1909     1.0  0.12544  0.66408  0.34148  1.0000
  S   S421      1.0  0.41875  0.95794  0.47813  1.0000
  H   H1910     1.0  0.00346  0.67647  0.36734  1.0000
  C   C1559     1.0  0.00590  0.78269  0.31152  1.0000
  H   H1911     1.0  0.21693  0.98270  0.37160  1.0000
  N   N103      1.0  0.10630  0.65847  0.35908  1.0000
  H   H1912     1.0  0.01627  0.87549  0.27524  1.0000
  H   H1913     1.0  0.49925  0.92294  0.47081  1.0000
  C   C1560     1.0  0.19737  0.98904  0.31926  1.0000
  H   H1914     1.0  0.00762  0.76943  0.30948  1.0000
  C   C1561     1.0  0.01223  0.76960  0.33214  1.0000
  H   H1915     1.0  0.21012  0.83567  0.23965  1.0000
  C   C1562     1.0  0.00391  0.87385  0.27390  1.0000
  H   H1916     1.0  0.25461  0.75986  0.24359  1.0000
  H   H1917     1.0  0.01087  0.80331  0.32560  1.0000
  H   H1918     1.0  0.00720  0.76793  0.34256  1.0000
  C   C1563     1.0  0.25175  0.79619  0.23628  1.0000
  C   C1564     1.0  0.23454  0.79481  0.23570  1.0000
  N   N104      1.0  0.26781  0.78164  0.23490  1.0000
  H   H1919     1.0  0.13498  0.98965  0.38627  1.0000
  H   H1920     1.0  0.30792  0.99012  0.36409  1.0000
  Fe  Fe211     1.0  0.40876  0.98438  0.51468  1.0000
  S   S422      1.0  0.41624  0.96399  0.53146  1.0000
  H   H1921     1.0  0.05085  0.67983  0.64519  1.0000
  Fe  Fe212     1.0  0.41325  0.95782  0.49884  1.0000
  S   S423      1.0  0.42025  0.93475  0.51446  1.0000
  C   C1565     1.0  0.13902  0.68706  0.53545  1.0000
  Fe  Fe213     1.0  0.39815  0.94999  0.52741  1.0000
  S   S424      1.0  0.37650  0.93836  0.54246  1.0000
  Fe  Fe214     1.0  0.43754  0.95068  0.51720  1.0000
  S   S425      1.0  0.38942  0.97150  0.51132  1.0000
  S   S426      1.0  0.43181  0.97276  0.50093  1.0000
  Fe  Fe215     1.0  0.32046  0.96859  0.60250  1.0000
  H   H1922     1.0  0.15349  0.70055  0.54212  1.0000
  S   S427      1.0  0.34999  0.96516  0.59388  1.0000
  Fe  Fe216     1.0  0.28378  0.96965  0.59897  1.0000
  C   C1566     1.0  0.25172  0.78888  0.70777  1.0000
  S   S428      1.0  0.27016  0.96424  0.58574  1.0000
  H   H1923     1.0  0.17485  0.76795  0.62765  1.0000
  C   C1567     1.0  0.30415  0.82197  0.73237  1.0000
  Fe  Fe217     1.0  0.29061  0.96127  0.62534  1.0000
  S   S429      1.0  0.28005  0.94849  0.64557  1.0000
  C   C1568     1.0  0.30899  0.96780  0.56095  1.0000
  S   S430      1.0  0.30341  0.94825  0.60877  1.0000
  Fe  Fe218     1.0  0.15242  0.78262  0.68047  1.0000
  S   S431      1.0  0.13752  0.77131  0.69955  1.0000
  S   S432      1.0  0.16270  0.80686  0.67836  1.0000
  Fe  Fe219     1.0  0.14325  0.75830  0.66767  1.0000
  S   S433      1.0  0.12763  0.74474  0.68586  1.0000
  S   S434      1.0  0.14547  0.75650  0.64751  1.0000
  Fe  Fe220     1.0  0.11639  0.77204  0.68966  1.0000
  S   S435      1.0  0.08761  0.78164  0.69866  1.0000
  Fe  Fe221     1.0  0.15025  0.74511  0.69428  1.0000
  S   S436      1.0  0.15996  0.72353  0.71003  1.0000
  S   S437      1.0  0.13020  0.78567  0.67093  1.0000
  S   S438      1.0  0.16702  0.75637  0.67573  1.0000
  Fe  Fe222     1.0  0.06517  0.86516  0.65356  1.0000
  S   S439      1.0  0.09386  0.85814  0.64372  1.0000
  S   S440      1.0  0.05566  0.86075  0.67458  1.0000
  Fe  Fe223     1.0  0.05173  0.87674  0.62936  1.0000
  S   S441      1.0  0.07954  0.87147  0.61728  1.0000
  S   S442      1.0  0.02647  0.88675  0.62151  1.0000
  Fe  Fe224     1.0  0.08358  0.84636  0.63195  1.0000
  S   S443      1.0  0.09699  0.81946  0.62779  1.0000
  Fe  Fe225     1.0  0.08756  0.88389  0.63010  1.0000
  S   S444      1.0  0.10980  0.89934  0.62342  1.0000
  S   S445      1.0  0.05552  0.85083  0.64325  1.0000
  S   S446      1.0  0.05921  0.89176  0.64075  1.0000
  Fe  Fe226     1.0  0.14436  0.96848  0.64314  1.0000
  H   H1924     1.0  0.09333  0.69732  0.53934  1.0000
  S   S447      1.0  0.12078  0.95481  0.65001  1.0000
  C   C1569     1.0  0.00332  0.69334  0.62142  1.0000
  H   H1925     1.0  0.08850  0.93935  0.60999  1.0000
  H   H1926     1.0  0.22003  0.78028  0.62088  1.0000
  Fe  Fe227     1.0  0.18038  0.96899  0.64720  1.0000
  S   S448      1.0  0.20278  0.95719  0.65742  1.0000
  H   H1927     1.0  0.24412  0.96593  0.57195  1.0000
  H   H1928     1.0  0.13036  0.87720  0.65206  1.0000
  S   S449      1.0  0.17234  0.95432  0.63607  1.0000
  H   H1929     1.0  0.24956  0.75506  0.71114  1.0000
  Fe  Fe228     1.0  0.24757  0.82358  0.67966  1.0000
  S   S450      1.0  0.22740  0.83331  0.69580  1.0000
  S   S451      1.0  0.24477  0.79853  0.67584  1.0000
  Fe  Fe229     1.0  0.26645  0.85387  0.67406  1.0000
  S   S452      1.0  0.24782  0.86590  0.68998  1.0000
  S   S453      1.0  0.28938  0.86521  0.66061  1.0000
  Fe  Fe230     1.0  0.25061  0.83789  0.70111  1.0000
  S   S454      1.0  0.25062  0.82932  0.72185  1.0000
  Fe  Fe231     1.0  0.22646  0.86009  0.68313  1.0000
  S   S455      1.0  0.19955  0.87739  0.68129  1.0000
  S   S456      1.0  0.27115  0.82611  0.68585  1.0000
  S   S457      1.0  0.24480  0.85013  0.66638  1.0000
  H   H1930     1.0  0.09449  0.97447  0.63038  1.0000
  H   H1931     1.0  0.26331  0.97184  0.66298  1.0000
  Fe  Fe232     1.0  0.07193  0.72839  0.59437  1.0000
  Fe  Fe233     1.0  0.05874  0.75531  0.61133  1.0000
  S   S458      1.0  0.05994  0.73450  0.62913  1.0000
  S   S459      1.0  0.04681  0.78396  0.61191  1.0000
  Fe  Fe234     1.0  0.08656  0.72260  0.61812  1.0000
  Fe  Fe235     1.0  0.04871  0.71925  0.62037  1.0000
  S   S460      1.0  0.02620  0.70519  0.62982  1.0000
  S   S461      1.0  0.08608  0.74444  0.60055  1.0000
  S   S462      1.0  0.04464  0.74130  0.60376  1.0000
  C   C1570     1.0  0.04145  0.82394  0.58938  1.0000
  H   H1932     1.0  0.38282  0.95106  0.48916  1.0000
  H   H1933     1.0  0.17511  0.88452  0.66262  1.0000
  H   H1934     1.0  0.15484  0.89222  0.64769  1.0000
  C   C1571     1.0  0.01969  0.69851  0.61847  1.0000
  C   C1572     1.0  0.03043  0.69898  0.60630  1.0000
  C   C1573     1.0  0.02457  0.69477  0.59701  1.0000
  H   H1935     1.0  0.04316  0.70279  0.60395  1.0000
  H   H1936     1.0  0.03287  0.69525  0.58759  1.0000
  C   C1574     1.0  0.19649  0.72032  0.73001  1.0000
  C   C1575     1.0  0.18087  0.71977  0.72667  1.0000
  H   H1937     1.0  0.28605  0.83114  0.70649  1.0000
  C   C1576     1.0  0.20154  0.93530  0.66481  1.0000
  C   C1577     1.0  0.21660  0.92334  0.66851  1.0000
  C   C1578     1.0  0.21610  0.90547  0.67352  1.0000
  C   C1579     1.0  0.20033  0.89970  0.67525  1.0000
  C   C1580     1.0  0.18510  0.91181  0.67191  1.0000
  C   C1581     1.0  0.18578  0.92956  0.66652  1.0000
  H   H1938     1.0  0.22874  0.92780  0.66728  1.0000
  H   H1939     1.0  0.22787  0.89620  0.67605  1.0000
  H   H1940     1.0  0.17277  0.90751  0.67347  1.0000
  H   H1941     1.0  0.17401  0.93883  0.66386  1.0000
  H   H1942     1.0  0.09708  0.69420  0.58298  1.0000
  H   H1943     1.0  0.15376  0.93674  0.60804  1.0000
  H   H1944     1.0  0.01862  0.81059  0.58106  1.0000
  C   C1582     1.0  0.01628  0.85460  0.63066  1.0000
  H   H1945     1.0  0.26545  0.74555  0.72111  1.0000
  C   C1583     1.0  0.49718  0.96694  0.53111  1.0000
  H   H1946     1.0  0.16992  0.71534  0.73388  1.0000
  C   C1584     1.0  0.30397  0.78072  0.71469  1.0000
  H   H1947     1.0  0.02969  0.84894  0.63208  1.0000
  H   H1948     1.0  0.14832  0.81559  0.64550  1.0000
  C   C1585     1.0  0.11885  0.93754  0.64378  1.0000
  C   C1586     1.0  0.13261  0.93033  0.63463  1.0000
  C   C1587     1.0  0.12986  0.91808  0.62885  1.0000
  C   C1588     1.0  0.11344  0.91276  0.63224  1.0000
  C   C1589     1.0  0.10007  0.91911  0.64195  1.0000
  C   C1590     1.0  0.10276  0.93149  0.64765  1.0000
  H   H1949     1.0  0.14519  0.93450  0.63189  1.0000
  H   H1950     1.0  0.14036  0.91289  0.62155  1.0000
  H   H1951     1.0  0.08737  0.91509  0.64467  1.0000
  H   H1952     1.0  0.09210  0.93687  0.65481  1.0000
  C   C1591     1.0  0.08326  0.81007  0.62275  1.0000
  C   C1592     1.0  0.06601  0.81933  0.62130  1.0000
  C   C1593     1.0  0.05490  0.81127  0.61794  1.0000
  C   C1594     1.0  0.06103  0.79399  0.61589  1.0000
  C   C1595     1.0  0.07836  0.78483  0.61716  1.0000
  C   C1596     1.0  0.08950  0.79294  0.62045  1.0000
  H   H1953     1.0  0.06119  0.83267  0.62280  1.0000
  H   H1954     1.0  0.04146  0.81838  0.61709  1.0000
  H   H1955     1.0  0.08321  0.77149  0.61562  1.0000
  H   H1956     1.0  0.10295  0.78588  0.62126  1.0000
  C   C1597     1.0  0.18582  0.80420  0.67661  1.0000
  C   C1598     1.0  0.19763  0.78777  0.67621  1.0000
  C   C1599     1.0  0.21596  0.78607  0.67552  1.0000
  C   C1600     1.0  0.22237  0.80078  0.67530  1.0000
  C   C1601     1.0  0.21059  0.81724  0.67532  1.0000
  C   C1602     1.0  0.19240  0.81892  0.67597  1.0000
  H   H1957     1.0  0.19263  0.77634  0.67667  1.0000
  H   H1958     1.0  0.22505  0.77331  0.67550  1.0000
  H   H1959     1.0  0.21544  0.82875  0.67486  1.0000
  H   H1960     1.0  0.18340  0.83167  0.67610  1.0000
  C   C1603     1.0  0.17926  0.72518  0.71401  1.0000
  H   H1961     1.0  0.14538  0.67327  0.51416  1.0000
  H   H1962     1.0  0.12260  0.70366  0.65151  1.0000
  C   C1604     1.0  0.21075  0.72571  0.72065  1.0000
  C   C1605     1.0  0.20911  0.73125  0.70801  1.0000
  C   C1606     1.0  0.19327  0.73125  0.70471  1.0000
  C   C1607     1.0  0.08958  0.69092  0.57755  1.0000
  S   S463      1.0  0.07127  0.72562  0.57498  1.0000
  H   H1963     1.0  0.22012  0.73549  0.70073  1.0000
  H   H1964     1.0  0.19216  0.73534  0.69492  1.0000
  C   C1608     1.0  0.06415  0.83866  0.68123  1.0000
  C   C1609     1.0  0.07651  0.82770  0.67362  1.0000
  C   C1610     1.0  0.08413  0.81036  0.67901  1.0000
  C   C1611     1.0  0.07881  0.80362  0.69195  1.0000
  C   C1612     1.0  0.06593  0.81437  0.69951  1.0000
  C   C1613     1.0  0.05882  0.83198  0.69419  1.0000
  H   H1965     1.0  0.08028  0.83251  0.66357  1.0000
  H   H1966     1.0  0.09369  0.80204  0.67307  1.0000
  H   H1967     1.0  0.06169  0.80916  0.70952  1.0000
  H   H1968     1.0  0.04918  0.84039  0.70010  1.0000
  C   C1614     1.0  0.13374  0.74395  0.64330  1.0000
  C   C1615     1.0  0.12731  0.75058  0.63210  1.0000
  C   C1616     1.0  0.11869  0.74061  0.62809  1.0000
  C   C1617     1.0  0.11711  0.72357  0.63500  1.0000
  H   H1969     1.0  0.12909  0.76347  0.62645  1.0000
  H   H1970     1.0  0.11386  0.74585  0.61942  1.0000
  C   C1618     1.0  0.28292  0.92534  0.64961  1.0000
  C   C1619     1.0  0.29677  0.91452  0.64269  1.0000
  C   C1620     1.0  0.29882  0.89603  0.64628  1.0000
  C   C1621     1.0  0.28668  0.88836  0.65651  1.0000
  C   C1622     1.0  0.27266  0.89924  0.66328  1.0000
  C   C1623     1.0  0.27099  0.91766  0.65997  1.0000
  H   H1971     1.0  0.30612  0.92034  0.63474  1.0000
  H   H1972     1.0  0.30970  0.88766  0.64101  1.0000
  H   H1973     1.0  0.26319  0.89349  0.67113  1.0000
  H   H1974     1.0  0.26031  0.92601  0.66537  1.0000
  C   C1624     1.0  0.24666  0.96791  0.59005  1.0000
  C   C1625     1.0  0.23743  0.97034  0.60217  1.0000
  C   C1626     1.0  0.21872  0.97268  0.60555  1.0000
  C   C1627     1.0  0.30402  0.78072  0.72705  1.0000
  H   H1975     1.0  0.31564  0.78286  0.70725  1.0000
  H   H1976     1.0  0.04820  0.66466  0.63001  1.0000
  C   C1628     1.0  0.16271  0.81076  0.64401  1.0000
  H   H1977     1.0  0.34336  0.98583  0.52684  1.0000
  H   H1978     1.0  0.06348  0.67914  0.55744  1.0000
  H   H1979     1.0  0.23901  0.78843  0.70561  1.0000
  H   H1980     1.0  0.21391  0.79324  0.64020  1.0000
  H   H1981     1.0  0.18492  0.75636  0.72908  1.0000
  H   H1982     1.0  0.16731  0.83239  0.64965  1.0000
  H   H1983     1.0  0.01493  0.71998  0.57325  1.0000
  H   H1984     1.0  0.00871  0.85517  0.60278  1.0000
  H   H1985     1.0  0.20012  0.81174  0.71104  1.0000
  H   H1986     1.0  0.49590  0.90316  0.54375  1.0000
  H   H1987     1.0  0.28944  0.77839  0.70212  1.0000
  H   H1988     1.0  0.15363  0.95648  0.61264  1.0000
  H   H1989     1.0  0.30153  0.97892  0.56574  1.0000
  N   N105      1.0  0.00782  0.82509  0.59597  1.0000
  H   H1990     1.0  0.49509  0.92668  0.53984  1.0000
  C   C1629     1.0  0.24932  0.97557  0.66830  1.0000
  S   S464      1.0  0.07527  0.70545  0.61074  1.0000
  C   C1630     1.0  0.19873  0.80531  0.72093  1.0000
  C   C1631     1.0  0.10230  0.67142  0.52850  1.0000
  C   C1632     1.0  0.11626  0.96893  0.61471  1.0000
  C   C1633     1.0  0.12365  0.71688  0.64617  1.0000
  C   C1634     1.0  0.36986  0.94506  0.55708  1.0000
  C   C1635     1.0  0.35508  0.93976  0.56605  1.0000
  C   C1636     1.0  0.34879  0.94590  0.57737  1.0000
  C   C1637     1.0  0.35770  0.95683  0.57999  1.0000
  C   C1638     1.0  0.37298  0.96141  0.57133  1.0000
  C   C1639     1.0  0.37883  0.95583  0.55982  1.0000
  H   H1991     1.0  0.34840  0.93095  0.56423  1.0000
  H   H1992     1.0  0.33726  0.94196  0.58417  1.0000
  H   H1993     1.0  0.47323  0.94558  0.48865  1.0000
  H   H1994     1.0  0.39030  0.95983  0.55314  1.0000
  N   N106      1.0  0.30562  0.87523  0.69357  1.0000
  C   C1640     1.0  0.32506  0.87402  0.69207  1.0000
  C   C1641     1.0  0.30388  0.86155  0.68768  1.0000
  C   C1642     1.0  0.29809  0.89295  0.68644  1.0000
  C   C1643     1.0  0.29568  0.87261  0.70692  1.0000
  C   C1644     1.0  0.27691  0.87367  0.70987  1.0000
  C   C1645     1.0  0.30416  0.86843  0.71730  1.0000
  H   H1995     1.0  0.12951  0.66496  0.51007  1.0000
  H   H1996     1.0  0.33178  0.86063  0.69666  1.0000
  H   H1997     1.0  0.33207  0.87626  0.68193  1.0000
  H   H1998     1.0  0.32739  0.88413  0.69616  1.0000
  H   H1999     1.0  0.30903  0.84801  0.69286  1.0000
  H   H2000     1.0  0.31147  0.86285  0.67768  1.0000
  H   H2001     1.0  0.29871  0.90364  0.69074  1.0000
  H   H2002     1.0  0.30541  0.89544  0.67637  1.0000
  H   H2003     1.0  0.28388  0.89444  0.68616  1.0000
  H   H2004     1.0  0.17007  0.86215  0.68232  1.0000
  H   H2005     1.0  0.10533  0.66438  0.57804  1.0000
  C   C1646     1.0  0.07589  0.70381  0.57274  1.0000
  N   N107      1.0  0.08073  0.76916  0.66074  1.0000
  C   C1647     1.0  0.09527  0.77881  0.65397  1.0000
  C   C1648     1.0  0.07599  0.77026  0.67422  1.0000
  C   C1649     1.0  0.08807  0.75023  0.66022  1.0000
  C   C1650     1.0  0.06474  0.77716  0.65515  1.0000
  C   C1651     1.0  0.05666  0.76729  0.65040  1.0000
  C   C1652     1.0  0.05651  0.79534  0.65458  1.0000
  C   C1653     1.0  0.04124  0.77518  0.64555  1.0000
  C   C1654     1.0  0.04121  0.80312  0.64958  1.0000
  C   C1655     1.0  0.03350  0.79302  0.64517  1.0000
  H   H2006     1.0  0.09150  0.79300  0.65444  1.0000
  H   H2007     1.0  0.10758  0.77299  0.65784  1.0000
  H   H2008     1.0  0.09913  0.77834  0.64379  1.0000
  H   H2009     1.0  0.06524  0.76301  0.67969  1.0000
  H   H2010     1.0  0.07109  0.78410  0.67549  1.0000
  H   H2011     1.0  0.08773  0.76452  0.67878  1.0000
  H   H2012     1.0  0.09219  0.74845  0.65029  1.0000
  H   H2013     1.0  0.10020  0.74473  0.66436  1.0000
  H   H2014     1.0  0.07825  0.74187  0.66565  1.0000
  H   H2015     1.0  0.06213  0.75352  0.65012  1.0000
  H   H2016     1.0  0.06202  0.80378  0.65784  1.0000
  H   H2017     1.0  0.03560  0.76756  0.64162  1.0000
  H   H2018     1.0  0.03554  0.81715  0.64887  1.0000
  H   H2019     1.0  0.28977  0.86238  0.68747  1.0000
  C   C1656     1.0  0.30315  0.82606  0.71963  1.0000
  S   S465      1.0  0.23065  0.72584  0.72456  1.0000
  C   C1657     1.0  0.19429  0.75633  0.64483  1.0000
  H   H2020     1.0  0.24966  0.98212  0.67574  1.0000
  H   H2021     1.0  0.46136  0.91967  0.49796  1.0000
  C   C1658     1.0  0.19109  0.79013  0.72591  1.0000
  H   H2022     1.0  0.06960  0.82411  0.58483  1.0000
  C   C1659     1.0  0.09935  0.96791  0.62246  1.0000
  S   S466      1.0  0.18562  0.97649  0.60063  1.0000
  H   H2023     1.0  0.09654  0.71911  0.54928  1.0000
  H   H2024     1.0  0.16682  0.79093  0.70482  1.0000
  H   H2025     1.0  0.12553  0.68814  0.50980  1.0000
  C   C1660     1.0  0.17336  0.82025  0.64628  1.0000
  C   C1661     1.0  0.06674  0.69960  0.56525  1.0000
  C   C1662     1.0  0.28884  0.77829  0.71184  1.0000
  C   C1663     1.0  0.27316  0.77601  0.72133  1.0000
  C   C1664     1.0  0.12210  0.68543  0.53449  1.0000
  H   H2026     1.0  0.01631  0.79747  0.67756  1.0000
  H   H2027     1.0  0.11747  0.94100  0.59620  1.0000
  C   C1665     1.0  0.34436  0.98867  0.53542  1.0000
  S   S467      1.0  0.46697  0.93932  0.51610  1.0000
  C   C1666     1.0  0.12516  0.71117  0.54632  1.0000
  H   H2028     1.0  0.00841  0.81191  0.61530  1.0000
  C   C1667     1.0  0.01760  0.84023  0.67511  1.0000
  H   H2029     1.0  0.03326  0.81516  0.68289  1.0000
  H   H2030     1.0  0.45775  0.90678  0.48853  1.0000
  C   C1668     1.0  0.01150  0.87249  0.62500  1.0000
  C   C1669     1.0  0.02171  0.84819  0.59855  1.0000
  H   H2031     1.0  0.04446  0.81150  0.58652  1.0000
  C   C1670     1.0  0.03649  0.85520  0.59744  1.0000
  C   C1671     1.0  0.05367  0.84663  0.59240  1.0000
  C   C1672     1.0  0.30519  0.98654  0.54087  1.0000
  H   H2032     1.0  0.32738  0.98401  0.56727  1.0000
  H   H2033     1.0  0.03318  0.72647  0.57551  1.0000
  H   H2034     1.0  0.49467  0.91438  0.55568  1.0000
  S   S468      1.0  0.30189  0.98887  0.59126  1.0000
  H   H2035     1.0  0.02295  0.76592  0.56695  1.0000
  C   C1673     1.0  0.13082  0.67465  0.51506  1.0000
  C   C1674     1.0  0.02221  0.82175  0.67818  1.0000
  H   H2036     1.0  0.01877  0.87086  0.64886  1.0000
  C   C1675     1.0  0.14368  0.97948  0.59239  1.0000
  C   C1676     1.0  0.01267  0.81180  0.67522  1.0000
  H   H2037     1.0  0.06513  0.85184  0.59191  1.0000
  H   H2038     1.0  0.20027  0.75681  0.65257  1.0000
  H   H2039     1.0  0.23673  0.67727  0.73135  1.0000
  H   H2040     1.0  0.22945  0.77233  0.72604  1.0000
  C   C1677     1.0  0.00225  0.73813  0.59149  1.0000
  C   C1678     1.0  0.01206  0.80853  0.59127  1.0000
  C   C1679     1.0  0.27604  0.86623  0.73231  1.0000
  C   C1680     1.0  0.12344  0.95986  0.60464  1.0000
  H   H2041     1.0  0.02479  0.73664  0.56132  1.0000
  C   C1681     1.0  0.07696  0.65743  0.62220  1.0000
  H   H2042     1.0  0.24505  0.96284  0.67306  1.0000
  C   C1682     1.0  0.07956  0.67535  0.63997  1.0000
  C   C1683     1.0  0.09415  0.67401  0.57483  1.0000
  H   H2043     1.0  0.02192  0.79913  0.64098  1.0000
  C   C1684     1.0  0.08462  0.66958  0.56775  1.0000
  H   H2044     1.0  0.33166  0.96215  0.53158  1.0000
  C   C1685     1.0  0.27145  0.82583  0.72574  1.0000
  C   C1686     1.0  0.45782  0.92046  0.48886  1.0000
  H   H2045     1.0  0.06838  0.67406  0.60036  1.0000
  H   H2046     1.0  0.49224  0.91558  0.48740  1.0000
  C   C1687     1.0  0.14046  0.69970  0.54134  1.0000
  C   C1688     1.0  0.11287  0.94915  0.60312  1.0000
  C   C1689     1.0  0.06357  0.66148  0.60437  1.0000
  C   C1690     1.0  0.00330  0.84938  0.66891  1.0000
  H   H2047     1.0  0.47209  0.97447  0.54383  1.0000
  C   C1691     1.0  0.08924  0.95755  0.62059  1.0000
  C   C1692     1.0  0.33519  0.98779  0.55790  1.0000
  N   N108      1.0  0.24573  0.92057  0.62843  1.0000
  C   C1693     1.0  0.25950  0.92283  0.61646  1.0000
  C   C1694     1.0  0.24288  0.93587  0.63420  1.0000
  C   C1695     1.0  0.25321  0.90417  0.63700  1.0000
  C   C1696     1.0  0.22830  0.91966  0.62654  1.0000
  C   C1697     1.0  0.22325  0.92642  0.61466  1.0000
  C   C1698     1.0  0.21525  0.91308  0.63690  1.0000
  C   C1699     1.0  0.20648  0.92585  0.61321  1.0000
  C   C1700     1.0  0.19864  0.91236  0.63533  1.0000
  C   C1701     1.0  0.19430  0.91861  0.62348  1.0000
  H   H2048     1.0  0.25627  0.93601  0.61016  1.0000
  H   H2049     1.0  0.27286  0.92211  0.61820  1.0000
  H   H2050     1.0  0.26115  0.91240  0.61120  1.0000
  H   H2051     1.0  0.23666  0.94836  0.62833  1.0000
  H   H2052     1.0  0.25566  0.93761  0.63545  1.0000
  H   H2053     1.0  0.23369  0.93432  0.64364  1.0000
  H   H2054     1.0  0.26729  0.90350  0.63717  1.0000
  H   H2055     1.0  0.24589  0.90322  0.64703  1.0000
  H   H2056     1.0  0.25307  0.89211  0.63402  1.0000
  H   H2057     1.0  0.23188  0.93252  0.60638  1.0000
  H   H2058     1.0  0.21758  0.90872  0.64639  1.0000
  H   H2059     1.0  0.20283  0.93142  0.60411  1.0000
  H   H2060     1.0  0.18889  0.90743  0.64345  1.0000
  H   H2061     1.0  0.18125  0.91837  0.62238  1.0000
  H   H2062     1.0  0.21180  0.97397  0.61502  1.0000
  C   C1702     1.0  0.23827  0.97841  0.64974  1.0000
  H   H2063     1.0  0.00247  0.74548  0.62484  1.0000
  C   C1703     1.0  0.18927  0.78802  0.63798  1.0000
  C   C1704     1.0  0.17045  0.79477  0.64011  1.0000
  C   C1705     1.0  0.19968  0.79775  0.64079  1.0000
  H   H2064     1.0  0.00149  0.84214  0.57868  1.0000
  C   C1706     1.0  0.19177  0.81367  0.64478  1.0000
  C   C1707     1.0  0.15506  0.95073  0.60438  1.0000
  H   H2065     1.0  0.26957  0.87649  0.70253  1.0000
  H   H2066     1.0  0.31560  0.78302  0.72921  1.0000
  H   H2067     1.0  0.16382  0.77217  0.73159  1.0000
  H   H2068     1.0  0.19990  0.82073  0.64709  1.0000
  H   H2069     1.0  0.02576  0.87255  0.66223  1.0000
  N   N109      1.0  0.12005  0.85187  0.67300  1.0000
  C   C1708     1.0  0.11682  0.84046  0.68589  1.0000
  C   C1709     1.0  0.10323  0.86533  0.67174  1.0000
  C   C1710     1.0  0.12385  0.84051  0.66379  1.0000
  C   C1711     1.0  0.13516  0.86073  0.67035  1.0000
  C   C1712     1.0  0.14708  0.85664  0.67864  1.0000
  C   C1713     1.0  0.13858  0.87363  0.65900  1.0000
  C   C1714     1.0  0.16117  0.86535  0.67585  1.0000
  C   C1715     1.0  0.15272  0.88221  0.65631  1.0000
  C   C1716     1.0  0.16403  0.87802  0.66471  1.0000
  H   H2070     1.0  0.11422  0.84813  0.69331  1.0000
  H   H2071     1.0  0.10498  0.83450  0.68767  1.0000
  H   H2072     1.0  0.12831  0.82905  0.68724  1.0000
  H   H2073     1.0  0.10067  0.87491  0.67788  1.0000
  H   H2074     1.0  0.09143  0.85915  0.67448  1.0000
  H   H2075     1.0  0.10333  0.87304  0.66192  1.0000
  H   H2076     1.0  0.11268  0.83382  0.66524  1.0000
  H   H2077     1.0  0.12605  0.84815  0.65387  1.0000
  H   H2078     1.0  0.13612  0.82997  0.66479  1.0000
  H   H2079     1.0  0.14595  0.84667  0.68728  1.0000
  H   H2080     1.0  0.02096  0.79768  0.59667  1.0000
  S   S469      1.0  0.10799  0.70998  0.62958  1.0000
  C   C1717     1.0  0.21691  0.76871  0.62853  1.0000
  H   H2081     1.0  0.13535  0.95982  0.57952  1.0000
  C   C1718     1.0  0.13171  0.72712  0.65042  1.0000
  H   H2082     1.0  0.20002  0.74318  0.64227  1.0000
  S   S470      1.0  0.26969  0.98125  0.61593  1.0000
  C   C1719     1.0  0.26135  0.75716  0.71363  1.0000
  H   H2083     1.0  0.22243  0.75667  0.62445  1.0000
  H   H2084     1.0  0.26174  0.78897  0.69869  1.0000
  N   N110      1.0  0.18509  0.78261  0.71752  1.0000
  N   N111      1.0  0.25714  0.77390  0.71803  1.0000
  H   H2085     1.0  0.25141  0.97747  0.64302  1.0000
  C   C1720     1.0  0.07085  0.68241  0.56296  1.0000
  C   C1721     1.0  0.00757  0.69100  0.59972  1.0000
  C   C1722     1.0  0.28683  0.82788  0.71631  1.0000
  C   C1723     1.0  0.23707  0.96790  0.58131  1.0000
  H   H2086     1.0  0.29875  0.96052  0.56123  1.0000
  S   S471      1.0  0.30935  0.97980  0.62004  1.0000
  C   C1724     1.0  0.00362  0.84393  0.63459  1.0000
  H   H2087     1.0  0.31640  0.95044  0.54326  1.0000
  H   H2088     1.0  0.31842  0.86680  0.71613  1.0000
  C   C1725     1.0  0.47877  0.96809  0.53597  1.0000
  H   H2089     1.0  0.16143  0.78768  0.63898  1.0000
  N   N112      1.0  0.31862  0.97413  0.54783  1.0000
  Fe  Fe236     1.0  0.17391  0.97874  0.62082  1.0000
  H   H2090     1.0  0.05644  0.70960  0.56122  1.0000
  C   C1726     1.0  0.09384  0.65895  0.62341  1.0000
  H   H2091     1.0  0.01095  0.89077  0.65471  1.0000
  H   H2092     1.0  0.23645  0.96456  0.65359  1.0000
  C   C1727     1.0  0.10678  0.69750  0.53954  1.0000
  H   H2093     1.0  0.17895  0.80695  0.70371  1.0000
  N   N113      1.0  0.23723  0.98727  0.65996  1.0000
  H   H2094     1.0  0.29403  0.98032  0.54132  1.0000
  H   H2095     1.0  0.19702  0.76969  0.70184  1.0000
  H   H2096     1.0  0.21078  0.76525  0.71308  1.0000
  C   C1728     1.0  0.24142  0.77348  0.72879  1.0000
  C   C1729     1.0  0.21862  0.98904  0.66766  1.0000
  C   C1730     1.0  0.18888  0.76972  0.62389  1.0000
  H   H2097     1.0  0.13688  0.72175  0.65895  1.0000
  C   C1731     1.0  0.33283  0.98328  0.54717  1.0000
  H   H2098     1.0  0.14651  0.93880  0.58781  1.0000
  N   N114      1.0  0.19729  0.77105  0.63382  1.0000
  C   C1732     1.0  0.02372  0.83231  0.59456  1.0000
  H   H2099     1.0  0.20791  0.78625  0.70212  1.0000
  H   H2100     1.0  0.31501  0.82787  0.71237  1.0000
  H   H2101     1.0  0.31833  0.95855  0.56679  1.0000
  H   H2102     1.0  0.07646  0.95622  0.62694  1.0000
  H   H2103     1.0  0.45499  0.96091  0.53495  1.0000
  H   H2104     1.0  0.10788  0.66962  0.63257  1.0000
  C   C1733     1.0  0.46906  0.96053  0.53090  1.0000
  C   C1734     1.0  0.01416  0.87607  0.65764  1.0000
  H   H2105     1.0  0.17977  0.75694  0.64882  1.0000
  H   H2106     1.0  0.21487  0.97591  0.67164  1.0000
  C   C1735     1.0  0.10841  0.71017  0.54533  1.0000
  H   H2107     1.0  0.19593  0.75798  0.61969  1.0000
  C   C1736     1.0  0.01871  0.75912  0.57696  1.0000
  C   C1737     1.0  0.47785  0.95166  0.52107  1.0000
  H   H2108     1.0  0.17115  0.76274  0.71786  1.0000
  S   S472      1.0  0.15234  0.98129  0.65578  1.0000
  C   C1738     1.0  0.05614  0.83108  0.58834  1.0000
  H   H2109     1.0  0.21094  0.82389  0.72456  1.0000
  H   H2110     1.0  0.18876  0.78175  0.61612  1.0000
  H   H2111     1.0  0.22455  0.76680  0.63592  1.0000
  H   H2112     1.0  0.02531  0.84733  0.67769  1.0000
  H   H2113     1.0  0.16896  0.95069  0.59875  1.0000
  H   H2114     1.0  0.04941  0.66488  0.60945  1.0000
  H   H2115     1.0  0.03126  0.75283  0.58053  1.0000
  C   C1739     1.0  0.17246  0.79649  0.71057  1.0000
  H   H2116     1.0  0.12623  0.72084  0.55102  1.0000
  H   H2117     1.0  0.24471  0.96997  0.60903  1.0000
  C   C1740     1.0  0.32640  0.95851  0.54192  1.0000
  H   H2118     1.0  0.33776  0.94971  0.54607  1.0000
  H   H2119     1.0  0.44393  0.92857  0.48940  1.0000
  H   H2120     1.0  0.25313  0.87048  0.72437  1.0000
  C   C1741     1.0  0.09603  0.94812  0.61099  1.0000
  C   C1742     1.0  0.20090  0.77569  0.70825  1.0000
  C   C1743     1.0  0.20910  0.97308  0.59672  1.0000
  H   H2121     1.0  0.21097  0.97082  0.57775  1.0000
  H   H2122     1.0  0.24974  0.80174  0.71043  1.0000
  N   N115      1.0  0.12095  0.67167  0.52844  1.0000
  H   H2123     1.0  0.01371  0.73244  0.59630  1.0000
  H   H2124     1.0  0.27236  0.75693  0.70507  1.0000
  H   H2125     1.0  0.15889  0.95525  0.57913  1.0000
  C   C1744     1.0  0.20499  0.81236  0.72856  1.0000
  C   C1745     1.0  0.17583  0.76788  0.72438  1.0000
  C   C1746     1.0  0.14566  0.95335  0.58530  1.0000
  H   H2126     1.0  0.22779  0.98548  0.64420  1.0000
  H   H2127     1.0  0.03466  0.86720  0.60074  1.0000
  H   H2128     1.0  0.38008  0.96962  0.57341  1.0000
  C   C1747     1.0  0.02074  0.73168  0.57170  1.0000
  C   C1748     1.0  0.21832  0.97062  0.58460  1.0000
  C   C1749     1.0  0.49607  0.95120  0.51590  1.0000
  N   N116      1.0  0.14158  0.96082  0.59674  1.0000
  C   C1750     1.0  0.06288  0.67374  0.63923  1.0000
  H   H2129     1.0  0.15126  0.67846  0.53174  1.0000
  H   H2130     1.0  0.09425  0.66870  0.53834  1.0000
  H   H2131     1.0  0.00731  0.83026  0.63928  1.0000
  H   H2132     1.0  0.09549  0.68410  0.52314  1.0000
  N   N117      1.0  0.00828  0.74584  0.57792  1.0000
  C   C1751     1.0  0.26730  0.87043  0.72237  1.0000
  H   H2133     1.0  0.08054  0.68273  0.64641  1.0000
  C   C1752     1.0  0.06153  0.66499  0.63047  1.0000
  H   H2134     1.0  0.13276  0.98796  0.58762  1.0000
  H   H2135     1.0  0.15676  0.98065  0.58572  1.0000
  H   H2136     1.0  0.12390  0.97634  0.61706  1.0000
  H   H2137     1.0  0.14375  0.98535  0.60025  1.0000
  C   C1753     1.0  0.09499  0.66792  0.63212  1.0000
  H   H2138     1.0  0.23780  0.78569  0.73261  1.0000
  C   C1754     1.0  0.29439  0.86535  0.72978  1.0000
  H   H2139     1.0  0.16103  0.80300  0.71719  1.0000
  H   H2140     1.0  0.00511  0.87205  0.68261  1.0000
  H   H2141     1.0  0.10189  0.66089  0.52393  1.0000
  H   H2142     1.0  0.01100  0.76912  0.58271  1.0000
  C   C1755     1.0  0.50074  0.91376  0.54560  1.0000
  C   C1756     1.0  0.27380  0.77578  0.73388  1.0000
  Fe  Fe237     1.0  0.39721  0.94675  0.90980  1.0000
  S   S473      1.0  0.38636  0.92314  0.92222  1.0000
  Fe  Fe238     1.0  0.43577  0.92804  0.90928  1.0000
  S   S474      1.0  0.42841  0.90335  0.92185  1.0000
  S   S475      1.0  0.46479  0.92824  0.90116  1.0000
  Fe  Fe239     1.0  0.40868  0.90723  0.90984  1.0000
  S   S476      1.0  0.41247  0.88058  0.90511  1.0000
  Fe  Fe240     1.0  0.40700  0.92092  0.93315  1.0000
  S   S477      1.0  0.41762  0.93110  0.89642  1.0000
  S   S478      1.0  0.41621  0.94551  0.92155  1.0000
  H   H2143     1.0  0.27958  0.72255  0.77887  1.0000
  Fe  Fe241     1.0  0.21276  0.70832  0.77292  1.0000
  S   S479      1.0  0.23277  0.69312  0.75915  1.0000
  S   S480      1.0  0.18966  0.69822  0.78719  1.0000
  Fe  Fe242     1.0  0.23119  0.73950  0.76427  1.0000
  S   S481      1.0  0.25286  0.72642  0.75029  1.0000
  S   S482      1.0  0.23224  0.76726  0.76378  1.0000
  H   H2144     1.0  0.20419  0.68427  0.73729  1.0000
  Fe  Fe243     1.0  0.25293  0.70181  0.76546  1.0000
  S   S483      1.0  0.27905  0.68598  0.77058  1.0000
  S   S484      1.0  0.20874  0.73395  0.75852  1.0000
  S   S485      1.0  0.23306  0.71556  0.78000  1.0000
  Fe  Fe244     1.0  0.39196  0.67176  0.82490  1.0000
  C   C1757     1.0  0.45788  0.90584  0.94683  1.0000
  Fe  Fe245     1.0  0.39194  0.71103  0.82067  1.0000
  S   S486      1.0  0.42039  0.70779  0.81002  1.0000
  S   S487      1.0  0.37671  0.73829  0.82314  1.0000
  Fe  Fe246     1.0  0.41325  0.69018  0.80076  1.0000
  S   S488      1.0  0.42210  0.69187  0.77983  1.0000
  Fe  Fe247     1.0  0.42557  0.68366  0.82516  1.0000
  S   S489      1.0  0.44936  0.67771  0.83432  1.0000
  S   S490      1.0  0.38407  0.69548  0.81001  1.0000
  S   S491      1.0  0.39724  0.68797  0.83649  1.0000
  Fe  Fe248     1.0  0.31066  0.78079  0.77928  1.0000
  S   S492      1.0  0.31663  0.77733  0.75938  1.0000
  S   S493      1.0  0.28673  0.77298  0.79353  1.0000
  Fe  Fe249     1.0  0.34662  0.78930  0.77659  1.0000
  S   S494      1.0  0.35557  0.78677  0.75632  1.0000
  S   S495      1.0  0.36691  0.78904  0.78733  1.0000
  Fe  Fe250     1.0  0.32772  0.80169  0.75462  1.0000
  H   H2145     1.0  0.49887  0.93777  0.89626  1.0000
  Fe  Fe251     1.0  0.34379  0.76279  0.76269  1.0000
  S   S496      1.0  0.35760  0.73796  0.75553  1.0000
  S   S497      1.0  0.31957  0.80655  0.77444  1.0000
  S   S498      1.0  0.33685  0.76396  0.78304  1.0000
  H   H2146     1.0  0.33491  0.90471  0.92054  1.0000
  S   S499      1.0  0.47988  0.84549  0.87409  1.0000
  H   H2147     1.0  0.42523  0.90097  0.87663  1.0000
  Fe  Fe252     1.0  0.38435  0.83798  0.86043  1.0000
  S   S500      1.0  0.39625  0.84962  0.84035  1.0000
  S   S501      1.0  0.37129  0.85718  0.87353  1.0000
  Fe  Fe253     1.0  0.39380  0.80056  0.85517  1.0000
  S   S502      1.0  0.40638  0.80971  0.83488  1.0000
  S   S503      1.0  0.39702  0.77091  0.86140  1.0000
  Fe  Fe254     1.0  0.41848  0.82563  0.84243  1.0000
  S   S504      1.0  0.44799  0.82442  0.83603  1.0000
  Fe  Fe255     1.0  0.38261  0.83241  0.83501  1.0000
  S   S505      1.0  0.36653  0.84266  0.81968  1.0000
  S   S506      1.0  0.40760  0.81499  0.86284  1.0000
  S   S507      1.0  0.36901  0.82230  0.85500  1.0000
  C   C1758     1.0  0.20397  0.80444  0.74131  1.0000
  C   C1759     1.0  0.47092  0.84050  0.86316  1.0000
  C   C1760     1.0  0.45238  0.84218  0.86524  1.0000
  C   C1761     1.0  0.44511  0.83751  0.85687  1.0000
  C   C1762     1.0  0.45643  0.83078  0.84656  1.0000
  C   C1763     1.0  0.47490  0.82903  0.84454  1.0000
  C   C1764     1.0  0.48214  0.83419  0.85266  1.0000
  H   H2148     1.0  0.44360  0.84736  0.87322  1.0000
  H   H2149     1.0  0.43076  0.83935  0.85834  1.0000
  H   H2150     1.0  0.48350  0.82358  0.83669  1.0000
  H   H2151     1.0  0.26263  0.77410  0.74178  1.0000
  C   C1765     1.0  0.36603  0.80429  0.79626  1.0000
  C   C1766     1.0  0.35539  0.82141  0.79451  1.0000
  C   C1767     1.0  0.35572  0.83320  0.80166  1.0000
  C   C1768     1.0  0.36645  0.82781  0.81068  1.0000
  C   C1769     1.0  0.37682  0.81062  0.81250  1.0000
  C   C1770     1.0  0.37677  0.79901  0.80521  1.0000
  H   H2152     1.0  0.34720  0.82567  0.78752  1.0000
  H   H2153     1.0  0.34766  0.84652  0.80021  1.0000
  H   H2154     1.0  0.38492  0.80623  0.81950  1.0000
  H   H2155     1.0  0.38495  0.78578  0.80670  1.0000
  C   C1771     1.0  0.46231  0.69403  0.83065  1.0000
  C   C1772     1.0  0.45652  0.71121  0.82400  1.0000
  C   C1773     1.0  0.46711  0.72384  0.82095  1.0000
  C   C1774     1.0  0.48922  0.70254  0.83157  1.0000
  C   C1775     1.0  0.23365  0.67352  0.80463  1.0000
  C   C1776     1.0  0.47865  0.68981  0.83453  1.0000
  H   H2156     1.0  0.44381  0.71487  0.82128  1.0000
  H   H2157     1.0  0.46256  0.73699  0.81565  1.0000
  C   C1777     1.0  0.40612  0.70713  0.77203  1.0000
  C   C1778     1.0  0.40527  0.70591  0.76005  1.0000
  C   C1779     1.0  0.39062  0.71594  0.75476  1.0000
  C   C1780     1.0  0.37718  0.72767  0.76122  1.0000
  C   C1781     1.0  0.37881  0.72988  0.77273  1.0000
  C   C1782     1.0  0.39317  0.71947  0.77819  1.0000
  H   H2158     1.0  0.41545  0.69658  0.75516  1.0000
  H   H2159     1.0  0.38949  0.71436  0.74578  1.0000
  H   H2160     1.0  0.36867  0.73903  0.77771  1.0000
  H   H2161     1.0  0.39395  0.72069  0.78732  1.0000
  C   C1783     1.0  0.38292  0.74711  0.83366  1.0000
  C   C1784     1.0  0.37638  0.76507  0.83393  1.0000
  C   C1785     1.0  0.38092  0.77247  0.84227  1.0000
  C   C1786     1.0  0.39165  0.76182  0.85066  1.0000
  C   C1787     1.0  0.39816  0.74380  0.85047  1.0000
  C   C1788     1.0  0.39401  0.73649  0.84186  1.0000
  H   H2162     1.0  0.36778  0.77335  0.82766  1.0000
  H   H2163     1.0  0.37582  0.78638  0.84233  1.0000
  H   H2164     1.0  0.40653  0.73551  0.85691  1.0000
  H   H2165     1.0  0.39919  0.72264  0.84169  1.0000
  C   C1789     1.0  0.24731  0.76861  0.77219  1.0000
  C   C1790     1.0  0.25686  0.78215  0.76757  1.0000
  C   C1791     1.0  0.26909  0.78341  0.77405  1.0000
  C   C1792     1.0  0.27120  0.77161  0.78550  1.0000
  C   C1793     1.0  0.26131  0.75832  0.79032  1.0000
  C   C1794     1.0  0.24967  0.75657  0.78353  1.0000
  H   H2166     1.0  0.25489  0.79163  0.75891  1.0000
  H   H2167     1.0  0.27654  0.79382  0.77034  1.0000
  H   H2168     1.0  0.26273  0.74934  0.79926  1.0000
  H   H2169     1.0  0.24207  0.74629  0.78726  1.0000
  H   H2170     1.0  0.36555  0.69444  0.76966  1.0000
  C   C1795     1.0  0.43348  0.76728  0.78275  1.0000
  C   C1796     1.0  0.46559  0.91700  0.95019  1.0000
  H   H2171     1.0  0.44419  0.76967  0.77413  1.0000
  H   H2172     1.0  0.26062  0.81996  0.74579  1.0000
  H   H2173     1.0  0.30126  0.86138  0.73755  1.0000
  H   H2174     1.0  0.46237  0.81274  0.88406  1.0000
  C   C1797     1.0  0.48777  0.87337  0.92070  1.0000
  H   H2175     1.0  0.42516  0.78343  0.88382  1.0000
  H   H2176     1.0  0.41344  0.98780  0.92227  1.0000
  H   H2177     1.0  0.41514  0.74394  0.74515  1.0000
  H   H2178     1.0  0.45776  0.92512  0.95689  1.0000
  Fe  Fe256     1.0  0.23057  0.71939  0.74536  1.0000
  H   H2179     1.0  0.28958  0.81631  0.75165  1.0000
  H   H2180     1.0  0.35406  0.68800  0.78566  1.0000
  H   H2181     1.0  0.39199  0.79530  0.75353  1.0000
  H   H2182     1.0  0.44393  0.90535  0.95092  1.0000
  H   H2183     1.0  0.46101  0.88728  0.93586  1.0000
  C   C1798     1.0  0.19182  0.67517  0.79267  1.0000
  H   H2184     1.0  0.25186  0.69109  0.79913  1.0000
  H   H2185     1.0  0.49666  0.86522  0.91387  1.0000
  H   H2186     1.0  0.48031  0.79199  0.90645  1.0000
  H   H2187     1.0  0.16232  0.68812  0.76442  1.0000
  C   C1799     1.0  0.43761  0.97545  0.88865  1.0000
  N   N118      1.0  0.46140  0.89946  0.87261  1.0000
  C   C1800     1.0  0.47319  0.93895  0.90925  1.0000
  H   H2188     1.0  0.37874  0.96564  0.93047  1.0000
  C   C1801     1.0  0.42410  0.89029  0.86166  1.0000
  H   H2189     1.0  0.18083  0.69492  0.75278  1.0000
  C   C1802     1.0  0.46874  0.95436  0.92600  1.0000
  C   C1803     1.0  0.46262  0.94453  0.92018  1.0000
  C   C1804     1.0  0.24987  0.67784  0.80363  1.0000
  C   C1805     1.0  0.42422  0.94699  0.96161  1.0000
  H   H2190     1.0  0.46049  0.95864  0.93446  1.0000
  H   H2191     1.0  0.44983  0.94107  0.92431  1.0000
  C   C1806     1.0  0.40194  0.87547  0.89500  1.0000
  C   C1807     1.0  0.40878  0.85925  0.89118  1.0000
  C   C1808     1.0  0.40005  0.85393  0.88398  1.0000
  C   C1809     1.0  0.38409  0.86462  0.88084  1.0000
  C   C1810     1.0  0.37744  0.88102  0.88444  1.0000
  C   C1811     1.0  0.38648  0.88658  0.89133  1.0000
  H   H2192     1.0  0.42078  0.85062  0.89396  1.0000
  H   H2193     1.0  0.40526  0.84128  0.88129  1.0000
  H   H2194     1.0  0.36509  0.88934  0.88204  1.0000
  H   H2195     1.0  0.38104  0.89907  0.89427  1.0000
  C   C1812     1.0  0.43839  0.78360  0.88469  1.0000
  H   H2196     1.0  0.30052  0.74129  0.76980  1.0000
  C   C1813     1.0  0.49358  0.90764  0.93605  1.0000
  H   H2197     1.0  0.39131  0.70835  0.86915  1.0000
  H   H2198     1.0  0.46398  0.89452  0.89199  1.0000
  C   C1814     1.0  0.41621  0.93888  0.95572  1.0000
  C   C1815     1.0  0.47804  0.81668  0.80799  1.0000
  H   H2199     1.0  0.40398  0.86204  0.93439  1.0000
  H   H2200     1.0  0.49637  0.83311  0.85087  1.0000
  H   H2201     1.0  0.47488  0.79286  0.80444  1.0000
  H   H2202     1.0  0.40356  0.78625  0.77270  1.0000
  H   H2203     1.0  0.38941  0.67401  0.75963  1.0000
  C   C1816     1.0  0.40703  0.77683  0.76670  1.0000
  C   C1817     1.0  0.48952  0.82505  0.81060  1.0000
  C   C1818     1.0  0.33466  0.70321  0.80690  1.0000
  H   H2204     1.0  0.48602  0.88001  0.87008  1.0000
  H   H2205     1.0  0.24398  0.76194  0.73664  1.0000
  H   H2206     1.0  0.21591  0.66820  0.77895  1.0000
  C   C1819     1.0  0.48573  0.95819  0.92113  1.0000
  H   H2207     1.0  0.34146  0.67771  0.81908  1.0000
  S   S508      1.0  0.43776  0.94955  0.98061  1.0000
  H   H2208     1.0  0.40248  0.67100  0.77099  1.0000
  H   H2209     1.0  0.16807  0.67769  0.80751  1.0000
  C   C1820     1.0  0.48384  0.79927  0.80644  1.0000
  H   H2210     1.0  0.35897  0.67783  0.75898  1.0000
  N   N119      1.0  0.49081  0.78491  0.88829  1.0000
  C   C1821     1.0  0.48918  0.79625  0.89719  1.0000
  H   H2211     1.0  0.33801  0.66403  0.75464  1.0000
  C   C1822     1.0  0.41742  0.75956  0.77011  1.0000
  H   H2212     1.0  0.34168  0.70952  0.81085  1.0000
  H   H2213     1.0  0.38391  0.85228  0.92800  1.0000
  H   H2214     1.0  0.20921  0.80969  0.74715  1.0000
  C   C1823     1.0  0.38485  0.66844  0.86853  1.0000
  H   H2215     1.0  0.47565  0.88423  0.85114  1.0000
  N   N120      1.0  0.37541  0.66749  0.77913  1.0000
  S   S509      1.0  0.42084  0.66529  0.81495  1.0000
  H   H2216     1.0  0.48396  0.83844  0.81189  1.0000
  H   H2217     1.0  0.39024  0.66605  0.79305  1.0000
  N   N121      1.0  0.30676  0.71521  0.78164  1.0000
  C   C1824     1.0  0.31400  0.70703  0.77044  1.0000
  C   C1825     1.0  0.28745  0.71488  0.78620  1.0000
  C   C1826     1.0  0.30814  0.73406  0.77734  1.0000
  C   C1827     1.0  0.31646  0.70520  0.79183  1.0000
  C   C1828     1.0  0.31662  0.68690  0.79681  1.0000
  C   C1829     1.0  0.32580  0.71309  0.79719  1.0000
  C   C1830     1.0  0.35531  0.66624  0.76572  1.0000
  C   C1831     1.0  0.19678  0.78940  0.74647  1.0000
  S   S510      1.0  0.38249  0.97459  0.90336  1.0000
  H   H2218     1.0  0.31237  0.69317  0.77252  1.0000
  H   H2219     1.0  0.15305  0.66524  0.88272  1.0000
  H   H2220     1.0  0.32849  0.70711  0.76670  1.0000
  H   H2221     1.0  0.28160  0.72067  0.79474  1.0000
  H   H2222     1.0  0.28502  0.70127  0.78868  1.0000
  N   N122      1.0  0.18199  0.66675  0.75705  1.0000
  H   H2223     1.0  0.32228  0.73541  0.77332  1.0000
  C   C1832     1.0  0.35790  0.98135  0.97244  1.0000
  H   H2224     1.0  0.30243  0.74124  0.78518  1.0000
  H   H2225     1.0  0.30970  0.68005  0.79327  1.0000
  H   H2226     1.0  0.32647  0.72689  0.79406  1.0000
  H   H2227     1.0  0.49444  0.90459  0.90696  1.0000
  C   C1833     1.0  0.49428  0.72776  0.86308  1.0000
  H   H2228     1.0  0.18522  0.77050  0.74359  1.0000
  H   H2229     1.0  0.37576  0.69267  0.78230  1.0000
  H   H2230     1.0  0.38321  0.85432  0.96172  1.0000
  H   H2231     1.0  0.42428  0.78023  0.78382  1.0000
  C   C1834     1.0  0.48622  0.89595  0.93249  1.0000
  H   H2232     1.0  0.44141  0.92368  0.87348  1.0000
  C   C1835     1.0  0.39725  0.87338  0.93906  1.0000
  H   H2233     1.0  0.37294  0.90080  0.94634  1.0000
  C   C1836     1.0  0.32557  0.67714  0.80648  1.0000
  C   C1837     1.0  0.44270  0.79962  0.88381  1.0000
  C   C1838     1.0  0.49189  0.97386  0.96994  1.0000
  C   C1839     1.0  0.40315  0.77032  0.74798  1.0000
  C   C1840     1.0  0.26365  0.66503  0.80830  1.0000
  H   H2234     1.0  0.48445  0.70817  0.85880  1.0000
  C   C1841     1.0  0.49681  0.95177  0.91061  1.0000
  C   C1842     1.0  0.37292  0.86360  0.92698  1.0000
  H   H2235     1.0  0.37884  0.88521  0.95984  1.0000
  H   H2236     1.0  0.43285  0.81191  0.88215  1.0000
  H   H2237     1.0  0.27631  0.66841  0.80736  1.0000
  H   H2238     1.0  0.48208  0.97369  0.88352  1.0000
  H   H2239     1.0  0.38295  0.84494  0.94916  1.0000
  H   H2240     1.0  0.49674  0.88484  0.96150  1.0000
  C   C1843     1.0  0.41036  0.92328  0.96216  1.0000
  H   H2241     1.0  0.39730  0.77430  0.73972  1.0000
  H   H2242     1.0  0.36224  0.85574  0.95785  1.0000
  N   N123      1.0  0.45361  0.76644  0.84553  1.0000
  C   C1844     1.0  0.46273  0.77750  0.83407  1.0000
  C   C1845     1.0  0.44146  0.75881  0.84159  1.0000
  C   C1846     1.0  0.44225  0.77800  0.85424  1.0000
  C   C1847     1.0  0.46720  0.75295  0.85176  1.0000
  C   C1848     1.0  0.46932  0.73447  0.85288  1.0000
  C   C1849     1.0  0.47922  0.75820  0.85661  1.0000
  C   C1850     1.0  0.48272  0.72215  0.85842  1.0000
  H   H2243     1.0  0.49362  0.80622  0.87194  1.0000
  H   H2244     1.0  0.46068  0.96405  0.87592  1.0000
  H   H2245     1.0  0.45292  0.78757  0.82894  1.0000
  H   H2246     1.0  0.47085  0.78505  0.83632  1.0000
  H   H2247     1.0  0.47189  0.76916  0.82747  1.0000
  H   H2248     1.0  0.43100  0.76927  0.83735  1.0000
  H   H2249     1.0  0.43411  0.75035  0.84982  1.0000
  H   H2250     1.0  0.44890  0.75089  0.83434  1.0000
  H   H2251     1.0  0.44983  0.78598  0.85660  1.0000
  H   H2252     1.0  0.43152  0.78778  0.84995  1.0000
  H   H2253     1.0  0.43552  0.77012  0.86314  1.0000
  H   H2254     1.0  0.46116  0.72918  0.84920  1.0000
  H   H2255     1.0  0.47868  0.77203  0.85581  1.0000
  H   H2256     1.0  0.48246  0.86399  0.92929  1.0000
  C   C1851     1.0  0.36828  0.87617  0.93473  1.0000
  S   S511      1.0  0.32432  0.82104  0.73635  1.0000
  H   H2257     1.0  0.44197  0.89646  0.89039  1.0000
  S   S512      1.0  0.40180  0.91206  0.95444  1.0000
  H   H2258     1.0  0.35692  0.88834  0.95707  1.0000
  H   H2259     1.0  0.45843  0.87677  0.88783  1.0000
  C   C1852     1.0  0.37887  0.97957  0.92720  1.0000
  H   H2260     1.0  0.36794  0.85612  0.91143  1.0000
  N   N124      1.0  0.49756  0.88451  0.92370  1.0000
  H   H2261     1.0  0.48644  0.90105  0.85900  1.0000
  C   C1853     1.0  0.43668  0.73663  0.78325  1.0000
  H   H2262     1.0  0.35788  0.95367  0.97599  1.0000
  H   H2263     1.0  0.46441  0.82370  0.80741  1.0000
  C   C1854     1.0  0.48126  0.89458  0.86893  1.0000
  C   C1855     1.0  0.20581  0.66333  0.78673  1.0000
  H   H2264     1.0  0.47753  0.75544  0.88890  1.0000
  C   C1856     1.0  0.46180  0.98616  0.89743  1.0000
  H   H2265     1.0  0.40072  0.74377  0.79264  1.0000
  H   H2266     1.0  0.43977  0.76281  0.79112  1.0000
  H   H2267     1.0  0.18379  0.68365  0.76831  1.0000
  C   C1857     1.0  0.42002  0.92435  0.98070  1.0000
  C   C1858     1.0  0.49249  0.74574  0.86222  1.0000
  H   H2268     1.0  0.42637  0.87896  0.84591  1.0000
  H   H2269     1.0  0.42774  0.73434  0.76378  1.0000
  H   H2270     1.0  0.48383  0.81050  0.89346  1.0000
  C   C1859     1.0  0.40854  0.75316  0.79289  1.0000
  C   C1860     1.0  0.37654  0.85639  0.95376  1.0000
  C   C1861     1.0  0.27253  0.82145  0.73848  1.0000
  C   C1862     1.0  0.35014  0.88037  0.91522  1.0000
  C   C1863     1.0  0.36387  0.86565  0.91746  1.0000
  H   H2271     1.0  0.48780  0.89877  0.87489  1.0000
  C   C1864     1.0  0.45119  0.76788  0.88648  1.0000
  H   H2272     1.0  0.48904  0.92712  0.94715  1.0000
  C   C1865     1.0  0.33456  0.68529  0.81154  1.0000
  C   C1866     1.0  0.34538  0.89309  0.92251  1.0000
  C   C1867     1.0  0.45198  0.88153  0.84738  1.0000
  H   H2273     1.0  0.34349  0.88209  0.90759  1.0000
  C   C1868     1.0  0.43346  0.88331  0.85109  1.0000
  C   C1869     1.0  0.42036  0.74786  0.76191  1.0000
  H   H2274     1.0  0.46040  0.92548  0.86070  1.0000
  C   C1870     1.0  0.45615  0.91899  0.87078  1.0000
  H   H2275     1.0  0.46225  0.92396  0.87659  1.0000
  C   C1871     1.0  0.35425  0.89111  0.93214  1.0000
  C   C1872     1.0  0.43320  0.89552  0.86856  1.0000
  N   N125      1.0  0.37805  0.87356  0.94481  1.0000
  H   H2276     1.0  0.44197  0.73311  0.79203  1.0000
  C   C1873     1.0  0.45967  0.79994  0.88498  1.0000
  C   C1874     1.0  0.47288  0.78417  0.88717  1.0000
  H   H2277     1.0  0.43007  0.72578  0.78383  1.0000
  C   C1875     1.0  0.42633  0.93966  0.97404  1.0000
  C   C1876     1.0  0.28889  0.81937  0.74180  1.0000
  C   C1877     1.0  0.39189  0.66611  0.76901  1.0000
  H   H2278     1.0  0.35004  0.90162  0.93728  1.0000
  C   C1878     1.0  0.40018  0.78212  0.75575  1.0000
  C   C1879     1.0  0.45624  0.89144  0.88626  1.0000
  C   C1880     1.0  0.46127  0.88650  0.85431  1.0000
  H   H2279     1.0  0.25604  0.66333  0.77076  1.0000
  C   C1881     1.0  0.45212  0.89361  0.86520  1.0000
  N   N126      1.0  0.42402  0.75413  0.78200  1.0000
  H   H2280     1.0  0.41461  0.94474  0.94620  1.0000
  H   H2281     1.0  0.28891  0.77851  0.74618  1.0000
  C   C1882     1.0  0.43139  0.98472  0.89838  1.0000
  C   C1883     1.0  0.36421  0.96341  0.97701  1.0000
  H   H2282     1.0  0.47650  0.88173  0.91619  1.0000
  H   H2283     1.0  0.39873  0.88552  0.93163  1.0000
  H   H2284     1.0  0.42900  0.95888  0.95644  1.0000
  H   H2285     1.0  0.48325  0.67660  0.83972  1.0000
  H   H2286     1.0  0.34671  0.98557  0.96776  1.0000
  C   C1884     1.0  0.36734  0.68643  0.77915  1.0000
  H   H2287     1.0  0.40494  0.87283  0.94614  1.0000
  C   C1885     1.0  0.41205  0.91616  0.97474  1.0000
  C   C1886     1.0  0.46794  0.89546  0.93809  1.0000
  C   C1887     1.0  0.37127  0.88758  0.95231  1.0000
  H   H2288     1.0  0.49455  0.76032  0.90205  1.0000
  H   H2289     1.0  0.44787  0.75546  0.88694  1.0000
  H   H2290     1.0  0.39898  0.76612  0.79293  1.0000
  H   H2291     1.0  0.42291  0.69338  0.86237  1.0000
  N   N127      1.0  0.32160  0.78176  0.81992  1.0000
  C   C1888     1.0  0.33724  0.76739  0.81682  1.0000
  C   C1889     1.0  0.30589  0.77385  0.82684  1.0000
  C   C1890     1.0  0.31741  0.79312  0.80782  1.0000
  C   C1891     1.0  0.32565  0.79141  0.82793  1.0000
  C   C1892     1.0  0.32556  0.80982  0.82429  1.0000
  C   C1893     1.0  0.33009  0.78230  0.83976  1.0000
  C   C1894     1.0  0.32968  0.81842  0.83204  1.0000
  C   C1895     1.0  0.33430  0.79102  0.84739  1.0000
  C   C1896     1.0  0.33408  0.80905  0.84353  1.0000
  H   H2292     1.0  0.33525  0.76040  0.81022  1.0000
  H   H2293     1.0  0.34961  0.77267  0.81229  1.0000
  H   H2294     1.0  0.34014  0.75712  0.82530  1.0000
  H   H2295     1.0  0.30851  0.76378  0.83548  1.0000
  H   H2296     1.0  0.30202  0.76709  0.82087  1.0000
  H   H2297     1.0  0.29405  0.78421  0.82977  1.0000
  H   H2298     1.0  0.32904  0.79877  0.80179  1.0000
  H   H2299     1.0  0.31410  0.78552  0.80216  1.0000
  H   H2300     1.0  0.30555  0.80409  0.80940  1.0000
  H   H2301     1.0  0.32276  0.81786  0.81537  1.0000
  H   H2302     1.0  0.33081  0.76823  0.84305  1.0000
  H   H2303     1.0  0.33002  0.83237  0.82894  1.0000
  H   H2304     1.0  0.33818  0.78370  0.85621  1.0000
  H   H2305     1.0  0.33758  0.81579  0.84933  1.0000
  H   H2306     1.0  0.22291  0.68349  0.80095  1.0000
  C   C1897     1.0  0.48349  0.71961  0.82471  1.0000
  C   C1898     1.0  0.49871  0.89555  0.97654  1.0000
  C   C1899     1.0  0.41321  0.75323  0.75106  1.0000
  C   C1900     1.0  0.39452  0.69474  0.86811  1.0000
  C   C1901     1.0  0.17894  0.66858  0.80288  1.0000
  C   C1902     1.0  0.46823  0.76807  0.88765  1.0000
  H   H2307     1.0  0.19647  0.78305  0.75635  1.0000
  C   C1903     1.0  0.17700  0.68409  0.76076  1.0000
  H   H2308     1.0  0.40970  0.89146  0.86460  1.0000
  H   H2309     1.0  0.45922  0.87567  0.83933  1.0000
  S   S513      1.0  0.49272  0.97143  0.92807  1.0000
  H   H2310     1.0  0.44843  0.73644  0.77515  1.0000
  H   H2311     1.0  0.15928  0.65808  0.77067  1.0000
  C   C1904     1.0  0.37888  0.95797  0.98270  1.0000
  S   S514      1.0  0.49588  0.73632  0.82096  1.0000
  C   C1905     1.0  0.45583  0.97159  0.88326  1.0000
  H   H2312     1.0  0.41269  0.74892  0.80213  1.0000
  H   H2313     1.0  0.32548  0.66319  0.81015  1.0000
  H   H2314     1.0  0.30686  0.71427  0.76264  1.0000
  H   H2315     1.0  0.43334  0.97626  0.92781  1.0000
  C   C1906     1.0  0.46787  0.97706  0.88756  1.0000
  H   H2316     1.0  0.49996  0.93443  0.98288  1.0000
  C   C1907     1.0  0.48333  0.91800  0.94474  1.0000
  H   H2317     1.0  0.42819  0.97112  0.88539  1.0000
  C   C1908     1.0  0.49049  0.94225  0.90462  1.0000
  C   C1909     1.0  0.27972  0.66331  0.77657  1.0000
  C   C1910     1.0  0.20175  0.66162  0.75311  1.0000
  H   H2318     1.0  0.36908  0.65983  0.79951  1.0000
  C   C1911     1.0  0.38746  0.97043  0.98369  1.0000
  C   C1912     1.0  0.49414  0.97401  0.98175  1.0000
  C   C1913     1.0  0.41644  0.66889  0.86274  1.0000
  H   H2319     1.0  0.26869  0.86307  0.74198  1.0000
  C   C1914     1.0  0.41228  0.68629  0.86436  1.0000
  C   C1915     1.0  0.38085  0.68582  0.87024  1.0000
  H   H2320     1.0  0.15872  0.67153  0.74916  1.0000
  H   H2321     1.0  0.40752  0.90411  0.97981  1.0000
  C   C1916     1.0  0.40286  0.65945  0.86463  1.0000
  H   H2322     1.0  0.48444  0.89738  0.98029  1.0000
  C   C1917     1.0  0.17363  0.66840  0.74637  1.0000
  H   H2323     1.0  0.30352  0.65899  0.78359  1.0000
  C   C1918     1.0  0.21119  0.67247  0.74270  1.0000
  C   C1919     1.0  0.22988  0.66848  0.73917  1.0000
  C   C1920     1.0  0.38084  0.65923  0.79141  1.0000
  C   C1921     1.0  0.36254  0.65914  0.77674  1.0000
  C   C1922     1.0  0.28901  0.77816  0.73661  1.0000
  H   H2324     1.0  0.36703  0.69258  0.87296  1.0000
  H   H2325     1.0  0.37355  0.66254  0.87003  1.0000
  C   C1923     1.0  0.19041  0.78227  0.73895  1.0000
  H   H2326     1.0  0.37710  0.98340  0.94574  1.0000
  H   H2327     1.0  0.19762  0.71642  0.73979  1.0000
  H   H2328     1.0  0.17724  0.67921  0.73821  1.0000
  H   H2329     1.0  0.47666  0.98615  0.95556  1.0000
  H   H2330     1.0  0.41710  0.98746  0.90215  1.0000
  H   H2331     1.0  0.41719  0.98611  0.97250  1.0000
  C   C1924     1.0  0.37991  0.98749  0.91438  1.0000
  C   C1925     1.0  0.47843  0.98642  0.96473  1.0000
  C   C1926     1.0  0.38137  0.98883  0.97918  1.0000
  C   C1927     1.0  0.34343  0.65839  0.76309  1.0000
  H   H2332     1.0  0.47193  0.98948  0.90055  1.0000
  H   H2333     1.0  0.43042  0.66311  0.85955  1.0000
  H   H2334     1.0  0.50058  0.96396  0.96481  1.0000
  H   H2335     1.0  0.50066  0.84452  0.82343  1.0000
  C   C1928     1.0  0.50073  0.79263  0.87572  1.0000
  C   C1929     1.0  0.37783  0.98968  0.93586  1.0000
  C   C1930     1.0  0.42542  0.98967  0.92453  1.0000
  Fe  Fe257     1.0  0.56837  0.13047  0.01370  1.0000
  S   S515      1.0  0.55669  0.10946  0.02865  1.0000
  Fe  Fe258     1.0  0.57574  0.14570  0.03381  1.0000
  S   S516      1.0  0.56487  0.12527  0.04990  1.0000
  S   S517      1.0  0.58119  0.17013  0.03714  1.0000
  Fe  Fe259     1.0  0.57988  0.10620  0.03722  1.0000
  S   S518      1.0  0.59263  0.07771  0.04404  1.0000
  Fe  Fe260     1.0  0.54301  0.13060  0.03950  1.0000
  C   C1931     1.0  0.60793  0.30804  0.16666  1.0000
  S   S519      1.0  0.59270  0.12625  0.02171  1.0000
  S   S520      1.0  0.55286  0.15202  0.02407  1.0000
  Fe  Fe261     1.0  0.58922  0.24335  0.08635  1.0000
  S   S521      1.0  0.56905  0.25155  0.10295  1.0000
  S   S522      1.0  0.60312  0.26226  0.07074  1.0000
  Fe  Fe262     1.0  0.58458  0.20544  0.09438  1.0000
  S   S523      1.0  0.56457  0.21027  0.11232  1.0000
  S   S524      1.0  0.59221  0.17870  0.08885  1.0000
  Fe  Fe263     1.0  0.55285  0.23505  0.09979  1.0000
  S   S525      1.0  0.52336  0.24493  0.10095  1.0000
  Fe  Fe264     1.0  0.58268  0.22631  0.11417  1.0000
  S   S526      1.0  0.58507  0.23060  0.13271  1.0000
  S   S527      1.0  0.57159  0.22950  0.08185  1.0000
  S   S528      1.0  0.60407  0.21893  0.09754  1.0000
  C   C1932     1.0  0.54301  0.05857  0.04669  1.0000
  H   H2336     1.0  0.55219  0.06771  0.04490  1.0000
  Fe  Fe265     1.0  0.69181  0.25281  0.16293  1.0000
  S   S529      1.0  0.67850  0.25594  0.18263  1.0000
  S   S530      1.0  0.71715  0.26181  0.15200  1.0000
  Fe  Fe266     1.0  0.66447  0.23352  0.16120  1.0000
  S   S531      1.0  0.64893  0.23451  0.18109  1.0000
  S   S532      1.0  0.65999  0.22125  0.14669  1.0000
  Fe  Fe267     1.0  0.65297  0.26241  0.17591  1.0000
  S   S533      1.0  0.63236  0.28641  0.18020  1.0000
  Fe  Fe268     1.0  0.67586  0.22787  0.18624  1.0000
  S   S534      1.0  0.68434  0.20786  0.20318  1.0000
  S   S535      1.0  0.66651  0.26199  0.15572  1.0000
  S   S536      1.0  0.69117  0.22415  0.16685  1.0000
  H   H2337     1.0  0.67926  0.29257  0.18530  1.0000
  C   C1933     1.0  0.77133  0.19395  0.20794  1.0000
  H   H2338     1.0  0.54824  0.07912  0.99939  1.0000
  C   C1934     1.0  0.51338  0.20912  0.05207  1.0000
  C   C1935     1.0  0.50896  0.12207  0.01701  1.0000
  S   S537      1.0  0.76392  0.27548  0.18396  1.0000
  H   H2339     1.0  0.64204  0.30775  0.14956  1.0000
  H   H2340     1.0  0.64541  0.31857  0.16768  1.0000
  H   H2341     1.0  0.69380  0.31770  0.16091  1.0000
  H   H2342     1.0  0.55108  0.04704  0.04257  1.0000
  C   C1936     1.0  0.72945  0.26786  0.16033  1.0000
  C   C1937     1.0  0.74804  0.26540  0.15607  1.0000
  C   C1938     1.0  0.75851  0.26828  0.16319  1.0000
  C   C1939     1.0  0.75039  0.27437  0.17435  1.0000
  C   C1940     1.0  0.73168  0.27781  0.17830  1.0000
  C   C1941     1.0  0.72122  0.27434  0.17135  1.0000
  H   H2343     1.0  0.75443  0.26055  0.14749  1.0000
  H   H2344     1.0  0.77295  0.26561  0.16011  1.0000
  H   H2345     1.0  0.72538  0.28235  0.18700  1.0000
  H   H2346     1.0  0.70688  0.27634  0.17460  1.0000
  C   C1942     1.0  0.61632  0.29059  0.17117  1.0000
  C   C1943     1.0  0.52011  0.00054  0.99541  1.0000
  C   C1944     1.0  0.65179  0.32121  0.13061  1.0000
  C   C1945     1.0  0.59296  0.29762  0.15491  1.0000
  C   C1946     1.0  0.60064  0.28013  0.15993  1.0000
  C   C1947     1.0  0.61268  0.27663  0.16781  1.0000
  C   C1948     1.0  0.51431  0.01536  0.00087  1.0000
  H   H2347     1.0  0.56015  0.03079  0.99112  1.0000
  H   H2348     1.0  0.59774  0.26932  0.15741  1.0000
  H   H2349     1.0  0.61908  0.26312  0.17133  1.0000
  H   H2350     1.0  0.50429  0.14249  0.07325  1.0000
  H   H2351     1.0  0.53158  0.05040  0.99834  1.0000
  H   H2352     1.0  0.68425  0.25483  0.22342  1.0000
  C   C1949     1.0  0.68409  0.23433  0.21450  1.0000
  C   C1950     1.0  0.69021  0.21647  0.21393  1.0000
  Fe  Fe269     1.0  0.56795  0.00797  0.02191  1.0000
  S   S538      1.0  0.57934  0.30187  0.14413  1.0000
  C   C1951     1.0  0.54358  0.28432  0.07935  1.0000
  H   H2353     1.0  0.67482  0.24285  0.20881  1.0000
  H   H2354     1.0  0.68108  0.31357  0.19587  1.0000
  H   H2355     1.0  0.54010  0.06179  0.02257  1.0000
  C   C1952     1.0  0.60606  0.22867  0.13613  1.0000
  C   C1953     1.0  0.62201  0.22049  0.12905  1.0000
  C   C1954     1.0  0.63838  0.21825  0.13247  1.0000
  C   C1955     1.0  0.63902  0.22447  0.14282  1.0000
  C   C1956     1.0  0.62314  0.23318  0.14967  1.0000
  C   C1957     1.0  0.60670  0.23512  0.14639  1.0000
  H   H2356     1.0  0.62168  0.21540  0.12118  1.0000
  H   H2357     1.0  0.65062  0.21153  0.12712  1.0000
  H   H2358     1.0  0.62347  0.23805  0.15764  1.0000
  H   H2359     1.0  0.59441  0.24143  0.15193  1.0000
  C   C1958     1.0  0.60685  0.28005  0.07521  1.0000
  C   C1959     1.0  0.61561  0.29223  0.06593  1.0000
  H   H2360     1.0  0.63763  0.22720  0.22292  1.0000
  H   H2361     1.0  0.83124  0.28631  0.20799  1.0000
  C   C1960     1.0  0.60420  0.29697  0.09083  1.0000
  C   C1961     1.0  0.60125  0.28235  0.08771  1.0000
  H   H2362     1.0  0.62004  0.29050  0.05627  1.0000
  C   C1962     1.0  0.51713  0.29829  0.13583  1.0000
  H   H2363     1.0  0.59994  0.29871  0.10048  1.0000
  H   H2364     1.0  0.59483  0.27282  0.09500  1.0000
  C   C1963     1.0  0.51456  0.23167  0.09519  1.0000
  C   C1964     1.0  0.56320  0.11749  0.98785  1.0000
  C   C1965     1.0  0.52936  0.27519  0.12390  1.0000
  C   C1966     1.0  0.82094  0.31436  0.20659  1.0000
  C   C1967     1.0  0.51745  0.20520  0.08777  1.0000
  C   C1968     1.0  0.52507  0.21591  0.09185  1.0000
  H   H2365     1.0  0.51494  0.06075  0.00998  1.0000
  S   S539      1.0  0.73404  0.31162  0.20231  1.0000
  H   H2366     1.0  0.52563  0.19306  0.08514  1.0000
  H   H2367     1.0  0.53899  0.21184  0.09253  1.0000
  C   C1969     1.0  0.58521  0.03727  0.03232  1.0000
  C   C1970     1.0  0.59031  0.06478  0.03446  1.0000
  C   C1971     1.0  0.58725  0.07276  0.02233  1.0000
  C   C1972     1.0  0.58992  0.04681  0.03927  1.0000
  H   H2368     1.0  0.58836  0.08635  0.01827  1.0000
  H   H2369     1.0  0.59252  0.04049  0.04859  1.0000
  C   C1973     1.0  0.58217  0.17181  0.05227  1.0000
  C   C1974     1.0  0.58809  0.15698  0.06125  1.0000
  C   C1975     1.0  0.59083  0.15918  0.07255  1.0000
  C   C1976     1.0  0.58706  0.17612  0.07515  1.0000
  C   C1977     1.0  0.58011  0.19074  0.06649  1.0000
  C   C1978     1.0  0.57810  0.18865  0.05500  1.0000
  H   H2370     1.0  0.59146  0.14393  0.05920  1.0000
  H   H2371     1.0  0.59620  0.14775  0.07919  1.0000
  H   H2372     1.0  0.57672  0.20371  0.06849  1.0000
  H   H2373     1.0  0.57363  0.20019  0.04809  1.0000
  C   C1979     1.0  0.54424  0.25570  0.14665  1.0000
  C   C1980     1.0  0.53238  0.19283  0.03648  1.0000
  C   C1981     1.0  0.51890  0.04911  0.00550  1.0000
  C   C1982     1.0  0.51457  0.12890  0.02507  1.0000
  H   H2374     1.0  0.52206  0.03717  0.01299  1.0000
  C   C1983     1.0  0.58246  0.06331  0.01545  1.0000
  S   S540      1.0  0.50883  0.99117  0.03520  1.0000
  H   H2375     1.0  0.52712  0.13310  0.02191  1.0000
  H   H2376     1.0  0.51759  0.12037  0.00795  1.0000
  N   N128      1.0  0.64071  0.27881  0.11921  1.0000
  C   C1984     1.0  0.64288  0.28134  0.10534  1.0000
  C   C1985     1.0  0.65293  0.26201  0.12361  1.0000
  C   C1986     1.0  0.62192  0.27709  0.12516  1.0000
  C   C1987     1.0  0.64480  0.29337  0.12290  1.0000
  C   C1988     1.0  0.68935  0.24107  0.22286  1.0000
  C   C1989     1.0  0.64151  0.29389  0.13584  1.0000
  H   H2377     1.0  0.51670  0.30514  0.14298  1.0000
  H   H2378     1.0  0.57969  0.06975  0.00621  1.0000
  N   N129      1.0  0.50471  0.04822  0.99957  1.0000
  H   H2379     1.0  0.65706  0.28106  0.10028  1.0000
  H   H2380     1.0  0.63880  0.27071  0.10287  1.0000
  C   C1990     1.0  0.51774  0.08285  0.04657  1.0000
  H   H2381     1.0  0.66723  0.26285  0.11978  1.0000
  H   H2382     1.0  0.65079  0.25068  0.12074  1.0000
  H   H2383     1.0  0.65093  0.25848  0.13409  1.0000
  H   H2384     1.0  0.61232  0.28992  0.12298  1.0000
  H   H2385     1.0  0.61810  0.26698  0.12193  1.0000
  H   H2386     1.0  0.61964  0.27271  0.13560  1.0000
  S   S541      1.0  0.56847  0.13413  0.99288  1.0000
  S   S542      1.0  0.51363  0.13407  0.04820  1.0000
  C   C1991     1.0  0.66992  0.30289  0.17995  1.0000
  H   H2387     1.0  0.74309  0.24560  0.21997  1.0000
  C   C1992     1.0  0.51620  0.28267  0.11676  1.0000
  N   N130      1.0  0.62083  0.21725  0.05207  1.0000
  C   C1993     1.0  0.60401  0.23008  0.04976  1.0000
  C   C1994     1.0  0.62014  0.21330  0.06586  1.0000
  C   C1995     1.0  0.63616  0.22584  0.04551  1.0000
  C   C1996     1.0  0.62293  0.20132  0.04715  1.0000
  C   C1997     1.0  0.62614  0.18382  0.05461  1.0000
  C   C1998     1.0  0.62193  0.20302  0.03445  1.0000
  C   C1999     1.0  0.62777  0.16913  0.04969  1.0000
  C   C2000     1.0  0.62329  0.18824  0.02970  1.0000
  C   C2001     1.0  0.62612  0.17133  0.03732  1.0000
  H   H2388     1.0  0.59232  0.22368  0.05356  1.0000
  H   H2389     1.0  0.60122  0.24148  0.05436  1.0000
  H   H2390     1.0  0.60439  0.23593  0.03958  1.0000
  H   H2391     1.0  0.60888  0.20674  0.07136  1.0000
  H   H2392     1.0  0.61811  0.22555  0.06935  1.0000
  H   H2393     1.0  0.63282  0.20468  0.06830  1.0000
  H   H2394     1.0  0.63696  0.23019  0.03515  1.0000
  H   H2395     1.0  0.63508  0.23783  0.04908  1.0000
  H   H2396     1.0  0.64908  0.21661  0.04696  1.0000
  H   H2397     1.0  0.62688  0.18108  0.06442  1.0000
  H   H2398     1.0  0.61981  0.21583  0.02814  1.0000
  H   H2399     1.0  0.62958  0.15596  0.05567  1.0000
  H   H2400     1.0  0.62171  0.18985  0.02016  1.0000
  H   H2401     1.0  0.62656  0.15995  0.03375  1.0000
  C   C2002     1.0  0.56225  0.27570  0.13234  1.0000
  H   H2402     1.0  0.51283  0.01307  0.01097  1.0000
  H   H2403     1.0  0.54566  0.18824  0.03107  1.0000
  C   C2003     1.0  0.53026  0.28272  0.13368  1.0000
  C   C2004     1.0  0.54288  0.28334  0.15140  1.0000
  H   H2404     1.0  0.50661  0.09107  0.04202  1.0000
  H   H2405     1.0  0.56340  0.29574  0.08128  1.0000
  H   H2406     1.0  0.58754  0.99719  0.98972  1.0000
  N   N131      1.0  0.54456  0.27462  0.14095  1.0000
  H   H2407     1.0  0.53883  0.26339  0.12169  1.0000
  H   H2408     1.0  0.55463  0.24940  0.15242  1.0000
  C   C2005     1.0  0.53033  0.20326  0.04503  1.0000
  C   C2006     1.0  0.58078  0.04580  0.02061  1.0000
  C   C2007     1.0  0.55718  0.10317  0.99659  1.0000
  H   H2409     1.0  0.52685  0.09180  0.04545  1.0000
  H   H2410     1.0  0.70665  0.19162  0.22125  1.0000
  H   H2411     1.0  0.65536  0.30795  0.10389  1.0000
  H   H2412     1.0  0.53026  0.03097  0.05282  1.0000
  H   H2413     1.0  0.55335  0.27277  0.07678  1.0000
  C   C2008     1.0  0.51078  0.03279  0.99348  1.0000
  H   H2414     1.0  0.53000  0.28269  0.15841  1.0000
  H   H2415     1.0  0.58421  0.02362  0.03628  1.0000
  H   H2416     1.0  0.75644  0.27261  0.21145  1.0000
  H   H2417     1.0  0.53095  0.25417  0.15281  1.0000
  H   H2418     1.0  0.59119  0.01454  0.99494  1.0000
  S   S543      1.0  0.57135  0.03570  0.01275  1.0000
  H   H2419     1.0  0.77728  0.26107  0.21600  1.0000
  C   C2009     1.0  0.53475  0.16630  0.10950  1.0000
  H   H2420     1.0  0.51585  0.27665  0.10933  1.0000
  H   H2421     1.0  0.77438  0.18206  0.21507  1.0000
  C   C2010     1.0  0.55274  0.09022  0.99252  1.0000
  C   C2011     1.0  0.51750  0.18811  0.03496  1.0000
  H   H2422     1.0  0.50638  0.17016  0.11698  1.0000
  H   H2423     1.0  0.54112  0.31269  0.10809  1.0000
  H   H2424     1.0  0.56308  0.28968  0.12777  1.0000
  H   H2425     1.0  0.57340  0.26994  0.13749  1.0000
  N   N132      1.0  0.52495  0.14817  0.07972  1.0000
  C   C2012     1.0  0.53015  0.16053  0.06758  1.0000
  C   C2013     1.0  0.53601  0.13016  0.07906  1.0000
  C   C2014     1.0  0.51284  0.30010  0.08379  1.0000
  C   C2015     1.0  0.52802  0.15411  0.09016  1.0000
  C   C2016     1.0  0.54556  0.15497  0.09035  1.0000
  H   H2426     1.0  0.76501  0.23472  0.22202  1.0000
  C   C2017     1.0  0.54882  0.16093  0.09990  1.0000
  C   C2018     1.0  0.78076  0.20728  0.20535  1.0000
  H   H2427     1.0  0.78394  0.23317  0.19433  1.0000
  H   H2428     1.0  0.54465  0.16073  0.06518  1.0000
  H   H2429     1.0  0.52746  0.15694  0.05949  1.0000
  H   H2430     1.0  0.52255  0.17431  0.06797  1.0000
  H   H2431     1.0  0.55061  0.12987  0.07661  1.0000
  H   H2432     1.0  0.53335  0.12493  0.07170  1.0000
  H   H2433     1.0  0.52121  0.27495  0.07833  1.0000
  C   C2019     1.0  0.61884  0.30659  0.06906  1.0000
  C   C2020     1.0  0.82927  0.29747  0.21225  1.0000
  H   H2434     1.0  0.67148  0.29891  0.17090  1.0000
  H   H2435     1.0  0.55687  0.15134  0.08296  1.0000
  C   C2021     1.0  0.50345  0.29777  0.11918  1.0000
  H   H2436     1.0  0.56232  0.16167  0.09974  1.0000
  H   H2437     1.0  0.54193  0.20666  0.04628  1.0000
  H   H2438     1.0  0.51202  0.07883  0.05684  1.0000
  N   N133      1.0  0.73917  0.21421  0.18533  1.0000
  C   C2022     1.0  0.72502  0.22950  0.18876  1.0000
  C   C2023     1.0  0.74620  0.21814  0.17145  1.0000
  C   C2024     1.0  0.73067  0.19880  0.18837  1.0000
  C   C2025     1.0  0.75366  0.21135  0.19209  1.0000
  C   C2026     1.0  0.76342  0.22471  0.18981  1.0000
  C   C2027     1.0  0.75794  0.19588  0.20146  1.0000
  C   C2028     1.0  0.77676  0.22266  0.19632  1.0000
  H   H2439     1.0  0.52011  0.17991  0.02823  1.0000
  H   H2440     1.0  0.79115  0.20568  0.21038  1.0000
  H   H2441     1.0  0.72012  0.22755  0.19917  1.0000
  H   H2442     1.0  0.72993  0.24195  0.18559  1.0000
  H   H2443     1.0  0.71335  0.23167  0.18445  1.0000
  H   H2444     1.0  0.75162  0.23034  0.16811  1.0000
  H   H2445     1.0  0.73548  0.22046  0.16614  1.0000
  H   H2446     1.0  0.75711  0.20710  0.16845  1.0000
  H   H2447     1.0  0.72398  0.19577  0.19852  1.0000
  H   H2448     1.0  0.71989  0.20143  0.18307  1.0000
  H   H2449     1.0  0.74055  0.18681  0.18590  1.0000
  H   H2450     1.0  0.76066  0.23701  0.18306  1.0000
  H   H2451     1.0  0.75107  0.18512  0.20401  1.0000
  C   C2029     1.0  0.59269  0.00955  0.98633  1.0000
  Fe  Fe270     1.0  0.75810  0.30250  0.18803  1.0000
  C   C2030     1.0  0.59663  0.31160  0.15823  1.0000
  H   H2452     1.0  0.53910  0.05404  0.05712  1.0000
  C   C2031     1.0  0.65239  0.30714  0.11395  1.0000
  C   C2032     1.0  0.54917  0.29773  0.08199  1.0000
  H   H2453     1.0  0.53731  0.17131  0.11671  1.0000
  H   H2454     1.0  0.63615  0.28370  0.14319  1.0000
  H   H2455     1.0  0.54394  0.29744  0.14779  1.0000
  C   C2033     1.0  0.53376  0.07326  0.02720  1.0000
  C   C2034     1.0  0.51396  0.15954  0.10018  1.0000
  C   C2035     1.0  0.70178  0.20543  0.22170  1.0000
  C   C2036     1.0  0.50427  0.12980  0.03721  1.0000
  S   S544      1.0  0.77740  0.30939  0.19618  1.0000
  H   H2456     1.0  0.55389  0.27700  0.15663  1.0000
  H   H2457     1.0  0.56519  0.26823  0.12478  1.0000
  C   C2037     1.0  0.51474  0.05543  0.04301  1.0000
  H   H2458     1.0  0.54413  0.08112  0.02519  1.0000
  H   H2459     1.0  0.65616  0.30223  0.18567  1.0000
  H   H2460     1.0  0.53319  0.12072  0.08827  1.0000
  C   C2038     1.0  0.51837  0.03722  0.04908  1.0000
  C   C2039     1.0  0.51737  0.16557  0.10966  1.0000
  H   H2461     1.0  0.55605  0.10197  0.00649  1.0000
  H   H2462     1.0  0.51181  0.21700  0.05890  1.0000
  S   S545      1.0  0.55354  0.99729  0.01214  1.0000
  C   C2040     1.0  0.64495  0.30761  0.13961  1.0000
  H   H2463     1.0  0.63441  0.29414  0.10144  1.0000
  N   N134      1.0  0.52716  0.06721  0.04098  1.0000
  S   S546      1.0  0.55118  0.99962  0.04100  1.0000
  H   H2464     1.0  0.54735  0.24761  0.13943  1.0000
  C   C2041     1.0  0.76349  0.26843  0.21943  1.0000
  H   H2465     1.0  0.52293  0.08181  0.02237  1.0000
  C   C2042     1.0  0.52549  0.28553  0.08020  1.0000
  N   N135      1.0  0.67351  0.32077  0.17778  1.0000
  H   H2466     1.0  0.76481  0.28066  0.22160  1.0000
  H   H2467     1.0  0.72681  0.26954  0.22768  1.0000
  H   H2468     1.0  0.70196  0.30990  0.17530  1.0000
  C   C2043     1.0  0.61304  0.30909  0.08147  1.0000
  C   C2044     1.0  0.83501  0.29488  0.22339  1.0000
  C   C2045     1.0  0.75198  0.24183  0.22685  1.0000
  C   C2046     1.0  0.50669  0.02631  0.05030  1.0000
  H   H2469     1.0  0.50992  0.01234  0.05464  1.0000
  C   C2047     1.0  0.50602  0.14738  0.08111  1.0000
  H   H2470     1.0  0.81681  0.31571  0.19792  1.0000
  H   H2471     1.0  0.50640  0.11931  0.98842  1.0000
  C   C2048     1.0  0.70729  0.21226  0.22990  1.0000
  C   C2049     1.0  0.73535  0.26797  0.23446  1.0000
  C   C2050     1.0  0.70072  0.22999  0.23072  1.0000
  H   H2472     1.0  0.84130  0.28175  0.22785  1.0000
  H   H2473     1.0  0.64069  0.19481  0.22815  1.0000
  C   C2051     1.0  0.51825  0.31355  0.08652  1.0000
  C   C2052     1.0  0.50390  0.30554  0.12871  1.0000
  N   N136      1.0  0.75377  0.25751  0.23063  1.0000
  H   H2474     1.0  0.61057  0.31881  0.16938  1.0000
  C   C2053     1.0  0.53662  0.31292  0.08553  1.0000
  C   C2054     1.0  0.83250  0.30918  0.22888  1.0000
  C   C2055     1.0  0.64338  0.21923  0.23091  1.0000
  Fe  Fe271     1.0  0.75303  0.32071  0.20942  1.0000
  H   H2475     1.0  0.62578  0.31586  0.06183  1.0000
  S   S547      1.0  0.75079  0.31379  0.23046  1.0000
  C   C2056     1.0  0.65567  0.32089  0.11783  1.0000
  C   C2057     1.0  0.69216  0.32034  0.17042  1.0000
  H   H2476     1.0  0.56867  0.31371  0.09147  1.0000
  H   H2477     1.0  0.50123  0.13826  0.09006  1.0000
  C   C2058     1.0  0.64513  0.20095  0.23388  1.0000
  H   H2478     1.0  0.55856  0.01344  0.98460  1.0000
  H   H2479     1.0  0.54766  0.13354  0.40454  1.0000
  H   H2480     1.0  0.67555  0.16177  0.25656  1.0000
  Fe  Fe272     1.0  0.53241  0.08140  0.44928  1.0000
  S   S548      1.0  0.54245  0.09619  0.42970  1.0000
  H   H2481     1.0  0.82376  0.01423  0.26943  1.0000
  C   C2059     1.0  0.89430  0.27268  0.28945  1.0000
  C   C2060     1.0  0.78634  0.02130  0.36034  1.0000
  Fe  Fe273     1.0  0.56215  0.10166  0.43843  1.0000
  S   S549      1.0  0.59176  0.10047  0.43086  1.0000
  S   S550      1.0  0.55377  0.08449  0.45740  1.0000
  Fe  Fe274     1.0  0.71685  0.22017  0.25821  1.0000
  S   S551      1.0  0.69850  0.21491  0.27730  1.0000
  Fe  Fe275     1.0  0.74987  0.19855  0.26818  1.0000
  S   S552      1.0  0.73441  0.19167  0.28800  1.0000
  S   S553      1.0  0.77935  0.18703  0.26512  1.0000
  Fe  Fe276     1.0  0.71463  0.18701  0.27911  1.0000
  S   S554      1.0  0.70464  0.16158  0.28566  1.0000
  Fe  Fe277     1.0  0.72010  0.22005  0.28438  1.0000
  S   S555      1.0  0.71357  0.23595  0.29921  1.0000
  S   S556      1.0  0.73122  0.19188  0.25927  1.0000
  S   S557      1.0  0.73717  0.22748  0.26525  1.0000
  Fe  Fe278     1.0  0.80192  0.09732  0.30523  1.0000
  S   S558      1.0  0.80817  0.11536  0.31470  1.0000
  S   S559      1.0  0.78439  0.10632  0.29125  1.0000
  Fe  Fe279     1.0  0.81967  0.06383  0.32098  1.0000
  S   S560      1.0  0.82802  0.07874  0.33192  1.0000
  S   S561      1.0  0.82406  0.03392  0.32575  1.0000
  Fe  Fe280     1.0  0.80039  0.09582  0.33253  1.0000
  S   S562      1.0  0.78462  0.10470  0.35036  1.0000
  Fe  Fe281     1.0  0.83526  0.09714  0.31323  1.0000
  S   S563      1.0  0.85954  0.10955  0.30652  1.0000
  S   S564      1.0  0.79147  0.07953  0.32322  1.0000
  S   S565      1.0  0.82963  0.08050  0.30211  1.0000
  Fe  Fe282     1.0  0.89234  0.16966  0.33403  1.0000
  S   S566      1.0  0.91835  0.16302  0.32047  1.0000
  S   S567      1.0  0.87104  0.15347  0.34160  1.0000
  Fe  Fe283     1.0  0.89933  0.20471  0.33469  1.0000
  S   S568      1.0  0.92594  0.20121  0.32113  1.0000
  S   S569      1.0  0.88526  0.23036  0.34063  1.0000
  Fe  Fe284     1.0  0.91211  0.19133  0.31042  1.0000
  S   S570      1.0  0.91700  0.19794  0.28929  1.0000
  Fe  Fe285     1.0  0.93003  0.17325  0.33240  1.0000
  S   S571      1.0  0.95717  0.15820  0.33597  1.0000
  S   S572      1.0  0.88508  0.19711  0.32296  1.0000
  S   S573      1.0  0.90444  0.17758  0.34703  1.0000
  S   S574      1.0  0.80431  0.27359  0.27471  1.0000
  Fe  Fe286     1.0  0.53465  0.10916  0.46208  1.0000
  Fe  Fe287     1.0  0.83201  0.26029  0.27764  1.0000
  S   S575      1.0  0.84748  0.23784  0.26820  1.0000
  H   H2482     1.0  0.87403  0.30346  0.33564  1.0000
  H   H2483     1.0  0.79858  0.04893  0.34583  1.0000
  Fe  Fe288     1.0  0.66823  0.11042  0.34901  1.0000
  S   S576      1.0  0.66496  0.10186  0.37005  1.0000
  S   S577      1.0  0.66024  0.13968  0.34124  1.0000
  Fe  Fe289     1.0  0.68200  0.07275  0.34518  1.0000
  S   S578      1.0  0.67971  0.06117  0.36591  1.0000
  S   S579      1.0  0.69280  0.05366  0.33213  1.0000
  Fe  Fe290     1.0  0.65330  0.08046  0.36830  1.0000
  S   S580      1.0  0.62775  0.07246  0.38033  1.0000
  Fe  Fe291     1.0  0.69165  0.08355  0.36560  1.0000
  S   S581      1.0  0.71224  0.07928  0.37700  1.0000
  S   S582      1.0  0.65453  0.09042  0.34745  1.0000
  S   S583      1.0  0.69598  0.09381  0.34464  1.0000
  H   H2484     1.0  0.73731  0.01283  0.34256  1.0000
  H   H2485     1.0  0.85180  0.00395  0.29982  1.0000
  H   H2486     1.0  0.97448  0.31201  0.37344  1.0000
  C   C2061     1.0  0.76802  0.04180  0.37326  1.0000
  S   S584      1.0  0.92124  0.27034  0.36481  1.0000
  H   H2487     1.0  0.73877  0.13628  0.36204  1.0000
  C   C2062     1.0  0.99873  0.26607  0.31550  1.0000
  C   C2063     1.0  0.73860  0.05243  0.33592  1.0000
  C   C2064     1.0  0.75693  0.04959  0.33086  1.0000
  H   H2488     1.0  0.79397  0.01930  0.35074  1.0000
  H   H2489     1.0  0.60359  0.13081  0.39808  1.0000
  C   C2065     1.0  0.55223  0.99777  0.46265  1.0000
  C   C2066     1.0  0.65536  0.01532  0.34369  1.0000
  C   C2067     1.0  0.67109  0.01250  0.33445  1.0000
  C   C2068     1.0  0.68243  0.02455  0.33067  1.0000
  C   C2069     1.0  0.67817  0.03918  0.33624  1.0000
  C   C2070     1.0  0.66244  0.04191  0.34543  1.0000
  C   C2071     1.0  0.65098  0.03012  0.34905  1.0000
  C   C2072     1.0  0.99619  0.30666  0.38248  1.0000
  H   H2490     1.0  0.69462  0.02240  0.32365  1.0000
  H   H2491     1.0  0.65901  0.05310  0.34982  1.0000
  H   H2492     1.0  0.63874  0.03245  0.35608  1.0000
  H   H2493     1.0  0.69426  0.18400  0.24748  1.0000
  C   C2073     1.0  0.65785  0.21688  0.24780  1.0000
  C   C2074     1.0  0.57974  0.08804  0.47895  1.0000
  C   C2075     1.0  0.83190  0.04262  0.28330  1.0000
  C   C2076     1.0  0.96693  0.16911  0.34302  1.0000
  C   C2077     1.0  0.98544  0.16840  0.33944  1.0000
  C   C2078     1.0  0.52151  0.99301  0.46831  1.0000
  C   C2079     1.0  0.98297  0.18540  0.35488  1.0000
  C   C2080     1.0  0.96453  0.18586  0.35858  1.0000
  C   C2081     1.0  0.95645  0.17809  0.35248  1.0000
  H   H2494     1.0  0.83664  0.30709  0.23770  1.0000
  Fe  Fe292     1.0  0.83185  0.28316  0.29532  1.0000
  H   H2495     1.0  0.95644  0.19233  0.36616  1.0000
  H   H2496     1.0  0.94220  0.17857  0.35536  1.0000
  C   C2082     1.0  0.89748  0.20872  0.28363  1.0000
  C   C2083     1.0  0.89625  0.20740  0.27177  1.0000
  C   C2084     1.0  0.88080  0.21630  0.26708  1.0000
  C   C2085     1.0  0.86678  0.22688  0.27409  1.0000
  C   C2086     1.0  0.86812  0.22830  0.28589  1.0000
  C   C2087     1.0  0.88333  0.21906  0.29072  1.0000
  H   H2497     1.0  0.90723  0.19948  0.26623  1.0000
  H   H2498     1.0  0.87984  0.21520  0.25792  1.0000
  H   H2499     1.0  0.85746  0.23647  0.29133  1.0000
  H   H2500     1.0  0.88435  0.22044  0.29972  1.0000
  C   C2088     1.0  0.91181  0.25896  0.35788  1.0000
  C   C2089     1.0  0.91527  0.24039  0.36079  1.0000
  C   C2090     1.0  0.90783  0.23132  0.35513  1.0000
  C   C2091     1.0  0.89664  0.24087  0.34676  1.0000
  C   C2092     1.0  0.89346  0.25937  0.34375  1.0000
  C   C2093     1.0  0.90112  0.26840  0.34919  1.0000
  H   H2501     1.0  0.92346  0.23304  0.36757  1.0000
  H   H2502     1.0  0.91019  0.21702  0.35760  1.0000
  H   H2503     1.0  0.88489  0.26678  0.33727  1.0000
  H   H2504     1.0  0.89843  0.28270  0.34685  1.0000
  C   C2094     1.0  0.81136  0.02469  0.31963  1.0000
  H   H2505     1.0  0.58120  0.00722  0.37227  1.0000
  H   H2506     1.0  0.90453  0.24293  0.31572  1.0000
  C   C2095     1.0  0.79088  0.00948  0.31033  1.0000
  C   C2096     1.0  0.79065  0.02764  0.30641  1.0000
  C   C2097     1.0  0.80086  0.03523  0.31104  1.0000
  H   H2507     1.0  0.93912  0.23152  0.33505  1.0000
  H   H2508     1.0  0.88718  0.24422  0.30786  1.0000
  H   H2509     1.0  0.78272  0.03586  0.29967  1.0000
  H   H2510     1.0  0.80069  0.04924  0.30787  1.0000
  C   C2098     1.0  0.86235  0.12201  0.31625  1.0000
  C   C2099     1.0  0.87624  0.13129  0.31204  1.0000
  C   C2100     1.0  0.87876  0.14135  0.31960  1.0000
  C   C2101     1.0  0.86755  0.14196  0.33152  1.0000
  C   C2102     1.0  0.85357  0.13281  0.33568  1.0000
  C   C2103     1.0  0.85089  0.12295  0.32804  1.0000
  H   H2511     1.0  0.88510  0.13066  0.30289  1.0000
  H   H2512     1.0  0.88955  0.14838  0.31629  1.0000
  H   H2513     1.0  0.84482  0.13325  0.34489  1.0000
  H   H2514     1.0  0.84009  0.11591  0.33135  1.0000
  C   C2104     1.0  0.76420  0.09808  0.35732  1.0000
  C   C2105     1.0  0.75448  0.09410  0.35017  1.0000
  C   C2106     1.0  0.73806  0.08905  0.35601  1.0000
  C   C2107     1.0  0.73170  0.08733  0.36909  1.0000
  C   C2108     1.0  0.74156  0.09111  0.37621  1.0000
  C   C2109     1.0  0.75762  0.09672  0.37032  1.0000
  H   H2515     1.0  0.75945  0.09518  0.34013  1.0000
  H   H2516     1.0  0.73060  0.08611  0.35045  1.0000
  H   H2517     1.0  0.73672  0.08978  0.38632  1.0000
  H   H2518     1.0  0.76508  0.09979  0.37588  1.0000
  C   C2110     1.0  0.73097  0.24350  0.30158  1.0000
  C   C2111     1.0  0.56042  0.13413  0.39792  1.0000
  H   H2519     1.0  0.75994  0.05548  0.37349  1.0000
  C   C2112     1.0  0.76903  0.04533  0.33876  1.0000
  C   C2113     1.0  0.74151  0.25538  0.31517  1.0000
  C   C2114     1.0  0.72834  0.24890  0.31286  1.0000
  H   H2520     1.0  0.56453  0.02167  0.44296  1.0000
  H   H2521     1.0  0.73932  0.25936  0.32401  1.0000
  H   H2522     1.0  0.71606  0.24795  0.31992  1.0000
  C   C2115     1.0  0.78149  0.16435  0.27188  1.0000
  C   C2116     1.0  0.76713  0.15639  0.27368  1.0000
  C   C2117     1.0  0.76840  0.13843  0.27926  1.0000
  C   C2118     1.0  0.78385  0.12842  0.28346  1.0000
  C   C2119     1.0  0.79822  0.13633  0.28187  1.0000
  C   C2120     1.0  0.79715  0.15427  0.27586  1.0000
  H   H2523     1.0  0.75502  0.16397  0.27068  1.0000
  H   H2524     1.0  0.75723  0.13239  0.28053  1.0000
  H   H2525     1.0  0.81023  0.12856  0.28508  1.0000
  H   H2526     1.0  0.80832  0.16037  0.27441  1.0000
  C   C2121     1.0  0.69201  0.15604  0.30106  1.0000
  C   C2122     1.0  0.68999  0.13852  0.30589  1.0000
  C   C2123     1.0  0.68023  0.13348  0.31821  1.0000
  C   C2124     1.0  0.67215  0.14603  0.32569  1.0000
  C   C2125     1.0  0.67402  0.16362  0.32084  1.0000
  C   C2126     1.0  0.68408  0.16861  0.30856  1.0000
  H   H2527     1.0  0.69614  0.12876  0.30013  1.0000
  H   H2528     1.0  0.67884  0.11990  0.32188  1.0000
  H   H2529     1.0  0.66791  0.17333  0.32664  1.0000
  H   H2530     1.0  0.68566  0.18214  0.30491  1.0000
  C   C2127     1.0  0.60163  0.09271  0.41679  1.0000
  C   C2128     1.0  0.59199  0.08566  0.41139  1.0000
  C   C2129     1.0  0.60013  0.07955  0.40018  1.0000
  C   C2130     1.0  0.61793  0.08049  0.39427  1.0000
  C   C2131     1.0  0.62758  0.08760  0.39962  1.0000
  C   C2132     1.0  0.61945  0.09365  0.41088  1.0000
  H   H2531     1.0  0.57830  0.08483  0.41586  1.0000
  H   H2532     1.0  0.59258  0.07413  0.39604  1.0000
  H   H2533     1.0  0.64140  0.08812  0.39523  1.0000
  H   H2534     1.0  0.62701  0.09901  0.41504  1.0000
  C   C2133     1.0  0.53880  0.02467  0.42436  1.0000
  C   C2134     1.0  0.52629  0.02007  0.43543  1.0000
  C   C2135     1.0  0.52107  0.03015  0.44470  1.0000
  C   C2136     1.0  0.52861  0.04461  0.44305  1.0000
  C   C2137     1.0  0.54101  0.04934  0.43192  1.0000
  C   C2138     1.0  0.54604  0.03942  0.42254  1.0000
  H   H2535     1.0  0.85625  0.31540  0.29453  1.0000
  C   C2139     1.0  0.72167  0.29066  0.28811  1.0000
  H   H2536     1.0  0.54716  0.06027  0.43067  1.0000
  H   H2537     1.0  0.55570  0.04306  0.41396  1.0000
  H   H2538     1.0  0.58805  0.01289  0.44230  1.0000
  H   H2539     1.0  0.69254  0.00131  0.27655  1.0000
  H   H2540     1.0  0.99492  0.32054  0.38220  1.0000
  C   C2140     1.0  0.78517  0.23187  0.25310  1.0000
  H   H2541     1.0  0.94747  0.24577  0.32054  1.0000
  C   C2141     1.0  0.78946  0.05157  0.35484  1.0000
  C   C2142     1.0  0.92143  0.29276  0.30896  1.0000
  H   H2542     1.0  0.55705  0.13190  0.47130  1.0000
  N   N137      1.0  0.77638  0.03986  0.36004  1.0000
  N   N138      1.0  0.83206  0.23873  0.33604  1.0000
  C   C2143     1.0  0.83549  0.23291  0.34904  1.0000
  C   C2144     1.0  0.84925  0.24040  0.32697  1.0000
  C   C2145     1.0  0.82014  0.25665  0.33509  1.0000
  C   C2146     1.0  0.82462  0.22556  0.33324  1.0000
  C   C2147     1.0  0.83383  0.20753  0.33468  1.0000
  C   C2148     1.0  0.80864  0.23017  0.32858  1.0000
  C   C2149     1.0  0.82738  0.19491  0.33179  1.0000
  C   C2150     1.0  0.80234  0.21746  0.32565  1.0000
  C   C2151     1.0  0.81167  0.19987  0.32726  1.0000
  H   H2543     1.0  0.84624  0.22075  0.35015  1.0000
  H   H2544     1.0  0.84032  0.24304  0.35154  1.0000
  H   H2545     1.0  0.82316  0.23032  0.35616  1.0000
  H   H2546     1.0  0.85938  0.22783  0.32781  1.0000
  H   H2547     1.0  0.85523  0.25041  0.32860  1.0000
  H   H2548     1.0  0.84749  0.24444  0.31705  1.0000
  H   H2549     1.0  0.81806  0.26254  0.32529  1.0000
  H   H2550     1.0  0.80688  0.25638  0.34168  1.0000
  H   H2551     1.0  0.82609  0.26617  0.33736  1.0000
  H   H2552     1.0  0.84620  0.20304  0.33801  1.0000
  H   H2553     1.0  0.80077  0.24355  0.32699  1.0000
  H   H2554     1.0  0.83464  0.18119  0.33313  1.0000
  H   H2555     1.0  0.79011  0.22136  0.32210  1.0000
  H   H2556     1.0  0.80668  0.19008  0.32499  1.0000
  N   N139      1.0  0.74213  0.13530  0.31986  1.0000
  C   C2152     1.0  0.73464  0.15182  0.31152  1.0000
  C   C2153     1.0  0.76170  0.13402  0.31768  1.0000
  H   H2557     1.0  0.57411  0.02129  0.45568  1.0000
  C   C2154     1.0  0.73265  0.13546  0.33315  1.0000
  C   C2155     1.0  0.74434  0.04672  0.35689  1.0000
  C   C2156     1.0  0.71427  0.13473  0.33710  1.0000
  H   H2558     1.0  0.84582  0.03569  0.29843  1.0000
  C   C2157     1.0  0.70515  0.13425  0.34967  1.0000
  C   C2158     1.0  0.71398  0.13474  0.35864  1.0000
  H   H2559     1.0  0.73624  0.16369  0.31402  1.0000
  H   H2560     1.0  0.74127  0.15212  0.30138  1.0000
  H   H2561     1.0  0.72011  0.15332  0.31222  1.0000
  H   H2562     1.0  0.76467  0.14579  0.31940  1.0000
  H   H2563     1.0  0.76856  0.13330  0.30775  1.0000
  H   H2564     1.0  0.76807  0.12189  0.32383  1.0000
  H   H2565     1.0  0.73842  0.04625  0.36680  1.0000
  H   H2566     1.0  0.97448  0.23174  0.35104  1.0000
  C   C2159     1.0  0.73233  0.05074  0.34892  1.0000
  C   C2160     1.0  0.57575  0.13211  0.40235  1.0000
  H   H2567     1.0  0.70682  0.13439  0.33050  1.0000
  H   H2568     1.0  0.69119  0.13335  0.35247  1.0000
  H   H2569     1.0  0.70700  0.13391  0.36843  1.0000
  H   H2570     1.0  0.50598  0.14879  0.47037  1.0000
  C   C2161     1.0  0.87450  0.32063  0.31724  1.0000
  C   C2162     1.0  0.71681  0.03380  0.29888  1.0000
  H   H2571     1.0  0.74604  0.23244  0.23519  1.0000
  H   H2572     1.0  0.92539  0.23504  0.29602  1.0000
  H   H2573     1.0  0.57070  0.09514  0.47232  1.0000
  H   H2574     1.0  0.94545  0.27948  0.37581  1.0000
  C   C2163     1.0  0.89579  0.25196  0.30934  1.0000
  C   C2164     1.0  0.76783  0.31729  0.23606  1.0000
  C   C2165     1.0  0.96472  0.27028  0.33132  1.0000
  S   S585      1.0  0.70617  0.23870  0.24159  1.0000
  H   H2575     1.0  0.50853  0.03131  0.41276  1.0000
  C   C2166     1.0  0.99021  0.28245  0.31852  1.0000
  N   N140      1.0  0.84324  0.17674  0.29075  1.0000
  C   C2167     1.0  0.85295  0.17918  0.29951  1.0000
  C   C2168     1.0  0.84520  0.15737  0.29233  1.0000
  C   C2169     1.0  0.85207  0.18367  0.27758  1.0000
  C   C2170     1.0  0.82435  0.18655  0.29319  1.0000
  C   C2171     1.0  0.82024  0.20496  0.29300  1.0000
  C   C2172     1.0  0.80962  0.17855  0.29511  1.0000
  C   C2173     1.0  0.80255  0.21467  0.29475  1.0000
  C   C2174     1.0  0.79201  0.18846  0.29662  1.0000
  C   C2175     1.0  0.78847  0.20643  0.29652  1.0000
  H   H2576     1.0  0.84624  0.17487  0.30955  1.0000
  H   H2577     1.0  0.86700  0.17131  0.29824  1.0000
  H   H2578     1.0  0.85407  0.19312  0.29798  1.0000
  H   H2579     1.0  0.85951  0.15027  0.29077  1.0000
  H   H2580     1.0  0.83945  0.15430  0.28540  1.0000
  H   H2581     1.0  0.83873  0.15126  0.30206  1.0000
  H   H2582     1.0  0.85173  0.19804  0.27577  1.0000
  H   H2583     1.0  0.86643  0.17689  0.27532  1.0000
  H   H2584     1.0  0.84526  0.18198  0.27069  1.0000
  H   H2585     1.0  0.83071  0.21213  0.29121  1.0000
  H   H2586     1.0  0.81131  0.16471  0.29526  1.0000
  H   H2587     1.0  0.79978  0.22872  0.29456  1.0000
  H   H2588     1.0  0.78103  0.18223  0.29762  1.0000
  H   H2589     1.0  0.77477  0.21399  0.29768  1.0000
  C   C2176     1.0  0.76316  0.04421  0.35197  1.0000
  H   H2590     1.0  0.61731  0.10915  0.37128  1.0000
  H   H2591     1.0  0.57488  0.12978  0.41244  1.0000
  C   C2177     1.0  0.71478  0.00417  0.29056  1.0000
  C   C2178     1.0  0.74689  0.24488  0.29245  1.0000
  H   H2592     1.0  0.98721  0.21681  0.33311  1.0000
  N   N141      1.0  0.97381  0.27866  0.37179  1.0000
  C   C2179     1.0  0.70040  0.03198  0.29777  1.0000
  C   C2180     1.0  0.84150  0.03076  0.29193  1.0000
  H   H2593     1.0  0.72844  0.26142  0.24389  1.0000
  C   C2181     1.0  0.98639  0.28365  0.37711  1.0000
  C   C2182     1.0  0.71150  0.28559  0.27123  1.0000
  H   H2594     1.0  0.93702  0.25425  0.33457  1.0000
  S   S586      1.0  0.77800  0.00041  0.30423  1.0000
  H   H2595     1.0  0.59477  0.11558  0.46961  1.0000
  S   S587      1.0  0.50651  0.13953  0.42418  1.0000
  C   C2183     1.0  0.97409  0.28874  0.35858  1.0000
  H   H2596     1.0  0.58870  0.02375  0.41346  1.0000
  H   H2597     1.0  0.91515  0.30366  0.31376  1.0000
  Fe  Fe293     1.0  0.79736  0.27262  0.29547  1.0000
  H   H2598     1.0  0.74751  0.01136  0.32651  1.0000
  C   C2184     1.0  0.97415  0.22167  0.33010  1.0000
  C   C2185     1.0  0.97794  0.25956  0.37156  1.0000
  H   H2599     1.0  0.81947  0.99836  0.33034  1.0000
  H   H2600     1.0  0.79065  0.24082  0.26770  1.0000
  H   H2601     1.0  0.94447  0.25455  0.29135  1.0000
  C   C2186     1.0  0.76371  0.25265  0.24091  1.0000
  H   H2602     1.0  0.51809  0.06722  0.39029  1.0000
  H   H2603     1.0  0.76567  0.28753  0.28372  1.0000
  H   H2604     1.0  0.88548  0.26594  0.28708  1.0000
  N   N142      1.0  0.91986  0.11302  0.34707  1.0000
  C   C2187     1.0  0.90270  0.10690  0.35133  1.0000
  C   C2188     1.0  0.93310  0.09972  0.35379  1.0000
  C   C2189     1.0  0.91661  0.13001  0.35097  1.0000
  C   C2190     1.0  0.92698  0.11552  0.33323  1.0000
  C   C2191     1.0  0.94342  0.12112  0.32773  1.0000
  C   C2192     1.0  0.91796  0.11273  0.32485  1.0000
  C   C2193     1.0  0.95025  0.12398  0.31468  1.0000
  C   C2194     1.0  0.92496  0.11557  0.31181  1.0000
  C   C2195     1.0  0.94102  0.12126  0.30673  1.0000
  H   H2605     1.0  0.89763  0.10524  0.36174  1.0000
  H   H2606     1.0  0.89192  0.11672  0.34700  1.0000
  H   H2607     1.0  0.90419  0.09393  0.34898  1.0000
  H   H2608     1.0  0.93666  0.08703  0.35056  1.0000
  H   H2609     1.0  0.92785  0.09687  0.36420  1.0000
  H   H2610     1.0  0.94572  0.10426  0.35219  1.0000
  H   H2611     1.0  0.90681  0.14030  0.34602  1.0000
  H   H2612     1.0  0.91101  0.12882  0.36129  1.0000
  H   H2613     1.0  0.92900  0.13520  0.34880  1.0000
  H   H2614     1.0  0.95090  0.12387  0.33343  1.0000
  H   H2615     1.0  0.90530  0.10865  0.32806  1.0000
  H   H2616     1.0  0.96256  0.12876  0.31071  1.0000
  H   H2617     1.0  0.91772  0.11358  0.30559  1.0000
  H   H2618     1.0  0.94621  0.12376  0.29660  1.0000
  N   N143      1.0  0.61105  0.13685  0.37135  1.0000
  C   C2196     1.0  0.60919  0.15393  0.36198  1.0000
  C   C2197     1.0  0.62614  0.13559  0.37720  1.0000
  C   C2198     1.0  0.61612  0.12221  0.36455  1.0000
  C   C2199     1.0  0.59385  0.13579  0.38062  1.0000
  C   C2200     1.0  0.59227  0.13283  0.39390  1.0000
  C   C2201     1.0  0.57798  0.13757  0.37645  1.0000
  C   C2202     1.0  0.56154  0.13680  0.38500  1.0000
  H   H2619     1.0  0.60464  0.16532  0.36675  1.0000
  H   H2620     1.0  0.62216  0.15536  0.35517  1.0000
  H   H2621     1.0  0.59951  0.15523  0.35612  1.0000
  H   H2622     1.0  0.62329  0.14630  0.38243  1.0000
  H   H2623     1.0  0.63875  0.13686  0.36993  1.0000
  H   H2624     1.0  0.62915  0.12254  0.38376  1.0000
  H   H2625     1.0  0.60619  0.12289  0.35906  1.0000
  H   H2626     1.0  0.62924  0.12231  0.35770  1.0000
  H   H2627     1.0  0.78310  0.04313  0.33443  1.0000
  H   H2628     1.0  0.57819  0.13948  0.36654  1.0000
  H   H2629     1.0  0.54957  0.13824  0.38161  1.0000
  C   C2203     1.0  0.74052  0.30863  0.29719  1.0000
  C   C2204     1.0  0.73528  0.00969  0.33408  1.0000
  H   H2630     1.0  0.71749  0.04507  0.30214  1.0000
  S   S588      1.0  0.92577  0.30790  0.33645  1.0000
  C   C2205     1.0  0.69927  0.01737  0.29376  1.0000
  C   C2206     1.0  0.71127  0.28271  0.28403  1.0000
  H   H2631     1.0  0.72396  0.01989  0.33065  1.0000
  C   C2207     1.0  0.96141  0.23478  0.34818  1.0000
  H   H2632     1.0  0.71731  0.99726  0.32228  1.0000
  H   H2633     1.0  0.94565  0.30880  0.42047  1.0000
  H   H2634     1.0  0.96674  0.21078  0.33435  1.0000
  H   H2635     1.0  0.75426  0.27816  0.24652  1.0000
  H   H2636     1.0  0.92481  0.25085  0.28105  1.0000
  H   H2637     1.0  0.61105  0.04097  0.39962  1.0000
  C   C2208     1.0  0.64959  0.22719  0.23792  1.0000
  H   H2638     1.0  0.66451  0.20789  0.27174  1.0000
  H   H2639     1.0  0.85770  0.28372  0.33186  1.0000
  C   C2209     1.0  0.98467  0.30163  0.37735  1.0000
  H   H2640     1.0  0.55680  0.01233  0.47489  1.0000
  H   H2641     1.0  0.61822  0.07282  0.45922  1.0000
  H   H2642     1.0  0.99685  0.29351  0.31488  1.0000
  S   S589      1.0  0.80403  0.29859  0.29387  1.0000
  C   C2210     1.0  0.73261  0.30445  0.26638  1.0000
  H   H2643     1.0  0.62760  0.03387  0.37907  1.0000
  C   C2211     1.0  0.82570  0.03633  0.27529  1.0000
  H   H2644     1.0  0.79395  0.21895  0.25509  1.0000
  C   C2212     1.0  0.76242  0.26498  0.24824  1.0000
  H   H2645     1.0  0.95168  0.27249  0.33759  1.0000
  H   H2646     1.0  0.70354  0.27920  0.26817  1.0000
  C   C2213     1.0  0.68856  0.99944  0.36175  1.0000
  C   C2214     1.0  0.85599  0.29811  0.31290  1.0000
  Fe  Fe294     1.0  0.52388  0.11971  0.43657  1.0000
  C   C2215     1.0  0.80117  0.99897  0.31906  1.0000
  C   C2216     1.0  0.77191  0.26070  0.25784  1.0000
  C   C2217     1.0  0.61464  0.01253  0.38112  1.0000
  C   C2218     1.0  0.59277  0.00673  0.40062  1.0000
  H   H2647     1.0  0.99152  0.25551  0.36571  1.0000
  H   H2648     1.0  0.72563  0.12116  0.31551  1.0000
  H   H2649     1.0  0.69685  0.17996  0.26331  1.0000
  H   H2650     1.0  0.95264  0.24615  0.35222  1.0000
  H   H2651     1.0  0.67448  0.00110  0.33026  1.0000
  H   H2652     1.0  0.52394  0.05307  0.40451  1.0000
  C   C2219     1.0  0.60380  0.07448  0.46401  1.0000
  C   C2220     1.0  0.91661  0.24568  0.29039  1.0000
  C   C2221     1.0  0.94000  0.28820  0.30530  1.0000
  H   H2653     1.0  0.59449  0.10817  0.45626  1.0000
  H   H2654     1.0  0.97661  0.22332  0.31967  1.0000
  H   H2655     1.0  0.76182  0.05091  0.32073  1.0000
  H   H2656     1.0  0.73521  0.28171  0.23475  1.0000
  H   H2657     1.0  0.64770  0.19490  0.27628  1.0000
  H   H2658     1.0  0.58296  0.99972  0.40710  1.0000
  C   C2222     1.0  0.83903  0.00566  0.28446  1.0000
  C   C2223     1.0  0.60856  0.03022  0.39670  1.0000
  H   H2659     1.0  0.74498  0.02244  0.29687  1.0000
  N   N144      1.0  0.73203  0.99152  0.33688  1.0000
  S   S590      1.0  0.51239  0.10462  0.45545  1.0000
  H   H2660     1.0  0.95463  0.27561  0.38948  1.0000
  H   H2661     1.0  0.89645  0.28766  0.30936  1.0000
  C   C2224     1.0  0.85995  0.31283  0.30353  1.0000
  H   H2662     1.0  0.62173  0.05440  0.48036  1.0000
  H   H2663     1.0  0.72920  0.05605  0.32977  1.0000
  H   H2664     1.0  0.99357  0.16146  0.33211  1.0000
  H   H2665     1.0  0.68606  0.01671  0.29334  1.0000
  H   H2666     1.0  0.71803  0.05307  0.35281  1.0000
  H   H2667     1.0  0.72112  0.28744  0.29815  1.0000
  H   H2668     1.0  0.96923  0.30319  0.35795  1.0000
  H   H2669     1.0  0.67941  0.01028  0.36573  1.0000
  H   H2670     1.0  0.82894  0.05671  0.28302  1.0000
  H   H2671     1.0  0.71652  0.20377  0.23565  1.0000
  C   C2225     1.0  0.73185  0.13611  0.35501  1.0000
  H   H2672     1.0  0.62224  0.00992  0.37204  1.0000
  C   C2226     1.0  0.76301  0.30181  0.27907  1.0000
  H   H2673     1.0  0.53241  0.05588  0.48067  1.0000
  S   S591      1.0  0.54532  0.01229  0.41265  1.0000
  H   H2674     1.0  0.80351  0.29367  0.24909  1.0000
  H   H2675     1.0  0.66340  0.22363  0.25242  1.0000
  H   H2676     1.0  0.90743  0.23908  0.28835  1.0000
  N   N145      1.0  0.96396  0.23833  0.33424  1.0000
  C   C2227     1.0  0.95543  0.28295  0.37949  1.0000
  C   C2228     1.0  0.59606  0.02048  0.40447  1.0000
  C   C2229     1.0  0.77568  0.23599  0.24350  1.0000
  H   H2677     1.0  0.81795  0.04564  0.26875  1.0000
  C   C2230     1.0  0.99028  0.25172  0.32029  1.0000
  N   N146      1.0  0.57063  0.99591  0.45473  1.0000
  H   H2678     1.0  0.64867  0.24137  0.23535  1.0000
  H   H2679     1.0  0.77777  0.22576  0.23841  1.0000
  C   C2231     1.0  0.70424  0.00236  0.35288  1.0000
  H   H2680     1.0  0.61545  0.10501  0.46063  1.0000
  C   C2232     1.0  0.94617  0.24270  0.33094  1.0000
  C   C2233     1.0  0.78156  0.30304  0.23949  1.0000
  H   H2681     1.0  0.97713  0.25107  0.38124  1.0000
  H   H2682     1.0  0.75922  0.03225  0.37826  1.0000
  H   H2683     1.0  0.88652  0.26201  0.31457  1.0000
  C   C2234     1.0  0.65970  0.19820  0.25120  1.0000
  C   C2235     1.0  0.61790  0.02619  0.38509  1.0000
  S   S592      1.0  0.99246  0.19564  0.36258  1.0000
  S   S593      1.0  0.84177  0.28521  0.27433  1.0000
  C   C2236     1.0  0.86093  0.29496  0.32451  1.0000
  S   S594      1.0  0.77302  0.26558  0.30966  1.0000
  H   H2684     1.0  0.74380  0.29457  0.30225  1.0000
  H   H2685     1.0  0.70318  0.27398  0.29086  1.0000
  H   H2686     1.0  0.77822  0.03934  0.37899  1.0000
  C   C2237     1.0  0.74111  0.13657  0.34246  1.0000
  C   C2238     1.0  0.75736  0.25685  0.30613  1.0000
  H   H2687     1.0  0.90185  0.27959  0.28045  1.0000
  H   H2688     1.0  0.74784  0.11876  0.30634  1.0000
  C   C2239     1.0  0.73971  0.11999  0.31598  1.0000
  H   H2689     1.0  0.79840  0.04992  0.36135  1.0000
  H   H2690     1.0  0.78253  0.06571  0.35306  1.0000
  H   H2691     1.0  0.65430  0.17642  0.24549  1.0000
  H   H2692     1.0  0.74383  0.10736  0.32263  1.0000
  C   C2240     1.0  0.81146  0.00655  0.32364  1.0000
  N   N147      1.0  0.74405  0.31033  0.28329  1.0000
  H   H2693     1.0  0.75505  0.13718  0.34045  1.0000
  C   C2241     1.0  0.73255  0.30199  0.27937  1.0000
  S   S595      1.0  0.54438  0.12679  0.44369  1.0000
  H   H2694     1.0  0.77708  0.01200  0.36399  1.0000
  H   H2695     1.0  0.95088  0.29729  0.37956  1.0000
  N   N148      1.0  0.90663  0.26003  0.29725  1.0000
  C   C2242     1.0  0.51721  0.00180  0.47816  1.0000
  H   H2696     1.0  0.79633  0.01736  0.36643  1.0000
  S   S596      1.0  0.52277  0.05614  0.45519  1.0000
  H   H2697     1.0  0.72628  0.31441  0.30103  1.0000
  H   H2698     1.0  0.77228  0.25285  0.28766  1.0000
  C   C2243     1.0  0.78325  0.24415  0.26028  1.0000
  C   C2244     1.0  0.72208  0.29653  0.26242  1.0000
  C   C2245     1.0  0.97320  0.28457  0.32634  1.0000
  H   H2699     1.0  0.96666  0.29735  0.32866  1.0000
  C   C2246     1.0  0.57453  0.01368  0.44867  1.0000
  C   C2247     1.0  0.00028  0.27104  0.38244  1.0000
  C   C2248     1.0  0.97300  0.25338  0.32847  1.0000
  H   H2700     1.0  0.77056  0.27032  0.26334  1.0000
  N   N149      1.0  0.66951  0.18748  0.26117  1.0000
  C   C2249     1.0  0.54732  0.00680  0.47272  1.0000
  S   S597      1.0  0.92630  0.31789  0.36291  1.0000
  H   H2701     1.0  0.69048  0.20218  0.25502  1.0000
  C   C2250     1.0  0.66233  0.19441  0.27294  1.0000
  N   N150      1.0  0.59886  0.08704  0.47258  1.0000
  H   H2702     1.0  0.66906  0.18601  0.28073  1.0000
  C   C2251     1.0  0.87018  0.30611  0.32668  1.0000
  C   C2252     1.0  0.65310  0.19051  0.24389  1.0000
  H   H2703     1.0  0.96522  0.28487  0.35415  1.0000
  H   H2704     1.0  0.76672  0.30269  0.26870  1.0000
  H   H2705     1.0  0.88509  0.28301  0.29441  1.0000
  H   H2706     1.0  0.72602  0.99862  0.26699  1.0000
  C   C2253     1.0  0.79305  0.30479  0.24638  1.0000
  H   H2707     1.0  0.74356  0.99660  0.29012  1.0000
  C   C2254     1.0  0.91078  0.28356  0.30634  1.0000
  C   C2255     1.0  0.76007  0.25170  0.29469  1.0000
  C   C2256     1.0  0.66863  0.16847  0.26458  1.0000
  C   C2257     1.0  0.68858  0.18849  0.25655  1.0000
  H   H2708     1.0  0.59598  0.07925  0.45642  1.0000
  S   S598      1.0  0.84666  0.28217  0.31024  1.0000
  H   H2709     1.0  0.95500  0.22329  0.35292  1.0000
  C   C2258     1.0  0.93742  0.26508  0.29628  1.0000
  H   H2710     1.0  0.68839  0.04184  0.30028  1.0000
  H   H2711     1.0  0.74893  0.24090  0.28364  1.0000
  H   H2712     1.0  0.58334  0.99285  0.47021  1.0000
  H   H2713     1.0  0.94816  0.29551  0.30731  1.0000
  C   C2259     1.0  0.73221  0.02101  0.29597  1.0000
  S   S599      1.0  0.82420  0.25704  0.29860  1.0000
  H   H2714     1.0  0.65452  0.16682  0.26774  1.0000
  C   C2260     1.0  0.73126  0.00633  0.29198  1.0000
  C   C2261     1.0  0.82916  0.01814  0.27580  1.0000
  H   H2715     1.0  0.51129  0.02665  0.45322  1.0000
  H   H2716     1.0  0.77232  0.30809  0.28132  1.0000
  Fe  Fe295     1.0  0.81317  0.29848  0.27310  1.0000
  S   S600      1.0  0.88776  0.31893  0.35667  1.0000
  Fe  Fe296     1.0  0.91444  0.29981  0.35709  1.0000
  H   H2717     1.0  0.96825  0.25640  0.36742  1.0000
  C   C2262     1.0  0.91838  0.26947  0.29989  1.0000
  H   H2718     1.0  0.67556  0.16100  0.27247  1.0000
  H   H2719     1.0  0.60086  0.06129  0.46909  1.0000
  C   C2263     1.0  0.53006  0.00879  0.48030  1.0000
  H   H2720     1.0  0.98791  0.28657  0.35262  1.0000
  H   H2721     1.0  0.99781  0.23939  0.31768  1.0000
  C   C2264     1.0  0.95231  0.31928  0.41966  1.0000
  C   C2265     1.0  0.84489  0.01256  0.29262  1.0000
  H   H2722     1.0  0.78313  0.29051  0.23708  1.0000
  C   C2266     1.0  0.94799  0.27440  0.29897  1.0000
  H   H2723     1.0  0.96248  0.27099  0.29608  1.0000
  H   H2724     1.0  0.74095  0.31239  0.25911  1.0000
  S   S601      1.0  0.64100  0.00051  0.34898  1.0000
  H   H2725     1.0  0.52061  0.00877  0.43691  1.0000
  H   H2726     1.0  0.52088  0.07638  0.40240  1.0000
  H   H2727     1.0  0.97561  0.30928  0.40656  1.0000
  C   C2267     1.0  0.79108  0.32092  0.24963  1.0000
  C   C2268     1.0  0.60103  0.10467  0.46448  1.0000
  C   C2269     1.0  0.99341  0.17682  0.34519  1.0000
  H   H2728     1.0  0.70643  0.01567  0.35049  1.0000
  C   C2270     1.0  0.60175  0.00255  0.38866  1.0000
  H   H2729     1.0  0.57724  0.13936  0.48170  1.0000
  H   H2730     1.0  0.74907  0.31540  0.29980  1.0000
  C   C2271     1.0  0.51560  0.06595  0.40069  1.0000
  H   H2731     1.0  0.72224  0.29886  0.25244  1.0000
  C   C2272     1.0  0.96916  0.31966  0.41177  1.0000
  C   C2273     1.0  0.60966  0.08182  0.48237  1.0000
  C   C2274     1.0  0.59302  0.99598  0.37163  1.0000
  H   H2732     1.0  0.74122  0.99110  0.31708  1.0000
  H   H2733     1.0  0.60402  0.00088  0.36411  1.0000
  C   C2275     1.0  0.55524  0.12850  0.48148  1.0000
  H   H2734     1.0  0.50228  0.07212  0.47802  1.0000
  H   H2735     1.0  0.56434  0.99339  0.43789  1.0000
  S   S602      1.0  0.52792  0.11265  0.48216  1.0000
  H   H2736     1.0  0.57678  0.07468  0.48315  1.0000
  H   H2737     1.0  0.50360  0.09040  0.48357  1.0000
  H   H2738     1.0  0.50172  0.05233  0.42472  1.0000
  S   S603      1.0  0.80452  0.32318  0.25892  1.0000
  C   C2276     1.0  0.53876  0.99089  0.46067  1.0000
  H   H2739     1.0  0.50393  0.00309  0.48415  1.0000
  Fe  Fe297     1.0  0.55834  0.09352  0.55001  1.0000
  S   S604      1.0  0.56671  0.11927  0.54632  1.0000
  Fe  Fe298     1.0  0.59559  0.07489  0.53782  1.0000
  S   S605      1.0  0.60715  0.09898  0.53331  1.0000
  S   S606      1.0  0.61081  0.04821  0.53383  1.0000
  Fe  Fe299     1.0  0.59190  0.10262  0.55284  1.0000
  S   S607      1.0  0.60044  0.10787  0.56907  1.0000
  Fe  Fe300     1.0  0.58111  0.11325  0.52720  1.0000
  S   S608      1.0  0.58227  0.07733  0.55764  1.0000
  S   S609      1.0  0.57077  0.08879  0.53061  1.0000
  S   S610      1.0  0.56660  0.02493  0.50479  1.0000
  Fe  Fe301     1.0  0.72258  0.17369  0.67103  1.0000
  S   S611      1.0  0.73861  0.16226  0.68622  1.0000
  S   S612      1.0  0.71538  0.15145  0.66564  1.0000
  Fe  Fe302     1.0  0.72736  0.21088  0.66933  1.0000
  S   S613      1.0  0.74396  0.20206  0.68394  1.0000
  C   C2277     1.0  0.78687  0.23168  0.71494  1.0000
  Fe  Fe303     1.0  0.75746  0.17951  0.67427  1.0000
  S   S614      1.0  0.78756  0.17210  0.66891  1.0000
  Fe  Fe304     1.0  0.72355  0.18581  0.69460  1.0000
  S   S615      1.0  0.71448  0.18290  0.71577  1.0000
  S   S616      1.0  0.74263  0.18961  0.65858  1.0000
  S   S617      1.0  0.70571  0.19601  0.68056  1.0000
  Fe  Fe305     1.0  0.82195  0.10553  0.61803  1.0000
  S   S618      1.0  0.81575  0.08192  0.63305  1.0000
  S   S619      1.0  0.80177  0.12433  0.60743  1.0000
  Fe  Fe306     1.0  0.85827  0.10180  0.62344  1.0000
  S   S620      1.0  0.85564  0.07743  0.63874  1.0000
  S   S621      1.0  0.88222  0.11450  0.61804  1.0000
  Fe  Fe307     1.0  0.84416  0.06901  0.62569  1.0000
  S   S622      1.0  0.85092  0.03994  0.62548  1.0000
  Fe  Fe308     1.0  0.82762  0.09208  0.64481  1.0000
  S   S623      1.0  0.81442  0.09212  0.66510  1.0000
  S   S624      1.0  0.84960  0.09199  0.60957  1.0000
  S   S625      1.0  0.83097  0.11708  0.63053  1.0000
  Fe  Fe309     1.0  0.91458  0.21767  0.62335  1.0000
  S   S626      1.0  0.93003  0.22416  0.63473  1.0000
  S   S627      1.0  0.90949  0.23394  0.60454  1.0000
  Fe  Fe310     1.0  0.90491  0.18561  0.64335  1.0000
  S   S628      1.0  0.91992  0.18915  0.65658  1.0000
  S   S629      1.0  0.88509  0.16764  0.64963  1.0000
  Fe  Fe311     1.0  0.90765  0.21790  0.65106  1.0000
  S   S630      1.0  0.89662  0.23634  0.66435  1.0000
  Fe  Fe312     1.0  0.94122  0.19500  0.63912  1.0000
  S   S631      1.0  0.97117  0.18705  0.63747  1.0000
  S   S632      1.0  0.89107  0.21419  0.63926  1.0000
  S   S633      1.0  0.92743  0.18872  0.62629  1.0000
  S   S634      1.0  0.77124  0.27486  0.69766  1.0000
  S   S635      1.0  0.81321  0.24346  0.68300  1.0000
  H   H2740     1.0  0.97232  0.22733  0.62511  1.0000
  C   C2278     1.0  0.76976  0.31274  0.73131  1.0000
  C   C2279     1.0  0.71645  0.28179  0.70418  1.0000
  H   H2741     1.0  0.80554  0.04451  0.64474  1.0000
  H   H2742     1.0  0.55993  0.05571  0.53930  1.0000
  H   H2743     1.0  0.73389  0.31552  0.72850  1.0000
  C   C2280     1.0  0.98968  0.26479  0.61641  1.0000
  S   S636      1.0  0.63373  0.02824  0.61519  1.0000
  C   C2281     1.0  0.70363  0.30203  0.71842  1.0000
  Fe  Fe313     1.0  0.68826  0.10117  0.59420  1.0000
  S   S637      1.0  0.67339  0.10335  0.61400  1.0000
  S   S638      1.0  0.67852  0.10188  0.57676  1.0000
  Fe  Fe314     1.0  0.72489  0.09317  0.60112  1.0000
  S   S639      1.0  0.71324  0.09438  0.62143  1.0000
  S   S640      1.0  0.75425  0.08359  0.59406  1.0000
  Fe  Fe315     1.0  0.69408  0.07931  0.62009  1.0000
  S   S641      1.0  0.69002  0.05325  0.63285  1.0000
  Fe  Fe316     1.0  0.69386  0.11842  0.61369  1.0000
  S   S642      1.0  0.68653  0.14479  0.61970  1.0000
  S   S643      1.0  0.70741  0.07617  0.60045  1.0000
  S   S644      1.0  0.70714  0.11821  0.59324  1.0000
  H   H2744     1.0  0.96032  0.31480  0.64937  1.0000
  H   H2745     1.0  0.92838  0.28246  0.64037  1.0000
  C   C2282     1.0  0.98103  0.27273  0.66066  1.0000
  H   H2746     1.0  0.94695  0.26510  0.63597  1.0000
  H   H2747     1.0  0.54772  0.05305  0.52896  1.0000
  S   S645      1.0  0.80048  0.01032  0.60537  1.0000
  H   H2748     1.0  0.60863  0.06016  0.60046  1.0000
  S   S646      1.0  0.80810  0.28858  0.69390  1.0000
  C   C2283     1.0  0.95245  0.27288  0.65604  1.0000
  H   H2749     1.0  0.59398  0.03390  0.60769  1.0000
  H   H2750     1.0  0.71685  0.27057  0.71254  1.0000
  C   C2284     1.0  0.51490  0.03461  0.50988  1.0000
  C   C2285     1.0  0.99649  0.16073  0.66588  1.0000
  C   C2286     1.0  0.64964  0.03478  0.62009  1.0000
  C   C2287     1.0  0.64707  0.05257  0.62045  1.0000
  C   C2288     1.0  0.65959  0.05825  0.62422  1.0000
  C   C2289     1.0  0.67448  0.04608  0.62801  1.0000
  C   C2290     1.0  0.67701  0.02824  0.62776  1.0000
  C   C2291     1.0  0.66478  0.02264  0.62355  1.0000
  H   H2751     1.0  0.63541  0.06202  0.61774  1.0000
  H   H2752     1.0  0.65745  0.07200  0.62452  1.0000
  H   H2753     1.0  0.68853  0.01880  0.63066  1.0000
  H   H2754     1.0  0.66682  0.00888  0.62335  1.0000
  C   C2292     1.0  0.98038  0.19731  0.64542  1.0000
  C   C2293     1.0  0.97102  0.20183  0.65697  1.0000
  C   C2294     1.0  0.97919  0.20897  0.66349  1.0000
  C   C2295     1.0  0.86533  0.00947  0.59442  1.0000
  N   N151      1.0  0.75632  0.03959  0.63186  1.0000
  C   C2296     1.0  0.96848  0.26367  0.66032  1.0000
  H   H2755     1.0  0.95772  0.19928  0.66106  1.0000
  H   H2756     1.0  0.97212  0.21190  0.67262  1.0000
  H   H2757     1.0  0.74644  0.27479  0.73028  1.0000
  C   C2297     1.0  0.77664  0.22730  0.70845  1.0000
  C   C2298     1.0  0.87372  0.23739  0.67042  1.0000
  C   C2299     1.0  0.86560  0.22450  0.66953  1.0000
  C   C2300     1.0  0.84699  0.22627  0.67362  1.0000
  C   C2301     1.0  0.83652  0.24097  0.67850  1.0000
  C   C2302     1.0  0.84472  0.25369  0.67953  1.0000
  C   C2303     1.0  0.86333  0.25180  0.67563  1.0000
  H   H2758     1.0  0.87364  0.21311  0.66579  1.0000
  H   H2759     1.0  0.84073  0.21631  0.67290  1.0000
  H   H2760     1.0  0.83681  0.26500  0.68332  1.0000
  H   H2761     1.0  0.86962  0.26166  0.67641  1.0000
  C   C2304     1.0  0.91659  0.25405  0.59955  1.0000
  H   H2762     1.0  0.95598  0.23900  0.65311  1.0000
  C   C2305     1.0  0.91840  0.26270  0.60824  1.0000
  S   S647      1.0  0.58039  0.13096  0.50780  1.0000
  H   H2763     1.0  0.91566  0.25686  0.61821  1.0000
  C   C2306     1.0  0.83566  0.03234  0.62064  1.0000
  C   C2307     1.0  0.83364  0.01480  0.62551  1.0000
  C   C2308     1.0  0.82250  0.00805  0.62110  1.0000
  C   C2309     1.0  0.81373  0.01868  0.61155  1.0000
  C   C2310     1.0  0.81567  0.03623  0.60674  1.0000
  C   C2311     1.0  0.82640  0.04315  0.61140  1.0000
  H   H2764     1.0  0.84075  0.00643  0.63270  1.0000
  H   H2765     1.0  0.98061  0.14926  0.65892  1.0000
  H   H2766     1.0  0.80903  0.04442  0.59926  1.0000
  H   H2767     1.0  0.82802  0.05664  0.60752  1.0000
  C   C2312     1.0  0.88253  0.13015  0.62631  1.0000
  C   C2313     1.0  0.89812  0.13661  0.62397  1.0000
  C   C2314     1.0  0.89887  0.14872  0.63069  1.0000
  C   C2315     1.0  0.88404  0.15434  0.63984  1.0000
  C   C2316     1.0  0.86827  0.14833  0.64188  1.0000
  C   C2317     1.0  0.86749  0.13637  0.63510  1.0000
  H   H2768     1.0  0.90977  0.13202  0.61708  1.0000
  H   H2769     1.0  0.91110  0.15327  0.62905  1.0000
  H   H2770     1.0  0.85665  0.15278  0.64883  1.0000
  H   H2771     1.0  0.85528  0.13190  0.63675  1.0000
  C   C2318     1.0  0.78869  0.11306  0.60356  1.0000
  C   C2319     1.0  0.79473  0.09507  0.60342  1.0000
  C   C2320     1.0  0.78419  0.08619  0.60026  1.0000
  C   C2321     1.0  0.76731  0.09507  0.59776  1.0000
  C   C2322     1.0  0.76107  0.11296  0.59823  1.0000
  C   C2323     1.0  0.77197  0.12205  0.60083  1.0000
  H   H2772     1.0  0.80768  0.08810  0.60545  1.0000
  H   H2773     1.0  0.78905  0.07240  0.59984  1.0000
  H   H2774     1.0  0.74807  0.11989  0.59624  1.0000
  H   H2775     1.0  0.76738  0.13602  0.60082  1.0000
  H   H2776     1.0  0.93792  0.29953  0.64892  1.0000
  C   C2324     1.0  0.94987  0.29159  0.65215  1.0000
  C   C2325     1.0  0.73770  0.25240  0.67281  1.0000
  H   H2777     1.0  0.75036  0.26339  0.68276  1.0000
  H   H2778     1.0  0.74209  0.23893  0.67753  1.0000
  C   C2326     1.0  0.71021  0.20251  0.72120  1.0000
  C   C2327     1.0  0.80960  0.21708  0.65286  1.0000
  C   C2328     1.0  0.84151  0.27745  0.71254  1.0000
  H   H2779     1.0  0.99955  0.25999  0.63905  1.0000
  C   C2329     1.0  0.70381  0.23457  0.71748  1.0000
  C   C2330     1.0  0.70841  0.21901  0.71284  1.0000
  H   H2780     1.0  0.52972  0.00669  0.55661  1.0000
  C   C2331     1.0  0.73615  0.28390  0.66994  1.0000
  H   H2781     1.0  0.70206  0.24726  0.71097  1.0000
  H   H2782     1.0  0.71009  0.21979  0.70285  1.0000
  C   C2332     1.0  0.79546  0.14959  0.66869  1.0000
  C   C2333     1.0  0.81218  0.14402  0.66115  1.0000
  C   C2334     1.0  0.81817  0.12628  0.66021  1.0000
  C   C2335     1.0  0.80772  0.11396  0.66712  1.0000
  C   C2336     1.0  0.79140  0.11933  0.67515  1.0000
  C   C2337     1.0  0.78518  0.13719  0.67581  1.0000
  H   H2783     1.0  0.82049  0.15341  0.65603  1.0000
  H   H2784     1.0  0.83106  0.12210  0.65437  1.0000
  H   H2785     1.0  0.78336  0.10979  0.68062  1.0000
  H   H2786     1.0  0.77257  0.14126  0.68199  1.0000
  C   C2338     1.0  0.70721  0.15031  0.65272  1.0000
  C   C2339     1.0  0.70789  0.13352  0.65086  1.0000
  C   C2340     1.0  0.70180  0.13171  0.64074  1.0000
  C   C2341     1.0  0.69451  0.14671  0.63248  1.0000
  C   C2342     1.0  0.69343  0.16355  0.63448  1.0000
  C   C2343     1.0  0.69989  0.16537  0.64448  1.0000
  H   H2787     1.0  0.71308  0.12178  0.65732  1.0000
  H   H2788     1.0  0.70243  0.11869  0.63949  1.0000
  H   H2789     1.0  0.68772  0.17525  0.62820  1.0000
  H   H2790     1.0  0.69910  0.17837  0.64588  1.0000
  H   H2791     1.0  0.52853  0.11639  0.53873  1.0000
  C   C2344     1.0  0.58055  0.03096  0.51182  1.0000
  C   C2345     1.0  0.59071  0.01825  0.51986  1.0000
  C   C2346     1.0  0.60050  0.02354  0.52632  1.0000
  C   C2347     1.0  0.60024  0.04148  0.52467  1.0000
  C   C2348     1.0  0.59079  0.05402  0.51615  1.0000
  C   C2349     1.0  0.58082  0.04880  0.50984  1.0000
  H   H2792     1.0  0.61660  0.09838  0.50532  1.0000
  H   H2793     1.0  0.60766  0.01379  0.53297  1.0000
  H   H2794     1.0  0.59122  0.06778  0.51433  1.0000
  H   H2795     1.0  0.57289  0.05867  0.50374  1.0000
  C   C2350     1.0  0.62245  0.10429  0.57142  1.0000
  C   C2351     1.0  0.63755  0.10178  0.56167  1.0000
  C   C2352     1.0  0.65467  0.10061  0.56361  1.0000
  C   C2353     1.0  0.65690  0.10168  0.57533  1.0000
  C   C2354     1.0  0.64191  0.10337  0.58527  1.0000
  C   C2355     1.0  0.62475  0.10481  0.58327  1.0000
  H   H2796     1.0  0.63596  0.10142  0.55250  1.0000
  H   H2797     1.0  0.66619  0.09933  0.55586  1.0000
  H   H2798     1.0  0.64344  0.10415  0.59434  1.0000
  H   H2799     1.0  0.61313  0.10676  0.59086  1.0000
  C   C2356     1.0  0.77866  0.23863  0.72576  1.0000
  H   H2800     1.0  0.89125  0.99170  0.57775  1.0000
  H   H2801     1.0  0.71339  0.27665  0.65087  1.0000
  H   H2802     1.0  0.51358  0.06132  0.53715  1.0000
  C   C2357     1.0  0.56466  0.12785  0.50057  1.0000
  H   H2803     1.0  0.75856  0.01278  0.64262  1.0000
  H   H2804     1.0  0.55607  0.01134  0.55425  1.0000
  C   C2358     1.0  0.66254  0.21945  0.72767  1.0000
  C   C2359     1.0  0.50896  0.07359  0.50615  1.0000
  H   H2805     1.0  0.78734  0.24200  0.73020  1.0000
  C   C2360     1.0  0.97459  0.24035  0.61998  1.0000
  H   H2806     1.0  0.89798  0.99181  0.59176  1.0000
  C   C2361     1.0  0.61796  0.08897  0.49961  1.0000
  Fe  Fe317     1.0  0.79906  0.27082  0.68577  1.0000
  H   H2807     1.0  0.99312  0.26540  0.66403  1.0000
  C   C2362     1.0  0.92748  0.28650  0.59100  1.0000
  H   H2808     1.0  0.91096  0.26350  0.66538  1.0000
  H   H2809     1.0  0.93307  0.23784  0.65939  1.0000
  H   H2810     1.0  0.98242  0.28655  0.60089  1.0000
  C   C2363     1.0  0.51724  0.11029  0.54059  1.0000
  H   H2811     1.0  0.54217  0.05583  0.58478  1.0000
  C   C2364     1.0  0.62048  0.06458  0.48530  1.0000
  C   C2365     1.0  0.60857  0.09378  0.48994  1.0000
  H   H2812     1.0  0.85504  0.31661  0.68593  1.0000
  C   C2366     1.0  0.76241  0.02021  0.63275  1.0000
  H   H2813     1.0  0.86170  0.10571  0.65323  1.0000
  C   C2367     1.0  0.96905  0.26594  0.60330  1.0000
  H   H2814     1.0  0.77655  0.25133  0.66213  1.0000
  C   C2368     1.0  0.84498  0.20230  0.64100  1.0000
  S   S648      1.0  0.74055  0.30185  0.67382  1.0000
  H   H2815     1.0  0.56981  0.02666  0.54656  1.0000
  H   H2816     1.0  0.84333  0.25905  0.63956  1.0000
  C   C2369     1.0  0.60077  0.03115  0.59816  1.0000
  H   H2817     1.0  0.86353  0.24491  0.64353  1.0000
  H   H2818     1.0  0.78661  0.06004  0.66160  1.0000
  H   H2819     1.0  0.99258  0.24010  0.63086  1.0000
  H   H2820     1.0  0.77896  0.20796  0.65437  1.0000
  C   C2370     1.0  0.96255  0.30049  0.65249  1.0000
  Fe  Fe318     1.0  0.79886  0.31003  0.67806  1.0000
  H   H2821     1.0  0.79665  0.21987  0.67752  1.0000
  H   H2822     1.0  0.77976  0.22838  0.64294  1.0000
  H   H2823     1.0  0.89183  0.27777  0.63105  1.0000
  C   C2371     1.0  0.77798  0.22238  0.65321  1.0000
  H   H2824     1.0  0.81593  0.19583  0.66910  1.0000
  H   H2825     1.0  0.84623  0.18399  0.65873  1.0000
  H   H2826     1.0  0.85858  0.19674  0.63657  1.0000
  N   N152      1.0  0.64713  0.15407  0.59372  1.0000
  C   C2372     1.0  0.66659  0.14733  0.58924  1.0000
  C   C2373     1.0  0.64456  0.17274  0.59452  1.0000
  C   C2374     1.0  0.64170  0.14348  0.60663  1.0000
  C   C2375     1.0  0.63603  0.15301  0.58540  1.0000
  C   C2376     1.0  0.61705  0.15791  0.58881  1.0000
  C   C2377     1.0  0.64349  0.14707  0.57388  1.0000
  C   C2378     1.0  0.60624  0.15640  0.58137  1.0000
  C   C2379     1.0  0.63254  0.14582  0.56645  1.0000
  C   C2380     1.0  0.61398  0.15025  0.57026  1.0000
  H   H2827     1.0  0.66947  0.13322  0.58857  1.0000
  H   H2828     1.0  0.67195  0.15522  0.57985  1.0000
  H   H2829     1.0  0.67456  0.14801  0.59581  1.0000
  H   H2830     1.0  0.64825  0.18119  0.58497  1.0000
  H   H2831     1.0  0.65302  0.17399  0.60056  1.0000
  H   H2832     1.0  0.63047  0.17845  0.59869  1.0000
  H   H2833     1.0  0.64199  0.12969  0.60628  1.0000
  H   H2834     1.0  0.65077  0.14275  0.61288  1.0000
  H   H2835     1.0  0.62800  0.14911  0.61151  1.0000
  H   H2836     1.0  0.61041  0.16273  0.59735  1.0000
  H   H2837     1.0  0.65775  0.14280  0.57051  1.0000
  H   H2838     1.0  0.59176  0.15978  0.58429  1.0000
  H   H2839     1.0  0.63849  0.14075  0.55790  1.0000
  H   H2840     1.0  0.60559  0.14859  0.56468  1.0000
  N   N153      1.0  0.76575  0.12403  0.64432  1.0000
  C   C2381     1.0  0.75679  0.12245  0.65786  1.0000
  C   C2382     1.0  0.76793  0.10677  0.64101  1.0000
  C   C2383     1.0  0.78392  0.12710  0.64261  1.0000
  C   C2384     1.0  0.75530  0.13910  0.63654  1.0000
  C   C2385     1.0  0.74740  0.13702  0.62726  1.0000
  C   C2386     1.0  0.75288  0.15659  0.63810  1.0000
  C   C2387     1.0  0.73799  0.15164  0.61989  1.0000
  C   C2388     1.0  0.74343  0.17111  0.63069  1.0000
  C   C2389     1.0  0.73607  0.16864  0.62156  1.0000
  H   H2841     1.0  0.74297  0.12041  0.65955  1.0000
  H   H2842     1.0  0.76431  0.11123  0.66400  1.0000
  H   H2843     1.0  0.75550  0.13454  0.66134  1.0000
  H   H2844     1.0  0.75477  0.10321  0.64263  1.0000
  H   H2845     1.0  0.77609  0.09578  0.64688  1.0000
  H   H2846     1.0  0.77497  0.10698  0.63096  1.0000
  H   H2847     1.0  0.78378  0.13815  0.64682  1.0000
  H   H2848     1.0  0.79279  0.11528  0.64722  1.0000
  H   H2849     1.0  0.79039  0.13018  0.63242  1.0000
  H   H2850     1.0  0.74814  0.12426  0.62552  1.0000
  H   H2851     1.0  0.75800  0.15907  0.64526  1.0000
  H   H2852     1.0  0.73173  0.14969  0.61307  1.0000
  H   H2853     1.0  0.74135  0.18429  0.63228  1.0000
  H   H2854     1.0  0.72834  0.17984  0.61607  1.0000
  N   N154      1.0  0.69670  0.04309  0.58259  1.0000
  C   C2390     1.0  0.70350  0.05791  0.57301  1.0000
  C   C2391     1.0  0.69324  0.03148  0.57568  1.0000
  C   C2392     1.0  0.67947  0.05075  0.59040  1.0000
  C   C2393     1.0  0.70923  0.03252  0.59089  1.0000
  C   C2394     1.0  0.72603  0.03647  0.58992  1.0000
  C   C2395     1.0  0.70479  0.01760  0.60027  1.0000
  C   C2396     1.0  0.71643  0.00726  0.60812  1.0000
  C   C2397     1.0  0.73286  0.01134  0.60683  1.0000
  H   H2855     1.0  0.71622  0.05307  0.56657  1.0000
  H   H2856     1.0  0.69372  0.06568  0.56700  1.0000
  H   H2857     1.0  0.64335  0.02251  0.53823  1.0000
  H   H2858     1.0  0.68467  0.03909  0.56881  1.0000
  H   H2859     1.0  0.68618  0.02114  0.58212  1.0000
  H   H2860     1.0  0.68162  0.05840  0.59654  1.0000
  H   H2861     1.0  0.67012  0.05996  0.58450  1.0000
  H   H2862     1.0  0.53953  0.05417  0.49486  1.0000
  C   C2398     1.0  0.65063  0.00293  0.65216  1.0000
  N   N155      1.0  0.84581  0.15906  0.59817  1.0000
  C   C2399     1.0  0.84753  0.14036  0.59782  1.0000
  C   C2400     1.0  0.83954  0.17062  0.58678  1.0000
  C   C2401     1.0  0.86401  0.16148  0.59736  1.0000
  C   C2402     1.0  0.83268  0.16326  0.60972  1.0000
  C   C2403     1.0  0.83731  0.16847  0.61933  1.0000
  C   C2404     1.0  0.81453  0.16223  0.61162  1.0000
  C   C2405     1.0  0.82447  0.17241  0.63006  1.0000
  C   C2406     1.0  0.80184  0.16618  0.62239  1.0000
  C   C2407     1.0  0.80680  0.17124  0.63160  1.0000
  H   H2863     1.0  0.83467  0.13752  0.59765  1.0000
  H   H2864     1.0  0.85744  0.13656  0.58935  1.0000
  H   H2865     1.0  0.85218  0.13128  0.60624  1.0000
  H   H2866     1.0  0.82695  0.16804  0.58583  1.0000
  H   H2867     1.0  0.84954  0.16848  0.57792  1.0000
  H   H2868     1.0  0.83699  0.18485  0.58706  1.0000
  H   H2869     1.0  0.86992  0.15248  0.60534  1.0000
  H   H2870     1.0  0.87356  0.15821  0.58861  1.0000
  H   H2871     1.0  0.86385  0.17537  0.59734  1.0000
  H   H2872     1.0  0.85078  0.16940  0.61888  1.0000
  H   H2873     1.0  0.81003  0.15815  0.60483  1.0000
  H   H2874     1.0  0.82830  0.17619  0.63732  1.0000
  H   H2875     1.0  0.78811  0.16518  0.62358  1.0000
  H   H2876     1.0  0.79698  0.17411  0.64004  1.0000
  N   N156      1.0  0.87284  0.10013  0.66963  1.0000
  C   C2408     1.0  0.87625  0.08501  0.68032  1.0000
  C   C2409     1.0  0.86491  0.09460  0.66121  1.0000
  C   C2410     1.0  0.89043  0.10409  0.66222  1.0000
  C   C2411     1.0  0.86029  0.11528  0.67461  1.0000
  C   C2412     1.0  0.84269  0.11378  0.68149  1.0000
  C   C2413     1.0  0.83052  0.12795  0.68615  1.0000
  H   H2877     1.0  0.88160  0.08883  0.68713  1.0000
  H   H2878     1.0  0.86387  0.08018  0.68564  1.0000
  H   H2879     1.0  0.88611  0.07350  0.67701  1.0000
  H   H2880     1.0  0.87423  0.08353  0.65702  1.0000
  H   H2881     1.0  0.88881  0.11526  0.65392  1.0000
  H   H2882     1.0  0.89772  0.10746  0.66810  1.0000
  H   H2883     1.0  0.89941  0.09261  0.65834  1.0000
  H   H2884     1.0  0.83801  0.10176  0.68308  1.0000
  H   H2885     1.0  0.81697  0.12666  0.69101  1.0000
  H   H2886     1.0  0.97167  0.24946  0.66357  1.0000
  H   H2887     1.0  0.64574  0.01058  0.52155  1.0000
  H   H2888     1.0  0.87798  0.30076  0.61785  1.0000
  C   C2414     1.0  0.72741  0.25608  0.66370  1.0000
  C   C2415     1.0  0.62977  0.05987  0.49508  1.0000
  H   H2889     1.0  0.53724  0.06657  0.54061  1.0000
  H   H2890     1.0  0.62632  0.00959  0.64529  1.0000
  C   C2416     1.0  0.76177  0.05944  0.65758  1.0000
  N   N157      1.0  0.65619  0.99497  0.54408  1.0000
  C   C2417     1.0  0.64390  0.99715  0.52521  1.0000
  H   H2891     1.0  0.85196  0.26173  0.65209  1.0000
  H   H2892     1.0  0.89068  0.25535  0.63863  1.0000
  C   C2418     1.0  0.62852  0.07204  0.50221  1.0000
  H   H2893     1.0  0.57238  0.03789  0.58549  1.0000
  C   C2419     1.0  0.61342  0.05695  0.59092  1.0000
  C   C2420     1.0  0.51538  0.09564  0.55054  1.0000
  H   H2894     1.0  0.96249  0.27288  0.59550  1.0000
  H   H2895     1.0  0.61447  0.02336  0.59879  1.0000
  H   H2896     1.0  0.87815  0.25190  0.62166  1.0000
  H   H2897     1.0  0.51650  0.00891  0.52239  1.0000
  H   H2898     1.0  0.50552  0.12902  0.52574  1.0000
  S   S649      1.0  0.89590  0.30779  0.64389  1.0000
  H   H2899     1.0  0.67552  0.99394  0.65767  1.0000
  H   H2900     1.0  0.52674  0.01565  0.48795  1.0000
  N   N158      1.0  0.54150  0.03824  0.54811  1.0000
  C   C2421     1.0  0.54669  0.05407  0.53881  1.0000
  C   C2422     1.0  0.53822  0.04132  0.56100  1.0000
  C   C2423     1.0  0.55208  0.06136  0.58647  1.0000
  C   C2424     1.0  0.52513  0.03442  0.54649  1.0000
  H   H2901     1.0  0.83131  0.28607  0.64569  1.0000
  H   H2902     1.0  0.73924  0.05736  0.65190  1.0000
  C   C2425     1.0  0.68986  0.30250  0.72955  1.0000
  C   C2426     1.0  0.53021  0.06244  0.48868  1.0000
  H   H2903     1.0  0.69232  0.01371  0.60153  1.0000
  H   H2904     1.0  0.77695  0.04461  0.61498  1.0000
  H   H2905     1.0  0.52520  0.03727  0.51325  1.0000
  H   H2906     1.0  0.73090  0.03939  0.62832  1.0000
  H   H2907     1.0  0.54978  0.04530  0.56245  1.0000
  H   H2908     1.0  0.53574  0.02930  0.56836  1.0000
  H   H2909     1.0  0.52624  0.05212  0.56275  1.0000
  C   C2427     1.0  0.72155  0.31197  0.72875  1.0000
  Fe  Fe319     1.0  0.56454  0.99667  0.51310  1.0000
  H   H2910     1.0  0.80126  0.22991  0.71143  1.0000
  C   C2428     1.0  0.70298  0.31223  0.69621  1.0000
  H   H2911     1.0  0.78588  0.20433  0.67508  1.0000
  C   C2429     1.0  0.74977  0.23707  0.72337  1.0000
  H   H2912     1.0  0.71594  0.31641  0.69389  1.0000
  S   S650      1.0  0.77340  0.29368  0.72530  1.0000
  S   S651      1.0  0.72211  0.23933  0.65890  1.0000
  H   H2913     1.0  0.75565  0.04632  0.61198  1.0000
  C   C2430     1.0  0.86440  0.30367  0.62325  1.0000
  C   C2431     1.0  0.79102  0.04718  0.64626  1.0000
  H   H2914     1.0  0.79196  0.03535  0.63134  1.0000
  C   C2432     1.0  0.99768  0.20045  0.64028  1.0000
  C   C2433     1.0  0.75371  0.05417  0.64999  1.0000
  H   H2915     1.0  0.72982  0.28525  0.70106  1.0000
  H   H2916     1.0  0.63761  0.04656  0.49738  1.0000
  C   C2434     1.0  0.86383  0.30281  0.65929  1.0000
  H   H2917     1.0  0.71481  0.27688  0.69631  1.0000
  C   C2435     1.0  0.56664  0.13270  0.48737  1.0000
  H   H2918     1.0  0.72058  0.30106  0.65663  1.0000
  H   H2919     1.0  0.79042  0.25175  0.64687  1.0000
  H   H2920     1.0  0.63529  0.06820  0.51001  1.0000
  C   C2436     1.0  0.78967  0.24484  0.65691  1.0000
  H   H2921     1.0  0.71285  0.99573  0.61503  1.0000
  H   H2922     1.0  0.67289  0.30302  0.71057  1.0000
  C   C2437     1.0  0.73640  0.04373  0.63482  1.0000
  H   H2923     1.0  0.80915  0.23441  0.63423  1.0000
  H   H2924     1.0  0.70601  0.02440  0.57044  1.0000
  S   S652      1.0  0.93528  0.30625  0.58530  1.0000
  H   H2925     1.0  0.80034  0.24767  0.66028  1.0000
  H   H2926     1.0  0.52831  0.10945  0.50783  1.0000
  C   C2438     1.0  0.81693  0.22363  0.63994  1.0000
  H   H2927     1.0  0.87971  0.27269  0.64699  1.0000
  H   H2928     1.0  0.75010  0.22670  0.70753  1.0000
  S   S653      1.0  0.79237  0.29168  0.66894  1.0000
  Fe  Fe320     1.0  0.77954  0.29468  0.70436  1.0000
  N   N159      1.0  0.70180  0.29704  0.70717  1.0000
  C   C2439     1.0  0.60925  0.04325  0.57585  1.0000
  C   C2440     1.0  0.74234  0.26629  0.67579  1.0000
  C   C2441     1.0  0.58278  0.05847  0.58863  1.0000
  C   C2442     1.0  0.57761  0.07623  0.59027  1.0000
  C   C2443     1.0  0.56939  0.05126  0.58688  1.0000
  C   C2444     1.0  0.56032  0.08625  0.58971  1.0000
  H   H2929     1.0  0.55694  0.09999  0.59046  1.0000
  Fe  Fe321     1.0  0.93067  0.32121  0.60039  1.0000
  C   C2445     1.0  0.70110  0.23369  0.73046  1.0000
  H   H2930     1.0  0.62262  0.03417  0.57566  1.0000
  H   H2931     1.0  0.61107  0.05529  0.56834  1.0000
  H   H2932     1.0  0.60094  0.03643  0.57307  1.0000
  C   C2446     1.0  0.76232  0.04881  0.61864  1.0000
  C   C2447     1.0  0.85087  0.30622  0.69370  1.0000
  H   H2933     1.0  0.58679  0.08293  0.59163  1.0000
  C   C2448     1.0  0.72549  0.28751  0.66113  1.0000
  H   H2934     1.0  0.66340  0.22679  0.71797  1.0000
  H   H2935     1.0  0.67085  0.19414  0.72254  1.0000
  H   H2936     1.0  0.83769  0.26623  0.71970  1.0000
  H   H2937     1.0  0.67999  0.00451  0.54181  1.0000
  H   H2938     1.0  0.73082  0.03698  0.64457  1.0000
  C   C2449     1.0  0.87112  0.26607  0.62089  1.0000
  H   H2939     1.0  0.67744  0.29863  0.73064  1.0000
  C   C2450     1.0  0.75810  0.23003  0.71262  1.0000
  H   H2940     1.0  0.73068  0.30678  0.71026  1.0000
  H   H2941     1.0  0.68293  0.28025  0.71663  1.0000
  C   C2451     1.0  0.54167  0.11967  0.48886  1.0000
  C   C2452     1.0  0.83576  0.30951  0.70368  1.0000
  C   C2453     1.0  0.53908  0.11582  0.50204  1.0000
  H   H2942     1.0  0.98007  0.28952  0.62981  1.0000
  S   S654      1.0  0.65113  0.00611  0.58677  1.0000
  N   N160      1.0  0.51123  0.06485  0.49558  1.0000
  H   H2943     1.0  0.53438  0.08684  0.58698  1.0000
  C   C2454     1.0  0.71958  0.30688  0.71836  1.0000
  H   H2944     1.0  0.87086  0.28939  0.66222  1.0000
  H   H2945     1.0  0.64757  0.01678  0.55375  1.0000
  H   H2946     1.0  0.51864  0.06658  0.51230  1.0000
  C   C2455     1.0  0.67364  0.99895  0.53652  1.0000
  H   H2947     1.0  0.68374  0.28821  0.70012  1.0000
  C   C2456     1.0  0.85629  0.29004  0.63183  1.0000
  C   C2457     1.0  0.85570  0.25878  0.64249  1.0000
  H   H2948     1.0  0.59387  0.00675  0.55695  1.0000
  H   H2949     1.0  0.75352  0.06625  0.66497  1.0000
  H   H2950     1.0  0.74202  0.00297  0.61272  1.0000
  H   H2951     1.0  0.83981  0.22174  0.62433  1.0000
  C   C2458     1.0  0.92187  0.26990  0.66507  1.0000
  H   H2952     1.0  0.92423  0.26682  0.67481  1.0000
  C   C2459     1.0  0.88281  0.26924  0.63762  1.0000
  H   H2953     1.0  0.86571  0.01752  0.58462  1.0000
  H   H2954     1.0  0.61489  0.06934  0.58367  1.0000
  C   C2460     1.0  0.78311  0.04190  0.63863  1.0000
  C   C2461     1.0  0.98060  0.27363  0.60643  1.0000
  H   H2955     1.0  0.82088  0.99458  0.62499  1.0000
  C   C2462     1.0  0.55715  0.02325  0.54652  1.0000
  C   C2463     1.0  0.84547  0.30784  0.66435  1.0000
  C   C2464     1.0  0.78038  0.05594  0.65572  1.0000
  C   C2465     1.0  0.96601  0.24936  0.61006  1.0000
  C   C2466     1.0  0.76422  0.04512  0.64027  1.0000
  H   H2956     1.0  0.83838  0.29822  0.67101  1.0000
  H   H2957     1.0  0.88042  0.27376  0.61368  1.0000
  C   C2467     1.0  0.72138  0.27368  0.65789  1.0000
  H   H2958     1.0  0.81437  0.32285  0.72455  1.0000
  C   C2468     1.0  0.68455  0.29195  0.70876  1.0000
  H   H2959     1.0  0.85908  0.26803  0.61703  1.0000
  Fe  Fe322     1.0  0.76514  0.29700  0.68144  1.0000
  H   H2960     1.0  0.81973  0.29588  0.72074  1.0000
  N   N161      1.0  0.86618  0.27135  0.63325  1.0000
  C   C2469     1.0  0.83851  0.29530  0.63871  1.0000
  H   H2961     1.0  0.75662  0.01564  0.62655  1.0000
  H   H2962     1.0  0.77337  0.22566  0.67720  1.0000
  C   C2470     1.0  0.86092  0.28906  0.69327  1.0000
  C   C2471     1.0  0.78668  0.21848  0.67277  1.0000
  C   C2472     1.0  0.92004  0.26175  0.58664  1.0000
  C   C2473     1.0  0.99649  0.21218  0.65832  1.0000
  N   N162      1.0  0.60124  0.04778  0.58842  1.0000
  H   H2963     1.0  0.92882  0.28341  0.57233  1.0000
  C   C2474     1.0  0.97812  0.29108  0.65670  1.0000
  H   H2964     1.0  0.92476  0.26095  0.64283  1.0000
  C   C2475     1.0  0.82952  0.31307  0.63697  1.0000
  H   H2965     1.0  0.91863  0.25511  0.57991  1.0000
  H   H2966     1.0  0.75049  0.02907  0.59675  1.0000
  H   H2967     1.0  0.73083  0.05822  0.63369  1.0000
  H   H2968     1.0  0.82583  0.15507  0.68749  1.0000
  H   H2969     1.0  0.94574  0.23974  0.66955  1.0000
  H   H2970     1.0  0.91648  0.28439  0.66246  1.0000
  C   C2476     1.0  0.92575  0.27778  0.58236  1.0000
  H   H2971     1.0  0.85669  0.15826  0.67612  1.0000
  C   C2477     1.0  0.83799  0.19513  0.65354  1.0000
  C   C2478     1.0  0.99376  0.15174  0.65784  1.0000
  H   H2972     1.0  0.77718  0.01609  0.62967  1.0000
  H   H2973     1.0  0.73056  0.04764  0.58319  1.0000
  H   H2974     1.0  0.81867  0.99729  0.57949  1.0000
  N   N163      1.0  0.79133  0.22545  0.65891  1.0000
  H   H2975     1.0  0.95708  0.24342  0.60755  1.0000
  Fe  Fe323     1.0  0.64284  0.00331  0.60772  1.0000
  C   C2479     1.0  0.52105  0.01740  0.55154  1.0000
  C   C2480     1.0  0.85276  0.14579  0.67769  1.0000
  H   H2976     1.0  0.85234  0.08992  0.66617  1.0000
  H   H2977     1.0  0.67230  0.04042  0.59667  1.0000
  H   H2978     1.0  0.59398  0.02222  0.59606  1.0000
  C   C2481     1.0  0.86507  0.13168  0.67304  1.0000
  H   H2979     1.0  0.70570  0.06762  0.57753  1.0000
  H   H2980     1.0  0.54825  0.11700  0.51802  1.0000
  C   C2482     1.0  0.83548  0.14399  0.68414  1.0000
  C   C2483     1.0  0.93457  0.26829  0.64324  1.0000
  H   H2981     1.0  0.62717  0.04857  0.59066  1.0000
  S   S655      1.0  0.53149  0.08674  0.55989  1.0000
  C   C2484     1.0  0.94365  0.24428  0.65970  1.0000
  H   H2982     1.0  0.87813  0.13416  0.66803  1.0000
  C   C2485     1.0  0.55052  0.11988  0.50786  1.0000
  C   C2486     1.0  0.73764  0.02594  0.59778  1.0000
  N   N164      1.0  0.93849  0.26387  0.65603  1.0000
  H   H2983     1.0  0.76399  0.22813  0.65769  1.0000
  C   C2487     1.0  0.92353  0.27909  0.60398  1.0000
  C   C2488     1.0  0.82054  0.20223  0.65941  1.0000
  C   C2489     1.0  0.83441  0.21641  0.63416  1.0000
  S   S656      1.0  0.93743  0.31020  0.61934  1.0000
  H   H2984     1.0  0.92485  0.28574  0.61070  1.0000
  H   H2985     1.0  0.70201  0.30890  0.68746  1.0000
  H   H2986     1.0  0.75930  0.06337  0.61786  1.0000
  H   H2987     1.0  0.51117  0.08737  0.50266  1.0000
  C   C2490     1.0  0.51211  0.04779  0.54071  1.0000
  H   H2988     1.0  0.59061  0.00440  0.52143  1.0000
  H   H2989     1.0  0.78314  0.22198  0.70007  1.0000
  C   C2491     1.0  0.54761  0.07887  0.58777  1.0000
  S   S657      1.0  0.77075  0.31745  0.68917  1.0000
  H   H2990     1.0  0.87436  0.01361  0.59857  1.0000
  H   H2991     1.0  0.87226  0.28687  0.68550  1.0000
  H   H2992     1.0  0.55903  0.01953  0.53737  1.0000
  H   H2993     1.0  0.98544  0.16511  0.67324  1.0000
  C   C2492     1.0  0.64380  0.01169  0.54680  1.0000
  C   C2493     1.0  0.83140  0.29456  0.71309  1.0000
  H   H2994     1.0  0.67226  0.00878  0.52754  1.0000
  C   C2494     1.0  0.50555  0.01374  0.55018  1.0000
  H   H2995     1.0  0.60003  0.10686  0.48873  1.0000
  H   H2996     1.0  0.86384  0.26139  0.70211  1.0000
  H   H2997     1.0  0.73536  0.23924  0.72613  1.0000
  H   H2998     1.0  0.62982  0.00981  0.55075  1.0000
  C   C2495     1.0  0.85622  0.27471  0.70263  1.0000
  H   H2999     1.0  0.64861  0.01590  0.65412  1.0000
  C   C2496     1.0  0.75980  0.24127  0.73042  1.0000
  H   H3000     1.0  0.83724  0.00828  0.58796  1.0000
  C   C2497     1.0  0.98628  0.24787  0.62316  1.0000
  C   C2498     1.0  0.87307  0.31500  0.65035  1.0000
  H   H3001     1.0  0.50296  0.00051  0.55381  1.0000
  H   H3002     1.0  0.63208  0.99841  0.50976  1.0000
  C   C2499     1.0  0.51021  0.01821  0.51506  1.0000
  C   C2500     1.0  0.84244  0.99522  0.58597  1.0000
  H   H3003     1.0  0.98793  0.29806  0.65689  1.0000
  H   H3004     1.0  0.00077  0.29691  0.62548  1.0000
  H   H3005     1.0  0.85175  0.01331  0.60023  1.0000
  C   C2501     1.0  0.85529  0.32139  0.62163  1.0000
  C   C2502     1.0  0.63802  0.99942  0.64719  1.0000
  C   C2503     1.0  0.99235  0.29065  0.62228  1.0000
  H   H3006     1.0  0.80007  0.31764  0.70944  1.0000
  C   C2504     1.0  0.50642  0.04733  0.50060  1.0000
  C   C2505     1.0  0.70786  0.20164  0.73415  1.0000
  H   H3007     1.0  0.81618  0.31689  0.64258  1.0000
  H   H3008     1.0  0.57574  0.09515  0.48682  1.0000
  H   H3009     1.0  0.53437  0.07532  0.48476  1.0000
  C   C2506     1.0  0.66665  0.20103  0.73028  1.0000
  S   S658      1.0  0.61384  0.99745  0.57626  1.0000
  H   H3010     1.0  0.98812  0.30037  0.61394  1.0000
  N   N165      1.0  0.87035  0.99019  0.59459  1.0000
  C   C2507     1.0  0.50419  0.11743  0.53327  1.0000
  C   C2508     1.0  0.59804  0.99248  0.55906  1.0000
  C   C2509     1.0  0.63609  0.99031  0.51837  1.0000
  Fe  Fe324     1.0  0.52917  0.10274  0.93292  1.0000
  S   S659      1.0  0.51524  0.09172  0.95259  1.0000
  S   S660      1.0  0.51857  0.13139  0.92470  1.0000
  Fe  Fe325     1.0  0.55507  0.06794  0.93052  1.0000
  S   S661      1.0  0.54366  0.05411  0.94995  1.0000
  C   C2510     1.0  0.53965  0.28369  0.82130  1.0000
  Fe  Fe326     1.0  0.51720  0.06814  0.94504  1.0000
  C   C2511     1.0  0.58870  0.03978  0.97509  1.0000
  Fe  Fe327     1.0  0.54284  0.07885  0.95584  1.0000
  S   S662      1.0  0.54766  0.07513  0.97527  1.0000
  S   S663      1.0  0.52859  0.08019  0.92501  1.0000
  S   S664      1.0  0.55685  0.09170  0.93675  1.0000
  Fe  Fe328     1.0  0.70513  0.24931  0.77906  1.0000
  S   S665      1.0  0.69849  0.27146  0.76305  1.0000
  S   S666      1.0  0.73155  0.24286  0.78473  1.0000
  Fe  Fe329     1.0  0.67013  0.23753  0.78370  1.0000
  S   S667      1.0  0.66050  0.25886  0.76791  1.0000
  S   S668      1.0  0.65652  0.21577  0.79647  1.0000
  H   H3011     1.0  0.60199  0.03020  0.90279  1.0000
  Fe  Fe330     1.0  0.67112  0.27635  0.77536  1.0000
  S   S669      1.0  0.65914  0.30439  0.77753  1.0000
  H   H3012     1.0  0.59938  0.15385  0.88307  1.0000
  S   S670      1.0  0.67849  0.25558  0.79207  1.0000
  C   C2512     1.0  0.58671  0.25012  0.83497  1.0000
  H   H3013     1.0  0.65535  0.24273  0.73537  1.0000
  C   C2513     1.0  0.67563  0.19495  0.77066  1.0000
  C   C2514     1.0  0.51715  0.13884  0.95745  1.0000
  H   H3014     1.0  0.58771  0.17062  0.87207  1.0000
  H   H3015     1.0  0.77057  0.29768  0.75028  1.0000
  C   C2515     1.0  0.59366  0.18690  0.88726  1.0000
  H   H3016     1.0  0.60257  0.99994  0.90128  1.0000
  H   H3017     1.0  0.60756  0.17928  0.88765  1.0000
  C   C2516     1.0  0.76294  0.25098  0.74872  1.0000
  C   C2517     1.0  0.73884  0.26604  0.73807  1.0000
  H   H3018     1.0  0.57818  0.99154  0.97447  1.0000
  C   C2518     1.0  0.55418  0.09146  0.97966  1.0000
  N   N166      1.0  0.58319  0.02284  0.97695  1.0000
  C   C2519     1.0  0.57205  0.27151  0.81921  1.0000
  H   H3019     1.0  0.77222  0.23829  0.75175  1.0000
  H   H3020     1.0  0.60337  0.03846  0.97128  1.0000
  C   C2520     1.0  0.66633  0.19142  0.74270  1.0000
  S   S671      1.0  0.75537  0.30001  0.80216  1.0000
  N   N167      1.0  0.58816  0.26613  0.82476  1.0000
  H   H3021     1.0  0.56559  0.06055  0.88822  1.0000
  Fe  Fe331     1.0  0.55460  0.22179  0.86007  1.0000
  S   S672      1.0  0.54350  0.23770  0.84316  1.0000
  S   S673      1.0  0.56720  0.23054  0.87228  1.0000
  Fe  Fe332     1.0  0.54842  0.18742  0.85781  1.0000
  S   S674      1.0  0.53738  0.20002  0.84031  1.0000
  S   S675      1.0  0.55141  0.15819  0.86665  1.0000
  Fe  Fe333     1.0  0.55949  0.21506  0.83396  1.0000
  S   S676      1.0  0.57235  0.22306  0.81328  1.0000
  Fe  Fe334     1.0  0.52233  0.22169  0.85061  1.0000
  H   H3022     1.0  0.52735  0.99109  0.97816  1.0000
  S   S677      1.0  0.57225  0.20019  0.85040  1.0000
  S   S678      1.0  0.53172  0.20803  0.86858  1.0000
  H   H3023     1.0  0.56323  0.19446  0.88005  1.0000
  H   H3024     1.0  0.53694  0.24754  0.80538  1.0000
  H   H3025     1.0  0.60071  0.28988  0.78490  1.0000
  H   H3026     1.0  0.75554  0.25587  0.75751  1.0000
  H   H3027     1.0  0.55701  0.00873  0.89410  1.0000
  C   C2521     1.0  0.68827  0.29540  0.80728  1.0000
  H   H3028     1.0  0.51419  0.14390  0.87524  1.0000
  C   C2522     1.0  0.65359  0.32022  0.81004  1.0000
  H   H3029     1.0  0.51008  0.17380  0.86665  1.0000
  H   H3030     1.0  0.55827  0.19571  0.89633  1.0000
  C   C2523     1.0  0.56364  0.02577  0.98227  1.0000
  C   C2524     1.0  0.66179  0.20012  0.75295  1.0000
  C   C2525     1.0  0.65801  0.22839  0.73748  1.0000
  C   C2526     1.0  0.57755  0.03228  0.91700  1.0000
  H   H3031     1.0  0.63321  0.19309  0.77119  1.0000
  H   H3032     1.0  0.59401  0.19468  0.87736  1.0000
  H   H3033     1.0  0.50619  0.00465  0.92637  1.0000
  C   C2527     1.0  0.57709  0.14346  0.92917  1.0000
  C   C2528     1.0  0.66587  0.17089  0.76785  1.0000
  C   C2529     1.0  0.56600  0.28949  0.86505  1.0000
  C   C2530     1.0  0.57686  0.27703  0.87270  1.0000
  C   C2531     1.0  0.57681  0.25902  0.87508  1.0000
  C   C2532     1.0  0.56579  0.25336  0.86990  1.0000
  C   C2533     1.0  0.55433  0.26585  0.86267  1.0000
  C   C2534     1.0  0.55448  0.28394  0.86020  1.0000
  H   H3034     1.0  0.58563  0.28127  0.87659  1.0000
  H   H3035     1.0  0.58556  0.24943  0.88078  1.0000
  H   H3036     1.0  0.54553  0.26153  0.85889  1.0000
  H   H3037     1.0  0.54578  0.29357  0.85453  1.0000
  C   C2535     1.0  0.50133  0.15282  0.97483  1.0000
  H   H3038     1.0  0.70934  0.31636  0.74751  1.0000
  H   H3039     1.0  0.59684  0.03894  0.95173  1.0000
  C   C2536     1.0  0.73756  0.25935  0.78928  1.0000
  C   C2537     1.0  0.74791  0.25414  0.79844  1.0000
  C   C2538     1.0  0.75323  0.26678  0.80222  1.0000
  C   C2539     1.0  0.74874  0.28474  0.79663  1.0000
  C   C2540     1.0  0.73876  0.28998  0.78718  1.0000
  C   C2541     1.0  0.73289  0.27733  0.78365  1.0000
  H   H3040     1.0  0.75169  0.24027  0.80274  1.0000
  H   H3041     1.0  0.76099  0.26258  0.80947  1.0000
  H   H3042     1.0  0.73563  0.30370  0.78256  1.0000
  H   H3043     1.0  0.72520  0.28141  0.77637  1.0000
  C   C2542     1.0  0.60795  0.29870  0.78610  1.0000
  C   C2543     1.0  0.62645  0.29641  0.78129  1.0000
  C   C2544     1.0  0.70773  0.31248  0.73945  1.0000
  C   C2545     1.0  0.65764  0.21893  0.74994  1.0000
  H   H3044     1.0  0.53231  0.25747  0.78345  1.0000
  H   H3045     1.0  0.51507  0.27908  0.85900  1.0000
  H   H3046     1.0  0.63333  0.28592  0.77635  1.0000
  H   H3047     1.0  0.65392  0.31002  0.80535  1.0000
  H   H3048     1.0  0.64359  0.18850  0.78448  1.0000
  H   H3049     1.0  0.67277  0.20926  0.77065  1.0000
  C   C2546     1.0  0.63303  0.21892  0.80124  1.0000
  C   C2547     1.0  0.62555  0.20936  0.81302  1.0000
  C   C2548     1.0  0.60694  0.21071  0.81687  1.0000
  C   C2549     1.0  0.59573  0.22113  0.80874  1.0000
  C   C2550     1.0  0.60323  0.23042  0.79682  1.0000
  C   C2551     1.0  0.62179  0.22969  0.79320  1.0000
  H   H3050     1.0  0.63420  0.20085  0.81922  1.0000
  H   H3051     1.0  0.60132  0.20335  0.82601  1.0000
  H   H3052     1.0  0.59461  0.23845  0.79047  1.0000
  H   H3053     1.0  0.62742  0.23709  0.78408  1.0000
  C   C2552     1.0  0.59419  0.02601  0.95310  1.0000
  C   C2553     1.0  0.59184  0.00641  0.90788  1.0000
  S   S679      1.0  0.69767  0.22932  0.77202  1.0000
  H   H3054     1.0  0.57642  0.15496  0.88341  1.0000
  H   H3055     1.0  0.61710  0.25855  0.81984  1.0000
  C   C2554     1.0  0.53904  0.05717  0.89810  1.0000
  C   C2555     1.0  0.52088  0.25628  0.79128  1.0000
  H   H3056     1.0  0.55462  0.99911  0.93025  1.0000
  H   H3057     1.0  0.53453  0.07068  0.89937  1.0000
  Fe  Fe335     1.0  0.68873  0.25214  0.75692  1.0000
  H   H3058     1.0  0.67954  0.16590  0.76248  1.0000
  C   C2556     1.0  0.56023  0.10575  0.97079  1.0000
  H   H3059     1.0  0.70020  0.31337  0.81966  1.0000
  C   C2557     1.0  0.50884  0.24972  0.81370  1.0000
  H   H3060     1.0  0.67967  0.32003  0.78687  1.0000
  N   N168      1.0  0.75056  0.24856  0.74183  1.0000
  H   H3061     1.0  0.56145  0.10676  0.96083  1.0000
  H   H3062     1.0  0.56943  0.12977  0.96807  1.0000
  H   H3063     1.0  0.50554  0.21392  0.83213  1.0000
  C   C2558     1.0  0.57839  0.99760  0.91546  1.0000
  C   C2559     1.0  0.52705  0.13848  0.90842  1.0000
  C   C2560     1.0  0.52111  0.15604  0.90239  1.0000
  C   C2561     1.0  0.52829  0.16219  0.88954  1.0000
  C   C2562     1.0  0.54156  0.15084  0.88267  1.0000
  C   C2563     1.0  0.54715  0.13315  0.88864  1.0000
  C   C2564     1.0  0.53997  0.12698  0.90149  1.0000
  C   C2565     1.0  0.69033  0.32169  0.79085  1.0000
  H   H3064     1.0  0.52359  0.17573  0.88502  1.0000
  H   H3065     1.0  0.55730  0.12423  0.88336  1.0000
  H   H3066     1.0  0.54467  0.11341  0.90606  1.0000
  S   S680      1.0  0.54464  0.32247  0.83171  1.0000
  C   C2566     1.0  0.62666  0.32166  0.78894  1.0000
  H   H3067     1.0  0.51405  0.15642  0.97458  1.0000
  H   H3068     1.0  0.57618  0.02972  0.88539  1.0000
  H   H3069     1.0  0.72827  0.23538  0.74708  1.0000
  C   C2567     1.0  0.51354  0.03445  0.98022  1.0000
  C   C2568     1.0  0.51428  0.12158  0.97860  1.0000
  C   C2569     1.0  0.56245  0.03416  0.89014  1.0000
  H   H3070     1.0  0.73294  0.24119  0.75976  1.0000
  C   C2570     1.0  0.58715  0.01625  0.96520  1.0000
  H   H3071     1.0  0.51104  0.16497  0.90770  1.0000
  H   H3072     1.0  0.52076  0.12678  0.95346  1.0000
  C   C2571     1.0  0.50421  0.17172  0.85938  1.0000
  H   H3073     1.0  0.51217  0.11764  0.89185  1.0000
  C   C2572     1.0  0.76914  0.31075  0.74418  1.0000
  C   C2573     1.0  0.70338  0.21721  0.73877  1.0000
  C   C2574     1.0  0.55650  0.05154  0.89171  1.0000
  H   H3074     1.0  0.60326  0.02687  0.93309  1.0000
  H   H3075     1.0  0.68121  0.30811  0.74825  1.0000
  C   C2575     1.0  0.52951  0.99657  0.90638  1.0000
  H   H3076     1.0  0.52129  0.02115  0.96468  1.0000
  H   H3077     1.0  0.67624  0.18788  0.78059  1.0000
  H   H3078     1.0  0.59889  0.17464  0.90963  1.0000
  H   H3079     1.0  0.58538  0.23911  0.83127  1.0000
  H   H3080     1.0  0.70148  0.21644  0.74875  1.0000
  H   H3081     1.0  0.70929  0.18888  0.74062  1.0000
  C   C2576     1.0  0.60523  0.26193  0.81553  1.0000
  S   S681      1.0  0.57776  0.05399  0.91742  1.0000
  C   C2577     1.0  0.58957  0.28057  0.83008  1.0000
  C   C2578     1.0  0.57268  0.27031  0.80673  1.0000
  C   C2579     1.0  0.55729  0.27599  0.80168  1.0000
  H   H3082     1.0  0.57831  0.28349  0.83805  1.0000
  H   H3083     1.0  0.60192  0.27725  0.83385  1.0000
  H   H3084     1.0  0.58972  0.29304  0.82272  1.0000
  H   H3085     1.0  0.58497  0.26542  0.80055  1.0000
  H   H3086     1.0  0.55823  0.27540  0.79203  1.0000
  H   H3087     1.0  0.68917  0.19157  0.76458  1.0000
  H   H3088     1.0  0.55327  0.27877  0.83609  1.0000
  H   H3089     1.0  0.68006  0.29203  0.80204  1.0000
  C   C2580     1.0  0.64409  0.19569  0.77444  1.0000
  H   H3090     1.0  0.55256  0.17858  0.89176  1.0000
  H   H3091     1.0  0.59775  0.99750  0.93461  1.0000
  H   H3092     1.0  0.51095  0.24577  0.82330  1.0000
  C   C2581     1.0  0.56820  0.15227  0.90907  1.0000
  C   C2582     1.0  0.59149  0.02357  0.90871  1.0000
  C   C2583     1.0  0.51935  0.01953  0.97483  1.0000
  H   H3093     1.0  0.52905  0.28756  0.80487  1.0000
  H   H3094     1.0  0.55338  0.03002  0.93127  1.0000
  C   C2584     1.0  0.52351  0.25083  0.80361  1.0000
  C   C2585     1.0  0.52757  0.04534  0.90314  1.0000
  N   N169      1.0  0.58078  0.17505  0.89110  1.0000
  H   H3095     1.0  0.66550  0.16409  0.77794  1.0000
  H   H3096     1.0  0.50399  0.18399  0.85181  1.0000
  H   H3097     1.0  0.51422  0.05028  0.90806  1.0000
  C   C2586     1.0  0.59895  0.31194  0.79287  1.0000
  C   C2587     1.0  0.56471  0.11875  0.97490  1.0000
  C   C2588     1.0  0.58633  0.16311  0.88207  1.0000
  C   C2589     1.0  0.56466  0.00604  0.92407  1.0000
  H   H3098     1.0  0.60692  0.27334  0.80745  1.0000
  H   H3099     1.0  0.55799  0.13280  0.92479  1.0000
  C   C2590     1.0  0.58849  0.15533  0.92474  1.0000
  H   H3100     1.0  0.58976  0.19691  0.89323  1.0000
  C   C2591     1.0  0.59800  0.01920  0.94225  1.0000
  H   H3101     1.0  0.50221  0.26482  0.77929  1.0000
  H   H3102     1.0  0.51121  0.15025  0.95058  1.0000
  C   C2592     1.0  0.56409  0.02348  0.92473  1.0000
  H   H3103     1.0  0.59860  0.24537  0.83936  1.0000
  C   C2593     1.0  0.50359  0.26025  0.78900  1.0000
  N   N170      1.0  0.68738  0.31476  0.80469  1.0000
  C   C2594     1.0  0.55494  0.27796  0.82644  1.0000
  C   C2595     1.0  0.63585  0.30776  0.78282  1.0000
  S   S682      1.0  0.57637  0.31299  0.80017  1.0000
  H   H3104     1.0  0.56007  0.15062  0.90339  1.0000
  C   C2596     1.0  0.54086  0.28284  0.80891  1.0000
  H   H3105     1.0  0.70212  0.28783  0.80417  1.0000
  H   H3106     1.0  0.60591  0.25027  0.81186  1.0000
  C   C2597     1.0  0.53333  0.02738  0.90205  1.0000
  H   H3107     1.0  0.57618  0.13537  0.93868  1.0000
  H   H3108     1.0  0.58555  0.04427  0.98416  1.0000
  C   C2598     1.0  0.58984  0.16572  0.91244  1.0000
  C   C2599     1.0  0.57973  0.16442  0.90419  1.0000
  H   H3109     1.0  0.64077  0.20993  0.77469  1.0000
  H   H3110     1.0  0.57483  0.25255  0.84266  1.0000
  H   H3111     1.0  0.70333  0.31470  0.78585  1.0000
  N   N171      1.0  0.52104  0.01501  0.90783  1.0000
  H   H3112     1.0  0.51356  0.16081  0.85503  1.0000
  H   H3113     1.0  0.52696  0.12421  0.97929  1.0000
  N   N172      1.0  0.50479  0.13645  0.97007  1.0000
  C   C2600     1.0  0.55116  0.02216  0.89526  1.0000
  H   H3114     1.0  0.68384  0.29000  0.81755  1.0000
  H   H3115     1.0  0.52608  0.01129  0.92630  1.0000
  C   C2601     1.0  0.56293  0.18637  0.88980  1.0000
  C   C2602     1.0  0.56692  0.14199  0.92136  1.0000
  H   H3116     1.0  0.65589  0.16656  0.76474  1.0000
  H   H3117     1.0  0.65450  0.22649  0.75715  1.0000
  H   H3118     1.0  0.59636  0.15643  0.93088  1.0000
  H   H3119     1.0  0.72733  0.26496  0.73473  1.0000
  H   H3120     1.0  0.52684  0.28908  0.82689  1.0000
  N   N173      1.0  0.66186  0.19045  0.76619  1.0000
  H   H3121     1.0  0.51136  0.04712  0.97376  1.0000
  C   C2603     1.0  0.70239  0.31709  0.80917  1.0000
  H   H3122     1.0  0.53003  0.14134  0.95796  1.0000
  H   H3123     1.0  0.50692  0.31697  0.80562  1.0000
  H   H3124     1.0  0.74758  0.22293  0.75340  1.0000
  H   H3125     1.0  0.50634  0.02745  0.92354  1.0000
  C   C2604     1.0  0.51465  0.01460  0.92157  1.0000
  C   C2605     1.0  0.59479  0.00270  0.94306  1.0000
  H   H3126     1.0  0.73320  0.27300  0.74604  1.0000
  H   H3127     1.0  0.67018  0.17721  0.74391  1.0000
  C   C2606     1.0  0.73938  0.23648  0.75084  1.0000
  C   C2607     1.0  0.58374  0.99962  0.96564  1.0000
  H   H3128     1.0  0.55611  0.03571  0.97547  1.0000
  S   S683      1.0  0.56748  0.31177  0.86150  1.0000
  C   C2608     1.0  0.50406  0.28902  0.85573  1.0000
  H   H3129     1.0  0.58138  0.05071  0.96866  1.0000
  C   C2609     1.0  0.50528  0.02100  0.90188  1.0000
  H   H3130     1.0  0.60732  0.32308  0.86893  1.0000
  H   H3131     1.0  0.71544  0.30876  0.80542  1.0000
  C   C2610     1.0  0.58752  0.99300  0.95471  1.0000
  H   H3132     1.0  0.53393  0.99564  0.89628  1.0000
  H   H3133     1.0  0.50946  0.02178  0.89150  1.0000
  H   H3134     1.0  0.51251  0.06825  0.98325  1.0000
  H   H3135     1.0  0.54129  0.99115  0.91091  1.0000
  H   H3136     1.0  0.77087  0.26099  0.74291  1.0000
  C   C2611     1.0  0.69190  0.30784  0.73983  1.0000
  H   H3137     1.0  0.60728  0.00583  0.98226  1.0000
  H   H3138     1.0  0.51745  0.10896  0.97535  1.0000
  H   H3139     1.0  0.51434  0.31092  0.85629  1.0000
  C   C2612     1.0  0.50108  0.14091  0.87916  1.0000
  C   C2613     1.0  0.52269  0.00261  0.98239  1.0000
  C   C2614     1.0  0.50366  0.30689  0.85425  1.0000
  S   S684      1.0  0.69514  0.25347  0.73594  1.0000
  C   C2615     1.0  0.77654  0.38213  0.16770  1.0000
  H   H3140     1.0  0.63495  0.64033  0.17731  1.0000
  Fe  Fe336     1.0  0.91234  0.45792  0.02600  1.0000
  S   S685      1.0  0.92069  0.46470  0.00478  1.0000
  S   S686      1.0  0.88547  0.47030  0.03665  1.0000
  Fe  Fe337     1.0  0.94949  0.43707  0.02933  1.0000
  S   S687      1.0  0.96116  0.44165  0.00851  1.0000
  Fe  Fe338     1.0  0.94536  0.46937  0.00818  1.0000
  H   H3141     1.0  0.91878  0.52595  0.02213  1.0000
  Fe  Fe339     1.0  0.93561  0.43642  0.00672  1.0000
  H   H3142     1.0  0.81364  0.55632  0.16586  1.0000
  S   S688      1.0  0.93562  0.46531  0.02917  1.0000
  S   S689      1.0  0.92529  0.42907  0.02772  1.0000
  Fe  Fe340     1.0  0.95256  0.58662  0.99847  1.0000
  S   S690      1.0  0.97513  0.57427  0.00842  1.0000
  C   C2616     1.0  0.80870  0.64115  0.15421  1.0000
  Fe  Fe341     1.0  0.92840  0.60046  0.02146  1.0000
  S   S691      1.0  0.94934  0.58896  0.03319  1.0000
  S   S692      1.0  0.89988  0.61349  0.02862  1.0000
  Fe  Fe342     1.0  0.96807  0.59936  0.01536  1.0000
  H   H3143     1.0  0.50268  0.34521  0.14471  1.0000
  Fe  Fe343     1.0  0.95414  0.56526  0.02486  1.0000
  S   S693      1.0  0.95768  0.53674  0.03484  1.0000
  S   S694      1.0  0.94674  0.61254  0.00417  1.0000
  S   S695      1.0  0.93184  0.57594  0.01447  1.0000
  Fe  Fe344     1.0  0.85467  0.59755  0.09600  1.0000
  S   S696      1.0  0.85753  0.57443  0.11230  1.0000
  S   S697      1.0  0.87898  0.60924  0.08746  1.0000
  Fe  Fe345     1.0  0.81619  0.59672  0.09764  1.0000
  S   S698      1.0  0.81611  0.57347  0.11397  1.0000
  S   S699      1.0  0.79217  0.61051  0.08920  1.0000
  Fe  Fe346     1.0  0.83025  0.58775  0.12145  1.0000
  S   S700      1.0  0.82328  0.58809  0.14223  1.0000
  Fe  Fe347     1.0  0.84330  0.56267  0.10310  1.0000
  S   S701      1.0  0.85403  0.53469  0.10051  1.0000
  S   S702      1.0  0.82846  0.61190  0.10581  1.0000
  S   S703      1.0  0.84240  0.58482  0.08606  1.0000
  Fe  Fe348     1.0  0.79419  0.43961  0.09603  1.0000
  S   S704      1.0  0.77896  0.45486  0.11088  1.0000
  S   S705      1.0  0.78216  0.43111  0.08339  1.0000
  Fe  Fe349     1.0  0.82991  0.43902  0.10081  1.0000
  S   S706      1.0  0.81777  0.45365  0.11665  1.0000
  S   S707      1.0  0.85939  0.43014  0.09288  1.0000
  Fe  Fe350     1.0  0.79769  0.43629  0.12281  1.0000
  S   S708      1.0  0.78291  0.42825  0.14295  1.0000
  Fe  Fe351     1.0  0.79996  0.47088  0.10365  1.0000
  S   S709      1.0  0.79115  0.50027  0.10154  1.0000
  S   S710      1.0  0.81159  0.41973  0.10831  1.0000
  S   S711      1.0  0.81341  0.45761  0.08742  1.0000
  Fe  Fe352     1.0  0.68436  0.44842  0.11632  1.0000
  S   S712      1.0  0.69482  0.46266  0.12627  1.0000
  S   S713      1.0  0.69771  0.44208  0.09728  1.0000
  Fe  Fe353     1.0  0.65175  0.44386  0.13740  1.0000
  S   S714      1.0  0.65947  0.45763  0.14952  1.0000
  S   S715      1.0  0.62571  0.43460  0.14228  1.0000
  Fe  Fe354     1.0  0.66651  0.47722  0.13147  1.0000
  S   S716      1.0  0.66235  0.50677  0.12899  1.0000
  Fe  Fe355     1.0  0.68722  0.44206  0.14338  1.0000
  S   S717      1.0  0.70855  0.43073  0.15463  1.0000
  S   S718      1.0  0.65651  0.46489  0.11979  1.0000
  S   S719      1.0  0.67900  0.42646  0.13302  1.0000
  Fe  Fe356     1.0  0.60071  0.33652  0.10233  1.0000
  H   H3144     1.0  0.70603  0.62518  0.21297  1.0000
  C   C2617     1.0  0.76800  0.65247  0.14110  1.0000
  Fe  Fe357     1.0  0.60030  0.35893  0.12054  1.0000
  S   S720      1.0  0.57279  0.35521  0.13207  1.0000
  S   S721      1.0  0.62351  0.36804  0.12321  1.0000
  H   H3145     1.0  0.81347  0.49024  0.13401  1.0000
  Fe  Fe358     1.0  0.56574  0.35926  0.11315  1.0000
  S   S722      1.0  0.54030  0.37286  0.10605  1.0000
  C   C2618     1.0  0.82406  0.32611  0.22336  1.0000
  S   S723      1.0  0.59225  0.36556  0.10182  1.0000
  H   H3146     1.0  0.95038  0.43074  0.07201  1.0000
  C   C2619     1.0  0.87442  0.43367  0.03003  1.0000
  S   S724      1.0  0.70590  0.35231  0.18369  1.0000
  Fe  Fe359     1.0  0.68819  0.59625  0.15993  1.0000
  S   S725      1.0  0.70312  0.57303  0.17197  1.0000
  S   S726      1.0  0.66625  0.61424  0.17071  1.0000
  Fe  Fe360     1.0  0.71094  0.58583  0.13559  1.0000
  S   S727      1.0  0.72769  0.56194  0.14566  1.0000
  S   S728      1.0  0.71638  0.59155  0.11448  1.0000
  Fe  Fe361     1.0  0.70151  0.55770  0.15853  1.0000
  S   S729      1.0  0.69456  0.53087  0.16559  1.0000
  Fe  Fe362     1.0  0.72745  0.57994  0.15785  1.0000
  H   H3147     1.0  0.92107  0.61102  0.04662  1.0000
  S   S730      1.0  0.68456  0.58045  0.14755  1.0000
  S   S731      1.0  0.71271  0.60433  0.14670  1.0000
  C   C2620     1.0  0.91242  0.53943  0.00407  1.0000
  C   C2621     1.0  0.81795  0.32921  0.21202  1.0000
  C   C2622     1.0  0.73420  0.60264  0.19292  1.0000
  H   H3148     1.0  0.93095  0.43342  0.08453  1.0000
  H   H3149     1.0  0.76288  0.52811  0.14068  1.0000
  C   C2623     1.0  0.63645  0.36313  0.15917  1.0000
  H   H3150     1.0  0.94057  0.47592  0.05275  1.0000
  H   H3151     1.0  0.77673  0.59977  0.16602  1.0000
  C   C2624     1.0  0.65211  0.62969  0.16146  1.0000
  C   C2625     1.0  0.50631  0.36806  0.10932  1.0000
  H   H3152     1.0  0.99620  0.52151  0.02848  1.0000
  H   H3153     1.0  0.90473  0.50092  0.02432  1.0000
  C   C2626     1.0  0.70527  0.65294  0.19328  1.0000
  C   C2627     1.0  0.65541  0.63091  0.14843  1.0000
  H   H3154     1.0  0.82299  0.40594  0.05490  1.0000
  H   H3155     1.0  0.81286  0.65284  0.13432  1.0000
  H   H3156     1.0  0.60702  0.62792  0.15970  1.0000
  H   H3157     1.0  0.66659  0.62193  0.14393  1.0000
  C   C2628     1.0  0.52082  0.36535  0.11499  1.0000
  H   H3158     1.0  0.85250  0.60816  0.12969  1.0000
  C   C2629     1.0  0.64732  0.33174  0.16656  1.0000
  H   H3159     1.0  0.65383  0.33217  0.13353  1.0000
  C   C2630     1.0  0.98058  0.39355  0.00720  1.0000
  C   C2631     1.0  0.51965  0.35661  0.12766  1.0000
  C   C2632     1.0  0.90479  0.53931  0.99407  1.0000
  H   H3160     1.0  0.91273  0.60894  0.06976  1.0000
  C   C2633     1.0  0.81615  0.54527  0.16095  1.0000
  H   H3161     1.0  0.53080  0.35441  0.13208  1.0000
  C   C2634     1.0  0.67071  0.51356  0.13942  1.0000
  C   C2635     1.0  0.67274  0.50275  0.15122  1.0000
  C   C2636     1.0  0.67967  0.50837  0.15932  1.0000
  C   C2637     1.0  0.68519  0.52449  0.15549  1.0000
  C   C2638     1.0  0.68301  0.53536  0.14375  1.0000
  C   C2639     1.0  0.67549  0.53005  0.13583  1.0000
  H   H3162     1.0  0.66879  0.49014  0.15414  1.0000
  H   H3163     1.0  0.68097  0.50007  0.16852  1.0000
  H   H3164     1.0  0.68708  0.54788  0.14075  1.0000
  H   H3165     1.0  0.67357  0.53861  0.12684  1.0000
  C   C2640     1.0  0.70630  0.37438  0.17615  1.0000
  C   C2641     1.0  0.69123  0.38558  0.17191  1.0000
  C   C2642     1.0  0.69186  0.40294  0.16522  1.0000
  C   C2643     1.0  0.70737  0.40925  0.16314  1.0000
  C   C2644     1.0  0.72222  0.39826  0.16772  1.0000
  C   C2645     1.0  0.72181  0.38074  0.17403  1.0000
  H   H3166     1.0  0.67904  0.38096  0.17380  1.0000
  H   H3167     1.0  0.68025  0.41151  0.16185  1.0000
  H   H3168     1.0  0.73414  0.40320  0.16623  1.0000
  H   H3169     1.0  0.73352  0.37217  0.17718  1.0000
  C   C2646     1.0  0.62497  0.41548  0.13778  1.0000
  C   C2647     1.0  0.64066  0.40334  0.13411  1.0000
  C   C2648     1.0  0.63983  0.38871  0.12991  1.0000
  C   C2649     1.0  0.62334  0.38612  0.12928  1.0000
  C   C2650     1.0  0.60759  0.39808  0.13314  1.0000
  C   C2651     1.0  0.60841  0.41266  0.13745  1.0000
  H   H3170     1.0  0.65343  0.40520  0.13452  1.0000
  H   H3171     1.0  0.65204  0.37936  0.12708  1.0000
  H   H3172     1.0  0.59481  0.39615  0.13272  1.0000
  H   H3173     1.0  0.59620  0.42198  0.14034  1.0000
  C   C2652     1.0  0.76492  0.50517  0.13360  1.0000
  S   S732      1.0  0.79582  0.34766  0.17140  1.0000
  H   H3174     1.0  0.65211  0.54264  0.17607  1.0000
  C   C2653     1.0  0.78668  0.40579  0.15066  1.0000
  C   C2654     1.0  0.77409  0.40003  0.16142  1.0000
  C   C2655     1.0  0.91949  0.46857  0.07648  1.0000
  C   C2656     1.0  0.81942  0.42055  0.05376  1.0000
  C   C2657     1.0  0.80464  0.37583  0.15280  1.0000
  C   C2658     1.0  0.80192  0.39363  0.14630  1.0000
  H   H3175     1.0  0.76239  0.40946  0.16490  1.0000
  H   H3176     1.0  0.81660  0.36651  0.14951  1.0000
  H   H3177     1.0  0.81177  0.39800  0.13806  1.0000
  C   C2659     1.0  0.75870  0.43412  0.08754  1.0000
  C   C2660     1.0  0.74958  0.43284  0.07892  1.0000
  C   C2661     1.0  0.73085  0.43533  0.08198  1.0000
  C   C2662     1.0  0.72116  0.43897  0.09372  1.0000
  C   C2663     1.0  0.73030  0.43991  0.10245  1.0000
  C   C2664     1.0  0.74904  0.43753  0.09935  1.0000
  H   H3178     1.0  0.75697  0.43009  0.06980  1.0000
  H   H3179     1.0  0.72388  0.43449  0.07521  1.0000
  H   H3180     1.0  0.72299  0.44224  0.11164  1.0000
  H   H3181     1.0  0.75600  0.43803  0.10617  1.0000
  C   C2665     1.0  0.81721  0.60866  0.14670  1.0000
  C   C2666     1.0  0.81724  0.62449  0.13763  1.0000
  H   H3182     1.0  0.73771  0.64470  0.16231  1.0000
  S   S733      1.0  0.75498  0.32789  0.17355  1.0000
  C   C2667     1.0  0.80799  0.62542  0.16332  1.0000
  C   C2668     1.0  0.81234  0.60918  0.15956  1.0000
  H   H3183     1.0  0.82074  0.62437  0.12773  1.0000
  H   H3184     1.0  0.78383  0.35956  0.20017  1.0000
  H   H3185     1.0  0.80458  0.62571  0.17325  1.0000
  H   H3186     1.0  0.81210  0.59702  0.16665  1.0000
  C   C2669     1.0  0.77170  0.60387  0.09624  1.0000
  C   C2670     1.0  0.75767  0.61058  0.08981  1.0000
  C   C2671     1.0  0.74087  0.60636  0.09535  1.0000
  C   C2672     1.0  0.73785  0.59575  0.10749  1.0000
  C   C2673     1.0  0.75189  0.58883  0.11394  1.0000
  C   C2674     1.0  0.76887  0.59274  0.10826  1.0000
  H   H3187     1.0  0.75977  0.61916  0.08052  1.0000
  H   H3188     1.0  0.68425  0.63289  0.22190  1.0000
  H   H3189     1.0  0.74969  0.58055  0.12330  1.0000
  H   H3190     1.0  0.77956  0.58748  0.11330  1.0000
  C   C2675     1.0  0.83693  0.52551  0.09956  1.0000
  C   C2676     1.0  0.84029  0.50744  0.09972  1.0000
  C   C2677     1.0  0.82633  0.49968  0.10004  1.0000
  C   C2678     1.0  0.80898  0.50998  0.10026  1.0000
  C   C2679     1.0  0.80571  0.52813  0.09976  1.0000
  C   C2680     1.0  0.81971  0.53590  0.09933  1.0000
  H   H3191     1.0  0.85357  0.49936  0.09988  1.0000
  H   H3192     1.0  0.82900  0.48571  0.10020  1.0000
  H   H3193     1.0  0.79238  0.53620  0.09974  1.0000
  H   H3194     1.0  0.81711  0.54993  0.09885  1.0000
  C   C2681     1.0  0.89410  0.61405  0.04474  1.0000
  C   C2682     1.0  0.90725  0.61181  0.05148  1.0000
  C   C2683     1.0  0.90249  0.61081  0.06457  1.0000
  C   C2684     1.0  0.88458  0.61185  0.07097  1.0000
  C   C2685     1.0  0.87135  0.61458  0.06420  1.0000
  C   C2686     1.0  0.87608  0.61596  0.05106  1.0000
  C   C2687     1.0  0.62663  0.65441  0.15995  1.0000
  H   H3195     1.0  0.81763  0.42646  0.04390  1.0000
  H   H3196     1.0  0.85743  0.61581  0.06904  1.0000
  H   H3197     1.0  0.86582  0.61799  0.04585  1.0000
  C   C2688     1.0  0.95901  0.50462  0.00678  1.0000
  H   H3198     1.0  0.88561  0.60615  0.13900  1.0000
  C   C2689     1.0  0.95730  0.53271  0.01152  1.0000
  C   C2690     1.0  0.95891  0.52428  0.02393  1.0000
  C   C2691     1.0  0.96152  0.50584  0.02755  1.0000
  C   C2692     1.0  0.96179  0.49601  0.01892  1.0000
  H   H3199     1.0  0.65098  0.38040  0.16168  1.0000
  H   H3200     1.0  0.95623  0.54676  0.00838  1.0000
  H   H3201     1.0  0.96335  0.49918  0.03700  1.0000
  H   H3202     1.0  0.96432  0.48175  0.02161  1.0000
  C   C2693     1.0  0.87847  0.45905  0.05228  1.0000
  C   C2694     1.0  0.86456  0.46791  0.06054  1.0000
  C   C2695     1.0  0.85883  0.45922  0.07308  1.0000
  C   C2696     1.0  0.86686  0.44156  0.07738  1.0000
  C   C2697     1.0  0.88081  0.43273  0.06913  1.0000
  C   C2698     1.0  0.88655  0.44142  0.05659  1.0000
  H   H3203     1.0  0.85827  0.48157  0.05728  1.0000
  H   H3204     1.0  0.84836  0.46629  0.07946  1.0000
  H   H3205     1.0  0.88702  0.41903  0.07239  1.0000
  H   H3206     1.0  0.89715  0.43441  0.05027  1.0000
  H   H3207     1.0  0.86358  0.61008  0.11340  1.0000
  H   H3208     1.0  0.78336  0.51487  0.16467  1.0000
  C   C2699     1.0  0.85293  0.65211  0.12917  1.0000
  H   H3209     1.0  0.51233  0.61940  0.14239  1.0000
  S   S734      1.0  0.78775  0.64698  0.19648  1.0000
  H   H3210     1.0  0.97000  0.39127  0.00391  1.0000
  H   H3211     1.0  0.82169  0.34328  0.18682  1.0000
  H   H3212     1.0  0.86365  0.61857  0.14415  1.0000
  C   C2700     1.0  0.53374  0.34482  0.08214  1.0000
  H   H3213     1.0  0.72456  0.58851  0.18328  1.0000
  H   H3214     1.0  0.51000  0.60892  0.13117  1.0000
  C   C2701     1.0  0.88251  0.41622  0.02920  1.0000
  S   S735      1.0  0.96308  0.42085  0.04520  1.0000
  C   C2702     1.0  0.61500  0.61563  0.15710  1.0000
  C   C2703     1.0  0.95733  0.52292  0.00297  1.0000
  N   N174      1.0  0.63737  0.56992  0.17318  1.0000
  H   H3215     1.0  0.61575  0.62605  0.13729  1.0000
  C   C2704     1.0  0.67209  0.32418  0.19038  1.0000
  S   S736      1.0  0.61041  0.33013  0.12011  1.0000
  C   C2705     1.0  0.79189  0.37001  0.16344  1.0000
  H   H3216     1.0  0.85327  0.45138  0.03915  1.0000
  C   C2706     1.0  0.78541  0.54339  0.16935  1.0000
  H   H3217     1.0  0.78907  0.53142  0.17668  1.0000
  C   C2707     1.0  0.97822  0.39119  0.02029  1.0000
  C   C2708     1.0  0.92289  0.48516  0.07624  1.0000
  C   C2709     1.0  0.74813  0.61029  0.19282  1.0000
  C   C2710     1.0  0.64874  0.57494  0.17953  1.0000
  H   H3218     1.0  0.82313  0.42145  0.07681  1.0000
  H   H3219     1.0  0.64155  0.58623  0.18417  1.0000
  H   H3220     1.0  0.65383  0.56376  0.18691  1.0000
  H   H3221     1.0  0.66060  0.57910  0.17262  1.0000
  H   H3222     1.0  0.61712  0.60293  0.17596  1.0000
  H   H3223     1.0  0.83949  0.40387  0.07090  1.0000
  H   H3224     1.0  0.52083  0.32852  0.10560  1.0000
  H   H3225     1.0  0.81276  0.44877  0.06344  1.0000
  C   C2711     1.0  0.61992  0.61460  0.14443  1.0000
  N   N175      1.0  0.93203  0.45601  0.06890  1.0000
  C   C2712     1.0  0.85023  0.42389  0.04732  1.0000
  C   C2713     1.0  0.81298  0.64065  0.14138  1.0000
  S   S737      1.0  0.61764  0.32719  0.08492  1.0000
  Fe  Fe363     1.0  0.73239  0.33780  0.18861  1.0000
  C   C2714     1.0  0.76471  0.60078  0.17340  1.0000
  H   H3226     1.0  0.56740  0.32542  0.07545  1.0000
  H   H3227     1.0  0.67256  0.35630  0.17164  1.0000
  C   C2715     1.0  0.76969  0.61722  0.13935  1.0000
  H   H3228     1.0  0.96632  0.38716  0.02657  1.0000
  H   H3229     1.0  0.91368  0.46095  0.05670  1.0000
  N   N176      1.0  0.83309  0.42746  0.05658  1.0000
  H   H3230     1.0  0.72255  0.60296  0.20061  1.0000
  H   H3231     1.0  0.90055  0.61062  0.11719  1.0000
  H   H3232     1.0  0.87470  0.59550  0.12524  1.0000
  H   H3233     1.0  0.88256  0.62930  0.13810  1.0000
  H   H3234     1.0  0.80611  0.42363  0.06022  1.0000
  N   N177      1.0  0.73278  0.53844  0.10572  1.0000
  C   C2716     1.0  0.72402  0.55369  0.09701  1.0000
  C   C2717     1.0  0.72520  0.54092  0.11887  1.0000
  C   C2718     1.0  0.75211  0.53881  0.10278  1.0000
  C   C2719     1.0  0.72940  0.52185  0.10439  1.0000
  C   C2720     1.0  0.74323  0.50838  0.09953  1.0000
  C   C2721     1.0  0.71169  0.51898  0.10772  1.0000
  C   C2722     1.0  0.73949  0.49298  0.09827  1.0000
  C   C2723     1.0  0.70809  0.50357  0.10640  1.0000
  C   C2724     1.0  0.72195  0.49060  0.10167  1.0000
  H   H3235     1.0  0.70921  0.55526  0.09927  1.0000
  H   H3236     1.0  0.72656  0.56642  0.09754  1.0000
  H   H3237     1.0  0.72902  0.55216  0.08704  1.0000
  H   H3238     1.0  0.71035  0.54358  0.12124  1.0000
  H   H3239     1.0  0.72873  0.55253  0.12045  1.0000
  H   H3240     1.0  0.73015  0.52902  0.12583  1.0000
  H   H3241     1.0  0.75857  0.53813  0.09277  1.0000
  H   H3242     1.0  0.75421  0.55129  0.10413  1.0000
  H   H3243     1.0  0.75953  0.52765  0.10900  1.0000
  H   H3244     1.0  0.75705  0.50947  0.09648  1.0000
  H   H3245     1.0  0.70040  0.52873  0.11122  1.0000
  H   H3246     1.0  0.75026  0.48293  0.09447  1.0000
  H   H3247     1.0  0.69439  0.50177  0.10895  1.0000
  H   H3248     1.0  0.71906  0.47878  0.10049  1.0000
  C   C2725     1.0  0.77984  0.62953  0.11739  1.0000
  H   H3249     1.0  0.89481  0.41333  0.02225  1.0000
  H   H3250     1.0  0.86151  0.63801  0.10162  1.0000
  C   C2726     1.0  0.86065  0.64043  0.12068  1.0000
  C   C2727     1.0  0.87634  0.61922  0.13686  1.0000
  H   H3251     1.0  0.71524  0.62848  0.16254  1.0000
  H   H3252     1.0  0.82146  0.53272  0.16724  1.0000
  H   H3253     1.0  0.64660  0.64471  0.13111  1.0000
  H   H3254     1.0  0.82461  0.53826  0.13599  1.0000
  C   C2728     1.0  0.76326  0.60961  0.18292  1.0000
  H   H3255     1.0  0.95540  0.52962  0.99357  1.0000
  H   H3256     1.0  0.53992  0.33597  0.10567  1.0000
  C   C2729     1.0  0.99091  0.39437  0.02534  1.0000
  H   H3257     1.0  0.73008  0.61171  0.09032  1.0000
  H   H3258     1.0  0.80436  0.56345  0.14011  1.0000
  H   H3259     1.0  0.62495  0.34300  0.15733  1.0000
  C   C2730     1.0  0.87481  0.40251  0.03733  1.0000
  C   C2731     1.0  0.65005  0.36676  0.16303  1.0000
  C   C2732     1.0  0.85618  0.64614  0.10860  1.0000
  Fe  Fe364     1.0  0.77209  0.33595  0.18298  1.0000
  H   H3260     1.0  0.98580  0.64865  0.04114  1.0000
  S   S738      1.0  0.99020  0.61390  0.01151  1.0000
  C   C2733     1.0  0.80624  0.36089  0.21297  1.0000
  C   C2734     1.0  0.91245  0.52571  0.01481  1.0000
  S   S739      1.0  0.95659  0.49288  0.99657  1.0000
  H   H3261     1.0  0.77677  0.50733  0.12632  1.0000
  H   H3262     1.0  0.83504  0.45249  0.05908  1.0000
  H   H3263     1.0  0.65811  0.32507  0.19605  1.0000
  H   H3264     1.0  0.84626  0.42285  0.07189  1.0000
  H   H3265     1.0  0.82300  0.45414  0.04710  1.0000
  C   C2735     1.0  0.64786  0.55383  0.16837  1.0000
  S   S740      1.0  0.75304  0.58202  0.16153  1.0000
  H   H3266     1.0  0.76669  0.37781  0.17594  1.0000
  C   C2736     1.0  0.85892  0.40623  0.04627  1.0000
  H   H3267     1.0  0.50679  0.59793  0.14762  1.0000
  C   C2737     1.0  0.80338  0.52918  0.15147  1.0000
  H   H3268     1.0  0.91333  0.44091  0.06870  1.0000
  C   C2738     1.0  0.89698  0.51110  0.00642  1.0000
  C   C2739     1.0  0.50373  0.35138  0.13478  1.0000
  C   C2740     1.0  0.63158  0.58508  0.16315  1.0000
  C   C2741     1.0  0.94083  0.44054  0.07740  1.0000
  C   C2742     1.0  0.90344  0.46421  0.08464  1.0000
  C   C2743     1.0  0.89127  0.47598  0.09171  1.0000
  C   C2744     1.0  0.91065  0.49679  0.08342  1.0000
  C   C2745     1.0  0.89483  0.49227  0.09107  1.0000
  H   H3269     1.0  0.94854  0.44461  0.08263  1.0000
  H   H3270     1.0  0.95571  0.46706  0.06357  1.0000
  H   H3271     1.0  0.90010  0.45165  0.08566  1.0000
  H   H3272     1.0  0.87899  0.47239  0.09772  1.0000
  H   H3273     1.0  0.88533  0.50143  0.09653  1.0000
  N   N178      1.0  0.75289  0.39026  0.13143  1.0000
  C   C2746     1.0  0.76235  0.37805  0.14125  1.0000
  C   C2747     1.0  0.76502  0.38880  0.11892  1.0000
  C   C2748     1.0  0.75000  0.40853  0.13315  1.0000
  C   C2749     1.0  0.73536  0.38648  0.13211  1.0000
  C   C2750     1.0  0.72680  0.37504  0.14266  1.0000
  C   C2751     1.0  0.72592  0.39495  0.12227  1.0000
  C   C2752     1.0  0.71000  0.37217  0.14317  1.0000
  C   C2753     1.0  0.70923  0.39183  0.12280  1.0000
  C   C2754     1.0  0.70124  0.38051  0.13326  1.0000
  H   H3274     1.0  0.76420  0.36396  0.14087  1.0000
  H   H3275     1.0  0.77589  0.38049  0.14009  1.0000
  H   H3276     1.0  0.75509  0.37983  0.15095  1.0000
  H   H3277     1.0  0.76621  0.37579  0.11672  1.0000
  H   H3278     1.0  0.77875  0.39015  0.11858  1.0000
  H   H3279     1.0  0.76047  0.39940  0.11106  1.0000
  H   H3280     1.0  0.76288  0.41223  0.13226  1.0000
  H   H3281     1.0  0.74289  0.41845  0.12614  1.0000
  H   H3282     1.0  0.74167  0.41002  0.14264  1.0000
  H   H3283     1.0  0.73264  0.36832  0.15077  1.0000
  H   H3284     1.0  0.73119  0.40431  0.11416  1.0000
  H   H3285     1.0  0.70363  0.36366  0.15145  1.0000
  H   H3286     1.0  0.70228  0.39864  0.11519  1.0000
  H   H3287     1.0  0.68811  0.37844  0.13380  1.0000
  H   H3288     1.0  0.77398  0.64176  0.14790  1.0000
  H   H3289     1.0  0.88120  0.38894  0.03668  1.0000
  C   C2755     1.0  0.69383  0.65174  0.16133  1.0000
  H   H3290     1.0  0.79931  0.37399  0.20815  1.0000
  H   H3291     1.0  0.75937  0.61860  0.14818  1.0000
  C   C2756     1.0  0.89059  0.62310  0.11483  1.0000
  H   H3292     1.0  0.74574  0.63744  0.11675  1.0000
  C   C2757     1.0  0.99751  0.65164  0.03402  1.0000
  H   H3293     1.0  0.77652  0.63868  0.10855  1.0000
  H   H3294     1.0  0.74914  0.61565  0.12585  1.0000
  C   C2758     1.0  0.53568  0.32597  0.10264  1.0000
  H   H3295     1.0  0.78313  0.61591  0.11568  1.0000
  C   C2759     1.0  0.63534  0.34567  0.16067  1.0000
  N   N179      1.0  0.64962  0.43013  0.09596  1.0000
  C   C2760     1.0  0.63292  0.43547  0.10520  1.0000
  C   C2761     1.0  0.66355  0.41891  0.10293  1.0000
  C   C2762     1.0  0.65596  0.44652  0.08868  1.0000
  C   C2763     1.0  0.64619  0.41996  0.08801  1.0000
  C   C2764     1.0  0.64958  0.42493  0.07459  1.0000
  C   C2765     1.0  0.63939  0.40436  0.09371  1.0000
  C   C2766     1.0  0.64612  0.41494  0.06744  1.0000
  C   C2767     1.0  0.63595  0.39451  0.08650  1.0000
  C   C2768     1.0  0.63928  0.39979  0.07339  1.0000
  H   H3296     1.0  0.62773  0.42397  0.11162  1.0000
  H   H3297     1.0  0.63498  0.44302  0.11147  1.0000
  H   H3298     1.0  0.62206  0.44386  0.10034  1.0000
  H   H3299     1.0  0.67657  0.41533  0.09632  1.0000
  H   H3300     1.0  0.65987  0.40640  0.10878  1.0000
  H   H3301     1.0  0.66595  0.42584  0.10945  1.0000
  H   H3302     1.0  0.64603  0.45579  0.08331  1.0000
  H   H3303     1.0  0.65821  0.45383  0.09502  1.0000
  H   H3304     1.0  0.66912  0.44351  0.08207  1.0000
  H   H3305     1.0  0.65493  0.43645  0.06938  1.0000
  H   H3306     1.0  0.63666  0.39957  0.10383  1.0000
  H   H3307     1.0  0.64876  0.41894  0.05721  1.0000
  H   H3308     1.0  0.63066  0.38269  0.09118  1.0000
  H   H3309     1.0  0.63658  0.39208  0.06784  1.0000
  H   H3310     1.0  0.79010  0.49093  0.15369  1.0000
  C   C2769     1.0  0.79755  0.50139  0.14997  1.0000
  C   C2770     1.0  0.90471  0.51159  0.01600  1.0000
  H   H3311     1.0  0.91338  0.50945  0.08300  1.0000
  H   H3312     1.0  0.77060  0.60396  0.13764  1.0000
  C   C2771     1.0  0.82038  0.51425  0.13409  1.0000
  C   C2772     1.0  0.86563  0.60866  0.12301  1.0000
  C   C2773     1.0  0.63636  0.58445  0.15011  1.0000
  H   H3313     1.0  0.82218  0.33639  0.22838  1.0000
  N   N180      1.0  0.76507  0.63173  0.12857  1.0000
  C   C2774     1.0  0.75072  0.59325  0.17345  1.0000
  C   C2775     1.0  0.83563  0.41849  0.06957  1.0000
  H   H3314     1.0  0.53836  0.35557  0.08409  1.0000
  H   H3315     1.0  0.61210  0.56212  0.17813  1.0000
  N   N181      1.0  0.87305  0.62320  0.12389  1.0000
  H   H3316     1.0  0.83074  0.51381  0.12554  1.0000
  C   C2776     1.0  0.81072  0.50093  0.13890  1.0000
  C   C2777     1.0  0.81680  0.52819  0.14022  1.0000
  C   C2778     1.0  0.73533  0.59443  0.18312  1.0000
  C   C2779     1.0  0.66225  0.35292  0.16876  1.0000
  H   H3317     1.0  0.62671  0.37386  0.15503  1.0000
  H   H3318     1.0  0.82698  0.54795  0.15249  1.0000
  H   H3319     1.0  0.78272  0.34144  0.21375  1.0000
  H   H3320     1.0  0.64006  0.54901  0.16365  1.0000
  H   H3321     1.0  0.98120  0.60048  0.03879  1.0000
  S   S741      1.0  0.93933  0.41988  0.99255  1.0000
  C   C2780     1.0  0.98278  0.42395  0.04791  1.0000
  H   H3322     1.0  0.64468  0.57290  0.14670  1.0000
  C   C2781     1.0  0.85856  0.43755  0.03895  1.0000
  H   H3323     1.0  0.85344  0.39515  0.05233  1.0000
  C   C2782     1.0  0.79118  0.34633  0.20447  1.0000
  H   H3324     1.0  0.62528  0.55311  0.19004  1.0000
  H   H3325     1.0  0.98728  0.44564  0.03204  1.0000
  H   H3326     1.0  0.91867  0.55005  0.00356  1.0000
  H   H3327     1.0  0.78300  0.61667  0.14103  1.0000
  C   C2783     1.0  0.63062  0.59907  0.14094  1.0000
  H   H3328     1.0  0.79227  0.63209  0.11863  1.0000
  C   C2784     1.0  0.99203  0.43703  0.04022  1.0000
  H   H3329     1.0  0.61384  0.57574  0.18782  1.0000
  H   H3330     1.0  0.66046  0.55631  0.16160  1.0000
  H   H3331     1.0  0.79074  0.57269  0.15301  1.0000
  H   H3332     1.0  0.77232  0.54359  0.16742  1.0000
  H   H3333     1.0  0.93484  0.48954  0.07052  1.0000
  C   C2785     1.0  0.92210  0.44970  0.06218  1.0000
  C   C2786     1.0  0.75720  0.51683  0.14173  1.0000
  C   C2787     1.0  0.62145  0.56505  0.18270  1.0000
  S   S742      1.0  0.57394  0.33067  0.11218  1.0000
  C   C2788     1.0  0.82575  0.44657  0.05649  1.0000
  Fe  Fe365     1.0  0.75994  0.64381  0.19788  1.0000
  C   C2789     1.0  0.90519  0.42973  0.98770  1.0000
  C   C2790     1.0  0.69267  0.63401  0.21215  1.0000
  N   N182      1.0  0.89312  0.55524  0.05959  1.0000
  C   C2791     1.0  0.89179  0.55571  0.07291  1.0000
  C   C2792     1.0  0.90927  0.56197  0.05183  1.0000
  C   C2793     1.0  0.87729  0.56766  0.05524  1.0000
  C   C2794     1.0  0.89339  0.53713  0.05865  1.0000
  C   C2795     1.0  0.90758  0.52736  0.05074  1.0000
  C   C2796     1.0  0.87883  0.52892  0.06549  1.0000
  C   C2797     1.0  0.90686  0.51069  0.04957  1.0000
  C   C2798     1.0  0.87823  0.51230  0.06420  1.0000
  C   C2799     1.0  0.89213  0.50327  0.05617  1.0000
  H   H3334     1.0  0.90312  0.54616  0.07671  1.0000
  H   H3335     1.0  0.89193  0.56914  0.07386  1.0000
  H   H3336     1.0  0.87914  0.55246  0.07925  1.0000
  H   H3337     1.0  0.92178  0.55349  0.05470  1.0000
  H   H3338     1.0  0.90865  0.57557  0.05279  1.0000
  H   H3339     1.0  0.91062  0.56292  0.04157  1.0000
  H   H3340     1.0  0.86442  0.56457  0.06128  1.0000
  H   H3341     1.0  0.87686  0.58149  0.05548  1.0000
  H   H3342     1.0  0.87751  0.56750  0.04534  1.0000
  H   H3343     1.0  0.91934  0.53236  0.04527  1.0000
  H   H3344     1.0  0.86764  0.53541  0.07182  1.0000
  H   H3345     1.0  0.91774  0.50356  0.04340  1.0000
  H   H3346     1.0  0.86686  0.50640  0.06945  1.0000
  H   H3347     1.0  0.89146  0.49050  0.05507  1.0000
  N   N183      1.0  0.73427  0.47197  0.14617  1.0000
  C   C2800     1.0  0.71447  0.47748  0.14803  1.0000
  C   C2801     1.0  0.74077  0.46309  0.13530  1.0000
  C   C2802     1.0  0.73891  0.45880  0.15752  1.0000
  C   C2803     1.0  0.74217  0.48740  0.14437  1.0000
  C   C2804     1.0  0.73497  0.49929  0.15270  1.0000
  C   C2805     1.0  0.75761  0.49064  0.13484  1.0000
  C   C2806     1.0  0.74231  0.51382  0.15132  1.0000
  H   H3348     1.0  0.71038  0.48906  0.14052  1.0000
  H   H3349     1.0  0.70827  0.46675  0.14786  1.0000
  H   H3350     1.0  0.70804  0.48078  0.15739  1.0000
  H   H3351     1.0  0.73861  0.47257  0.12630  1.0000
  H   H3352     1.0  0.73378  0.45224  0.13657  1.0000
  H   H3353     1.0  0.75515  0.45654  0.13437  1.0000
  H   H3354     1.0  0.73361  0.46427  0.16621  1.0000
  H   H3355     1.0  0.73335  0.44684  0.15923  1.0000
  H   H3356     1.0  0.75371  0.45421  0.15644  1.0000
  H   H3357     1.0  0.72358  0.49746  0.16043  1.0000
  H   H3358     1.0  0.76438  0.48209  0.12827  1.0000
  H   H3359     1.0  0.73632  0.52274  0.15777  1.0000
  C   C2807     1.0  0.62085  0.60121  0.16633  1.0000
  H   H3360     1.0  0.50719  0.37479  0.09951  1.0000
  N   N184      1.0  0.69423  0.65262  0.20624  1.0000
  C   C2808     1.0  0.74842  0.62957  0.12608  1.0000
  C   C2809     1.0  0.94632  0.46383  0.05922  1.0000
  H   H3361     1.0  0.99777  0.59692  0.05548  1.0000
  N   N185      1.0  0.54197  0.32706  0.08885  1.0000
  H   H3362     1.0  0.93122  0.44155  0.05549  1.0000
  H   H3363     1.0  0.95487  0.45443  0.05319  1.0000
  C   C2810     1.0  0.66101  0.33501  0.17100  1.0000
  H   H3364     1.0  0.67599  0.33670  0.18973  1.0000
  S   S743      1.0  0.74918  0.34799  0.19705  1.0000
  H   H3365     1.0  0.88057  0.44432  0.02380  1.0000
  H   H3366     1.0  0.83367  0.35290  0.19362  1.0000
  C   C2811     1.0  0.56167  0.32570  0.08561  1.0000
  H   H3367     1.0  0.77410  0.61540  0.18283  1.0000
  C   C2812     1.0  0.99597  0.39906  0.99879  1.0000
  C   C2813     1.0  0.79382  0.51529  0.15620  1.0000
  H   H3368     1.0  0.88954  0.62409  0.10498  1.0000
  N   N186      1.0  0.79966  0.54431  0.15761  1.0000
  H   H3369     1.0  0.78166  0.56076  0.14570  1.0000
  S   S744      1.0  0.74654  0.62062  0.20510  1.0000
  H   H3370     1.0  0.78292  0.55508  0.17361  1.0000
  H   H3371     1.0  0.98207  0.40269  0.06438  1.0000
  H   H3372     1.0  0.79773  0.35766  0.22261  1.0000
  H   H3373     1.0  0.90057  0.43364  0.99671  1.0000
  C   C2814     1.0  0.79383  0.56096  0.14871  1.0000
  N   N187      1.0  0.80903  0.34695  0.20584  1.0000
  C   C2815     1.0  0.99437  0.60345  0.03622  1.0000
  H   H3374     1.0  0.89103  0.52330  0.98844  1.0000
  H   H3375     1.0  0.81372  0.36573  0.18807  1.0000
  C   C2816     1.0  0.71147  0.64269  0.16183  1.0000
  H   H3376     1.0  0.73656  0.63339  0.13356  1.0000
  C   C2817     1.0  0.98908  0.41284  0.05842  1.0000
  H   H3377     1.0  0.68448  0.64403  0.16154  1.0000
  H   H3378     1.0  0.59062  0.32513  0.15441  1.0000
  H   H3379     1.0  0.71856  0.64369  0.19327  1.0000
  C   C2818     1.0  0.64416  0.64383  0.14118  1.0000
  C   C2819     1.0  0.63763  0.64132  0.16722  1.0000
  H   H3380     1.0  0.63465  0.59846  0.13103  1.0000
  C   C2820     1.0  0.72414  0.65180  0.16168  1.0000
  H   H3381     1.0  0.79216  0.33752  0.19817  1.0000
  C   C2821     1.0  0.76257  0.64959  0.13091  1.0000
  H   H3382     1.0  0.90256  0.57489  0.99232  1.0000
  C   C2822     1.0  0.82003  0.35245  0.19308  1.0000
  H   H3383     1.0  0.71654  0.64813  0.21507  1.0000
  H   H3384     1.0  0.98481  0.60939  0.98698  1.0000
  Fe  Fe366     1.0  0.58281  0.32696  0.13004  1.0000
  C   C2823     1.0  0.50429  0.61100  0.14099  1.0000
  H   H3385     1.0  0.65952  0.64578  0.21192  1.0000
  H   H3386     1.0  0.51892  0.34809  0.08521  1.0000
  H   H3387     1.0  0.68709  0.62845  0.20640  1.0000
  H   H3388     1.0  0.99242  0.53030  0.00563  1.0000
  H   H3389     1.0  0.66071  0.33167  0.11086  1.0000
  H   H3390     1.0  0.88173  0.57012  0.99226  1.0000
  C   C2824     1.0  0.99682  0.65651  0.02128  1.0000
  H   H3391     1.0  0.89097  0.50004  0.00744  1.0000
  C   C2825     1.0  0.89705  0.52466  0.99555  1.0000
  H   H3392     1.0  0.81919  0.36271  0.21388  1.0000
  H   H3393     1.0  0.89625  0.63439  0.11470  1.0000
  C   C2826     1.0  0.89548  0.57095  0.98660  1.0000
  H   H3394     1.0  0.99916  0.47761  0.98809  1.0000
  H   H3395     1.0  0.56530  0.33716  0.08735  1.0000
  H   H3396     1.0  0.53721  0.34582  0.07174  1.0000
  H   H3397     1.0  0.85508  0.64887  0.13868  1.0000
  H   H3398     1.0  0.69633  0.33297  0.16903  1.0000
  H   H3399     1.0  0.69847  0.64912  0.18733  1.0000
  H   H3400     1.0  0.98902  0.39254  0.03549  1.0000
  H   H3401     1.0  0.50783  0.32425  0.08965  1.0000
  N   N188      1.0  0.99896  0.40172  0.98488  1.0000
  C   C2827     1.0  0.62975  0.65562  0.14694  1.0000
  H   H3402     1.0  0.98675  0.38070  0.98509  1.0000
  Fe  Fe367     1.0  0.90945  0.43917  0.41680  1.0000
  S   S745      1.0  0.88949  0.42193  0.42707  1.0000
  S   S746      1.0  0.90426  0.46667  0.40466  1.0000
  Fe  Fe368     1.0  0.93945  0.41369  0.42825  1.0000
  S   S747      1.0  0.92248  0.39439  0.43961  1.0000
  S   S748      1.0  0.96875  0.40916  0.42748  1.0000
  Fe  Fe369     1.0  0.91220  0.39925  0.42187  1.0000
  S   S749      1.0  0.91479  0.37357  0.41600  1.0000
  Fe  Fe370     1.0  0.90144  0.41833  0.44387  1.0000
  C   C2828     1.0  0.85562  0.50824  0.45185  1.0000
  S   S750      1.0  0.93093  0.41699  0.41026  1.0000
  S   S751      1.0  0.91943  0.43715  0.43394  1.0000
  Fe  Fe371     1.0  0.92867  0.56056  0.44250  1.0000
  S   S752      1.0  0.95396  0.54565  0.43228  1.0000
  N   N189      1.0  0.96906  0.51083  0.46765  1.0000
  Fe  Fe372     1.0  0.91529  0.57757  0.41819  1.0000
  S   S753      1.0  0.93971  0.56394  0.40597  1.0000
  H   H3403     1.0  0.99735  0.65556  0.46604  1.0000
  Fe  Fe373     1.0  0.93676  0.54003  0.42168  1.0000
  S   S754      1.0  0.94576  0.51148  0.42019  1.0000
  Fe  Fe374     1.0  0.95466  0.57063  0.41765  1.0000
  S   S755      1.0  0.98100  0.57876  0.40893  1.0000
  S   S756      1.0  0.91112  0.55302  0.43314  1.0000
  S   S757      1.0  0.93050  0.58628  0.42858  1.0000
  H   H3404     1.0  0.98616  0.35084  0.43316  1.0000
  H   H3405     1.0  0.95061  0.41254  0.35241  1.0000
  C   C2829     1.0  0.90406  0.50122  0.47513  1.0000
  C   C2830     1.0  0.95641  0.60469  0.37788  1.0000
  H   H3406     1.0  0.95084  0.60666  0.40168  1.0000
  C   C2831     1.0  0.98893  0.33721  0.34484  1.0000
  H   H3407     1.0  0.96481  0.50287  0.45203  1.0000
  C   C2832     1.0  0.95227  0.34630  0.42521  1.0000
  H   H3408     1.0  0.93124  0.37986  0.38020  1.0000
  H   H3409     1.0  0.97494  0.43833  0.47933  1.0000
  H   H3410     1.0  0.97566  0.48373  0.47781  1.0000
  C   C2833     1.0  0.99579  0.62862  0.38829  1.0000
  H   H3411     1.0  0.98979  0.48826  0.46282  1.0000
  N   N190      1.0  0.93902  0.40495  0.37220  1.0000
  C   C2834     1.0  0.74144  0.32953  0.27738  1.0000
  H   H3412     1.0  0.94057  0.64865  0.37695  1.0000
  S   S758      1.0  0.91129  0.34875  0.33981  1.0000
  S   S759      1.0  0.88765  0.35927  0.37209  1.0000
  H   H3413     1.0  0.94357  0.60056  0.37933  1.0000
  C   C2835     1.0  0.97906  0.36370  0.42820  1.0000
  C   C2836     1.0  0.88372  0.50744  0.43646  1.0000
  C   C2837     1.0  0.96930  0.34728  0.41711  1.0000
  C   C2838     1.0  0.92317  0.47587  0.46627  1.0000
  H   H3414     1.0  0.98853  0.46428  0.40586  1.0000
  H   H3415     1.0  0.90341  0.47423  0.44419  1.0000
  C   C2839     1.0  0.89367  0.63261  0.37709  1.0000
  H   H3416     1.0  0.92792  0.63323  0.37703  1.0000
  C   C2840     1.0  0.93821  0.43372  0.37805  1.0000
  S   S760      1.0  0.98740  0.35996  0.37331  1.0000
  H   H3417     1.0  0.74899  0.33633  0.28089  1.0000
  C   C2841     1.0  0.95786  0.34607  0.35496  1.0000
  C   C2842     1.0  0.96311  0.35227  0.36358  1.0000
  C   C2843     1.0  0.98125  0.35134  0.36270  1.0000
  H   H3418     1.0  0.84082  0.53432  0.45449  1.0000
  H   H3419     1.0  0.98256  0.51325  0.41918  1.0000
  H   H3420     1.0  0.94378  0.34732  0.35551  1.0000
  H   H3421     1.0  0.95305  0.35772  0.37094  1.0000
  C   C2844     1.0  0.93167  0.59675  0.48111  1.0000
  C   C2845     1.0  0.90831  0.51209  0.46295  1.0000
  H   H3422     1.0  0.94495  0.35654  0.43039  1.0000
  H   H3423     1.0  0.89588  0.50054  0.43121  1.0000
  H   H3424     1.0  0.99490  0.50875  0.44572  1.0000
  C   C2846     1.0  0.94743  0.41661  0.37585  1.0000
  H   H3425     1.0  0.94642  0.63675  0.36449  1.0000
  H   H3426     1.0  0.89134  0.47426  0.46028  1.0000
  H   H3427     1.0  0.88847  0.64647  0.37346  1.0000
  C   C2847     1.0  0.92023  0.41291  0.37083  1.0000
  C   C2848     1.0  0.97077  0.33854  0.34556  1.0000
  H   H3428     1.0  0.97383  0.41366  0.47474  1.0000
  H   H3429     1.0  0.86956  0.64382  0.24997  1.0000
  C   C2849     1.0  0.86918  0.32404  0.30571  1.0000
  C   C2850     1.0  0.98981  0.43057  0.42797  1.0000
  C   C2851     1.0  0.98227  0.49422  0.47106  1.0000
  C   C2852     1.0  0.97757  0.33349  0.41038  1.0000
  H   H3430     1.0  0.94135  0.63019  0.39971  1.0000
  C   C2853     1.0  0.91190  0.48281  0.47651  1.0000
  H   H3431     1.0  0.79839  0.65122  0.25863  1.0000
  C   C2854     1.0  0.77788  0.33542  0.24567  1.0000
  H   H3432     1.0  0.97533  0.39952  0.45772  1.0000
  C   C2855     1.0  0.87117  0.49805  0.44526  1.0000
  C   C2856     1.0  0.90683  0.59666  0.38656  1.0000
  C   C2857     1.0  0.90944  0.60348  0.37348  1.0000
  H   H3433     1.0  0.92457  0.43940  0.37700  1.0000
  H   H3434     1.0  0.91168  0.58274  0.39015  1.0000
  H   H3435     1.0  0.91647  0.59481  0.36700  1.0000
  C   C2858     1.0  0.97409  0.59320  0.42966  1.0000
  C   C2859     1.0  0.98641  0.58928  0.41875  1.0000
  S   S761      1.0  0.88617  0.42288  0.46327  1.0000
  H   H3436     1.0  0.96144  0.58935  0.43233  1.0000
  H   H3437     1.0  0.96726  0.64851  0.47228  1.0000
  C   C2860     1.0  0.91694  0.47977  0.40724  1.0000
  C   C2861     1.0  0.93252  0.47170  0.41186  1.0000
  C   C2862     1.0  0.94131  0.48172  0.41557  1.0000
  C   C2863     1.0  0.93483  0.49998  0.41446  1.0000
  C   C2864     1.0  0.91984  0.50835  0.40916  1.0000
  C   C2865     1.0  0.91086  0.49821  0.40557  1.0000
  H   H3438     1.0  0.93784  0.45765  0.41263  1.0000
  H   H3439     1.0  0.95307  0.47518  0.41949  1.0000
  H   H3440     1.0  0.91496  0.52251  0.40805  1.0000
  H   H3441     1.0  0.89893  0.50458  0.40185  1.0000
  C   C2866     1.0  0.97323  0.42572  0.43275  1.0000
  C   C2867     1.0  0.92633  0.56756  0.48340  1.0000
  C   C2868     1.0  0.97902  0.62454  0.39050  1.0000
  C   C2869     1.0  0.87459  0.51858  0.48238  1.0000
  C   C2870     1.0  0.96438  0.44667  0.44643  1.0000
  C   C2871     1.0  0.96055  0.43373  0.44202  1.0000
  H   H3442     1.0  0.96333  0.54662  0.46890  1.0000
  H   H3443     1.0  0.95237  0.38021  0.38251  1.0000
  H   H3444     1.0  0.95486  0.45238  0.45386  1.0000
  H   H3445     1.0  0.94809  0.42946  0.44615  1.0000
  C   C2872     1.0  0.90728  0.37009  0.40360  1.0000
  C   C2873     1.0  0.91473  0.35415  0.39940  1.0000
  C   C2874     1.0  0.90928  0.35085  0.38950  1.0000
  C   C2875     1.0  0.89601  0.36332  0.38389  1.0000
  C   C2876     1.0  0.88869  0.37933  0.38802  1.0000
  C   C2877     1.0  0.89442  0.38280  0.39773  1.0000
  H   H3446     1.0  0.92480  0.34430  0.40380  1.0000
  H   H3447     1.0  0.91500  0.33848  0.38642  1.0000
  H   H3448     1.0  0.87835  0.38900  0.38377  1.0000
  H   H3449     1.0  0.88855  0.39509  0.40089  1.0000
  H   H3450     1.0  0.97941  0.54424  0.39637  1.0000
  C   C2878     1.0  0.86024  0.47060  0.45671  1.0000
  C   C2879     1.0  0.99783  0.47304  0.40166  1.0000
  C   C2880     1.0  0.99354  0.44367  0.43229  1.0000
  C   C2881     1.0  0.85288  0.52671  0.44954  1.0000
  C   C2882     1.0  0.91909  0.41855  0.46831  1.0000
  H   H3451     1.0  0.92437  0.41219  0.46035  1.0000
  C   C2883     1.0  0.89064  0.62568  0.39019  1.0000
  C   C2884     1.0  0.94627  0.44392  0.38220  1.0000
  C   C2885     1.0  0.93876  0.38841  0.38203  1.0000
  H   H3452     1.0  0.94637  0.52685  0.47805  1.0000
  H   H3453     1.0  0.94697  0.51940  0.45830  1.0000
  N   N191      1.0  0.99929  0.52040  0.40062  1.0000
  C   C2886     1.0  0.97314  0.42092  0.38197  1.0000
  N   N192      1.0  0.98953  0.63429  0.48117  1.0000
  C   C2887     1.0  0.97823  0.60183  0.43739  1.0000
  S   S762      1.0  0.98563  0.46768  0.44727  1.0000
  C   C2888     1.0  0.91939  0.50496  0.45276  1.0000
  H   H3454     1.0  0.99922  0.60713  0.47917  1.0000
  H   H3455     1.0  0.93578  0.48158  0.44644  1.0000
  S   S763      1.0  0.88703  0.33441  0.31929  1.0000
  H   H3456     1.0  0.89436  0.45583  0.45334  1.0000
  H   H3457     1.0  0.96537  0.59363  0.38312  1.0000
  H   H3458     1.0  0.93325  0.58895  0.45254  1.0000
  C   C2889     1.0  0.99499  0.60610  0.43449  1.0000
  H   H3459     1.0  0.99028  0.53308  0.41653  1.0000
  H   H3460     1.0  0.99216  0.49642  0.47549  1.0000
  H   H3461     1.0  0.96584  0.36774  0.43444  1.0000
  C   C2890     1.0  0.89726  0.60771  0.39494  1.0000
  H   H3462     1.0  0.99039  0.33321  0.40388  1.0000
  S   S764      1.0  0.89330  0.59927  0.41134  1.0000
  C   C2891     1.0  0.92784  0.57062  0.47030  1.0000
  C   C2892     1.0  0.93074  0.41985  0.47521  1.0000
  C   C2893     1.0  0.90068  0.42491  0.47194  1.0000
  C   C2894     1.0  0.95795  0.51568  0.47968  1.0000
  H   H3463     1.0  0.97278  0.62009  0.40026  1.0000
  H   H3464     1.0  0.84708  0.47567  0.45387  1.0000
  S   S765      1.0  0.96442  0.33002  0.33506  1.0000
  N   N193      1.0  0.97738  0.36246  0.41567  1.0000
  H   H3465     1.0  0.93019  0.61561  0.39679  1.0000
  C   C2895     1.0  0.96568  0.37895  0.41021  1.0000
  H   H3466     1.0  0.93052  0.33266  0.43221  1.0000
  H   H3467     1.0  0.97600  0.63205  0.35968  1.0000
  H   H3468     1.0  0.95226  0.38160  0.41653  1.0000
  H   H3469     1.0  0.90156  0.53354  0.48013  1.0000
  N   N194      1.0  0.95347  0.62124  0.38227  1.0000
  S   S766      1.0  0.99977  0.61665  0.44454  1.0000
  C   C2896     1.0  0.93364  0.59957  0.46801  1.0000
  C   C2897     1.0  0.98873  0.43930  0.47905  1.0000
  C   C2898     1.0  0.94952  0.40041  0.35998  1.0000
  C   C2899     1.0  0.97385  0.54240  0.46126  1.0000
  C   C2900     1.0  0.88075  0.52586  0.43410  1.0000
  C   C2901     1.0  0.97100  0.62584  0.38033  1.0000
  C   C2902     1.0  0.99767  0.63532  0.36583  1.0000
  C   C2903     1.0  0.99155  0.52142  0.44834  1.0000
  C   C2904     1.0  0.99415  0.34365  0.35338  1.0000
  H   H3470     1.0  0.95012  0.49666  0.46683  1.0000
  C   C2905     1.0  0.89401  0.43311  0.48234  1.0000
  C   C2906     1.0  0.99625  0.55132  0.44283  1.0000
  H   H3471     1.0  0.96356  0.37812  0.40104  1.0000
  C   C2907     1.0  0.86539  0.53550  0.44064  1.0000
  H   H3472     1.0  0.87813  0.45907  0.43622  1.0000
  H   H3473     1.0  0.77632  0.34792  0.24816  1.0000
  H   H3474     1.0  0.85897  0.47294  0.46624  1.0000
  H   H3475     1.0  0.72702  0.33618  0.27938  1.0000
  H   H3476     1.0  0.97178  0.52432  0.39926  1.0000
  C   C2908     1.0  0.95722  0.50728  0.46093  1.0000
  H   H3477     1.0  0.86374  0.48002  0.43121  1.0000
  H   H3478     1.0  0.93877  0.45671  0.38421  1.0000
  C   C2909     1.0  0.90296  0.62147  0.36872  1.0000
  H   H3479     1.0  0.96764  0.58373  0.48294  1.0000
  C   C2910     1.0  0.94362  0.61837  0.39570  1.0000
  H   H3480     1.0  0.96853  0.60484  0.44580  1.0000
  H   H3481     1.0  0.87242  0.33530  0.29838  1.0000
  H   H3482     1.0  0.93641  0.61198  0.46201  1.0000
  H   H3483     1.0  0.97876  0.56875  0.45463  1.0000
  C   C2911     1.0  0.98268  0.55537  0.45309  1.0000
  N   N195      1.0  0.87453  0.47856  0.44719  1.0000
  C   C2912     1.0  0.97321  0.63487  0.47689  1.0000
  Fe  Fe375     1.0  0.90101  0.33810  0.36046  1.0000
  H   H3484     1.0  0.80058  0.65267  0.23606  1.0000
  C   C2913     1.0  0.93184  0.58652  0.46262  1.0000
  C   C2914     1.0  0.99403  0.57431  0.47253  1.0000
  C   C2915     1.0  0.98367  0.53037  0.39497  1.0000
  H   H3485     1.0  0.91936  0.42526  0.36335  1.0000
  H   H3486     1.0  0.91139  0.41582  0.37992  1.0000
  C   C2916     1.0  0.97881  0.57249  0.48206  1.0000
  H   H3487     1.0  0.91433  0.40373  0.36813  1.0000
  H   H3488     1.0  0.94329  0.39193  0.35685  1.0000
  C   C2917     1.0  0.97828  0.52485  0.45926  1.0000
  H   H3489     1.0  0.90327  0.52629  0.46121  1.0000
  C   C2918     1.0  0.94170  0.63558  0.37488  1.0000
  H   H3490     1.0  0.88750  0.47768  0.42773  1.0000
  H   H3491     1.0  0.93227  0.39136  0.39154  1.0000
  H   H3492     1.0  0.96963  0.44530  0.38773  1.0000
  H   H3493     1.0  0.96262  0.60617  0.36762  1.0000
  H   H3494     1.0  0.86317  0.45596  0.45778  1.0000
  C   C2919     1.0  0.92692  0.48691  0.45440  1.0000
  H   H3495     1.0  0.97617  0.62661  0.46975  1.0000
  C   C2920     1.0  0.98574  0.65158  0.41443  1.0000
  C   C2921     1.0  0.98080  0.45175  0.44151  1.0000
  H   H3496     1.0  0.96336  0.39276  0.36055  1.0000
  H   H3497     1.0  0.92241  0.51353  0.44355  1.0000
  S   S767      1.0  0.92459  0.55445  0.46377  1.0000
  C   C2922     1.0  0.89162  0.47048  0.45144  1.0000
  C   C2923     1.0  0.87599  0.47366  0.43510  1.0000
  H   H3498     1.0  0.95766  0.65220  0.41816  1.0000
  H   H3499     1.0  0.86311  0.54983  0.43868  1.0000
  H   H3500     1.0  0.84528  0.50230  0.45869  1.0000
  H   H3501     1.0  0.87586  0.53007  0.47427  1.0000
  H   H3502     1.0  0.89034  0.53268  0.42701  1.0000
  Fe  Fe376     1.0  0.93573  0.32741  0.34213  1.0000
  H   H3503     1.0  0.92895  0.46178  0.46760  1.0000
  H   H3504     1.0  0.99975  0.42426  0.42091  1.0000
  H   H3505     1.0  0.94490  0.41446  0.47244  1.0000
  S   S768      1.0  0.90654  0.62952  0.35230  1.0000
  H   H3506     1.0  0.98664  0.41594  0.38359  1.0000
  H   H3507     1.0  0.97149  0.39073  0.40852  1.0000
  H   H3508     1.0  0.97308  0.39779  0.37626  1.0000
  H   H3509     1.0  0.97935  0.49475  0.40838  1.0000
  C   C2924     1.0  0.94388  0.33260  0.42636  1.0000
  H   H3510     1.0  0.88312  0.63424  0.39666  1.0000
  C   C2925     1.0  0.96524  0.41063  0.37778  1.0000
  C   C2926     1.0  0.96363  0.43749  0.38424  1.0000
  C   C2927     1.0  0.98099  0.63113  0.36792  1.0000
  H   H3511     1.0  0.74645  0.33209  0.26696  1.0000
  C   C2928     1.0  0.98757  0.40119  0.45935  1.0000
  H   H3512     1.0  0.86838  0.50958  0.47980  1.0000
  H   H3513     1.0  0.98747  0.64297  0.42347  1.0000
  C   C2929     1.0  0.76607  0.33352  0.23910  1.0000
  H   H3514     1.0  0.75525  0.34448  0.23670  1.0000
  H   H3515     1.0  0.98679  0.37379  0.42733  1.0000
  C   C2930     1.0  0.99416  0.51961  0.41443  1.0000
  C   C2931     1.0  0.99545  0.36137  0.40725  1.0000
  H   H3516     1.0  0.99889  0.33112  0.33772  1.0000
  C   C2932     1.0  0.99272  0.49056  0.40311  1.0000
  H   H3517     1.0  0.99452  0.58691  0.46590  1.0000
  H   H3518     1.0  0.99503  0.36142  0.39744  1.0000
  C   C2933     1.0  0.80988  0.65506  0.25166  1.0000
  H   H3519     1.0  0.98680  0.53083  0.38464  1.0000
  C   C2934     1.0  0.98684  0.40946  0.46897  1.0000
  C   C2935     1.0  0.81112  0.65577  0.23896  1.0000
  H   H3520     1.0  0.99355  0.44768  0.46976  1.0000
  Fe  Fe377     1.0  0.90001  0.32816  0.33616  1.0000
  C   C2936     1.0  0.00054  0.53444  0.44040  1.0000
  H   H3521     1.0  0.84955  0.65445  0.26916  1.0000
  Fe  Fe378     1.0  0.96486  0.46313  0.50966  1.0000
  S   S769      1.0  0.94960  0.47067  0.52795  1.0000
  H   H3522     1.0  0.98687  0.46136  0.55860  1.0000
  Fe  Fe379     1.0  0.93688  0.44504  0.50787  1.0000
  S   S770      1.0  0.91887  0.45076  0.52633  1.0000
  S   S771      1.0  0.93965  0.42788  0.49430  1.0000
  Fe  Fe380     1.0  0.92586  0.47782  0.51916  1.0000
  S   S772      1.0  0.90820  0.50517  0.51828  1.0000
  Fe  Fe381     1.0  0.94425  0.44327  0.53376  1.0000
  S   S773      1.0  0.95348  0.42558  0.55119  1.0000
  S   S774      1.0  0.94173  0.47247  0.50021  1.0000
  S   S775      1.0  0.96142  0.43535  0.51603  1.0000
  Fe  Fe382     1.0  0.96471  0.59654  0.52274  1.0000
  C   C2937     1.0  0.92525  0.35374  0.57083  1.0000
  Fe  Fe383     1.0  0.93121  0.58230  0.53355  1.0000
  S   S776      1.0  0.92322  0.55727  0.54580  1.0000
  S   S777      1.0  0.95198  0.58066  0.51567  1.0000
  S   S778      1.0  0.94555  0.59598  0.54143  1.0000
  H   H3523     1.0  0.99903  0.44147  0.54312  1.0000
  H   H3524     1.0  0.98742  0.52026  0.55804  1.0000
  H   H3525     1.0  0.92514  0.36499  0.57479  1.0000
  C   C2938     1.0  0.99784  0.52694  0.55118  1.0000
  H   H3526     1.0  0.95758  0.65643  0.49140  1.0000
  Fe  Fe384     1.0  0.93571  0.60674  0.50785  1.0000
  C   C2939     1.0  0.99867  0.64613  0.57810  1.0000
  C   C2940     1.0  0.97417  0.45723  0.56414  1.0000
  C   C2941     1.0  0.98902  0.61902  0.53091  1.0000
  H   H3527     1.0  0.96037  0.63084  0.58658  1.0000
  Fe  Fe385     1.0  0.91457  0.35769  0.60552  1.0000
  S   S779      1.0  0.91907  0.34991  0.62545  1.0000
  S   S780      1.0  0.90125  0.38417  0.59515  1.0000
  N   N196      1.0  0.99135  0.53747  0.53960  1.0000
  H   H3528     1.0  0.93624  0.40745  0.51997  1.0000
  C   C2942     1.0  0.88082  0.64760  0.56498  1.0000
  C   C2943     1.0  0.88570  0.65137  0.58433  1.0000
  C   C2944     1.0  0.98911  0.59636  0.56473  1.0000
  C   C2945     1.0  0.91206  0.37774  0.53952  1.0000
  H   H3529     1.0  0.91631  0.44090  0.58346  1.0000
  H   H3530     1.0  0.85458  0.61530  0.57210  1.0000
  S   S781      1.0  0.94234  0.34495  0.59670  1.0000
  H   H3531     1.0  0.91752  0.42058  0.60422  1.0000
  H   H3532     1.0  0.97758  0.62556  0.59538  1.0000
  C   C2946     1.0  0.98154  0.35105  0.61620  1.0000
  C   C2947     1.0  0.97454  0.36543  0.60736  1.0000
  C   C2948     1.0  0.98664  0.44871  0.58261  1.0000
  S   S782      1.0  0.99192  0.46886  0.50019  1.0000
  S   S783      1.0  0.97127  0.33289  0.62283  1.0000
  H   H3533     1.0  0.99216  0.43774  0.58993  1.0000
  H   H3534     1.0  0.96261  0.36548  0.60450  1.0000
  C   C2949     1.0  0.83166  0.34175  0.69437  1.0000
  H   H3535     1.0  0.96454  0.46915  0.56697  1.0000
  H   H3536     1.0  0.86605  0.59789  0.56367  1.0000
  H   H3537     1.0  0.97579  0.62292  0.52887  1.0000
  C   C2950     1.0  0.97791  0.55620  0.49036  1.0000
  C   C2951     1.0  0.92449  0.65050  0.55169  1.0000
  H   H3538     1.0  0.89229  0.52752  0.49656  1.0000
  S   S784      1.0  0.99415  0.58947  0.52138  1.0000
  H   H3539     1.0  0.92334  0.55525  0.48939  1.0000
  C   C2952     1.0  0.89914  0.60464  0.55959  1.0000
  C   C2953     1.0  0.89557  0.36707  0.56755  1.0000
  C   C2954     1.0  0.98219  0.61269  0.56826  1.0000
  H   H3540     1.0  0.83873  0.35123  0.64944  1.0000
  H   H3541     1.0  0.87111  0.34201  0.64001  1.0000
  C   C2955     1.0  0.98478  0.52650  0.53394  1.0000
  C   C2956     1.0  0.83787  0.32607  0.62845  1.0000
  H   H3542     1.0  0.88821  0.60817  0.58610  1.0000
  H   H3543     1.0  0.91022  0.33236  0.56605  1.0000
  H   H3544     1.0  0.87893  0.65400  0.55553  1.0000
  H   H3545     1.0  0.99083  0.52955  0.49614  1.0000
  H   H3546     1.0  0.90967  0.47341  0.48539  1.0000
  C   C2957     1.0  0.96874  0.53261  0.52927  1.0000
  H   H3547     1.0  0.97066  0.49849  0.51614  1.0000
  C   C2958     1.0  0.88265  0.62902  0.56968  1.0000
  H   H3548     1.0  0.87143  0.59738  0.57809  1.0000
  C   C2959     1.0  0.99700  0.35108  0.61987  1.0000
  C   C2960     1.0  0.91349  0.51937  0.52561  1.0000
  C   C2961     1.0  0.91918  0.51292  0.53705  1.0000
  C   C2962     1.0  0.92205  0.52465  0.54320  1.0000
  C   C2963     1.0  0.91982  0.54281  0.53776  1.0000
  C   C2964     1.0  0.91471  0.54919  0.52611  1.0000
  C   C2965     1.0  0.91125  0.53754  0.52017  1.0000
  H   H3549     1.0  0.92074  0.49898  0.54140  1.0000
  H   H3550     1.0  0.92600  0.51963  0.55221  1.0000
  H   H3551     1.0  0.91288  0.56318  0.52186  1.0000
  H   H3552     1.0  0.90672  0.54267  0.51138  1.0000
  C   C2966     1.0  0.97448  0.50625  0.52108  1.0000
  H   H3553     1.0  0.96603  0.51931  0.48486  1.0000
  C   C2967     1.0  0.92883  0.63655  0.56169  1.0000
  S   S785      1.0  0.95042  0.62258  0.51336  1.0000
  N   N197      1.0  0.88155  0.61695  0.56217  1.0000
  H   H3554     1.0  0.95968  0.54501  0.53051  1.0000
  H   H3555     1.0  0.90061  0.44070  0.49731  1.0000
  C   C2968     1.0  0.92858  0.43715  0.58694  1.0000
  C   C2969     1.0  0.94514  0.42023  0.60293  1.0000
  H   H3556     1.0  0.95150  0.52754  0.51942  1.0000
  C   C2970     1.0  0.93868  0.41430  0.56327  1.0000
  C   C2971     1.0  0.94542  0.40162  0.57312  1.0000
  C   C2972     1.0  0.93398  0.39247  0.58299  1.0000
  C   C2973     1.0  0.91570  0.39603  0.58312  1.0000
  C   C2974     1.0  0.90892  0.40887  0.57333  1.0000
  C   C2975     1.0  0.92041  0.41790  0.56336  1.0000
  H   H3557     1.0  0.95948  0.39900  0.57324  1.0000
  H   H3558     1.0  0.93926  0.38298  0.59066  1.0000
  H   H3559     1.0  0.89477  0.41174  0.57341  1.0000
  H   H3560     1.0  0.91511  0.42772  0.55582  1.0000
  H   H3561     1.0  0.88591  0.37052  0.56129  1.0000
  H   H3562     1.0  0.86190  0.33161  0.61525  1.0000
  H   H3563     1.0  0.97759  0.45932  0.58739  1.0000
  H   H3564     1.0  0.98742  0.44656  0.48646  1.0000
  H   H3565     1.0  0.87962  0.50225  0.50555  1.0000
  H   H3566     1.0  0.89036  0.35785  0.57633  1.0000
  H   H3567     1.0  0.81477  0.34520  0.71715  1.0000
  H   H3568     1.0  0.86364  0.63585  0.55102  1.0000
  H   H3569     1.0  0.98431  0.44793  0.52539  1.0000
  Fe  Fe386     1.0  0.94603  0.33544  0.61661  1.0000
  C   C2976     1.0  0.87675  0.62628  0.54980  1.0000
  C   C2977     1.0  0.97646  0.65148  0.56607  1.0000
  C   C2978     1.0  0.96911  0.65531  0.49512  1.0000
  C   C2979     1.0  0.84574  0.33769  0.65220  1.0000
  H   H3570     1.0  0.96590  0.55487  0.49766  1.0000
  H   H3571     1.0  0.90340  0.59638  0.56836  1.0000
  H   H3572     1.0  0.84532  0.34192  0.69507  1.0000
  H   H3573     1.0  0.92679  0.57829  0.49892  1.0000
  C   C2980     1.0  0.99489  0.63011  0.53591  1.0000
  N   N198      1.0  0.91395  0.35927  0.56131  1.0000
  C   C2981     1.0  0.92041  0.37235  0.55002  1.0000
  C   C2982     1.0  0.88845  0.49589  0.49771  1.0000
  H   H3574     1.0  0.90099  0.48875  0.50105  1.0000
  H   H3575     1.0  0.83397  0.65630  0.68758  1.0000
  C   C2983     1.0  0.90033  0.52200  0.48817  1.0000
  H   H3576     1.0  0.89532  0.37942  0.57037  1.0000
  H   H3577     1.0  0.97257  0.42112  0.59914  1.0000
  H   H3578     1.0  0.87975  0.43804  0.48518  1.0000
  C   C2984     1.0  0.86781  0.60646  0.56934  1.0000
  H   H3579     1.0  0.98237  0.42241  0.56509  1.0000
  C   C2985     1.0  0.88617  0.62218  0.58201  1.0000
  S   S786      1.0  0.91903  0.64680  0.53852  1.0000
  C   C2986     1.0  0.98614  0.64465  0.49095  1.0000
  C   C2987     1.0  0.90579  0.43470  0.48916  1.0000
  H   H3580     1.0  0.86500  0.52404  0.49038  1.0000
  H   H3581     1.0  0.97351  0.56259  0.53474  1.0000
  H   H3582     1.0  0.89901  0.59529  0.55391  1.0000
  H   H3583     1.0  0.96835  0.61876  0.56798  1.0000
  C   C2988     1.0  0.98894  0.42708  0.57076  1.0000
  H   H3584     1.0  0.87574  0.61689  0.54447  1.0000
  C   C2989     1.0  0.91365  0.34297  0.55762  1.0000
  C   C2990     1.0  0.92924  0.42566  0.59863  1.0000
  H   H3585     1.0  0.98249  0.56058  0.54786  1.0000
  C   C2991     1.0  0.96046  0.42623  0.59552  1.0000
  C   C2992     1.0  0.91782  0.39018  0.52879  1.0000
  C   C2993     1.0  0.97746  0.55294  0.54318  1.0000
  H   H3586     1.0  0.94577  0.41095  0.61191  1.0000
  C   C2994     1.0  0.94387  0.44310  0.57939  1.0000
  S   S787      1.0  0.81334  0.33188  0.66695  1.0000
  C   C2995     1.0  0.94016  0.39302  0.53848  1.0000
  H   H3587     1.0  0.90090  0.37248  0.53956  1.0000
  H   H3588     1.0  0.83100  0.33985  0.62744  1.0000
  H   H3589     1.0  0.82303  0.35504  0.69520  1.0000
  H   H3590     1.0  0.96535  0.64742  0.56421  1.0000
  H   H3591     1.0  0.76434  0.35761  0.72250  1.0000
  H   H3592     1.0  0.88715  0.63354  0.54352  1.0000
  Fe  Fe387     1.0  0.92995  0.62116  0.53157  1.0000
  S   S788      1.0  0.93365  0.61364  0.48750  1.0000
  C   C2996     1.0  0.98297  0.37985  0.60227  1.0000
  H   H3593     1.0  0.93250  0.62932  0.58085  1.0000
  H   H3594     1.0  0.98615  0.64248  0.53773  1.0000
  H   H3595     1.0  0.94257  0.45129  0.57020  1.0000
  H   H3596     1.0  0.98831  0.60992  0.49501  1.0000
  C   C2997     1.0  0.93458  0.38054  0.54923  1.0000
  C   C2998     1.0  0.93186  0.39777  0.52827  1.0000
  H   H3597     1.0  0.93933  0.34764  0.56684  1.0000
  H   H3598     1.0  0.91135  0.39406  0.52082  1.0000
  H   H3599     1.0  0.97763  0.39079  0.59535  1.0000
  C   C2999     1.0  0.96380  0.52262  0.52287  1.0000
  H   H3600     1.0  0.96909  0.45296  0.55739  1.0000
  S   S789      1.0  0.90258  0.33436  0.60787  1.0000
  H   H3601     1.0  0.99578  0.37724  0.57402  1.0000
  H   H3602     1.0  0.96554  0.64798  0.59118  1.0000
  H   H3603     1.0  0.90363  0.34526  0.55183  1.0000
  H   H3604     1.0  0.95087  0.39923  0.53813  1.0000
  H   H3605     1.0  0.94146  0.37775  0.55684  1.0000
  C   C3000     1.0  0.96035  0.43782  0.58349  1.0000
  H   H3606     1.0  0.96526  0.54882  0.54969  1.0000
  C   C3001     1.0  0.93021  0.64014  0.57290  1.0000
  C   C3002     1.0  0.97163  0.63549  0.58777  1.0000
  H   H3607     1.0  0.92704  0.33744  0.55215  1.0000
  H   H3608     1.0  0.93025  0.62306  0.56105  1.0000
  H   H3609     1.0  0.90972  0.61216  0.55423  1.0000
  H   H3610     1.0  0.92019  0.34371  0.57908  1.0000
  C   C3003     1.0  0.99006  0.49978  0.52574  1.0000
  C   C3004     1.0  0.99524  0.50972  0.53199  1.0000
  S   S790      1.0  0.91357  0.60749  0.52525  1.0000
  C   C3005     1.0  0.86403  0.33250  0.64684  1.0000
  H   H3611     1.0  0.76738  0.33143  0.71374  1.0000
  C   C3006     1.0  0.92830  0.58058  0.48881  1.0000
  N   N199      1.0  0.97712  0.44279  0.57536  1.0000
  N   N200      1.0  0.98523  0.63824  0.57586  1.0000
  H   H3612     1.0  0.79721  0.34104  0.70312  1.0000
  C   C3007     1.0  0.99736  0.65373  0.50599  1.0000
  C   C3008     1.0  0.76576  0.34452  0.72855  1.0000
  N   N201      1.0  0.89209  0.50913  0.48572  1.0000
  C   C3009     1.0  0.88765  0.63323  0.58919  1.0000
  H   H3613     1.0  0.89079  0.62772  0.59846  1.0000
  H   H3614     1.0  0.98649  0.39132  0.55363  1.0000
  C   C3010     1.0  0.99704  0.45140  0.52373  1.0000
  H   H3615     1.0  0.99215  0.41584  0.57868  1.0000
  H   H3616     1.0  0.88174  0.48604  0.49668  1.0000
  H   H3617     1.0  0.91398  0.51571  0.49000  1.0000
  C   C3011     1.0  0.99236  0.54171  0.48932  1.0000
  H   H3618     1.0  0.83551  0.32959  0.71902  1.0000
  C   C3012     1.0  0.78322  0.65335  0.72382  1.0000
  H   H3619     1.0  0.98080  0.59056  0.56152  1.0000
  C   C3013     1.0  0.76759  0.32971  0.72357  1.0000
  H   H3620     1.0  0.83219  0.34038  0.68466  1.0000
  H   H3621     1.0  0.98033  0.41012  0.49454  1.0000
  H   H3622     1.0  0.98622  0.65389  0.55693  1.0000
  C   C3014     1.0  0.99297  0.62107  0.57194  1.0000
  C   C3015     1.0  0.00022  0.64440  0.49655  1.0000
  C   C3016     1.0  0.99721  0.61541  0.48612  1.0000
  H   H3623     1.0  0.99849  0.45389  0.57640  1.0000
  N   N202      1.0  0.82439  0.32740  0.70422  1.0000
  C   C3017     1.0  0.82225  0.33138  0.71675  1.0000
  C   C3018     1.0  0.80647  0.32800  0.70239  1.0000
  H   H3624     1.0  0.80735  0.32575  0.69293  1.0000
  H   H3625     1.0  0.77359  0.64672  0.73103  1.0000
  H   H3626     1.0  0.99825  0.48700  0.52451  1.0000
  H   H3627     1.0  0.99450  0.41702  0.50132  1.0000
  C   C3019     1.0  0.99441  0.41112  0.49347  1.0000
  C   C3020     1.0  0.99823  0.38003  0.60618  1.0000
  C   C3021     1.0  0.79814  0.65562  0.72691  1.0000
  H   H3628     1.0  0.95203  0.50461  0.48612  1.0000
  C   C3022     1.0  0.92420  0.42782  0.48567  1.0000
  C   C3023     1.0  0.00052  0.60326  0.52823  1.0000
  H   H3629     1.0  0.69215  0.32395  0.69804  1.0000
  C   C3024     1.0  0.83638  0.32530  0.66080  1.0000
  Fe  Fe388     1.0  0.90995  0.32516  0.62682  1.0000
  C   C3025     1.0  0.99924  0.39231  0.55487  1.0000
  H   H3630     1.0  0.96289  0.62969  0.48489  1.0000
  H   H3631     1.0  0.97755  0.45850  0.90688  1.0000
  Fe  Fe389     1.0  0.57058  0.36036  0.82338  1.0000
  C   C3026     1.0  0.77439  0.64489  0.81599  1.0000
  Fe  Fe390     1.0  0.94450  0.56087  0.92242  1.0000
  S   S791      1.0  0.92897  0.58732  0.91413  1.0000
  S   S792      1.0  0.97470  0.55210  0.91848  1.0000
  Fe  Fe391     1.0  0.91035  0.54784  0.93741  1.0000
  S   S793      1.0  0.89214  0.57324  0.93047  1.0000
  S   S794      1.0  0.90031  0.52438  0.95034  1.0000
  Fe  Fe392     1.0  0.91079  0.57190  0.91155  1.0000
  S   S795      1.0  0.90397  0.57409  0.89281  1.0000
  Fe  Fe393     1.0  0.91197  0.58579  0.93385  1.0000
  S   S796      1.0  0.90334  0.60644  0.94561  1.0000
  S   S797      1.0  0.92767  0.54555  0.91845  1.0000
  S   S798      1.0  0.92879  0.56021  0.94225  1.0000
  Fe  Fe394     1.0  0.91631  0.44582  0.91582  1.0000
  S   S799      1.0  0.90684  0.42028  0.92395  1.0000
  S   S800      1.0  0.94387  0.45132  0.90735  1.0000
  Fe  Fe395     1.0  0.87876  0.46819  0.92106  1.0000
  S   S801      1.0  0.86580  0.44499  0.92938  1.0000
  S   S802      1.0  0.86428  0.49650  0.91874  1.0000
  Fe  Fe396     1.0  0.88894  0.43417  0.93933  1.0000
  Fe  Fe397     1.0  0.88454  0.43339  0.91329  1.0000
  S   S803      1.0  0.87796  0.42125  0.89946  1.0000
  S   S804      1.0  0.90045  0.45837  0.93196  1.0000
  S   S805      1.0  0.89559  0.45789  0.90413  1.0000
  Fe  Fe398     1.0  0.62186  0.43971  0.84335  1.0000
  S   S806      1.0  0.62366  0.46300  0.82696  1.0000
  S   S807      1.0  0.59786  0.42698  0.85019  1.0000
  Fe  Fe399     1.0  0.65787  0.43913  0.84830  1.0000
  S   S808      1.0  0.66287  0.46187  0.83216  1.0000
  S   S809      1.0  0.67819  0.42481  0.86020  1.0000
  Fe  Fe400     1.0  0.63415  0.47415  0.83910  1.0000
  S   S810      1.0  0.62460  0.50270  0.84098  1.0000
  Fe  Fe401     1.0  0.65214  0.44870  0.82160  1.0000
  S   S811      1.0  0.66704  0.44748  0.80174  1.0000
  S   S812      1.0  0.62974  0.45212  0.85611  1.0000
  S   S813      1.0  0.64976  0.42457  0.83715  1.0000
  C   C3027     1.0  0.62032  0.64895  0.82759  1.0000
  S   S814      1.0  0.59112  0.37746  0.81723  1.0000
  S   S815      1.0  0.55475  0.35807  0.81031  1.0000
  Fe  Fe402     1.0  0.82231  0.56363  0.87163  1.0000
  S   S816      1.0  0.84109  0.56519  0.85273  1.0000
  S   S817      1.0  0.82801  0.56646  0.88952  1.0000
  Fe  Fe403     1.0  0.79264  0.55830  0.86169  1.0000
  S   S818      1.0  0.80881  0.55964  0.84185  1.0000
  S   S819      1.0  0.76522  0.55237  0.86694  1.0000
  Fe  Fe404     1.0  0.83103  0.54260  0.85117  1.0000
  S   S820      1.0  0.85078  0.52047  0.84326  1.0000
  Fe  Fe405     1.0  0.81725  0.58217  0.84509  1.0000
  S   S821      1.0  0.82245  0.60564  0.82951  1.0000
  S   S822      1.0  0.81428  0.53928  0.87082  1.0000
  S   S823      1.0  0.79900  0.58252  0.86418  1.0000
  Fe  Fe406     1.0  0.76371  0.45187  0.85620  1.0000
  S   S824      1.0  0.77963  0.44378  0.83818  1.0000
  S   S825      1.0  0.73576  0.46812  0.85631  1.0000
  Fe  Fe407     1.0  0.79439  0.43499  0.87015  1.0000
  S   S826      1.0  0.81267  0.42498  0.85326  1.0000
  S   S827      1.0  0.80023  0.43133  0.88954  1.0000
  Fe  Fe408     1.0  0.80189  0.45198  0.84235  1.0000
  S   S828      1.0  0.82021  0.46716  0.82704  1.0000
  Fe  Fe409     1.0  0.78858  0.41765  0.85066  1.0000
  S   S829      1.0  0.78802  0.39102  0.84751  1.0000
  S   S830      1.0  0.78515  0.46246  0.85931  1.0000
  S   S831      1.0  0.77115  0.42531  0.86862  1.0000
  H   H3632     1.0  0.72618  0.62536  0.79250  1.0000
  H   H3633     1.0  0.99152  0.63886  0.97918  1.0000
  H   H3634     1.0  0.96932  0.55068  0.96058  1.0000
  Fe  Fe410     1.0  0.75042  0.32903  0.79314  1.0000
  C   C3028     1.0  0.96539  0.42370  0.93744  1.0000
  C   C3029     1.0  0.80297  0.38956  0.88241  1.0000
  C   C3030     1.0  0.97764  0.62619  0.96403  1.0000
  Fe  Fe411     1.0  0.67228  0.57210  0.84110  1.0000
  S   S832      1.0  0.66947  0.59219  0.85241  1.0000
  S   S833      1.0  0.67856  0.54258  0.84812  1.0000
  Fe  Fe412     1.0  0.67122  0.59955  0.81672  1.0000
  S   S834      1.0  0.66865  0.62205  0.82561  1.0000
  S   S835      1.0  0.67350  0.60298  0.79602  1.0000
  Fe  Fe413     1.0  0.68929  0.60344  0.83590  1.0000
  S   S836      1.0  0.71312  0.61242  0.83687  1.0000
  Fe  Fe414     1.0  0.64896  0.60902  0.84117  1.0000
  S   S837      1.0  0.62309  0.62528  0.85019  1.0000
  S   S838      1.0  0.69377  0.58217  0.82546  1.0000
  S   S839      1.0  0.64989  0.58772  0.83143  1.0000
  C   C3031     1.0  0.99682  0.42092  0.97929  1.0000
  H   H3635     1.0  0.89701  0.56329  0.96479  1.0000
  H   H3636     1.0  0.72063  0.65346  0.81261  1.0000
  C   C3032     1.0  0.59299  0.34693  0.85085  1.0000
  H   H3637     1.0  0.57506  0.37511  0.86033  1.0000
  H   H3638     1.0  0.56589  0.35654  0.86940  1.0000
  C   C3033     1.0  0.98142  0.42942  0.93481  1.0000
  C   C3034     1.0  0.85975  0.61260  0.88695  1.0000
  C   C3035     1.0  0.96252  0.63390  0.97243  1.0000
  C   C3036     1.0  0.88360  0.62146  0.86984  1.0000
  H   H3639     1.0  0.79233  0.38888  0.87794  1.0000
  Fe  Fe415     1.0  0.75636  0.36506  0.79307  1.0000
  C   C3037     1.0  0.63525  0.34360  0.82068  1.0000
  C   C3038     1.0  0.69487  0.60707  0.78854  1.0000
  C   C3039     1.0  0.70286  0.61589  0.79388  1.0000
  C   C3040     1.0  0.79349  0.41718  0.75190  1.0000
  C   C3041     1.0  0.95360  0.43071  0.92916  1.0000
  H   H3640     1.0  0.85253  0.60193  0.84055  1.0000
  H   H3641     1.0  0.69575  0.62053  0.80241  1.0000
  C   C3042     1.0  0.89280  0.43075  0.98051  1.0000
  C   C3043     1.0  0.80370  0.62041  0.82447  1.0000
  C   C3044     1.0  0.78687  0.62262  0.83267  1.0000
  C   C3045     1.0  0.77229  0.63510  0.82848  1.0000
  C   C3046     1.0  0.75240  0.43390  0.78289  1.0000
  H   H3642     1.0  0.93177  0.54236  0.97394  1.0000
  C   C3047     1.0  0.80584  0.63044  0.81207  1.0000
  H   H3643     1.0  0.78515  0.61500  0.84229  1.0000
  H   H3644     1.0  0.90182  0.61272  0.97007  1.0000
  C   C3048     1.0  0.94549  0.63932  0.96962  1.0000
  H   H3645     1.0  0.81887  0.62885  0.80573  1.0000
  C   C3049     1.0  0.75025  0.56974  0.85948  1.0000
  C   C3050     1.0  0.73264  0.56820  0.86086  1.0000
  C   C3051     1.0  0.72107  0.58135  0.85402  1.0000
  C   C3052     1.0  0.72695  0.59629  0.84606  1.0000
  C   C3053     1.0  0.74430  0.59817  0.84511  1.0000
  C   C3054     1.0  0.75601  0.58482  0.85169  1.0000
  H   H3646     1.0  0.72801  0.55672  0.86708  1.0000
  H   H3647     1.0  0.70762  0.57992  0.85490  1.0000
  H   H3648     1.0  0.74882  0.60978  0.83906  1.0000
  H   H3649     1.0  0.76955  0.58616  0.85063  1.0000
  C   C3055     1.0  0.82810  0.48223  0.83175  1.0000
  C   C3056     1.0  0.81729  0.49200  0.84073  1.0000
  C   C3057     1.0  0.82386  0.50438  0.84397  1.0000
  C   C3058     1.0  0.84154  0.50632  0.83867  1.0000
  C   C3059     1.0  0.85235  0.49637  0.82987  1.0000
  C   C3060     1.0  0.84553  0.48466  0.82621  1.0000
  H   H3650     1.0  0.80369  0.49048  0.84485  1.0000
  H   H3651     1.0  0.81537  0.51215  0.85071  1.0000
  H   H3652     1.0  0.86602  0.49782  0.82576  1.0000
  H   H3653     1.0  0.85393  0.47717  0.81927  1.0000
  H   H3654     1.0  0.70100  0.47435  0.80901  1.0000
  H   H3655     1.0  0.77871  0.36257  0.84132  1.0000
  H   H3656     1.0  0.74095  0.45498  0.83140  1.0000
  C   C3061     1.0  0.72012  0.61879  0.78817  1.0000
  C   C3062     1.0  0.59794  0.65601  0.84598  1.0000
  H   H3657     1.0  0.72474  0.44760  0.78526  1.0000
  H   H3658     1.0  0.93933  0.46139  0.94145  1.0000
  C   C3063     1.0  0.69377  0.40340  0.78893  1.0000
  C   C3064     1.0  0.82978  0.37987  0.89844  1.0000
  C   C3065     1.0  0.61082  0.35785  0.86005  1.0000
  H   H3659     1.0  0.65988  0.43090  0.77542  1.0000
  C   C3066     1.0  0.64006  0.51389  0.84225  1.0000
  C   C3067     1.0  0.63380  0.53090  0.84480  1.0000
  C   C3068     1.0  0.64564  0.53999  0.84625  1.0000
  C   C3069     1.0  0.66374  0.53189  0.84552  1.0000
  C   C3070     1.0  0.67001  0.51480  0.84314  1.0000
  C   C3071     1.0  0.65825  0.50592  0.84132  1.0000
  H   H3660     1.0  0.61971  0.53704  0.84574  1.0000
  H   H3661     1.0  0.64065  0.55307  0.84828  1.0000
  H   H3662     1.0  0.68399  0.50847  0.84262  1.0000
  H   H3663     1.0  0.66327  0.49285  0.83938  1.0000
  C   C3072     1.0  0.67308  0.42577  0.79958  1.0000
  C   C3073     1.0  0.66298  0.41330  0.80688  1.0000
  C   C3074     1.0  0.66827  0.39585  0.80516  1.0000
  C   C3075     1.0  0.68829  0.42089  0.79049  1.0000
  H   H3664     1.0  0.65078  0.41723  0.81353  1.0000
  H   H3665     1.0  0.66033  0.38628  0.81072  1.0000
  H   H3666     1.0  0.69589  0.43063  0.78474  1.0000
  C   C3076     1.0  0.69443  0.43684  0.85858  1.0000
  C   C3077     1.0  0.69096  0.45523  0.85436  1.0000
  C   C3078     1.0  0.70379  0.46473  0.85356  1.0000
  C   C3079     1.0  0.72020  0.45586  0.85689  1.0000
  C   C3080     1.0  0.72380  0.43743  0.86088  1.0000
  C   C3081     1.0  0.71086  0.42796  0.86185  1.0000
  H   H3667     1.0  0.67822  0.46224  0.85206  1.0000
  H   H3668     1.0  0.70089  0.47898  0.85054  1.0000
  H   H3669     1.0  0.73641  0.43047  0.86344  1.0000
  H   H3670     1.0  0.71359  0.41373  0.86517  1.0000
  C   C3082     1.0  0.59582  0.41369  0.84074  1.0000
  C   C3083     1.0  0.57984  0.40791  0.84310  1.0000
  C   C3084     1.0  0.57817  0.39677  0.83596  1.0000
  C   C3085     1.0  0.59257  0.39130  0.82648  1.0000
  C   C3086     1.0  0.60862  0.39690  0.82425  1.0000
  C   C3087     1.0  0.61019  0.40818  0.83127  1.0000
  H   H3671     1.0  0.56866  0.41219  0.85040  1.0000
  H   H3672     1.0  0.56571  0.39261  0.83768  1.0000
  H   H3673     1.0  0.61994  0.39245  0.81712  1.0000
  H   H3674     1.0  0.62259  0.41243  0.82946  1.0000
  H   H3675     1.0  0.61777  0.63414  0.80627  1.0000
  S   S840      1.0  0.73986  0.37856  0.77831  1.0000
  C   C3088     1.0  0.85620  0.42448  0.89682  1.0000
  C   C3089     1.0  0.84086  0.42743  0.90633  1.0000
  C   C3090     1.0  0.82381  0.42939  0.90396  1.0000
  C   C3091     1.0  0.82193  0.42885  0.89202  1.0000
  C   C3092     1.0  0.83726  0.42601  0.88251  1.0000
  C   C3093     1.0  0.85431  0.42365  0.88496  1.0000
  H   H3676     1.0  0.84216  0.42779  0.91557  1.0000
  H   H3677     1.0  0.81202  0.43129  0.91144  1.0000
  H   H3678     1.0  0.83603  0.42530  0.87334  1.0000
  H   H3679     1.0  0.86613  0.42100  0.87766  1.0000
  C   C3094     1.0  0.88774  0.51780  0.94254  1.0000
  C   C3095     1.0  0.88336  0.52846  0.93123  1.0000
  C   C3096     1.0  0.87462  0.52252  0.92445  1.0000
  C   C3097     1.0  0.87080  0.50566  0.92876  1.0000
  C   C3098     1.0  0.87444  0.49533  0.94034  1.0000
  C   C3099     1.0  0.88287  0.50140  0.94725  1.0000
  H   H3680     1.0  0.88704  0.54113  0.92752  1.0000
  H   H3681     1.0  0.87170  0.53062  0.91555  1.0000
  H   H3682     1.0  0.87102  0.48248  0.94388  1.0000
  H   H3683     1.0  0.88606  0.49317  0.95605  1.0000
  C   C3100     1.0  0.91986  0.60280  0.95418  1.0000
  C   C3101     1.0  0.91534  0.60619  0.96636  1.0000
  H   H3684     1.0  0.98358  0.50200  0.97414  1.0000
  C   C3102     1.0  0.88327  0.57040  0.89233  1.0000
  C   C3103     1.0  0.88054  0.56912  0.88082  1.0000
  C   C3104     1.0  0.86386  0.56721  0.87995  1.0000
  C   C3105     1.0  0.84968  0.56696  0.89052  1.0000
  C   C3106     1.0  0.85254  0.56777  0.90210  1.0000
  C   C3107     1.0  0.86932  0.56935  0.90303  1.0000
  H   H3685     1.0  0.89130  0.56990  0.87251  1.0000
  H   H3686     1.0  0.86190  0.56628  0.87106  1.0000
  H   H3687     1.0  0.84166  0.56748  0.91035  1.0000
  H   H3688     1.0  0.87127  0.57028  0.91195  1.0000
  S   S841      1.0  0.96072  0.58103  0.97901  1.0000
  C   C3108     1.0  0.94304  0.63735  0.95833  1.0000
  H   H3689     1.0  0.60118  0.33415  0.79911  1.0000
  C   C3109     1.0  0.98635  0.56637  0.92080  1.0000
  C   C3110     1.0  0.97755  0.58332  0.92270  1.0000
  C   C3111     1.0  0.98692  0.59434  0.92486  1.0000
  C   C3112     1.0  0.73285  0.43436  0.76973  1.0000
  C   C3113     1.0  0.62556  0.38185  0.85838  1.0000
  H   H3690     1.0  0.96359  0.58807  0.92227  1.0000
  H   H3691     1.0  0.98001  0.60750  0.92623  1.0000
  N   N203      1.0  0.85613  0.47883  0.87541  1.0000
  C   C3114     1.0  0.83792  0.49033  0.87585  1.0000
  C   C3115     1.0  0.85701  0.46876  0.88845  1.0000
  C   C3116     1.0  0.86916  0.49056  0.87122  1.0000
  C   C3117     1.0  0.86065  0.46633  0.86689  1.0000
  C   C3118     1.0  0.87817  0.45559  0.86455  1.0000
  C   C3119     1.0  0.84805  0.46424  0.86083  1.0000
  C   C3120     1.0  0.88294  0.44404  0.85630  1.0000
  H   H3692     1.0  0.83644  0.49842  0.86632  1.0000
  H   H3693     1.0  0.82734  0.48245  0.87952  1.0000
  H   H3694     1.0  0.83500  0.49972  0.88216  1.0000
  H   H3695     1.0  0.85483  0.47762  0.89505  1.0000
  H   H3696     1.0  0.87016  0.45949  0.88893  1.0000
  H   H3697     1.0  0.84669  0.46061  0.89216  1.0000
  H   H3698     1.0  0.87031  0.49689  0.86099  1.0000
  H   H3699     1.0  0.86516  0.50136  0.87651  1.0000
  H   H3700     1.0  0.88278  0.48331  0.87260  1.0000
  H   H3701     1.0  0.88827  0.45589  0.86921  1.0000
  H   H3702     1.0  0.83434  0.47154  0.86213  1.0000
  H   H3703     1.0  0.89641  0.43604  0.85465  1.0000
  N   N204      1.0  0.64659  0.47491  0.88153  1.0000
  C   C3121     1.0  0.63377  0.48195  0.89223  1.0000
  C   C3122     1.0  0.63933  0.48302  0.86994  1.0000
  C   C3123     1.0  0.64757  0.45556  0.88410  1.0000
  C   C3124     1.0  0.66409  0.47937  0.87998  1.0000
  C   C3125     1.0  0.67934  0.46646  0.88322  1.0000
  C   C3126     1.0  0.66603  0.49723  0.87575  1.0000
  C   C3127     1.0  0.69552  0.47120  0.88198  1.0000
  C   C3128     1.0  0.68235  0.50175  0.87438  1.0000
  C   C3129     1.0  0.69709  0.48875  0.87742  1.0000
  H   H3704     1.0  0.63153  0.49662  0.89048  1.0000
  H   H3705     1.0  0.62044  0.47869  0.89388  1.0000
  H   H3706     1.0  0.63883  0.47638  0.90112  1.0000
  H   H3707     1.0  0.63611  0.49770  0.86793  1.0000
  H   H3708     1.0  0.62653  0.47930  0.87062  1.0000
  H   H3709     1.0  0.64897  0.47876  0.86154  1.0000
  H   H3710     1.0  0.65114  0.44860  0.89335  1.0000
  H   H3711     1.0  0.63452  0.45260  0.88443  1.0000
  H   H3712     1.0  0.65757  0.44948  0.87651  1.0000
  H   H3713     1.0  0.67934  0.45253  0.88640  1.0000
  H   H3714     1.0  0.65503  0.50792  0.87336  1.0000
  H   H3715     1.0  0.70719  0.46108  0.88405  1.0000
  H   H3716     1.0  0.68358  0.51543  0.87082  1.0000
  H   H3717     1.0  0.70987  0.49218  0.87606  1.0000
  H   H3718     1.0  0.75452  0.43770  0.79082  1.0000
  H   H3719     1.0  0.90365  0.53983  0.96945  1.0000
  H   H3720     1.0  0.88414  0.61648  0.88953  1.0000
  C   C3130     1.0  0.64225  0.37147  0.85431  1.0000
  S   S842      1.0  0.73356  0.33987  0.77867  1.0000
  C   C3131     1.0  0.98558  0.44232  0.92396  1.0000
  H   H3721     1.0  0.59245  0.65282  0.85604  1.0000
  C   C3132     1.0  0.74678  0.42367  0.76272  1.0000
  H   H3722     1.0  0.96371  0.63550  0.98137  1.0000
  C   C3133     1.0  0.87408  0.62140  0.86108  1.0000
  N   N205      1.0  0.77935  0.40691  0.75816  1.0000
  C   C3134     1.0  0.98689  0.48432  0.93479  1.0000
  H   H3723     1.0  0.95758  0.52346  0.92920  1.0000
  C   C3135     1.0  0.94533  0.59109  0.96930  1.0000
  S   S843      1.0  0.77234  0.34372  0.78240  1.0000
  S   S844      1.0  0.73604  0.34920  0.80507  1.0000
  S   S845      1.0  0.99614  0.41989  0.94513  1.0000
  C   C3136     1.0  0.96246  0.50967  0.93318  1.0000
  H   H3724     1.0  0.80498  0.40971  0.74586  1.0000
  H   H3725     1.0  0.79996  0.65085  0.73657  1.0000
  H   H3726     1.0  0.77665  0.38269  0.77180  1.0000
  H   H3727     1.0  0.92380  0.49322  0.96242  1.0000
  S   S846      1.0  0.75179  0.61510  0.77056  1.0000
  H   H3728     1.0  0.89672  0.62469  0.86665  1.0000
  N   N206      1.0  0.63666  0.38130  0.78043  1.0000
  C   C3137     1.0  0.62072  0.37358  0.78706  1.0000
  C   C3138     1.0  0.63869  0.38298  0.76668  1.0000
  C   C3139     1.0  0.63537  0.39879  0.78300  1.0000
  C   C3140     1.0  0.62035  0.40721  0.79115  1.0000
  C   C3141     1.0  0.61983  0.42351  0.79360  1.0000
  C   C3142     1.0  0.63399  0.43206  0.78786  1.0000
  H   H3729     1.0  0.60814  0.38250  0.78462  1.0000
  H   H3730     1.0  0.62163  0.36088  0.78453  1.0000
  H   H3731     1.0  0.61927  0.37065  0.79748  1.0000
  H   H3732     1.0  0.62725  0.39286  0.76319  1.0000
  H   H3733     1.0  0.60892  0.40136  0.79600  1.0000
  H   H3734     1.0  0.60846  0.42942  0.80016  1.0000
  H   H3735     1.0  0.63373  0.44451  0.79001  1.0000
  N   N207      1.0  0.73869  0.52735  0.84174  1.0000
  C   C3143     1.0  0.73033  0.54634  0.83790  1.0000
  C   C3144     1.0  0.72703  0.51700  0.83993  1.0000
  C   C3145     1.0  0.73872  0.52313  0.85540  1.0000
  C   C3146     1.0  0.75738  0.52354  0.83445  1.0000
  C   C3147     1.0  0.76400  0.50979  0.82756  1.0000
  C   C3148     1.0  0.76987  0.53319  0.83460  1.0000
  C   C3149     1.0  0.78186  0.50631  0.82104  1.0000
  C   C3150     1.0  0.78766  0.52964  0.82798  1.0000
  C   C3151     1.0  0.79358  0.51635  0.82111  1.0000
  H   H3736     1.0  0.71623  0.54961  0.84328  1.0000
  H   H3737     1.0  0.73750  0.55527  0.83954  1.0000
  H   H3738     1.0  0.73001  0.54997  0.82770  1.0000
  H   H3739     1.0  0.72621  0.51966  0.82986  1.0000
  H   H3740     1.0  0.71307  0.52030  0.84545  1.0000
  H   H3741     1.0  0.73175  0.50258  0.84332  1.0000
  H   H3742     1.0  0.74649  0.53101  0.85768  1.0000
  H   H3743     1.0  0.72489  0.52588  0.86125  1.0000
  H   H3744     1.0  0.74482  0.50889  0.85861  1.0000
  H   H3745     1.0  0.75580  0.50122  0.82733  1.0000
  H   H3746     1.0  0.76610  0.54323  0.84015  1.0000
  H   H3747     1.0  0.78689  0.49535  0.81622  1.0000
  H   H3748     1.0  0.79709  0.53680  0.82851  1.0000
  H   H3749     1.0  0.80753  0.51326  0.81630  1.0000
  N   N208      1.0  0.81355  0.52058  0.91089  1.0000
  C   C3152     1.0  0.83128  0.52283  0.90282  1.0000
  C   C3153     1.0  0.80052  0.53772  0.90855  1.0000
  C   C3154     1.0  0.80860  0.50581  0.90806  1.0000
  C   C3155     1.0  0.79586  0.50858  0.90057  1.0000
  C   C3156     1.0  0.79176  0.49431  0.89787  1.0000
  C   C3157     1.0  0.80017  0.47699  0.90247  1.0000
  H   H3750     1.0  0.83057  0.52829  0.89275  1.0000
  H   H3751     1.0  0.83686  0.53199  0.90579  1.0000
  H   H3752     1.0  0.84125  0.51013  0.90314  1.0000
  H   H3753     1.0  0.80038  0.54285  0.89834  1.0000
  H   H3754     1.0  0.80411  0.54834  0.91139  1.0000
  H   H3755     1.0  0.78672  0.53658  0.91390  1.0000
  H   H3756     1.0  0.78888  0.52163  0.89664  1.0000
  H   H3757     1.0  0.75933  0.63699  0.83486  1.0000
  H   H3758     1.0  0.69823  0.59390  0.77350  1.0000
  N   N209      1.0  0.60831  0.60974  0.81385  1.0000
  C   C3158     1.0  0.62256  0.61966  0.80671  1.0000
  C   C3159     1.0  0.59315  0.61664  0.80729  1.0000
  C   C3160     1.0  0.60220  0.61376  0.82666  1.0000
  C   C3161     1.0  0.61423  0.59034  0.81483  1.0000
  C   C3162     1.0  0.63159  0.58219  0.80884  1.0000
  C   C3163     1.0  0.60233  0.57896  0.82175  1.0000
  C   C3164     1.0  0.63674  0.56384  0.81001  1.0000
  C   C3165     1.0  0.60758  0.56062  0.82277  1.0000
  C   C3166     1.0  0.62477  0.55308  0.81693  1.0000
  H   H3759     1.0  0.62731  0.61799  0.79675  1.0000
  H   H3760     1.0  0.83449  0.64322  0.85350  1.0000
  H   H3761     1.0  0.63435  0.61533  0.81121  1.0000
  H   H3762     1.0  0.58126  0.61099  0.81263  1.0000
  H   H3763     1.0  0.98513  0.61822  0.94572  1.0000
  H   H3764     1.0  0.58864  0.63130  0.80603  1.0000
  H   H3765     1.0  0.61310  0.60866  0.83203  1.0000
  H   H3766     1.0  0.58032  0.34269  0.85214  1.0000
  H   H3767     1.0  0.59063  0.60795  0.83247  1.0000
  H   H3768     1.0  0.64161  0.58963  0.80333  1.0000
  H   H3769     1.0  0.58886  0.58413  0.82646  1.0000
  H   H3770     1.0  0.65020  0.55791  0.80561  1.0000
  H   H3771     1.0  0.59840  0.55210  0.82823  1.0000
  H   H3772     1.0  0.62887  0.53882  0.81793  1.0000
  H   H3773     1.0  0.92470  0.56567  0.96784  1.0000
  C   C3167     1.0  0.62806  0.34765  0.85582  1.0000
  H   H3774     1.0  0.59294  0.35897  0.84314  1.0000
  C   C3168     1.0  0.70582  0.65659  0.81603  1.0000
  H   H3775     1.0  0.89407  0.58207  0.97824  1.0000
  C   C3169     1.0  0.70431  0.60087  0.77759  1.0000
  H   H3776     1.0  0.64966  0.64630  0.84789  1.0000
  C   C3170     1.0  0.77433  0.40151  0.74820  1.0000
  H   H3777     1.0  0.70450  0.33087  0.80588  1.0000
  H   H3778     1.0  0.62967  0.33444  0.85450  1.0000
  H   H3779     1.0  0.82426  0.60873  0.85391  1.0000
  H   H3780     1.0  0.62215  0.35113  0.82432  1.0000
  H   H3781     1.0  0.92221  0.45998  0.95569  1.0000
  C   C3171     1.0  0.64352  0.35437  0.85307  1.0000
  H   H3782     1.0  0.72928  0.59818  0.76378  1.0000
  H   H3783     1.0  0.94099  0.59255  0.93981  1.0000
  C   C3172     1.0  0.57774  0.36256  0.86742  1.0000
  H   H3784     1.0  0.67894  0.34316  0.81691  1.0000
  N   N210      1.0  0.59466  0.35052  0.86266  1.0000
  C   C3173     1.0  0.72975  0.61236  0.77735  1.0000
  H   H3785     1.0  0.96208  0.41375  0.94585  1.0000
  H   H3786     1.0  0.98504  0.51473  0.95225  1.0000
  H   H3787     1.0  0.82098  0.61817  0.86715  1.0000
  C   C3174     1.0  0.85019  0.61227  0.87829  1.0000
  H   H3788     1.0  0.85469  0.37435  0.86915  1.0000
  C   C3175     1.0  0.78158  0.38961  0.83394  1.0000
  C   C3176     1.0  0.95013  0.58888  0.95684  1.0000
  H   H3789     1.0  0.99784  0.44692  0.92194  1.0000
  C   C3177     1.0  0.66760  0.33867  0.81638  1.0000
  C   C3178     1.0  0.67339  0.65617  0.83753  1.0000
  H   H3790     1.0  0.62469  0.32621  0.81459  1.0000
  H   H3791     1.0  0.95954  0.44456  0.95588  1.0000
  C   C3179     1.0  0.81260  0.35799  0.88903  1.0000
  H   H3792     1.0  0.81231  0.37133  0.86453  1.0000
  H   H3793     1.0  0.81961  0.46042  0.91313  1.0000
  H   H3794     1.0  0.85519  0.63902  0.84221  1.0000
  C   C3180     1.0  0.78047  0.40389  0.82359  1.0000
  H   H3795     1.0  0.87101  0.38363  0.89938  1.0000
  H   H3796     1.0  0.81659  0.38070  0.90453  1.0000
  C   C3181     1.0  0.85086  0.37633  0.87871  1.0000
  H   H3797     1.0  0.65122  0.38724  0.76103  1.0000
  H   H3798     1.0  0.80180  0.35545  0.88562  1.0000
  C   C3182     1.0  0.76647  0.42333  0.77589  1.0000
  H   H3799     1.0  0.72183  0.48002  0.81959  1.0000
  C   C3183     1.0  0.99266  0.52545  0.94882  1.0000
  C   C3184     1.0  0.82371  0.37281  0.86787  1.0000
  H   H3800     1.0  0.80717  0.35870  0.89914  1.0000
  N   N211      1.0  0.77068  0.59225  0.80729  1.0000
  C   C3185     1.0  0.77874  0.58460  0.81857  1.0000
  C   C3186     1.0  0.78492  0.59704  0.79614  1.0000
  C   C3187     1.0  0.75765  0.60893  0.80938  1.0000
  C   C3188     1.0  0.76256  0.57911  0.80511  1.0000
  C   C3189     1.0  0.74405  0.58223  0.80510  1.0000
  C   C3190     1.0  0.77332  0.56257  0.80276  1.0000
  C   C3191     1.0  0.73707  0.56997  0.80223  1.0000
  C   C3192     1.0  0.76612  0.55021  0.80019  1.0000
  C   C3193     1.0  0.74807  0.55399  0.79978  1.0000
  H   H3801     1.0  0.79037  0.57342  0.81709  1.0000
  H   H3802     1.0  0.78378  0.59456  0.82109  1.0000
  H   H3803     1.0  0.76874  0.57959  0.82691  1.0000
  H   H3804     1.0  0.79622  0.58564  0.79451  1.0000
  H   H3805     1.0  0.79084  0.60747  0.79725  1.0000
  H   H3806     1.0  0.77947  0.60217  0.78738  1.0000
  H   H3807     1.0  0.76408  0.61848  0.81106  1.0000
  H   H3808     1.0  0.75177  0.61578  0.80097  1.0000
  H   H3809     1.0  0.74669  0.60655  0.81781  1.0000
  H   H3810     1.0  0.73469  0.59420  0.80707  1.0000
  H   H3811     1.0  0.78745  0.55918  0.80276  1.0000
  H   H3812     1.0  0.72305  0.57305  0.80174  1.0000
  H   H3813     1.0  0.77467  0.53775  0.79830  1.0000
  H   H3814     1.0  0.74260  0.54460  0.79748  1.0000
  N   N212      1.0  0.92392  0.50918  0.89889  1.0000
  C   C3194     1.0  0.92620  0.49809  0.88976  1.0000
  C   C3195     1.0  0.91764  0.49915  0.91186  1.0000
  C   C3196     1.0  0.90946  0.52504  0.89629  1.0000
  C   C3197     1.0  0.94132  0.51349  0.89785  1.0000
  C   C3198     1.0  0.95576  0.50002  0.90174  1.0000
  C   C3199     1.0  0.94463  0.53084  0.89280  1.0000
  C   C3200     1.0  0.97201  0.50389  0.90145  1.0000
  C   C3201     1.0  0.96089  0.53459  0.89265  1.0000
  C   C3202     1.0  0.97446  0.52121  0.89711  1.0000
  H   H3815     1.0  0.93076  0.50518  0.87989  1.0000
  H   H3816     1.0  0.93632  0.48555  0.89151  1.0000
  H   H3817     1.0  0.91347  0.49427  0.89038  1.0000
  H   H3818     1.0  0.91674  0.50662  0.91910  1.0000
  H   H3819     1.0  0.92644  0.48591  0.91418  1.0000
  H   H3820     1.0  0.90419  0.49647  0.91307  1.0000
  H   H3821     1.0  0.91238  0.53266  0.88637  1.0000
  H   H3822     1.0  0.89638  0.52142  0.89766  1.0000
  H   H3823     1.0  0.90732  0.53410  0.90275  1.0000
  H   H3824     1.0  0.95454  0.48638  0.90511  1.0000
  H   H3825     1.0  0.93463  0.54195  0.88939  1.0000
  Fe  Fe416     1.0  0.56085  0.32803  0.84301  1.0000
  H   H3826     1.0  0.96281  0.54809  0.88936  1.0000
  H   H3827     1.0  0.71979  0.43872  0.76732  1.0000
  C   C3203     1.0  0.65250  0.36858  0.78455  1.0000
  C   C3204     1.0  0.91692  0.41951  0.96433  1.0000
  H   H3828     1.0  0.63919  0.37014  0.76445  1.0000
  H   H3829     1.0  0.52023  0.33380  0.81468  1.0000
  C   C3205     1.0  0.97514  0.47402  0.94313  1.0000
  C   C3206     1.0  0.89861  0.42559  0.96883  1.0000
  H   H3830     1.0  0.94325  0.41240  0.96842  1.0000
  H   H3831     1.0  0.78343  0.41613  0.82381  1.0000
  H   H3832     1.0  0.87403  0.43364  0.84393  1.0000
  C   C3207     1.0  0.95757  0.62987  0.94985  1.0000
  H   H3833     1.0  0.66533  0.37226  0.77897  1.0000
  C   C3208     1.0  0.87035  0.44257  0.85033  1.0000
  C   C3209     1.0  0.86435  0.37856  0.88358  1.0000
  C   C3210     1.0  0.81738  0.48801  0.91219  1.0000
  H   H3834     1.0  0.65329  0.35494  0.78361  1.0000
  C   C3211     1.0  0.81472  0.51671  0.92438  1.0000
  C   C3212     1.0  0.78702  0.39047  0.76655  1.0000
  H   H3835     1.0  0.65208  0.36799  0.79463  1.0000
  H   H3836     1.0  0.66160  0.40218  0.77124  1.0000
  S   S847      1.0  0.54846  0.35708  0.84068  1.0000
  H   H3837     1.0  0.77057  0.35974  0.82221  1.0000
  H   H3838     1.0  0.83460  0.36100  0.86638  1.0000
  H   H3839     1.0  0.84311  0.45121  0.84811  1.0000
  Fe  Fe417     1.0  0.56652  0.32912  0.81500  1.0000
  C   C3213     1.0  0.95288  0.45360  0.96250  1.0000
  N   N213      1.0  0.71658  0.41311  0.82327  1.0000
  C   C3214     1.0  0.69747  0.41188  0.82748  1.0000
  C   C3215     1.0  0.72367  0.40858  0.81068  1.0000
  C   C3216     1.0  0.72638  0.39956  0.83238  1.0000
  C   C3217     1.0  0.71836  0.43133  0.82230  1.0000
  C   C3218     1.0  0.70822  0.44602  0.81509  1.0000
  C   C3219     1.0  0.73052  0.43506  0.82795  1.0000
  C   C3220     1.0  0.70942  0.46336  0.81418  1.0000
  C   C3221     1.0  0.73186  0.45244  0.82678  1.0000
  C   C3222     1.0  0.72114  0.46657  0.82009  1.0000
  H   H3840     1.0  0.68930  0.42006  0.82052  1.0000
  H   H3841     1.0  0.69579  0.39812  0.82895  1.0000
  H   H3842     1.0  0.69135  0.41634  0.83652  1.0000
  H   H3843     1.0  0.71568  0.41706  0.80368  1.0000
  H   H3844     1.0  0.72368  0.39460  0.81102  1.0000
  H   H3845     1.0  0.73770  0.41031  0.80690  1.0000
  H   H3846     1.0  0.72169  0.40249  0.84203  1.0000
  H   H3847     1.0  0.72448  0.38605  0.83319  1.0000
  H   H3848     1.0  0.74107  0.39870  0.82938  1.0000
  H   H3849     1.0  0.69908  0.44424  0.81021  1.0000
  H   H3850     1.0  0.73900  0.42485  0.83351  1.0000
  C   C3223     1.0  0.84336  0.38213  0.90317  1.0000
  N   N214      1.0  0.99545  0.62027  0.96738  1.0000
  C   C3224     1.0  0.68386  0.39084  0.79634  1.0000
  H   H3851     1.0  0.70542  0.39977  0.78179  1.0000
  C   C3225     1.0  0.77325  0.37207  0.82255  1.0000
  S   S848      1.0  0.88271  0.42534  0.96060  1.0000
  C   C3226     1.0  0.97405  0.44893  0.91548  1.0000
  C   C3227     1.0  0.95806  0.44311  0.91808  1.0000
  H   H3852     1.0  0.82629  0.50590  0.92660  1.0000
  C   C3228     1.0  0.85292  0.45251  0.85269  1.0000
  C   C3229     1.0  0.77787  0.37372  0.83338  1.0000
  H   H3853     1.0  0.92150  0.41534  0.95541  1.0000
  C   C3230     1.0  0.93739  0.59468  0.94933  1.0000
  H   H3854     1.0  0.59842  0.33563  0.88113  1.0000
  C   C3231     1.0  0.81298  0.47388  0.90960  1.0000
  C   C3232     1.0  0.64875  0.42434  0.77965  1.0000
  H   H3855     1.0  0.80229  0.51303  0.93080  1.0000
  S   S849      1.0  0.69088  0.36888  0.79464  1.0000
  C   C3233     1.0  0.64957  0.40788  0.77733  1.0000
  H   H3856     1.0  0.81690  0.52826  0.92698  1.0000
  Fe  Fe418     1.0  0.53384  0.35180  0.82790  1.0000
  H   H3857     1.0  0.82786  0.48483  0.91741  1.0000
  N   N215      1.0  0.84778  0.61577  0.85555  1.0000
  C   C3234     1.0  0.97462  0.62425  0.95263  1.0000
  C   C3235     1.0  0.86062  0.38141  0.89578  1.0000
  H   H3858     1.0  0.92335  0.48096  0.94506  1.0000
  H   H3859     1.0  0.59705  0.61343  0.79775  1.0000
  S   S850      1.0  0.58399  0.33159  0.82667  1.0000
  S   S851      1.0  0.76347  0.36108  0.74747  1.0000
  C   C3236     1.0  0.83308  0.37693  0.88604  1.0000
  H   H3860     1.0  0.98983  0.51020  0.92367  1.0000
  H   H3861     1.0  0.82803  0.38488  0.86152  1.0000
  H   H3862     1.0  0.82397  0.34628  0.88868  1.0000
  H   H3863     1.0  0.80728  0.40223  0.87774  1.0000
  Fe  Fe419     1.0  0.72086  0.36114  0.78959  1.0000
  C   C3237     1.0  0.92395  0.55508  0.97658  1.0000
  C   C3238     1.0  0.77613  0.40217  0.81272  1.0000
  H   H3864     1.0  0.99574  0.55834  0.94806  1.0000
  C   C3239     1.0  0.95661  0.48149  0.94697  1.0000
  H   H3865     1.0  0.99873  0.42364  0.96884  1.0000
  C   C3240     1.0  0.77257  0.38627  0.81211  1.0000
  H   H3866     1.0  0.98534  0.53618  0.94228  1.0000
  N   N216      1.0  0.90512  0.55399  0.98277  1.0000
  H   H3867     1.0  0.98091  0.46025  0.94640  1.0000
  H   H3868     1.0  0.93653  0.50587  0.94329  1.0000
  H   H3869     1.0  0.96286  0.45486  0.96730  1.0000
  N   N217      1.0  0.81847  0.37437  0.88132  1.0000
  H   H3870     1.0  0.77567  0.41323  0.80472  1.0000
  C   C3241     1.0  0.76544  0.34247  0.74139  1.0000
  H   H3871     1.0  0.94167  0.48438  0.97089  1.0000
  N   N218      1.0  0.94386  0.47116  0.95606  1.0000
  C   C3242     1.0  0.98062  0.50218  0.92999  1.0000
  Fe  Fe420     1.0  0.75421  0.35602  0.76870  1.0000
  H   H3872     1.0  0.76975  0.41309  0.74089  1.0000
  H   H3873     1.0  0.59779  0.62827  0.82624  1.0000
  H   H3874     1.0  0.79643  0.39046  0.89235  1.0000
  H   H3875     1.0  0.94125  0.42620  0.93123  1.0000
  S   S852      1.0  0.76743  0.38509  0.79802  1.0000
  H   H3876     1.0  0.88018  0.62495  0.85118  1.0000
  C   C3243     1.0  0.93296  0.48086  0.96610  1.0000
  C   C3244     1.0  0.93166  0.46828  0.94927  1.0000
  H   H3877     1.0  0.87776  0.37838  0.87780  1.0000
  H   H3878     1.0  0.74357  0.42016  0.75513  1.0000
  H   H3879     1.0  0.59757  0.38421  0.86412  1.0000
  C   C3245     1.0  0.97674  0.53908  0.96652  1.0000
  C   C3246     1.0  0.95055  0.49950  0.94138  1.0000
  C   C3247     1.0  0.60823  0.32362  0.79415  1.0000
  C   C3248     1.0  0.87649  0.61697  0.88275  1.0000
  C   C3249     1.0  0.61003  0.37523  0.86123  1.0000
  H   H3880     1.0  0.97775  0.54354  0.97480  1.0000
  H   H3881     1.0  0.85444  0.60880  0.89702  1.0000
  H   H3882     1.0  0.68182  0.64307  0.83938  1.0000
  H   H3883     1.0  0.78195  0.49672  0.89217  1.0000
  H   H3884     1.0  0.79689  0.46596  0.90039  1.0000
  C   C3250     1.0  0.59621  0.33369  0.87229  1.0000
  H   H3885     1.0  0.88222  0.55155  0.97700  1.0000
  H   H3886     1.0  0.70839  0.64722  0.84021  1.0000
  C   C3251     1.0  0.73563  0.43942  0.77981  1.0000
  C   C3252     1.0  0.84313  0.63369  0.84761  1.0000
  H   H3887     1.0  0.96362  0.58242  0.95302  1.0000
  H   H3888     1.0  0.65418  0.37679  0.85207  1.0000
  H   H3889     1.0  0.77918  0.41929  0.77874  1.0000
  C   C3253     1.0  0.92919  0.41778  0.97175  1.0000
  C   C3254     1.0  0.72187  0.60325  0.77212  1.0000
  H   H3890     1.0  0.83574  0.63360  0.84049  1.0000
  C   C3255     1.0  0.89661  0.55199  0.97315  1.0000
  H   H3891     1.0  0.83350  0.59568  0.86719  1.0000
  C   C3256     1.0  0.99497  0.60552  0.97866  1.0000
  C   C3257     1.0  0.83092  0.60929  0.86126  1.0000
  H   H3892     1.0  0.87156  0.60880  0.84130  1.0000
  H   H3893     1.0  0.64944  0.35936  0.82527  1.0000
  H   H3894     1.0  0.63393  0.33058  0.78991  1.0000
  H   H3895     1.0  0.63209  0.64032  0.82335  1.0000
  C   C3258     1.0  0.85720  0.61649  0.86503  1.0000
  H   H3896     1.0  0.76356  0.39387  0.75235  1.0000
  H   H3897     1.0  0.92439  0.60205  0.98361  1.0000
  C   C3259     1.0  0.61331  0.64477  0.84059  1.0000
  H   H3898     1.0  0.78576  0.39264  0.74314  1.0000
  C   C3260     1.0  0.76409  0.41776  0.76562  1.0000
  H   H3899     1.0  0.65654  0.34633  0.84989  1.0000
  H   H3900     1.0  0.98949  0.39640  0.97027  1.0000
  C   C3261     1.0  0.92806  0.60012  0.97402  1.0000
  C   C3262     1.0  0.50590  0.33670  0.81560  1.0000
  C   C3263     1.0  0.99672  0.50263  0.97475  1.0000
  C   C3264     1.0  0.85960  0.60374  0.84725  1.0000
  H   H3901     1.0  0.94316  0.44674  0.96992  1.0000
  H   H3902     1.0  0.98267  0.49344  0.90476  1.0000
  H   H3903     1.0  0.84042  0.38489  0.91252  1.0000
  H   H3904     1.0  0.58387  0.32827  0.87480  1.0000
  H   H3905     1.0  0.79266  0.39307  0.77371  1.0000
  H   H3906     1.0  0.98684  0.52435  0.89725  1.0000
  H   H3907     1.0  0.79805  0.38168  0.76118  1.0000
  H   H3908     1.0  0.70192  0.64368  0.82038  1.0000
  H   H3909     1.0  0.93407  0.64479  0.97633  1.0000
  H   H3910     1.0  0.60400  0.33624  0.84749  1.0000
  Fe  Fe421     1.0  0.75564  0.64104  0.77201  1.0000
  H   H3911     1.0  0.86444  0.59044  0.85293  1.0000
  S   S853      1.0  0.50416  0.36167  0.82878  1.0000
  H   H3912     1.0  0.83760  0.60815  0.88229  1.0000
  S   S854      1.0  0.77891  0.64314  0.77869  1.0000
  H   H3913     1.0  0.95552  0.62795  0.94122  1.0000
  H   H3914     1.0  0.62455  0.39528  0.85916  1.0000
  N   N219      1.0  0.99479  0.53199  0.95932  1.0000
  H   H3915     1.0  0.92407  0.47284  0.97350  1.0000
  H   H3916     1.0  0.57801  0.36576  0.87637  1.0000
  C   C3265     1.0  0.79117  0.64248  0.80778  1.0000
  H   H3917     1.0  0.78813  0.42993  0.74581  1.0000
  H   H3918     1.0  0.99167  0.59402  0.97678  1.0000
  C   C3266     1.0  0.98636  0.39495  0.98073  1.0000
  H   H3919     1.0  0.87863  0.43539  0.98406  1.0000
  H   H3920     1.0  0.69039  0.33606  0.78839  1.0000
  C   C3267     1.0  0.65065  0.34816  0.82124  1.0000
  H   H3921     1.0  0.96806  0.52928  0.97002  1.0000
  H   H3922     1.0  0.93095  0.55833  0.98269  1.0000
  H   H3923     1.0  0.79905  0.42038  0.75887  1.0000
  H   H3924     1.0  0.79297  0.65019  0.79819  1.0000
  H   H3925     1.0  0.92978  0.64121  0.95627  1.0000
  C   C3268     1.0  0.00032  0.63500  0.97038  1.0000
  H   H3926     1.0  0.67870  0.65569  0.79628  1.0000
  H   H3927     1.0  0.99953  0.64686  0.96250  1.0000
  H   H3928     1.0  0.97241  0.40250  0.98305  1.0000
  C   C3269     1.0  0.92338  0.42283  0.98346  1.0000
  H   H3929     1.0  0.98318  0.42826  0.98310  1.0000
  C   C3270     1.0  0.63672  0.32960  0.81515  1.0000
  C   C3271     1.0  0.66961  0.32427  0.81067  1.0000
  C   C3272     1.0  0.76690  0.32557  0.74922  1.0000
  H   H3930     1.0  0.76668  0.32383  0.75914  1.0000
  Fe  Fe422     1.0  0.57431  0.97241  0.01519  1.0000
  C   C3273     1.0  0.69701  0.79394  0.21832  1.0000
  S   S855      1.0  0.58736  0.96046  0.99815  1.0000
  Fe  Fe423     1.0  0.57203  0.97430  0.04204  1.0000
  H   H3931     1.0  0.57978  0.91618  0.11209  1.0000
  S   S856      1.0  0.57910  0.96298  0.06101  1.0000
  C   C3274     1.0  0.78929  0.69821  0.23246  1.0000
  C   C3275     1.0  0.62031  0.88965  0.11764  1.0000
  C   C3276     1.0  0.57386  0.80661  0.15268  1.0000
  C   C3277     1.0  0.59809  0.77249  0.16214  1.0000
  S   S857      1.0  0.55833  0.96048  0.03387  1.0000
  H   H3932     1.0  0.53898  0.90783  0.06767  1.0000
  Fe  Fe424     1.0  0.53976  0.84954  0.12360  1.0000
  S   S858      1.0  0.52842  0.86646  0.13803  1.0000
  S   S859      1.0  0.53138  0.82360  0.12783  1.0000
  Fe  Fe425     1.0  0.55900  0.87691  0.10480  1.0000
  S   S860      1.0  0.54946  0.89579  0.11784  1.0000
  S   S861      1.0  0.57406  0.88317  0.08457  1.0000
  Fe  Fe426     1.0  0.55611  0.87194  0.13302  1.0000
  S   S862      1.0  0.56828  0.87476  0.14814  1.0000
  Fe  Fe427     1.0  0.52303  0.88851  0.12147  1.0000
  S   S863      1.0  0.56791  0.85338  0.11970  1.0000
  S   S864      1.0  0.53206  0.87123  0.10748  1.0000
  Fe  Fe428     1.0  0.64956  0.81866  0.17704  1.0000
  S   S865      1.0  0.64529  0.83453  0.15781  1.0000
  S   S866      1.0  0.65638  0.78919  0.17927  1.0000
  S   S867      1.0  0.67115  0.81898  0.18637  1.0000
  Fe  Fe429     1.0  0.59183  0.73459  0.14251  1.0000
  S   S868      1.0  0.57756  0.73489  0.16257  1.0000
  S   S869      1.0  0.59797  0.75947  0.12892  1.0000
  Fe  Fe430     1.0  0.59993  0.69430  0.14713  1.0000
  S   S870      1.0  0.58619  0.69137  0.16763  1.0000
  Fe  Fe431     1.0  0.56497  0.71406  0.16050  1.0000
  Fe  Fe432     1.0  0.60012  0.71235  0.16754  1.0000
  S   S871      1.0  0.57775  0.71555  0.13991  1.0000
  S   S872      1.0  0.61523  0.71355  0.14755  1.0000
  S   S873      1.0  0.77346  0.68938  0.18309  1.0000
  C   C3278     1.0  0.76611  0.66958  0.14271  1.0000
  H   H3933     1.0  0.62563  0.78163  0.14316  1.0000
  Fe  Fe433     1.0  0.77417  0.67282  0.20271  1.0000
  C   C3279     1.0  0.56045  0.84754  0.07984  1.0000
  C   C3280     1.0  0.71420  0.79706  0.21551  1.0000
  H   H3934     1.0  0.51991  0.95602  0.06615  1.0000
  H   H3935     1.0  0.66260  0.86308  0.11367  1.0000
  H   H3936     1.0  0.69124  0.79327  0.21083  1.0000
  H   H3937     1.0  0.61647  0.80514  0.14081  1.0000
  N   N220      1.0  0.60579  0.89830  0.11065  1.0000
  H   H3938     1.0  0.74893  0.72361  0.20201  1.0000
  C   C3281     1.0  0.54323  0.95166  0.99152  1.0000
  H   H3939     1.0  0.60618  0.89638  0.13602  1.0000
  H   H3940     1.0  0.69867  0.69312  0.16059  1.0000
  S   S874      1.0  0.62827  0.81909  0.19475  1.0000
  H   H3941     1.0  0.53381  0.66912  0.14732  1.0000
  H   H3942     1.0  0.61554  0.66333  0.16448  1.0000
  H   H3943     1.0  0.51730  0.86809  0.07958  1.0000
  C   C3282     1.0  0.61254  0.91000  0.09853  1.0000
  N   N221      1.0  0.66936  0.67937  0.16071  1.0000
  H   H3944     1.0  0.54771  0.87275  0.07023  1.0000
  S   S875      1.0  0.71164  0.85425  0.22993  1.0000
  H   H3945     1.0  0.52970  0.95092  0.99664  1.0000
  C   C3283     1.0  0.66412  0.67671  0.14978  1.0000
  C   C3284     1.0  0.51408  0.95959  0.02846  1.0000
  H   H3946     1.0  0.68945  0.89023  0.19682  1.0000
  C   C3285     1.0  0.69857  0.72949  0.18444  1.0000
  H   H3947     1.0  0.60489  0.79043  0.13835  1.0000
  H   H3948     1.0  0.62836  0.77818  0.16438  1.0000
  C   C3286     1.0  0.59016  0.90930  0.11777  1.0000
  C   C3287     1.0  0.64830  0.88064  0.20103  1.0000
  H   H3949     1.0  0.73479  0.80128  0.22214  1.0000
  H   H3950     1.0  0.52635  0.91399  0.08915  1.0000
  H   H3951     1.0  0.61227  0.86927  0.19595  1.0000
  H   H3952     1.0  0.83557  0.67697  0.13244  1.0000
  H   H3953     1.0  0.74572  0.70644  0.22854  1.0000
  H   H3954     1.0  0.69544  0.65912  0.22328  1.0000
  C   C3288     1.0  0.66580  0.69877  0.15978  1.0000
  C   C3289     1.0  0.64275  0.88029  0.21422  1.0000
  H   H3955     1.0  0.71827  0.74346  0.21065  1.0000
  H   H3956     1.0  0.60162  0.91748  0.09342  1.0000
  H   H3957     1.0  0.62265  0.90253  0.09179  1.0000
  C   C3290     1.0  0.50584  0.70596  0.16522  1.0000
  C   C3291     1.0  0.55474  0.95581  0.99725  1.0000
  H   H3958     1.0  0.75762  0.76238  0.21152  1.0000
  H   H3959     1.0  0.74385  0.71981  0.18091  1.0000
  S   S876      1.0  0.65614  0.78686  0.20908  1.0000
  C   C3292     1.0  0.61522  0.75799  0.19559  1.0000
  C   C3293     1.0  0.65758  0.67191  0.17253  1.0000
  H   H3960     1.0  0.54461  0.84265  0.16209  1.0000
  H   H3961     1.0  0.76696  0.72055  0.20957  1.0000
  C   C3294     1.0  0.52088  0.92789  0.08461  1.0000
  C   C3295     1.0  0.60080  0.73836  0.19060  1.0000
  H   H3962     1.0  0.64388  0.75361  0.18908  1.0000
  H   H3963     1.0  0.73734  0.75051  0.18390  1.0000
  C   C3296     1.0  0.51711  0.71585  0.12924  1.0000
  H   H3964     1.0  0.71681  0.75245  0.22393  1.0000
  H   H3965     1.0  0.59008  0.77091  0.15596  1.0000
  C   C3297     1.0  0.81632  0.70864  0.21226  1.0000
  H   H3966     1.0  0.65149  0.70516  0.15956  1.0000
  H   H3967     1.0  0.70783  0.67077  0.20907  1.0000
  Fe  Fe434     1.0  0.78516  0.66330  0.17704  1.0000
  H   H3968     1.0  0.53205  0.92350  0.05413  1.0000
  C   C3298     1.0  0.75868  0.68424  0.13439  1.0000
  C   C3299     1.0  0.50296  0.91887  0.07341  1.0000
  C   C3300     1.0  0.73468  0.71770  0.22586  1.0000
  C   C3301     1.0  0.63298  0.73507  0.18423  1.0000
  C   C3302     1.0  0.69534  0.84269  0.21602  1.0000
  H   H3969     1.0  0.59431  0.87533  0.11673  1.0000
  C   C3303     1.0  0.72651  0.74458  0.18418  1.0000
  C   C3304     1.0  0.59932  0.88446  0.10786  1.0000
  H   H3970     1.0  0.70751  0.84335  0.20883  1.0000
  C   C3305     1.0  0.69484  0.74678  0.18634  1.0000
  H   H3971     1.0  0.68268  0.83397  0.20477  1.0000
  H   H3972     1.0  0.64590  0.72825  0.17976  1.0000
  C   C3306     1.0  0.58901  0.86167  0.15126  1.0000
  C   C3307     1.0  0.60098  0.85163  0.14285  1.0000
  C   C3308     1.0  0.61807  0.84275  0.14514  1.0000
  C   C3309     1.0  0.62299  0.84330  0.15608  1.0000
  C   C3310     1.0  0.61066  0.85255  0.16481  1.0000
  C   C3311     1.0  0.59386  0.86195  0.16228  1.0000
  H   H3973     1.0  0.59729  0.85107  0.13445  1.0000
  H   H3974     1.0  0.62764  0.83576  0.13830  1.0000
  H   H3975     1.0  0.61435  0.85310  0.17322  1.0000
  H   H3976     1.0  0.58459  0.86959  0.16886  1.0000
  C   C3312     1.0  0.54971  0.80558  0.12761  1.0000
  C   C3313     1.0  0.56659  0.80782  0.12036  1.0000
  C   C3314     1.0  0.58129  0.79346  0.12058  1.0000
  C   C3315     1.0  0.57915  0.77685  0.12810  1.0000
  C   C3316     1.0  0.56220  0.77451  0.13522  1.0000
  C   C3317     1.0  0.54746  0.78889  0.13492  1.0000
  H   H3977     1.0  0.56833  0.82058  0.11452  1.0000
  H   H3978     1.0  0.59438  0.79525  0.11501  1.0000
  H   H3979     1.0  0.56051  0.76170  0.14106  1.0000
  H   H3980     1.0  0.53445  0.78723  0.14064  1.0000
  C   C3318     1.0  0.57700  0.94100  0.06722  1.0000
  C   C3319     1.0  0.58190  0.92872  0.05949  1.0000
  C   C3320     1.0  0.58095  0.91094  0.06487  1.0000
  C   C3321     1.0  0.57465  0.90556  0.07791  1.0000
  C   C3322     1.0  0.56923  0.91804  0.08550  1.0000
  C   C3323     1.0  0.57068  0.93562  0.08022  1.0000
  H   H3981     1.0  0.58695  0.93281  0.04943  1.0000
  H   H3982     1.0  0.58522  0.90137  0.05891  1.0000
  H   H3983     1.0  0.56422  0.91421  0.09546  1.0000
  H   H3984     1.0  0.56682  0.94512  0.08621  1.0000
  S   S877      1.0  0.82927  0.72454  0.22572  1.0000
  H   H3985     1.0  0.52810  0.95814  0.02792  1.0000
  H   H3986     1.0  0.72166  0.79873  0.20578  1.0000
  C   C3324     1.0  0.51020  0.94791  0.06679  1.0000
  C   C3325     1.0  0.83754  0.67363  0.11375  1.0000
  H   H3987     1.0  0.66835  0.70187  0.16811  1.0000
  C   C3326     1.0  0.75819  0.75516  0.22108  1.0000
  H   H3988     1.0  0.68116  0.75421  0.18799  1.0000
  C   C3327     1.0  0.81432  0.71298  0.22394  1.0000
  C   C3328     1.0  0.75449  0.72990  0.20731  1.0000
  H   H3989     1.0  0.55007  0.95831  0.00670  1.0000
  H   H3990     1.0  0.54854  0.82193  0.14837  1.0000
  C   C3329     1.0  0.63186  0.74945  0.18947  1.0000
  C   C3330     1.0  0.73019  0.72722  0.18252  1.0000
  H   H3991     1.0  0.73037  0.75992  0.20878  1.0000
  C   C3331     1.0  0.51275  0.75883  0.14586  1.0000
  H   H3992     1.0  0.57382  0.85003  0.07589  1.0000
  H   H3993     1.0  0.54915  0.68713  0.15394  1.0000
  S   S878      1.0  0.61934  0.71013  0.17969  1.0000
  C   C3332     1.0  0.52462  0.70293  0.16252  1.0000
  H   H3994     1.0  0.63924  0.85772  0.18289  1.0000
  H   H3995     1.0  0.65842  0.86405  0.13606  1.0000
  S   S879      1.0  0.80491  0.66146  0.15857  1.0000
  H   H3996     1.0  0.65952  0.86480  0.18051  1.0000
  Fe  Fe435     1.0  0.65046  0.81653  0.20449  1.0000
  C   C3333     1.0  0.61650  0.78932  0.16545  1.0000
  S   S880      1.0  0.53498  0.71626  0.16718  1.0000
  H   H3997     1.0  0.58329  0.90111  0.12648  1.0000
  H   H3998     1.0  0.72907  0.67702  0.16110  1.0000
  H   H3999     1.0  0.70802  0.66625  0.18850  1.0000
  H   H4000     1.0  0.62169  0.80172  0.16246  1.0000
  C   C3334     1.0  0.64402  0.67184  0.20829  1.0000
  C   C3335     1.0  0.63670  0.87976  0.11173  1.0000
  C   C3336     1.0  0.69372  0.84728  0.22753  1.0000
  H   H4001     1.0  0.58880  0.73396  0.19125  1.0000
  C   C3337     1.0  0.64808  0.87147  0.13087  1.0000
  C   C3338     1.0  0.52533  0.84152  0.09075  1.0000
  C   C3339     1.0  0.67625  0.88776  0.20159  1.0000
  H   H4002     1.0  0.68775  0.72369  0.18453  1.0000
  H   H4003     1.0  0.67915  0.88915  0.21973  1.0000
  H   H4004     1.0  0.66054  0.67434  0.18093  1.0000
  C   C3340     1.0  0.63220  0.88105  0.13694  1.0000
  C   C3341     1.0  0.50815  0.94594  0.02642  1.0000
  C   C3342     1.0  0.80486  0.69909  0.21069  1.0000
  H   H4005     1.0  0.51269  0.81103  0.09788  1.0000
  H   H4006     1.0  0.54415  0.92937  0.06294  1.0000
  H   H4007     1.0  0.56954  0.82199  0.09105  1.0000
  C   C3343     1.0  0.72615  0.74803  0.21547  1.0000
  H   H4008     1.0  0.80659  0.69573  0.20169  1.0000
  C   C3344     1.0  0.66535  0.88463  0.19490  1.0000
  C   C3345     1.0  0.64744  0.86184  0.18774  1.0000
  H   H4009     1.0  0.64488  0.89615  0.17679  1.0000
  H   H4010     1.0  0.75844  0.74189  0.20064  1.0000
  H   H4011     1.0  0.51632  0.74681  0.15320  1.0000
  C   C3346     1.0  0.67598  0.68363  0.20135  1.0000
  H   H4012     1.0  0.53123  0.93552  0.08345  1.0000
  C   C3347     1.0  0.50715  0.68274  0.15475  1.0000
  N   N222      1.0  0.51663  0.92894  0.07231  1.0000
  C   C3348     1.0  0.68708  0.79215  0.23070  1.0000
  H   H4013     1.0  0.63891  0.87849  0.10209  1.0000
  H   H4014     1.0  0.51045  0.77033  0.15025  1.0000
  H   H4015     1.0  0.67289  0.68178  0.14069  1.0000
  H   H4016     1.0  0.50315  0.77586  0.12354  1.0000
  S   S881      1.0  0.59008  0.98384  0.02359  1.0000
  H   H4017     1.0  0.61870  0.91984  0.10017  1.0000
  H   H4018     1.0  0.82683  0.71263  0.20440  1.0000
  Fe  Fe436     1.0  0.63613  0.78947  0.19753  1.0000
  C   C3349     1.0  0.83891  0.66574  0.23350  1.0000
  H   H4019     1.0  0.50889  0.93344  0.09137  1.0000
  S   S882      1.0  0.61327  0.77551  0.20278  1.0000
  N   N223      1.0  0.63724  0.87692  0.19377  1.0000
  C   C3350     1.0  0.70156  0.67913  0.16073  1.0000
  C   C3351     1.0  0.61303  0.79188  0.14450  1.0000
  H   H4020     1.0  0.59403  0.81562  0.17282  1.0000
  S   S883      1.0  0.64706  0.83074  0.22017  1.0000
  H   H4021     1.0  0.52568  0.89563  0.00197  1.0000
  H   H4022     1.0  0.68799  0.68889  0.19832  1.0000
  H   H4023     1.0  0.53987  0.81654  0.10075  1.0000
  H   H4024     1.0  0.57500  0.79790  0.14657  1.0000
  H   H4025     1.0  0.63152  0.66740  0.21082  1.0000
  H   H4026     1.0  0.61138  0.88326  0.20614  1.0000
  N   N224      1.0  0.74156  0.73394  0.21900  1.0000
  C   C3352     1.0  0.61841  0.88992  0.13053  1.0000
  H   H4027     1.0  0.60992  0.87633  0.10176  1.0000
  C   C3353     1.0  0.68827  0.67025  0.16083  1.0000
  H   H4028     1.0  0.82859  0.68622  0.11117  1.0000
  H   H4029     1.0  0.60987  0.76115  0.16199  1.0000
  H   H4030     1.0  0.58819  0.89028  0.10279  1.0000
  C   C3354     1.0  0.76721  0.76089  0.22778  1.0000
  H   H4031     1.0  0.64314  0.67798  0.17258  1.0000
  C   C3355     1.0  0.50181  0.97481  0.03139  1.0000
  H   H4032     1.0  0.75728  0.69745  0.13573  1.0000
  C   C3356     1.0  0.61747  0.72942  0.18489  1.0000
  H   H4033     1.0  0.62407  0.89048  0.17829  1.0000
  H   H4034     1.0  0.85739  0.69045  0.23316  1.0000
  H   H4035     1.0  0.63030  0.87687  0.21981  1.0000
  H   H4036     1.0  0.77359  0.77203  0.22331  1.0000
  C   C3357     1.0  0.59971  0.75248  0.19606  1.0000
  C   C3358     1.0  0.70884  0.75427  0.18625  1.0000
  H   H4037     1.0  0.52441  0.91862  0.99414  1.0000
  N   N225      1.0  0.60352  0.78979  0.15797  1.0000
  C   C3359     1.0  0.68127  0.83735  0.21370  1.0000
  H   H4038     1.0  0.58986  0.77092  0.17196  1.0000
  Fe  Fe437     1.0  0.67577  0.78945  0.19046  1.0000
  S   S884      1.0  0.70455  0.77537  0.18932  1.0000
  S   S885      1.0  0.72072  0.69782  0.18099  1.0000
  H   H4039     1.0  0.59420  0.91974  0.12047  1.0000
  C   C3360     1.0  0.66543  0.83653  0.22290  1.0000
  C   C3361     1.0  0.71623  0.71966  0.18270  1.0000
  C   C3362     1.0  0.54566  0.86034  0.07664  1.0000
  H   H4040     1.0  0.65205  0.85022  0.19499  1.0000
  H   H4041     1.0  0.63028  0.88092  0.14688  1.0000
  C   C3363     1.0  0.50597  0.82078  0.10400  1.0000
  Fe  Fe438     1.0  0.74702  0.68225  0.18579  1.0000
  H   H4042     1.0  0.61034  0.78735  0.17574  1.0000
  C   C3364     1.0  0.63275  0.89269  0.18375  1.0000
  C   C3365     1.0  0.62013  0.87227  0.20163  1.0000
  N   N226      1.0  0.50684  0.83913  0.09681  1.0000
  C   C3366     1.0  0.84164  0.66848  0.12567  1.0000
  H   H4043     1.0  0.65000  0.68362  0.14929  1.0000
  H   H4044     1.0  0.67399  0.70541  0.15099  1.0000
  C   C3367     1.0  0.54075  0.82878  0.09387  1.0000
  C   C3368     1.0  0.52833  0.85747  0.08201  1.0000
  C   C3369     1.0  0.53466  0.68961  0.15603  1.0000
  H   H4045     1.0  0.51767  0.93402  0.02438  1.0000
  C   C3370     1.0  0.58739  0.80425  0.15938  1.0000
  C   C3371     1.0  0.55860  0.82028  0.15368  1.0000
  C   C3372     1.0  0.75044  0.74009  0.22649  1.0000
  C   C3373     1.0  0.65368  0.88368  0.22076  1.0000
  C   C3374     1.0  0.57248  0.95608  0.99092  1.0000
  C   C3375     1.0  0.58452  0.81623  0.16736  1.0000
  C   C3376     1.0  0.65034  0.87084  0.11828  1.0000
  C   C3377     1.0  0.72154  0.79853  0.22505  1.0000
  H   H4046     1.0  0.63106  0.69937  0.20414  1.0000
  H   H4047     1.0  0.51059  0.91301  0.00909  1.0000
  H   H4048     1.0  0.62553  0.90445  0.18790  1.0000
  C   C3378     1.0  0.79139  0.69369  0.22086  1.0000
  H   H4049     1.0  0.67054  0.88503  0.18493  1.0000
  H   H4050     1.0  0.58681  0.75907  0.20076  1.0000
  S   S886      1.0  0.77689  0.68113  0.21978  1.0000
  C   C3379     1.0  0.55800  0.83179  0.08841  1.0000
  H   H4051     1.0  0.52707  0.73071  0.13754  1.0000
  C   C3380     1.0  0.52594  0.67942  0.15230  1.0000
  H   H4052     1.0  0.56729  0.83890  0.17436  1.0000
  H   H4053     1.0  0.50257  0.83620  0.07944  1.0000
  C   C3381     1.0  0.75339  0.68190  0.12424  1.0000
  C   C3382     1.0  0.56911  0.82972  0.16840  1.0000
  H   H4054     1.0  0.74790  0.69337  0.11764  1.0000
  S   S887      1.0  0.74659  0.66794  0.20577  1.0000
  H   H4055     1.0  0.62260  0.86016  0.20917  1.0000
  C   C3383     1.0  0.55628  0.83186  0.16148  1.0000
  S   S888      1.0  0.61556  0.67150  0.13787  1.0000
  C   C3384     1.0  0.51550  0.73032  0.13441  1.0000
  C   C3385     1.0  0.67678  0.66515  0.20560  1.0000
  C   C3386     1.0  0.82559  0.66112  0.22990  1.0000
  C   C3387     1.0  0.53361  0.92207  0.06389  1.0000
  H   H4056     1.0  0.77069  0.67150  0.15039  1.0000
  H   H4057     1.0  0.52949  0.70589  0.12855  1.0000
  C   C3388     1.0  0.67043  0.88726  0.21449  1.0000
  C   C3389     1.0  0.51643  0.90871  0.99997  1.0000
  C   C3390     1.0  0.71923  0.66998  0.16104  1.0000
  H   H4058     1.0  0.51224  0.81714  0.11233  1.0000
  C   C3391     1.0  0.50265  0.71370  0.12549  1.0000
  H   H4059     1.0  0.52459  0.75975  0.13787  1.0000
  C   C3392     1.0  0.66383  0.84105  0.23443  1.0000
  C   C3393     1.0  0.64371  0.68989  0.20447  1.0000
  C   C3394     1.0  0.65966  0.69577  0.20096  1.0000
  H   H4060     1.0  0.65935  0.70985  0.19798  1.0000
  H   H4061     1.0  0.67351  0.79018  0.23275  1.0000
  H   H4062     1.0  0.50624  0.84796  0.11333  1.0000
  H   H4063     1.0  0.72840  0.71322  0.21988  1.0000
  H   H4064     1.0  0.82616  0.66219  0.21999  1.0000
  H   H4065     1.0  0.50455  0.96414  0.98581  1.0000
  H   H4066     1.0  0.66480  0.66259  0.15026  1.0000
  N   N227      1.0  0.50243  0.90780  0.99382  1.0000
  H   H4067     1.0  0.50379  0.70210  0.12194  1.0000
  H   H4068     1.0  0.50830  0.95010  0.05701  1.0000
  C   C3395     1.0  0.75548  0.66487  0.12241  1.0000
  C   C3396     1.0  0.70384  0.65793  0.21374  1.0000
  C   C3397     1.0  0.66027  0.65955  0.20887  1.0000
  H   H4069     1.0  0.84961  0.67024  0.22608  1.0000
  H   H4070     1.0  0.50324  0.92546  0.05319  1.0000
  H   H4071     1.0  0.75177  0.66375  0.11415  1.0000
  H   H4072     1.0  0.84155  0.66645  0.09597  1.0000
  S   S889      1.0  0.75863  0.65787  0.17806  1.0000
  H   H4073     1.0  0.64946  0.88282  0.23088  1.0000
  C   C3398     1.0  0.84477  0.66246  0.10524  1.0000
  H   H4074     1.0  0.65907  0.65742  0.17391  1.0000
  H   H4075     1.0  0.52284  0.98737  0.00132  1.0000
  H   H4076     1.0  0.98446  0.65738  0.01855  1.0000
  C   C3399     1.0  0.80064  0.70781  0.23399  1.0000
  Fe  Fe439     1.0  0.53878  0.98662  0.03141  1.0000
  H   H4077     1.0  0.72426  0.71993  0.23449  1.0000
  C   C3400     1.0  0.97478  0.84612  0.30793  1.0000
  H   H4078     1.0  0.71765  0.96030  0.29348  1.0000
  S   S890      1.0  0.55201  0.96282  0.42935  1.0000
  Fe  Fe440     1.0  0.50861  0.96695  0.41797  1.0000
  S   S891      1.0  0.52251  0.94104  0.42851  1.0000
  C   C3401     1.0  0.86199  0.76800  0.31609  1.0000
  Fe  Fe441     1.0  0.52578  0.95694  0.44102  1.0000
  S   S892      1.0  0.51806  0.95062  0.46233  1.0000
  Fe  Fe442     1.0  0.54785  0.94895  0.41588  1.0000
  S   S893      1.0  0.57332  0.93071  0.40847  1.0000
  S   S894      1.0  0.50992  0.98216  0.43159  1.0000
  S   S895      1.0  0.53372  0.97357  0.40435  1.0000
  S   S896      1.0  0.84955  0.73094  0.25281  1.0000
  Fe  Fe443     1.0  0.66604  0.95258  0.32274  1.0000
  S   S897      1.0  0.66053  0.92762  0.33650  1.0000
  S   S898      1.0  0.68164  0.95217  0.30285  1.0000
  Fe  Fe444     1.0  0.63434  0.94481  0.34408  1.0000
  S   S899      1.0  0.60662  0.93929  0.34977  1.0000
  Fe  Fe445     1.0  0.67172  0.93719  0.34903  1.0000
  S   S900      1.0  0.69042  0.91900  0.36101  1.0000
  Fe  Fe446     1.0  0.83301  0.75609  0.25875  1.0000
  H   H4079     1.0  0.84420  0.98708  0.26589  1.0000
  Fe  Fe447     1.0  0.69377  0.87751  0.27086  1.0000
  S   S901      1.0  0.91618  0.69308  0.29952  1.0000
  C   C3402     1.0  0.84995  0.66821  0.26375  1.0000
  C   C3403     1.0  0.63289  0.88193  0.31449  1.0000
  C   C3404     1.0  0.98560  0.71899  0.29494  1.0000
  N   N228      1.0  0.85265  0.66974  0.24993  1.0000
  S   S902      1.0  0.91718  0.67298  0.35589  1.0000
  H   H4080     1.0  0.83737  0.67727  0.26743  1.0000
  H   H4081     1.0  0.75028  0.80965  0.27110  1.0000
  Fe  Fe448     1.0  0.77577  0.94437  0.29396  1.0000
  H   H4082     1.0  0.77171  0.78229  0.26559  1.0000
  C   C3405     1.0  0.96023  0.74138  0.27906  1.0000
  Fe  Fe449     1.0  0.91243  0.79405  0.28803  1.0000
  S   S903      1.0  0.66863  0.89385  0.28050  1.0000
  Fe  Fe450     1.0  0.89520  0.83203  0.29057  1.0000
  C   C3406     1.0  0.72972  0.98847  0.32506  1.0000
  S   S904      1.0  0.86995  0.85077  0.28579  1.0000
  Fe  Fe451     1.0  0.90637  0.80470  0.31303  1.0000
  S   S905      1.0  0.93046  0.79039  0.30126  1.0000
  S   S906      1.0  0.89719  0.79668  0.33399  1.0000
  Fe  Fe452     1.0  0.93481  0.81762  0.29111  1.0000
  S   S907      1.0  0.96393  0.82024  0.28521  1.0000
  C   C3407     1.0  0.75888  0.89531  0.26867  1.0000
  S   S908      1.0  0.91171  0.83185  0.30401  1.0000
  S   S909      1.0  0.88809  0.80595  0.30080  1.0000
  Fe  Fe453     1.0  0.78505  0.97111  0.30467  1.0000
  S   S910      1.0  0.79244  0.92092  0.30477  1.0000
  S   S911      1.0  0.80243  0.95001  0.31629  1.0000
  Fe  Fe454     1.0  0.81271  0.93808  0.29911  1.0000
  S   S912      1.0  0.84280  0.92962  0.29347  1.0000
  Fe  Fe455     1.0  0.78082  0.93489  0.32084  1.0000
  S   S913      1.0  0.77236  0.92095  0.34086  1.0000
  S   S914      1.0  0.84457  0.69376  0.28491  1.0000
  C   C3408     1.0  0.74759  0.79680  0.27599  1.0000
  S   S915      1.0  0.89165  0.68112  0.33541  1.0000
  S   S916      1.0  0.71603  0.81416  0.28935  1.0000
  H   H4083     1.0  0.73219  0.93559  0.27184  1.0000
  C   C3409     1.0  0.75769  0.92553  0.27724  1.0000
  H   H4084     1.0  0.74797  0.96486  0.34126  1.0000
  Fe  Fe456     1.0  0.90157  0.69691  0.34474  1.0000
  S   S917      1.0  0.88387  0.71879  0.35415  1.0000
  S   S918      1.0  0.92500  0.70200  0.32899  1.0000
  C   C3410     1.0  0.86476  0.69332  0.28866  1.0000
  C   C3411     1.0  0.86957  0.68159  0.29954  1.0000
  C   C3412     1.0  0.88541  0.68132  0.30292  1.0000
  C   C3413     1.0  0.89672  0.69247  0.29524  1.0000
  C   C3414     1.0  0.89220  0.70381  0.28413  1.0000
  C   C3415     1.0  0.87607  0.70448  0.28097  1.0000
  H   H4085     1.0  0.86089  0.67286  0.30549  1.0000
  H   H4086     1.0  0.88894  0.67236  0.31141  1.0000
  H   H4087     1.0  0.90099  0.71235  0.27810  1.0000
  H   H4088     1.0  0.87251  0.71348  0.27252  1.0000
  C   C3416     1.0  0.96547  0.83848  0.30253  1.0000
  H   H4089     1.0  0.95103  0.84050  0.30529  1.0000
  C   C3417     1.0  0.88896  0.73991  0.34830  1.0000
  C   C3418     1.0  0.89743  0.74543  0.33567  1.0000
  C   C3419     1.0  0.90009  0.76286  0.33114  1.0000
  C   C3420     1.0  0.89450  0.77468  0.33930  1.0000
  C   C3421     1.0  0.88635  0.76904  0.35193  1.0000
  C   C3422     1.0  0.88342  0.75179  0.35637  1.0000
  H   H4090     1.0  0.90133  0.73649  0.32931  1.0000
  H   H4091     1.0  0.90623  0.76719  0.32133  1.0000
  H   H4092     1.0  0.88204  0.77808  0.35828  1.0000
  H   H4093     1.0  0.87679  0.74763  0.36611  1.0000
  C   C3423     1.0  0.86292  0.87253  0.28822  1.0000
  C   C3424     1.0  0.84502  0.88114  0.28823  1.0000
  C   C3425     1.0  0.83884  0.89861  0.28985  1.0000
  C   C3426     1.0  0.85052  0.90766  0.29141  1.0000
  C   C3427     1.0  0.86846  0.89906  0.29145  1.0000
  C   C3428     1.0  0.87464  0.88143  0.28995  1.0000
  H   H4094     1.0  0.83587  0.87433  0.28694  1.0000
  H   H4095     1.0  0.82511  0.90519  0.28958  1.0000
  H   H4096     1.0  0.87757  0.90602  0.29263  1.0000
  H   H4097     1.0  0.88851  0.87488  0.28986  1.0000
  C   C3429     1.0  0.97485  0.82881  0.29322  1.0000
  C   C3430     1.0  0.77312  0.89631  0.27341  1.0000
  Fe  Fe457     1.0  0.83389  0.71780  0.27112  1.0000
  C   C3431     1.0  0.61463  0.97438  0.38245  1.0000
  S   S919      1.0  0.96701  0.67047  0.34405  1.0000
  H   H4098     1.0  0.84314  0.85789  0.26974  1.0000
  C   C3432     1.0  0.96569  0.69857  0.30122  1.0000
  C   C3433     1.0  0.67789  0.84640  0.23674  1.0000
  H   H4099     1.0  0.95316  0.67239  0.39817  1.0000
  S   S920      1.0  0.81128  0.75831  0.24863  1.0000
  H   H4100     1.0  0.96742  0.85397  0.31488  1.0000
  H   H4101     1.0  0.88344  0.80174  0.27357  1.0000
  H   H4102     1.0  0.77894  0.69407  0.24039  1.0000
  H   H4103     1.0  0.71988  0.90807  0.37318  1.0000
  H   H4104     1.0  0.96604  0.68991  0.36321  1.0000
  C   C3434     1.0  0.96174  0.75607  0.33870  1.0000
  H   H4105     1.0  0.83632  0.98085  0.30592  1.0000
  H   H4106     1.0  0.75197  0.90901  0.36529  1.0000
  S   S921      1.0  0.67890  0.96113  0.33489  1.0000
  C   C3435     1.0  0.76851  0.75199  0.24008  1.0000
  C   C3436     1.0  0.67754  0.93662  0.29626  1.0000
  C   C3437     1.0  0.68979  0.93113  0.28574  1.0000
  C   C3438     1.0  0.68742  0.91766  0.28101  1.0000
  C   C3439     1.0  0.67228  0.91034  0.28639  1.0000
  C   C3440     1.0  0.65971  0.91635  0.29658  1.0000
  C   C3441     1.0  0.66251  0.92919  0.30170  1.0000
  H   H4107     1.0  0.70123  0.93711  0.28134  1.0000
  H   H4108     1.0  0.69705  0.91325  0.27301  1.0000
  H   H4109     1.0  0.64790  0.91092  0.30054  1.0000
  H   H4110     1.0  0.65291  0.93356  0.30970  1.0000
  C   C3442     1.0  0.71295  0.92030  0.35512  1.0000
  C   C3443     1.0  0.71933  0.92746  0.34236  1.0000
  C   C3444     1.0  0.73760  0.92782  0.33784  1.0000
  C   C3445     1.0  0.74938  0.92122  0.34613  1.0000
  C   C3446     1.0  0.74291  0.91420  0.35886  1.0000
  C   C3447     1.0  0.72477  0.91366  0.36333  1.0000
  H   H4111     1.0  0.71032  0.93218  0.33594  1.0000
  H   H4112     1.0  0.74259  0.93266  0.32792  1.0000
  H   H4113     1.0  0.89761  0.74623  0.27351  1.0000
  S   S922      1.0  0.81225  0.71636  0.26245  1.0000
  C   C3448     1.0  0.73189  0.79548  0.28534  1.0000
  C   C3449     1.0  0.75186  0.73143  0.23912  1.0000
  C   C3450     1.0  0.58223  0.93372  0.39210  1.0000
  C   C3451     1.0  0.57135  0.94180  0.38330  1.0000
  C   C3452     1.0  0.57890  0.94348  0.37029  1.0000
  C   C3453     1.0  0.59736  0.93751  0.36605  1.0000
  C   C3454     1.0  0.60824  0.92975  0.37485  1.0000
  C   C3455     1.0  0.60066  0.92770  0.38783  1.0000
  H   H4114     1.0  0.55709  0.94634  0.38653  1.0000
  H   H4115     1.0  0.57041  0.94942  0.36352  1.0000
  H   H4116     1.0  0.62244  0.92482  0.37168  1.0000
  H   H4117     1.0  0.60909  0.92135  0.39461  1.0000
  H   H4118     1.0  0.62584  0.97935  0.37519  1.0000
  S   S923      1.0  0.81871  0.74279  0.27757  1.0000
  H   H4119     1.0  0.85226  0.72962  0.33605  1.0000
  S   S924      1.0  0.93388  0.65988  0.32892  1.0000
  H   H4120     1.0  0.98862  0.88692  0.28907  1.0000
  H   H4121     1.0  0.61650  0.90263  0.34669  1.0000
  H   H4122     1.0  0.84808  0.77889  0.34490  1.0000
  H   H4123     1.0  0.95960  0.88267  0.28768  1.0000
  C   C3456     1.0  0.74399  0.90940  0.26833  1.0000
  C   C3457     1.0  0.98809  0.88051  0.28189  1.0000
  Fe  Fe458     1.0  0.79854  0.74280  0.26701  1.0000
  C   C3458     1.0  0.55300  0.94382  0.46496  1.0000
  C   C3459     1.0  0.53482  0.94875  0.47043  1.0000
  H   H4124     1.0  0.60392  0.93226  0.32629  1.0000
  S   S925      1.0  0.75630  0.94462  0.28258  1.0000
  H   H4125     1.0  0.62665  0.92424  0.32772  1.0000
  H   H4126     1.0  0.55697  0.94046  0.45577  1.0000
  H   H4127     1.0  0.80121  0.98502  0.32231  1.0000
  H   H4128     1.0  0.65139  0.86437  0.30295  1.0000
  H   H4129     1.0  0.71629  0.77774  0.29881  1.0000
  C   C3460     1.0  0.72837  0.77883  0.29158  1.0000
  C   C3461     1.0  0.89222  0.77374  0.27430  1.0000
  S   S926      1.0  0.91105  0.77111  0.28066  1.0000
  H   H4130     1.0  0.74138  0.80525  0.25171  1.0000
  S   S927      1.0  0.91864  0.82011  0.27671  1.0000
  C   C3462     1.0  0.71603  0.98864  0.34702  1.0000
  C   C3463     1.0  0.74352  0.92455  0.27245  1.0000
  H   H4131     1.0  0.69392  0.80594  0.26087  1.0000
  H   H4132     1.0  0.51152  0.98751  0.46667  1.0000
  C   C3464     1.0  0.94903  0.78565  0.32864  1.0000
  H   H4133     1.0  0.84056  0.69737  0.24601  1.0000
  C   C3465     1.0  0.85345  0.74324  0.33245  1.0000
  C   C3466     1.0  0.69644  0.98934  0.28382  1.0000
  H   H4134     1.0  0.69654  0.97761  0.28030  1.0000
  C   C3467     1.0  0.52984  0.95270  0.48246  1.0000
  H   H4135     1.0  0.57072  0.99000  0.39433  1.0000
  H   H4136     1.0  0.99085  0.80076  0.33748  1.0000
  S   S928      1.0  0.84267  0.78019  0.25855  1.0000
  C   C3468     1.0  0.57349  0.98636  0.44450  1.0000
  H   H4137     1.0  0.96682  0.80298  0.31957  1.0000
  H   H4138     1.0  0.58013  0.93883  0.46732  1.0000
  H   H4139     1.0  0.61231  0.96335  0.37930  1.0000
  H   H4140     1.0  0.67634  0.85011  0.24557  1.0000
  H   H4141     1.0  0.58095  0.97275  0.46770  1.0000
  C   C3469     1.0  0.70666  0.81020  0.25592  1.0000
  C   C3470     1.0  0.99522  0.68937  0.36947  1.0000
  C   C3471     1.0  0.84893  0.75368  0.34143  1.0000
  C   C3472     1.0  0.69573  0.96902  0.35983  1.0000
  H   H4142     1.0  0.67180  0.98083  0.37172  1.0000
  C   C3473     1.0  0.98315  0.71633  0.32587  1.0000
  H   H4143     1.0  0.98953  0.74972  0.33821  1.0000
  N   N229      1.0  0.85708  0.84552  0.33180  1.0000
  C   C3474     1.0  0.87284  0.84602  0.33626  1.0000
  C   C3475     1.0  0.84974  0.83011  0.34005  1.0000
  C   C3476     1.0  0.86323  0.84226  0.31880  1.0000
  C   C3477     1.0  0.84402  0.86267  0.33174  1.0000
  C   C3478     1.0  0.82610  0.86422  0.33897  1.0000
  C   C3479     1.0  0.84914  0.87856  0.32430  1.0000
  C   C3480     1.0  0.81424  0.88074  0.33873  1.0000
  C   C3481     1.0  0.83721  0.89496  0.32421  1.0000
  C   C3482     1.0  0.81981  0.89605  0.33139  1.0000
  H   H4144     1.0  0.86874  0.84914  0.34582  1.0000
  H   H4145     1.0  0.88271  0.83310  0.33682  1.0000
  H   H4146     1.0  0.88031  0.85605  0.32982  1.0000
  H   H4147     1.0  0.84541  0.83135  0.35011  1.0000
  H   H4148     1.0  0.85999  0.81747  0.33988  1.0000
  H   H4149     1.0  0.83829  0.82848  0.33689  1.0000
  H   H4150     1.0  0.87094  0.85201  0.31225  1.0000
  H   H4151     1.0  0.87229  0.82903  0.31859  1.0000
  H   H4152     1.0  0.85176  0.84300  0.31464  1.0000
  H   H4153     1.0  0.82090  0.85293  0.34489  1.0000
  H   H4154     1.0  0.86242  0.87845  0.31840  1.0000
  H   H4155     1.0  0.80062  0.88180  0.34429  1.0000
  H   H4156     1.0  0.84146  0.90692  0.31847  1.0000
  H   H4157     1.0  0.81061  0.90880  0.33125  1.0000
  H   H4158     1.0  0.85733  0.80498  0.26442  1.0000
  C   C3483     1.0  0.74831  0.97889  0.34043  1.0000
  C   C3484     1.0  0.85094  0.77114  0.33781  1.0000
  H   H4159     1.0  0.95867  0.70707  0.33025  1.0000
  C   C3485     1.0  0.83821  0.66498  0.24638  1.0000
  C   C3486     1.0  0.99931  0.70516  0.29892  1.0000
  S   S929      1.0  0.69182  0.85253  0.26653  1.0000
  S   S930      1.0  0.76255  0.95693  0.31063  1.0000
  C   C3487     1.0  0.99739  0.68267  0.33884  1.0000
  H   H4160     1.0  0.84114  0.75165  0.30257  1.0000
  H   H4161     1.0  0.86003  0.76133  0.29393  1.0000
  H   H4162     1.0  0.59773  0.98395  0.45713  1.0000
  H   H4163     1.0  0.73193  0.77006  0.25121  1.0000
  C   C3488     1.0  0.86215  0.97855  0.28451  1.0000
  H   H4164     1.0  0.74995  0.98001  0.34967  1.0000
  C   C3489     1.0  0.96842  0.71609  0.29581  1.0000
  S   S931      1.0  0.71561  0.86418  0.28147  1.0000
  S   S932      1.0  0.76014  0.87639  0.26317  1.0000
  H   H4165     1.0  0.67669  0.86104  0.31269  1.0000
  H   H4166     1.0  0.84815  0.82683  0.28133  1.0000
  Fe  Fe459     1.0  0.90994  0.65760  0.34489  1.0000
  C   C3490     1.0  0.74014  0.76355  0.28830  1.0000
  N   N230      1.0  0.72325  0.90089  0.31156  1.0000
  C   C3491     1.0  0.72361  0.91987  0.30657  1.0000
  C   C3492     1.0  0.73130  0.89131  0.30108  1.0000
  C   C3493     1.0  0.70419  0.89943  0.31593  1.0000
  C   C3494     1.0  0.73364  0.89371  0.32163  1.0000
  C   C3495     1.0  0.72558  0.88799  0.33455  1.0000
  C   C3496     1.0  0.75234  0.89311  0.31872  1.0000
  C   C3497     1.0  0.73573  0.88189  0.34386  1.0000
  C   C3498     1.0  0.76233  0.88708  0.32812  1.0000
  C   C3499     1.0  0.75404  0.88146  0.34067  1.0000
  H   H4167     1.0  0.71686  0.92772  0.31397  1.0000
  H   H4168     1.0  0.73747  0.92209  0.30301  1.0000
  H   H4169     1.0  0.71677  0.92565  0.29853  1.0000
  H   H4170     1.0  0.74498  0.89332  0.29622  1.0000
  H   H4171     1.0  0.72334  0.89594  0.29357  1.0000
  H   H4172     1.0  0.73216  0.87681  0.30456  1.0000
  H   H4173     1.0  0.69674  0.90766  0.32301  1.0000
  H   H4174     1.0  0.69700  0.90423  0.30801  1.0000
  H   H4175     1.0  0.70304  0.88545  0.32002  1.0000
  H   H4176     1.0  0.71136  0.88858  0.33781  1.0000
  H   H4177     1.0  0.75932  0.89776  0.30917  1.0000
  H   H4178     1.0  0.72919  0.87816  0.35371  1.0000
  H   H4179     1.0  0.77646  0.88731  0.32574  1.0000
  H   H4180     1.0  0.76168  0.87740  0.34800  1.0000
  H   H4181     1.0  0.86536  0.96413  0.28451  1.0000
  C   C3500     1.0  0.60726  0.90018  0.34182  1.0000
  H   H4182     1.0  0.86851  0.71319  0.32163  1.0000
  C   C3501     1.0  0.64530  0.88949  0.32924  1.0000
  H   H4183     1.0  0.79240  0.82969  0.25454  1.0000
  S   S933      1.0  0.63873  0.96892  0.32893  1.0000
  H   H4184     1.0  0.95929  0.74896  0.30099  1.0000
  H   H4185     1.0  0.79878  0.71115  0.24297  1.0000
  H   H4186     1.0  0.97688  0.67178  0.30974  1.0000
  H   H4187     1.0  0.72867  0.97463  0.32605  1.0000
  N   N231      1.0  0.61334  0.90405  0.32784  1.0000
  H   H4188     1.0  0.59579  0.88977  0.32515  1.0000
  H   H4189     1.0  0.97064  0.74841  0.27872  1.0000
  C   C3502     1.0  0.66384  0.86929  0.31596  1.0000
  C   C3503     1.0  0.86196  0.77733  0.26447  1.0000
  H   H4190     1.0  0.60139  0.90765  0.31197  1.0000
  H   H4191     1.0  0.73704  0.75073  0.29297  1.0000
  H   H4192     1.0  0.62087  0.92588  0.31306  1.0000
  C   C3504     1.0  0.63032  0.89157  0.32397  1.0000
  C   C3505     1.0  0.96735  0.68114  0.37261  1.0000
  H   H4193     1.0  0.99661  0.79226  0.30574  1.0000
  H   H4194     1.0  0.94913  0.75194  0.27563  1.0000
  C   C3506     1.0  0.87008  0.65798  0.24581  1.0000
  H   H4195     1.0  0.97767  0.72932  0.32078  1.0000
  N   N232      1.0  0.79602  0.81820  0.27368  1.0000
  H   H4196     1.0  0.81300  0.79218  0.27739  1.0000
  C   C3507     1.0  0.83635  0.83239  0.27728  1.0000
  H   H4197     1.0  0.58083  0.97003  0.38879  1.0000
  C   C3508     1.0  0.80897  0.82887  0.27291  1.0000
  C   C3509     1.0  0.82432  0.82189  0.27836  1.0000
  C   C3510     1.0  0.80654  0.84686  0.26635  1.0000
  C   C3511     1.0  0.76077  0.73738  0.24576  1.0000
  H   H4198     1.0  0.68567  0.98918  0.29257  1.0000
  C   C3512     1.0  0.97861  0.76029  0.33554  1.0000
  N   N233      1.0  0.71930  0.79775  0.24825  1.0000
  H   H4199     1.0  0.54112  0.98373  0.45333  1.0000
  C   C3513     1.0  0.98119  0.67439  0.39079  1.0000
  C   C3514     1.0  0.94830  0.74285  0.30101  1.0000
  H   H4200     1.0  0.94140  0.71544  0.28551  1.0000
  H   H4201     1.0  0.77567  0.75625  0.24525  1.0000
  H   H4202     1.0  0.95339  0.68135  0.37802  1.0000
  C   C3515     1.0  0.81866  0.85720  0.26531  1.0000
  N   N234      1.0  0.97829  0.68706  0.37882  1.0000
  H   H4203     1.0  0.86094  0.67196  0.26614  1.0000
  H   H4204     1.0  0.82760  0.80827  0.28325  1.0000
  H   H4205     1.0  0.86701  0.97956  0.29259  1.0000
  C   C3516     1.0  0.99359  0.82630  0.28975  1.0000
  H   H4206     1.0  0.99272  0.69819  0.36032  1.0000
  H   H4207     1.0  0.78971  0.79238  0.28196  1.0000
  Fe  Fe460     1.0  0.71557  0.83998  0.27537  1.0000
  C   C3517     1.0  0.64947  0.87105  0.31056  1.0000
  S   S934      1.0  0.71224  0.88587  0.25230  1.0000
  C   C3518     1.0  0.83357  0.84996  0.27073  1.0000
  Fe  Fe461     1.0  0.91628  0.68453  0.32030  1.0000
  C   C3519     1.0  0.59847  0.90334  0.32246  1.0000
  H   H4208     1.0  0.67290  0.87701  0.32956  1.0000
  Fe  Fe462     1.0  0.71190  0.85959  0.24872  1.0000
  H   H4209     1.0  0.70333  0.82361  0.24993  1.0000
  C   C3520     1.0  0.75581  0.76475  0.27902  1.0000
  C   C3521     1.0  0.87344  0.76076  0.26700  1.0000
  C   C3522     1.0  0.88865  0.75902  0.27175  1.0000
  S   S935      1.0  0.79691  0.96056  0.28697  1.0000
  C   C3523     1.0  0.93789  0.72529  0.29157  1.0000
  C   C3524     1.0  0.69435  0.79339  0.24035  1.0000
  S   S936      1.0  0.73571  0.84498  0.25735  1.0000
  Fe  Fe463     1.0  0.73415  0.87043  0.26271  1.0000
  C   C3525     1.0  0.61633  0.92236  0.32352  1.0000
  H   H4210     1.0  0.60590  0.88618  0.34555  1.0000
  H   H4211     1.0  0.84466  0.74786  0.35135  1.0000
  H   H4212     1.0  0.93386  0.76552  0.33791  1.0000
  H   H4213     1.0  0.87074  0.74933  0.26515  1.0000
  C   C3526     1.0  0.75972  0.78137  0.27292  1.0000
  H   H4214     1.0  0.93680  0.75381  0.29874  1.0000
  C   C3527     1.0  0.73650  0.80379  0.24376  1.0000
  H   H4215     1.0  0.94399  0.73543  0.31084  1.0000
  H   H4216     1.0  0.87018  0.98525  0.27565  1.0000
  C   C3528     1.0  0.77244  0.91130  0.27783  1.0000
  H   H4217     1.0  0.76205  0.73040  0.25531  1.0000
  H   H4218     1.0  0.59411  0.90892  0.34499  1.0000
  C   C3529     1.0  0.83720  0.98129  0.27553  1.0000
  H   H4219     1.0  0.86393  0.71440  0.30681  1.0000
  H   H4220     1.0  0.93093  0.71956  0.30121  1.0000
  H   H4221     1.0  0.73301  0.90878  0.26461  1.0000
  H   H4222     1.0  0.79956  0.80018  0.29137  1.0000
  H   H4223     1.0  0.58576  0.91241  0.32594  1.0000
  H   H4224     1.0  0.62255  0.88294  0.30965  1.0000
  C   C3530     1.0  0.97966  0.68679  0.33750  1.0000
  H   H4225     1.0  0.84614  0.72268  0.31869  1.0000
  H   H4226     1.0  0.79530  0.85306  0.26184  1.0000
  H   H4227     1.0  0.64451  0.89672  0.33625  1.0000
  C   C3531     1.0  0.71794  0.97245  0.29632  1.0000
  H   H4228     1.0  0.81810  0.98292  0.29870  1.0000
  C   C3532     1.0  0.66172  0.87839  0.32536  1.0000
  H   H4229     1.0  0.72842  0.77988  0.26445  1.0000
  C   C3533     1.0  0.88068  0.79025  0.27184  1.0000
  H   H4230     1.0  0.86758  0.77394  0.30646  1.0000
  H   H4231     1.0  0.65158  0.84058  0.24156  1.0000
  Fe  Fe464     1.0  0.65102  0.97496  0.34252  1.0000
  H   H4232     1.0  0.69233  0.95611  0.36248  1.0000
  C   C3534     1.0  0.85995  0.75018  0.31943  1.0000
  H   H4233     1.0  0.96573  0.73265  0.27212  1.0000
  C   C3535     1.0  0.85748  0.77828  0.32517  1.0000
  H   H4234     1.0  0.86375  0.69278  0.24658  1.0000
  S   S937      1.0  0.64510  0.95181  0.35799  1.0000
  Fe  Fe465     1.0  0.53592  0.98673  0.41883  1.0000
  H   H4235     1.0  0.96016  0.74280  0.34367  1.0000
  C   C3536     1.0  0.68422  0.98287  0.36512  1.0000
  H   H4236     1.0  0.70786  0.97326  0.30534  1.0000
  C   C3537     1.0  0.56109  0.94750  0.48335  1.0000
  H   H4237     1.0  0.78468  0.88545  0.27369  1.0000
  H   H4238     1.0  0.71970  0.96071  0.34696  1.0000
  H   H4239     1.0  0.98842  0.73208  0.29160  1.0000
  H   H4240     1.0  0.82123  0.65888  0.26537  1.0000
  C   C3538     1.0  0.97175  0.87803  0.28117  1.0000
  H   H4241     1.0  0.78348  0.91197  0.28145  1.0000
  H   H4242     1.0  0.85963  0.79167  0.32246  1.0000
  H   H4243     1.0  0.81653  0.87088  0.26019  1.0000
  H   H4244     1.0  0.73144  0.97030  0.29823  1.0000
  C   C3539     1.0  0.77766  0.82706  0.27929  1.0000
  H   H4245     1.0  0.97645  0.70949  0.38636  1.0000
  H   H4246     1.0  0.76777  0.81864  0.28129  1.0000
  N   N235      1.0  0.71410  0.98847  0.28637  1.0000
  Fe  Fe466     1.0  0.93994  0.67682  0.33933  1.0000
  C   C3540     1.0  0.99812  0.66886  0.39427  1.0000
  C   C3541     1.0  0.86580  0.79206  0.26675  1.0000
  H   H4247     1.0  0.81019  0.81040  0.25616  1.0000
  H   H4248     1.0  0.68614  0.79172  0.24980  1.0000
  C   C3542     1.0  0.99620  0.68817  0.30415  1.0000
  H   H4249     1.0  0.95534  0.70398  0.38816  1.0000
  C   C3543     1.0  0.71141  0.97181  0.35093  1.0000
  C   C3544     1.0  0.94695  0.76877  0.33538  1.0000
  H   H4250     1.0  0.71240  0.81159  0.26351  1.0000
  H   H4251     1.0  0.88930  0.72927  0.29709  1.0000
  C   C3545     1.0  0.97241  0.70374  0.33119  1.0000
  H   H4252     1.0  0.74659  0.71978  0.24403  1.0000
  C   C3546     1.0  0.85371  0.68831  0.24364  1.0000
  C   C3547     1.0  0.96586  0.78994  0.32526  1.0000
  H   H4253     1.0  0.98995  0.81096  0.32125  1.0000
  C   C3548     1.0  0.56609  0.94291  0.47151  1.0000
  H   H4254     1.0  0.95854  0.86627  0.27234  1.0000
  N   N236      1.0  0.95394  0.73106  0.29191  1.0000
  C   C3549     1.0  0.85594  0.74870  0.29911  1.0000
  C   C3550     1.0  0.88481  0.73683  0.30472  1.0000
  C   C3551     1.0  0.86069  0.72170  0.31450  1.0000
  H   H4255     1.0  0.88922  0.74956  0.30063  1.0000
  H   H4256     1.0  0.89224  0.72933  0.31229  1.0000
  H   H4257     1.0  0.92769  0.73641  0.28770  1.0000
  N   N237      1.0  0.86518  0.73945  0.30969  1.0000
  H   H4258     1.0  0.85904  0.74055  0.29188  1.0000
  S   S938      1.0  0.76897  0.74529  0.27444  1.0000
  N   N238      1.0  0.59819  0.98849  0.38405  1.0000
  H   H4259     1.0  0.95298  0.69508  0.30257  1.0000
  H   H4260     1.0  0.58698  0.97292  0.40200  1.0000
  H   H4261     1.0  0.77730  0.83036  0.28834  1.0000
  H   H4262     1.0  0.83567  0.96336  0.29923  1.0000
  C   C3552     1.0  0.98111  0.77755  0.32894  1.0000
  C   C3553     1.0  0.97943  0.68491  0.30532  1.0000
  Fe  Fe467     1.0  0.82630  0.73167  0.24456  1.0000
  N   N239      1.0  0.99888  0.78231  0.32517  1.0000
  H   H4263     1.0  0.58962  0.98586  0.36813  1.0000
  C   C3554     1.0  0.96660  0.66821  0.39983  1.0000
  C   C3555     1.0  0.83280  0.97801  0.29787  1.0000
  H   H4264     1.0  0.77249  0.83957  0.27293  1.0000
  H   H4265     1.0  0.93751  0.79543  0.32593  1.0000
  C   C3556     1.0  0.79980  0.79998  0.28148  1.0000
  H   H4266     1.0  0.61929  0.96865  0.39147  1.0000
  H   H4267     1.0  0.82247  0.98556  0.27622  1.0000
  C   C3557     1.0  0.97119  0.86883  0.27249  1.0000
  C   C3558     1.0  0.98693  0.86219  0.26441  1.0000
  C   C3559     1.0  0.99748  0.80004  0.32749  1.0000
  H   H4268     1.0  0.73490  0.81704  0.23719  1.0000
  C   C3560     1.0  0.79643  0.81662  0.26077  1.0000
  C   C3561     1.0  0.82318  0.65956  0.25539  1.0000
  H   H4269     1.0  0.58740  0.98518  0.43870  1.0000
  H   H4270     1.0  0.78719  0.80833  0.26092  1.0000
  C   C3562     1.0  0.72253  0.77991  0.25655  1.0000
  N   N240      1.0  0.84270  0.98629  0.28547  1.0000
  C   C3563     1.0  0.96865  0.70456  0.38169  1.0000
  H   H4271     1.0  0.70994  0.77504  0.26094  1.0000
  H   H4272     1.0  0.98548  0.85476  0.25822  1.0000
  C   C3564     1.0  0.99350  0.84409  0.30411  1.0000
  C   C3565     1.0  0.71173  0.79688  0.23781  1.0000
  H   H4273     1.0  0.84039  0.96664  0.27647  1.0000
  C   C3566     1.0  0.72772  0.98641  0.27453  1.0000
  H   H4274     1.0  0.96631  0.71463  0.37295  1.0000
  H   H4275     1.0  0.72691  0.97514  0.27087  1.0000
  H   H4276     1.0  0.57136  0.97261  0.44843  1.0000
  H   H4277     1.0  0.97356  0.66754  0.37099  1.0000
  H   H4278     1.0  0.76068  0.98130  0.33322  1.0000
  H   H4279     1.0  0.74736  0.79418  0.23903  1.0000
  C   C3567     1.0  0.58355  0.98009  0.39272  1.0000
  H   H4280     1.0  0.74167  0.98327  0.27589  1.0000
  C   C3568     1.0  0.00028  0.65761  0.40591  1.0000
  C   C3569     1.0  0.58373  0.98602  0.46275  1.0000
  H   H4281     1.0  0.88113  0.66079  0.24877  1.0000
  C   C3570     1.0  0.96895  0.65682  0.41140  1.0000
  H   H4282     1.0  0.87400  0.65962  0.23537  1.0000
  S   S939      1.0  0.58801  0.97385  0.51141  1.0000
  S   S940      1.0  0.97034  0.83743  0.63879  1.0000
  H   H4283     1.0  0.85519  0.90039  0.64881  1.0000
  C   C3571     1.0  0.82813  0.67056  0.68427  1.0000
  H   H4284     1.0  0.66106  0.83810  0.71265  1.0000
  C   C3572     1.0  0.74045  0.79295  0.72270  1.0000
  Fe  Fe468     1.0  0.53845  0.97336  0.52809  1.0000
  S   S941      1.0  0.55976  0.94843  0.52784  1.0000
  H   H4285     1.0  0.80723  0.70574  0.69800  1.0000
  H   H4286     1.0  0.82608  0.71975  0.71531  1.0000
  H   H4287     1.0  0.79741  0.85883  0.68515  1.0000
  Fe  Fe469     1.0  0.56894  0.96092  0.50740  1.0000
  H   H4288     1.0  0.98722  0.81502  0.61108  1.0000
  Fe  Fe470     1.0  0.57676  0.96366  0.53194  1.0000
  S   S942      1.0  0.59414  0.95104  0.54640  1.0000
  H   H4289     1.0  0.97086  0.87225  0.66540  1.0000
  C   C3573     1.0  0.99863  0.82032  0.66905  1.0000
  Fe  Fe471     1.0  0.93540  0.68441  0.59284  1.0000
  S   S943      1.0  0.95439  0.67420  0.60616  1.0000
  C   C3574     1.0  0.75274  0.77718  0.72117  1.0000
  Fe  Fe472     1.0  0.93460  0.72318  0.59232  1.0000
  S   S944      1.0  0.95383  0.71530  0.60507  1.0000
  S   S945      1.0  0.92166  0.75241  0.58768  1.0000
  Fe  Fe473     1.0  0.96869  0.69504  0.59358  1.0000
  Fe  Fe474     1.0  0.93749  0.69544  0.61628  1.0000
  S   S946      1.0  0.93049  0.69473  0.63704  1.0000
  S   S947      1.0  0.95088  0.70433  0.57957  1.0000
  S   S948      1.0  0.91716  0.70419  0.60420  1.0000
  C   C3575     1.0  0.86060  0.87942  0.63312  1.0000
  S   S949      1.0  0.62371  0.98620  0.60998  1.0000
  C   C3576     1.0  0.97060  0.77851  0.56317  1.0000
  H   H4290     1.0  0.83355  0.68819  0.70672  1.0000
  S   S950      1.0  0.99863  0.68972  0.58747  1.0000
  Fe  Fe475     1.0  0.82369  0.76895  0.66518  1.0000
  S   S951      1.0  0.82715  0.76936  0.68414  1.0000
  S   S952      1.0  0.81164  0.79416  0.65312  1.0000
  Fe  Fe476     1.0  0.83967  0.72959  0.66805  1.0000
  S   S953      1.0  0.84464  0.72657  0.68729  1.0000
  S   S954      1.0  0.84691  0.70761  0.65774  1.0000
  Fe  Fe477     1.0  0.81716  0.74420  0.69073  1.0000
  S   S955      1.0  0.57778  0.94680  0.49119  1.0000
  Fe  Fe478     1.0  0.85414  0.75202  0.67866  1.0000
  S   S956      1.0  0.87987  0.75801  0.67919  1.0000
  S   S957      1.0  0.81155  0.74509  0.67207  1.0000
  S   S958      1.0  0.85134  0.75350  0.65915  1.0000
  Fe  Fe479     1.0  0.81502  0.94405  0.60794  1.0000
  S   S959      1.0  0.83320  0.92309  0.59763  1.0000
  Fe  Fe480     1.0  0.80223  0.95001  0.63459  1.0000
  S   S960      1.0  0.80855  0.93768  0.65366  1.0000
  S   S961      1.0  0.79544  0.93310  0.62466  1.0000
  Fe  Fe481     1.0  0.94786  0.84244  0.62872  1.0000
  S   S962      1.0  0.95237  0.85192  0.60774  1.0000
  Fe  Fe482     1.0  0.91084  0.83657  0.63046  1.0000
  S   S963      1.0  0.91286  0.84492  0.60952  1.0000
  S   S964      1.0  0.88402  0.83140  0.64134  1.0000
  Fe  Fe483     1.0  0.94106  0.82891  0.60820  1.0000
  S   S965      1.0  0.95725  0.80857  0.59667  1.0000
  Fe  Fe484     1.0  0.92368  0.86693  0.61133  1.0000
  S   S966      1.0  0.91376  0.89603  0.60384  1.0000
  S   S967      1.0  0.93799  0.81860  0.62908  1.0000
  S   S968      1.0  0.92016  0.85936  0.63241  1.0000
  Fe  Fe485     1.0  0.70018  0.87703  0.69171  1.0000
  S   S969      1.0  0.70040  0.86508  0.67578  1.0000
  Fe  Fe486     1.0  0.73951  0.87870  0.68274  1.0000
  S   S970      1.0  0.74338  0.86658  0.66632  1.0000
  S   S971      1.0  0.76300  0.88218  0.68846  1.0000
  Fe  Fe487     1.0  0.71692  0.88474  0.66378  1.0000
  S   S972      1.0  0.71665  0.89868  0.64360  1.0000
  Fe  Fe488     1.0  0.72660  0.84811  0.67962  1.0000
  S   S973      1.0  0.73321  0.81855  0.68319  1.0000
  S   S974      1.0  0.71431  0.89852  0.67934  1.0000
  S   S975      1.0  0.72525  0.85843  0.69635  1.0000
  H   H4291     1.0  0.53900  0.95596  0.49788  1.0000
  H   H4292     1.0  0.79539  0.79975  0.69120  1.0000
  C   C3577     1.0  0.71008  0.96117  0.60108  1.0000
  H   H4293     1.0  0.79035  0.67327  0.69284  1.0000
  C   C3578     1.0  0.78976  0.80670  0.69920  1.0000
  H   H4294     1.0  0.78975  0.82979  0.71294  1.0000
  H   H4295     1.0  0.57008  0.91084  0.50890  1.0000
  H   H4296     1.0  0.70648  0.87132  0.71806  1.0000
  H   H4297     1.0  0.84483  0.66690  0.70288  1.0000
  C   C3579     1.0  0.79486  0.92315  0.66332  1.0000
  C   C3580     1.0  0.79981  0.91234  0.67439  1.0000
  C   C3581     1.0  0.78983  0.89991  0.68199  1.0000
  C   C3582     1.0  0.77476  0.89825  0.67865  1.0000
  C   C3583     1.0  0.76966  0.90908  0.66759  1.0000
  C   C3584     1.0  0.77971  0.92160  0.65992  1.0000
  H   H4298     1.0  0.81143  0.91355  0.67708  1.0000
  H   H4299     1.0  0.79376  0.89163  0.69056  1.0000
  H   H4300     1.0  0.75796  0.90788  0.66499  1.0000
  H   H4301     1.0  0.77569  0.93008  0.65145  1.0000
  C   C3585     1.0  0.85524  0.91522  0.60012  1.0000
  C   C3586     1.0  0.86501  0.89874  0.59757  1.0000
  C   C3587     1.0  0.88276  0.89240  0.59918  1.0000
  C   C3588     1.0  0.89101  0.90279  0.60298  1.0000
  C   C3589     1.0  0.88120  0.91923  0.60561  1.0000
  C   C3590     1.0  0.86328  0.92529  0.60440  1.0000
  H   H4302     1.0  0.85896  0.89093  0.59416  1.0000
  H   H4303     1.0  0.89030  0.87982  0.59697  1.0000
  H   H4304     1.0  0.88753  0.92729  0.60857  1.0000
  H   H4305     1.0  0.85585  0.93794  0.60646  1.0000
  C   C3591     1.0  0.78944  0.80056  0.66100  1.0000
  C   C3592     1.0  0.78284  0.79030  0.67270  1.0000
  C   C3593     1.0  0.76527  0.79553  0.67923  1.0000
  C   C3594     1.0  0.75436  0.81125  0.67421  1.0000
  C   C3595     1.0  0.76085  0.82151  0.66246  1.0000
  C   C3596     1.0  0.77839  0.81610  0.65582  1.0000
  H   H4306     1.0  0.79127  0.77836  0.67682  1.0000
  H   H4307     1.0  0.76028  0.78756  0.68829  1.0000
  H   H4308     1.0  0.75226  0.83343  0.65841  1.0000
  H   H4309     1.0  0.78337  0.82394  0.64670  1.0000
  H   H4310     1.0  0.98982  0.85068  0.59254  1.0000
  H   H4311     1.0  0.98925  0.89020  0.67610  1.0000
  C   C3597     1.0  0.84579  0.89125  0.65164  1.0000
  C   C3598     1.0  0.96705  0.74883  0.56575  1.0000
  C   C3599     1.0  0.52550  0.92412  0.54709  1.0000
  H   H4312     1.0  0.64805  0.96113  0.54974  1.0000
  H   H4313     1.0  0.53980  0.92097  0.54767  1.0000
  H   H4314     1.0  0.50523  0.91094  0.52287  1.0000
  C   C3600     1.0  0.88151  0.77846  0.66881  1.0000
  C   C3601     1.0  0.86682  0.78856  0.66368  1.0000
  C   C3602     1.0  0.86780  0.80485  0.65538  1.0000
  C   C3603     1.0  0.88362  0.81100  0.65188  1.0000
  C   C3604     1.0  0.89848  0.80099  0.65690  1.0000
  C   C3605     1.0  0.89736  0.78472  0.66548  1.0000
  H   H4315     1.0  0.85449  0.78405  0.66624  1.0000
  H   H4316     1.0  0.85624  0.81264  0.65163  1.0000
  H   H4317     1.0  0.91065  0.80591  0.65438  1.0000
  H   H4318     1.0  0.90870  0.77703  0.66956  1.0000
  C   C3606     1.0  0.66340  0.92761  0.63256  1.0000
  C   C3607     1.0  0.67948  0.92778  0.62359  1.0000
  C   C3608     1.0  0.69568  0.91813  0.62697  1.0000
  C   C3609     1.0  0.69592  0.90868  0.63940  1.0000
  C   C3610     1.0  0.67979  0.90808  0.64831  1.0000
  C   C3611     1.0  0.66351  0.91745  0.64484  1.0000
  H   H4319     1.0  0.67940  0.93536  0.61406  1.0000
  H   H4320     1.0  0.70807  0.91829  0.61998  1.0000
  H   H4321     1.0  0.67988  0.90064  0.65788  1.0000
  H   H4322     1.0  0.65103  0.91721  0.65176  1.0000
  C   C3612     1.0  0.82563  0.85236  0.67869  1.0000
  C   C3613     1.0  0.50573  0.95882  0.52091  1.0000
  H   H4323     1.0  0.83312  0.89800  0.65720  1.0000
  C   C3614     1.0  0.83738  0.68042  0.69923  1.0000
  C   C3615     1.0  0.90741  0.69723  0.64319  1.0000
  C   C3616     1.0  0.89946  0.70619  0.65305  1.0000
  C   C3617     1.0  0.88087  0.70923  0.65759  1.0000
  C   C3618     1.0  0.87023  0.70298  0.65247  1.0000
  C   C3619     1.0  0.87821  0.69361  0.64282  1.0000
  C   C3620     1.0  0.89681  0.69088  0.63809  1.0000
  H   H4324     1.0  0.90764  0.71099  0.65708  1.0000
  H   H4325     1.0  0.87484  0.71633  0.66513  1.0000
  H   H4326     1.0  0.87002  0.68870  0.63887  1.0000
  H   H4327     1.0  0.90298  0.68370  0.63059  1.0000
  C   C3621     1.0  0.93128  0.76783  0.59079  1.0000
  C   C3622     1.0  0.92187  0.78548  0.59020  1.0000
  C   C3623     1.0  0.92930  0.79799  0.59257  1.0000
  C   C3624     1.0  0.94644  0.79301  0.59517  1.0000
  C   C3625     1.0  0.95581  0.77546  0.59573  1.0000
  C   C3626     1.0  0.94823  0.76289  0.59370  1.0000
  H   H4328     1.0  0.90884  0.78955  0.58779  1.0000
  H   H4329     1.0  0.92206  0.81162  0.59190  1.0000
  H   H4330     1.0  0.96911  0.77167  0.59759  1.0000
  H   H4331     1.0  0.95592  0.74960  0.59381  1.0000
  C   C3627     1.0  0.59906  0.96404  0.55492  1.0000
  C   C3628     1.0  0.59354  0.98249  0.55234  1.0000
  H   H4332     1.0  0.80703  0.89434  0.65164  1.0000
  C   C3629     1.0  0.83683  0.97217  0.57844  1.0000
  C   C3630     1.0  0.61379  0.96573  0.57090  1.0000
  C   C3631     1.0  0.60918  0.95572  0.56423  1.0000
  C   C3632     1.0  0.81199  0.88091  0.65040  1.0000
  H   H4333     1.0  0.62154  0.95917  0.57806  1.0000
  H   H4334     1.0  0.61352  0.94146  0.56627  1.0000
  H   H4335     1.0  0.52389  0.88207  0.54772  1.0000
  H   H4336     1.0  0.98293  0.84444  0.66112  1.0000
  H   H4337     1.0  0.98642  0.87248  0.65028  1.0000
  H   H4338     1.0  0.95934  0.73999  0.56510  1.0000
  C   C3633     1.0  0.68046  0.78937  0.73024  1.0000
  C   C3634     1.0  0.54293  0.95249  0.48876  1.0000
  C   C3635     1.0  0.99503  0.83835  0.58883  1.0000
  C   C3636     1.0  0.99364  0.87552  0.67786  1.0000
  H   H4339     1.0  0.92289  0.68504  0.56458  1.0000
  H   H4340     1.0  0.63458  0.94990  0.53756  1.0000
  C   C3637     1.0  0.69546  0.95484  0.64044  1.0000
  C   C3638     1.0  0.99888  0.82112  0.60952  1.0000
  N   N241      1.0  0.68582  0.95944  0.65278  1.0000
  H   H4341     1.0  0.66488  0.98949  0.56167  1.0000
  H   H4342     1.0  0.85695  0.94811  0.57901  1.0000
  H   H4343     1.0  0.52296  0.93716  0.54048  1.0000
  H   H4344     1.0  0.71643  0.94484  0.61850  1.0000
  C   C3639     1.0  0.52789  0.91080  0.50776  1.0000
  H   H4345     1.0  0.51992  0.95788  0.51718  1.0000
  C   C3640     1.0  0.86399  0.96735  0.58587  1.0000
  H   H4346     1.0  0.77610  0.80402  0.70336  1.0000
  C   C3641     1.0  0.74201  0.97210  0.59754  1.0000
  H   H4347     1.0  0.96562  0.79269  0.56057  1.0000
  C   C3642     1.0  0.98332  0.87649  0.65949  1.0000
  N   N242      1.0  0.52064  0.91035  0.54291  1.0000
  C   C3643     1.0  0.92266  0.66797  0.55274  1.0000
  S   S976      1.0  0.64328  0.94088  0.62872  1.0000
  H   H4348     1.0  0.99289  0.74821  0.59659  1.0000
  H   H4349     1.0  0.83873  0.67640  0.67687  1.0000
  C   C3644     1.0  0.81249  0.69830  0.69025  1.0000
  C   C3645     1.0  0.64853  0.98714  0.53681  1.0000
  H   H4350     1.0  0.76109  0.77580  0.71194  1.0000
  S   S977      1.0  0.82336  0.95960  0.61828  1.0000
  C   C3646     1.0  0.98620  0.85088  0.63258  1.0000
  H   H4351     1.0  0.83139  0.90105  0.62431  1.0000
  H   H4352     1.0  0.82161  0.66581  0.72093  1.0000
  C   C3647     1.0  0.66942  0.97326  0.65113  1.0000
  C   C3648     1.0  0.78099  0.83423  0.70596  1.0000
  H   H4353     1.0  0.99257  0.65935  0.58051  1.0000
  H   H4354     1.0  0.77846  0.84893  0.70331  1.0000
  H   H4355     1.0  0.98402  0.77553  0.61866  1.0000
  Fe  Fe489     1.0  0.63360  0.98720  0.58919  1.0000
  S   S978      1.0  0.50961  0.97477  0.53830  1.0000
  H   H4356     1.0  0.81745  0.67146  0.67935  1.0000
  H   H4357     1.0  0.85195  0.81107  0.68102  1.0000
  C   C3649     1.0  0.67980  0.86696  0.72193  1.0000
  C   C3650     1.0  0.63756  0.96299  0.53401  1.0000
  H   H4358     1.0  0.66923  0.97065  0.55498  1.0000
  C   C3651     1.0  0.97965  0.73362  0.63333  1.0000
  H   H4359     1.0  0.98022  0.89123  0.65726  1.0000
  C   C3652     1.0  0.52910  0.91050  0.52941  1.0000
  C   C3653     1.0  0.54773  0.91004  0.52494  1.0000
  C   C3654     1.0  0.65937  0.98318  0.55633  1.0000
  C   C3655     1.0  0.55598  0.91044  0.51222  1.0000
  S   S979      1.0  0.79379  0.74132  0.70719  1.0000
  C   C3656     1.0  0.54608  0.91081  0.50366  1.0000
  H   H4360     1.0  0.52110  0.89201  0.56087  1.0000
  C   C3657     1.0  0.81476  0.71426  0.72110  1.0000
  C   C3658     1.0  0.60819  0.98417  0.56834  1.0000
  H   H4361     1.0  0.71080  0.95414  0.65871  1.0000
  H   H4362     1.0  0.65532  0.81675  0.71814  1.0000
  H   H4363     1.0  0.85925  0.87530  0.62481  1.0000
  N   N243      1.0  0.82147  0.67981  0.69496  1.0000
  H   H4364     1.0  0.67192  0.93791  0.65850  1.0000
  C   C3659     1.0  0.84105  0.83905  0.67732  1.0000
  H   H4365     1.0  0.66472  0.82524  0.72762  1.0000
  H   H4366     1.0  0.51764  0.92597  0.55665  1.0000
  H   H4367     1.0  0.52018  0.91147  0.50098  1.0000
  H   H4368     1.0  0.69288  0.93245  0.66298  1.0000
  C   C3660     1.0  0.79302  0.66839  0.70222  1.0000
  H   H4369     1.0  0.51581  0.95664  0.48669  1.0000
  C   C3661     1.0  0.98600  0.77186  0.56819  1.0000
  S   S980      1.0  0.54639  0.98476  0.50738  1.0000
  H   H4370     1.0  0.76399  0.83023  0.68960  1.0000
  H   H4371     1.0  0.99232  0.78155  0.56919  1.0000
  H   H4372     1.0  0.72481  0.76159  0.71433  1.0000
  C   C3662     1.0  0.99391  0.83881  0.66595  1.0000
  C   C3663     1.0  0.80850  0.67077  0.70502  1.0000
  S   S981      1.0  0.78013  0.97318  0.62998  1.0000
  H   H4373     1.0  0.62629  0.96816  0.51773  1.0000
  C   C3664     1.0  0.64527  0.96972  0.54097  1.0000
  C   C3665     1.0  0.80896  0.84802  0.68441  1.0000
  C   C3666     1.0  0.63281  0.97331  0.52282  1.0000
  N   N244      1.0  0.78929  0.82598  0.69485  1.0000
  H   H4374     1.0  0.87603  0.95810  0.58802  1.0000
  H   H4375     1.0  0.69910  0.96667  0.63331  1.0000
  C   C3667     1.0  0.97757  0.76455  0.62362  1.0000
  S   S982      1.0  0.66564  0.98081  0.61179  1.0000
  C   C3668     1.0  0.98166  0.86847  0.62616  1.0000
  C   C3669     1.0  0.99427  0.87929  0.62247  1.0000
  H   H4376     1.0  0.96826  0.87391  0.62448  1.0000
  C   C3670     1.0  0.51945  0.91055  0.52045  1.0000
  H   H4377     1.0  0.78342  0.82723  0.67709  1.0000
  C   C3671     1.0  0.69675  0.86410  0.72445  1.0000
  C   C3672     1.0  0.88953  0.98617  0.58812  1.0000
  H   H4378     1.0  0.99053  0.89306  0.61792  1.0000
  H   H4379     1.0  0.85399  0.84235  0.67274  1.0000
  C   C3673     1.0  0.69862  0.96487  0.65768  1.0000
  H   H4380     1.0  0.89545  0.97174  0.58957  1.0000
  C   C3674     1.0  0.85307  0.96140  0.58079  1.0000
  C   C3675     1.0  0.79751  0.72234  0.71910  1.0000
  C   C3676     1.0  0.83987  0.82139  0.68191  1.0000
  S   S983      1.0  0.79383  0.96661  0.60061  1.0000
  C   C3677     1.0  0.73618  0.96029  0.60867  1.0000
  H   H4381     1.0  0.99515  0.69248  0.63090  1.0000
  H   H4382     1.0  0.88752  0.65981  0.58973  1.0000
  C   C3678     1.0  0.77760  0.83313  0.68556  1.0000
  H   H4383     1.0  0.82819  0.96729  0.57484  1.0000
  H   H4384     1.0  0.55247  0.91146  0.49375  1.0000
  S   S984      1.0  0.55457  0.98751  0.53389  1.0000
  C   C3679     1.0  0.96117  0.76702  0.56194  1.0000
  H   H4385     1.0  0.98592  0.72782  0.57413  1.0000
  H   H4386     1.0  0.69796  0.95662  0.60242  1.0000
  H   H4387     1.0  0.82338  0.91167  0.63759  1.0000
  C   C3680     1.0  0.92473  0.67152  0.56379  1.0000
  C   C3681     1.0  0.71521  0.97371  0.59029  1.0000
  H   H4388     1.0  0.84494  0.91252  0.62827  1.0000
  H   H4389     1.0  0.67374  0.94615  0.67122  1.0000
  C   C3682     1.0  0.72054  0.95448  0.61018  1.0000
  H   H4390     1.0  0.94894  0.77222  0.55840  1.0000
  S   S985      1.0  0.70059  0.98361  0.57986  1.0000
  H   H4391     1.0  0.76412  0.75107  0.72979  1.0000
  H   H4392     1.0  0.97814  0.67047  0.51767  1.0000
  H   H4393     1.0  0.55610  0.90956  0.53121  1.0000
  H   H4394     1.0  0.54198  0.88977  0.54958  1.0000
  H   H4395     1.0  0.99136  0.81259  0.66655  1.0000
  H   H4396     1.0  0.86945  0.88916  0.62937  1.0000
  H   H4397     1.0  0.82342  0.80298  0.69097  1.0000
  H   H4398     1.0  0.91923  0.67884  0.54507  1.0000
  H   H4399     1.0  0.68314  0.98675  0.53402  1.0000
  C   C3683     1.0  0.83526  0.90367  0.63231  1.0000
  H   H4400     1.0  0.80103  0.69910  0.68611  1.0000
  S   S986      1.0  0.65601  0.96308  0.59144  1.0000
  S   S987      1.0  0.74726  0.95299  0.62130  1.0000
  H   H4401     1.0  0.98410  0.68669  0.61423  1.0000
  N   N245      1.0  0.93018  0.75580  0.63681  1.0000
  C   C3684     1.0  0.92068  0.77466  0.63422  1.0000
  C   C3685     1.0  0.92433  0.74632  0.62961  1.0000
  C   C3686     1.0  0.92436  0.74850  0.65054  1.0000
  C   C3687     1.0  0.94996  0.75330  0.63326  1.0000
  H   H4402     1.0  0.68733  0.94935  0.63647  1.0000
  C   C3688     1.0  0.95885  0.76740  0.62666  1.0000
  H   H4403     1.0  0.87298  0.96590  0.60878  1.0000
  C   C3689     1.0  0.81060  0.66426  0.71773  1.0000
  H   H4404     1.0  0.84705  0.68693  0.69136  1.0000
  H   H4405     1.0  0.92323  0.78071  0.62392  1.0000
  H   H4406     1.0  0.90587  0.77623  0.63754  1.0000
  H   H4407     1.0  0.92481  0.78255  0.63923  1.0000
  H   H4408     1.0  0.92851  0.75130  0.61923  1.0000
  H   H4409     1.0  0.90954  0.74787  0.63207  1.0000
  H   H4410     1.0  0.93016  0.73185  0.63161  1.0000
  H   H4411     1.0  0.90947  0.75130  0.65375  1.0000
  H   H4412     1.0  0.92877  0.73386  0.65311  1.0000
  H   H4413     1.0  0.92969  0.75428  0.65631  1.0000
  H   H4414     1.0  0.95525  0.72472  0.64085  1.0000
  H   H4415     1.0  0.95170  0.78077  0.62365  1.0000
  H   H4416     1.0  0.79780  0.80043  0.70658  1.0000
  H   H4417     1.0  0.87249  0.81185  0.62641  1.0000
  H   H4418     1.0  0.76771  0.83093  0.71084  1.0000
  N   N246      1.0  0.76534  0.89944  0.61866  1.0000
  C   C3690     1.0  0.75170  0.89081  0.61748  1.0000
  C   C3691     1.0  0.75947  0.90505  0.63090  1.0000
  C   C3692     1.0  0.76568  0.91554  0.60831  1.0000
  C   C3693     1.0  0.78306  0.88711  0.61828  1.0000
  C   C3694     1.0  0.79933  0.89264  0.61178  1.0000
  C   C3695     1.0  0.78458  0.86922  0.62503  1.0000
  C   C3696     1.0  0.81590  0.88072  0.61147  1.0000
  C   C3697     1.0  0.80119  0.85734  0.62447  1.0000
  C   C3698     1.0  0.81682  0.86308  0.61768  1.0000
  H   H4419     1.0  0.74792  0.88058  0.62601  1.0000
  H   H4420     1.0  0.73878  0.90041  0.61656  1.0000
  H   H4421     1.0  0.75641  0.88467  0.60908  1.0000
  H   H4422     1.0  0.75745  0.89372  0.63903  1.0000
  H   H4423     1.0  0.74653  0.91499  0.63141  1.0000
  H   H4424     1.0  0.76940  0.91126  0.63239  1.0000
  H   H4425     1.0  0.77150  0.91206  0.59890  1.0000
  H   H4426     1.0  0.75199  0.92385  0.60803  1.0000
  H   H4427     1.0  0.77326  0.92444  0.60961  1.0000
  H   H4428     1.0  0.79968  0.90613  0.60681  1.0000
  H   H4429     1.0  0.77297  0.86424  0.63082  1.0000
  H   H4430     1.0  0.82807  0.88527  0.60630  1.0000
  H   H4431     1.0  0.80200  0.84364  0.62946  1.0000
  H   H4432     1.0  0.82969  0.85388  0.61735  1.0000
  H   H4433     1.0  0.98777  0.72058  0.63605  1.0000
  C   C3699     1.0  0.98235  0.74202  0.57085  1.0000
  Fe  Fe490     1.0  0.77505  0.95703  0.61847  1.0000
  C   C3700     1.0  0.98795  0.74771  0.62703  1.0000
  S   S988      1.0  0.67536  0.87959  0.70728  1.0000
  C   C3701     1.0  0.52718  0.89279  0.55062  1.0000
  C   C3702     1.0  0.80719  0.83016  0.68899  1.0000
  N   N247      1.0  0.84284  0.88695  0.64048  1.0000
  C   C3703     1.0  0.86839  0.98047  0.60796  1.0000
  H   H4434     1.0  0.77555  0.84773  0.68232  1.0000
  H   H4435     1.0  0.82648  0.86613  0.67526  1.0000
  N   N248      1.0  0.68369  0.81587  0.71178  1.0000
  C   C3704     1.0  0.69613  0.82660  0.71183  1.0000
  C   C3705     1.0  0.68347  0.81677  0.69846  1.0000
  C   C3706     1.0  0.66538  0.82424  0.71784  1.0000
  C   C3707     1.0  0.68988  0.79734  0.71826  1.0000
  C   C3708     1.0  0.70620  0.78685  0.71281  1.0000
  H   H4436     1.0  0.69252  0.96796  0.66719  1.0000
  C   C3709     1.0  0.71237  0.76934  0.71875  1.0000
  C   C3710     1.0  0.92804  0.65763  0.57405  1.0000
  H   H4437     1.0  0.98255  0.86976  0.68469  1.0000
  H   H4438     1.0  0.69205  0.84066  0.70697  1.0000
  H   H4439     1.0  0.69658  0.82647  0.72165  1.0000
  H   H4440     1.0  0.71002  0.82168  0.70689  1.0000
  H   H4441     1.0  0.69709  0.81308  0.69261  1.0000
  H   H4442     1.0  0.67789  0.83046  0.69361  1.0000
  H   H4443     1.0  0.67528  0.80785  0.69794  1.0000
  H   H4444     1.0  0.76963  0.72120  0.72492  1.0000
  Fe  Fe491     1.0  0.80047  0.98130  0.61257  1.0000
  C   C3711     1.0  0.78062  0.65979  0.71150  1.0000
  H   H4445     1.0  0.71444  0.79216  0.70394  1.0000
  H   H4446     1.0  0.75417  0.97657  0.59624  1.0000
  Fe  Fe492     1.0  0.64736  0.96364  0.61220  1.0000
  S   S989      1.0  0.92779  0.66141  0.58886  1.0000
  H   H4447     1.0  0.73555  0.98853  0.57995  1.0000
  C   C3712     1.0  0.83021  0.87483  0.64479  1.0000
  C   C3713     1.0  0.83561  0.85668  0.64409  1.0000
  C   C3714     1.0  0.82339  0.84553  0.64854  1.0000
  C   C3715     1.0  0.79985  0.86973  0.65471  1.0000
  C   C3716     1.0  0.80554  0.85208  0.65374  1.0000
  H   H4448     1.0  0.86810  0.86789  0.63903  1.0000
  H   H4449     1.0  0.85155  0.87909  0.65806  1.0000
  H   H4450     1.0  0.84921  0.85075  0.64018  1.0000
  H   H4451     1.0  0.82775  0.83170  0.64795  1.0000
  H   H4452     1.0  0.78599  0.87477  0.65895  1.0000
  H   H4453     1.0  0.79614  0.84343  0.65699  1.0000
  N   N249      1.0  0.86933  0.74934  0.61870  1.0000
  C   C3717     1.0  0.87020  0.75113  0.60509  1.0000
  C   C3718     1.0  0.88493  0.73563  0.62231  1.0000
  C   C3719     1.0  0.85294  0.74272  0.62603  1.0000
  C   C3720     1.0  0.86983  0.76653  0.62092  1.0000
  C   C3721     1.0  0.88504  0.77413  0.61508  1.0000
  C   C3722     1.0  0.85539  0.77635  0.62860  1.0000
  C   C3723     1.0  0.88588  0.79033  0.61700  1.0000
  C   C3724     1.0  0.85649  0.79243  0.63058  1.0000
  C   C3725     1.0  0.87170  0.79939  0.62483  1.0000
  H   H4454     1.0  0.88295  0.75454  0.59901  1.0000
  H   H4455     1.0  0.86947  0.73856  0.60307  1.0000
  H   H4456     1.0  0.85902  0.76171  0.60187  1.0000
  H   H4457     1.0  0.89794  0.73839  0.61631  1.0000
  H   H4458     1.0  0.88452  0.72240  0.62123  1.0000
  H   H4459     1.0  0.88517  0.73430  0.63237  1.0000
  H   H4460     1.0  0.84060  0.75183  0.62334  1.0000
  H   H4461     1.0  0.85319  0.72955  0.62445  1.0000
  H   H4462     1.0  0.85165  0.74081  0.63639  1.0000
  H   H4463     1.0  0.89633  0.76762  0.60888  1.0000
  H   H4464     1.0  0.84310  0.77190  0.63333  1.0000
  H   H4465     1.0  0.89755  0.79598  0.61239  1.0000
  H   H4466     1.0  0.84546  0.79950  0.63669  1.0000
  C   C3726     1.0  0.65611  0.97006  0.64629  1.0000
  C   C3727     1.0  0.88229  0.65852  0.57227  1.0000
  H   H4467     1.0  0.70343  0.97657  0.65110  1.0000
  H   H4468     1.0  0.85410  0.98293  0.61306  1.0000
  Fe  Fe493     1.0  0.67256  0.98212  0.59089  1.0000
  C   C3728     1.0  0.85909  0.98453  0.58853  1.0000
  C   C3729     1.0  0.96098  0.73623  0.63623  1.0000
  C   C3730     1.0  0.82325  0.81692  0.68765  1.0000
  H   H4469     1.0  0.87616  0.98459  0.61311  1.0000
  H   H4470     1.0  0.73918  0.80392  0.71464  1.0000
  H   H4471     1.0  0.82185  0.70551  0.68267  1.0000
  C   C3731     1.0  0.68089  0.94333  0.66176  1.0000
  C   C3732     1.0  0.64074  0.98299  0.64430  1.0000
  C   C3733     1.0  0.99245  0.75333  0.57211  1.0000
  H   H4472     1.0  0.95307  0.67195  0.50808  1.0000
  H   H4473     1.0  0.70805  0.94459  0.64121  1.0000
  C   C3734     1.0  0.73147  0.97885  0.58832  1.0000
  H   H4474     1.0  0.65757  0.95759  0.64381  1.0000
  C   C3735     1.0  0.78289  0.71530  0.72674  1.0000
  H   H4475     1.0  0.58601  0.98902  0.54507  1.0000
  H   H4476     1.0  0.65365  0.86078  0.72885  1.0000
  H   H4477     1.0  0.98310  0.83320  0.58937  1.0000
  C   C3736     1.0  0.66685  0.85844  0.73072  1.0000
  C   C3737     1.0  0.72963  0.79448  0.73457  1.0000
  H   H4478     1.0  0.50283  0.94456  0.50820  1.0000
  H   H4479     1.0  0.64672  0.97985  0.56259  1.0000
  C   C3738     1.0  0.96631  0.66442  0.50470  1.0000
  N   N250      1.0  0.99857  0.86899  0.66598  1.0000
  H   H4480     1.0  0.99514  0.72736  0.59292  1.0000
  H   H4481     1.0  0.63103  0.98028  0.64031  1.0000
  H   H4482     1.0  0.88152  0.67254  0.56833  1.0000
  C   C3739     1.0  0.81733  0.69921  0.73084  1.0000
  C   C3740     1.0  0.99710  0.68995  0.61199  1.0000
  C   C3741     1.0  0.83154  0.98904  0.58103  1.0000
  C   C3742     1.0  0.66618  0.99014  0.65407  1.0000
  C   C3743     1.0  0.98039  0.66359  0.51015  1.0000
  H   H4483     1.0  0.99350  0.83321  0.61347  1.0000
  H   H4484     1.0  0.97048  0.66444  0.56891  1.0000
  C   C3744     1.0  0.70267  0.76186  0.73036  1.0000
  H   H4485     1.0  0.83067  0.69300  0.73245  1.0000
  H   H4486     1.0  0.99972  0.80369  0.59237  1.0000
  C   C3745     1.0  0.75435  0.76297  0.73151  1.0000
  H   H4487     1.0  0.76887  0.65816  0.70918  1.0000
  Fe  Fe494     1.0  0.54884  0.92446  0.93003  1.0000
  S   S990      1.0  0.54377  0.94985  0.91574  1.0000
  S   S991      1.0  0.55326  0.89666  0.92677  1.0000
  Fe  Fe495     1.0  0.54127  0.94405  0.95162  1.0000
  S   S992      1.0  0.53520  0.97081  0.93910  1.0000
  H   H4488     1.0  0.65252  0.73565  0.77582  1.0000
  Fe  Fe496     1.0  0.52046  0.95843  0.93079  1.0000
  S   S993      1.0  0.52423  0.83790  0.88437  1.0000
  Fe  Fe497     1.0  0.55919  0.95998  0.92534  1.0000
  H   H4489     1.0  0.53557  0.82013  0.82831  1.0000
  S   S994      1.0  0.52425  0.93257  0.94447  1.0000
  S   S995      1.0  0.56654  0.93369  0.93848  1.0000
  Fe  Fe498     1.0  0.53913  0.85867  0.87190  1.0000
  S   S996      1.0  0.52281  0.86567  0.85699  1.0000
  S   S997      1.0  0.54132  0.88362  0.87668  1.0000
  Fe  Fe499     1.0  0.54463  0.81912  0.87320  1.0000
  H   H4490     1.0  0.70743  0.74825  0.73490  1.0000
  S   S998      1.0  0.55523  0.79098  0.88250  1.0000
  Fe  Fe500     1.0  0.54369  0.84495  0.84817  1.0000
  S   S999      1.0  0.55257  0.84716  0.82710  1.0000
  S   S1000     1.0  0.56116  0.83926  0.86210  1.0000
  H   H4491     1.0  0.73721  0.76338  0.76939  1.0000
  Fe  Fe501     1.0  0.74008  0.68031  0.76785  1.0000
  H   H4492     1.0  0.61699  0.66701  0.80988  1.0000
  S   S1001     1.0  0.76163  0.68625  0.77445  1.0000
  H   H4493     1.0  0.66153  0.83904  0.74804  1.0000
  S   S1002     1.0  0.53675  0.70816  0.83878  1.0000
  Fe  Fe502     1.0  0.55179  0.75246  0.82189  1.0000
  S   S1003     1.0  0.56779  0.73084  0.83406  1.0000
  S   S1004     1.0  0.56082  0.77813  0.81547  1.0000
  Fe  Fe503     1.0  0.56205  0.71275  0.82439  1.0000
  Fe  Fe504     1.0  0.54134  0.72866  0.84715  1.0000
  H   H4494     1.0  0.67614  0.88608  0.77794  1.0000
  S   S1005     1.0  0.54779  0.73485  0.81103  1.0000
  H   H4495     1.0  0.77408  0.69500  0.74239  1.0000
  Fe  Fe505     1.0  0.64732  0.81255  0.79459  1.0000
  S   S1006     1.0  0.64467  0.82294  0.77439  1.0000
  S   S1007     1.0  0.63663  0.82810  0.80985  1.0000
  Fe  Fe506     1.0  0.67224  0.77795  0.78961  1.0000
  S   S1008     1.0  0.67250  0.78552  0.76887  1.0000
  S   S1009     1.0  0.68678  0.75197  0.79932  1.0000
  Fe  Fe507     1.0  0.67440  0.81229  0.76990  1.0000
  Fe  Fe508     1.0  0.64297  0.79509  0.77532  1.0000
  S   S1010     1.0  0.62453  0.78546  0.76811  1.0000
  S   S1011     1.0  0.67718  0.80376  0.79006  1.0000
  S   S1012     1.0  0.64261  0.78578  0.79607  1.0000
  C   C3746     1.0  0.57755  0.78046  0.80169  1.0000
  C   C3747     1.0  0.58661  0.79413  0.79909  1.0000
  C   C3748     1.0  0.60072  0.79587  0.78856  1.0000
  C   C3749     1.0  0.60550  0.78429  0.78036  1.0000
  C   C3750     1.0  0.59585  0.77113  0.78256  1.0000
  C   C3751     1.0  0.58204  0.76900  0.79339  1.0000
  H   H4496     1.0  0.58296  0.80321  0.80536  1.0000
  H   H4497     1.0  0.60796  0.80621  0.78675  1.0000
  H   H4498     1.0  0.59929  0.76236  0.77609  1.0000
  H   H4499     1.0  0.57484  0.75860  0.79527  1.0000
  C   C3752     1.0  0.70723  0.71374  0.77287  1.0000
  C   C3753     1.0  0.71432  0.71047  0.78357  1.0000
  C   C3754     1.0  0.70779  0.72213  0.79184  1.0000
  C   C3755     1.0  0.69395  0.73680  0.78952  1.0000
  C   C3756     1.0  0.68630  0.73954  0.77916  1.0000
  C   C3757     1.0  0.69314  0.72820  0.77070  1.0000
  H   H4500     1.0  0.72502  0.69915  0.78540  1.0000
  H   H4501     1.0  0.71373  0.72000  0.79986  1.0000
  H   H4502     1.0  0.67504  0.75032  0.77772  1.0000
  H   H4503     1.0  0.66316  0.84187  0.78792  1.0000
  H   H4504     1.0  0.74246  0.72171  0.75990  1.0000
  H   H4505     1.0  0.72220  0.78245  0.75385  1.0000
  H   H4506     1.0  0.70298  0.69497  0.82417  1.0000
  C   C3758     1.0  0.53501  0.89208  0.96503  1.0000
  N   N251      1.0  0.74568  0.74872  0.75452  1.0000
  H   H4507     1.0  0.54899  0.89131  0.96025  1.0000
  C   C3759     1.0  0.57589  0.84344  0.82168  1.0000
  C   C3760     1.0  0.58378  0.83718  0.81053  1.0000
  C   C3761     1.0  0.60249  0.83247  0.80677  1.0000
  C   C3762     1.0  0.61329  0.83454  0.81397  1.0000
  C   C3763     1.0  0.60541  0.84151  0.82481  1.0000
  C   C3764     1.0  0.58673  0.84586  0.82869  1.0000
  H   H4508     1.0  0.57544  0.83551  0.80497  1.0000
  H   H4509     1.0  0.60857  0.82728  0.79832  1.0000
  H   H4510     1.0  0.61376  0.84327  0.83033  1.0000
  H   H4511     1.0  0.58074  0.85121  0.83708  1.0000
  C   C3765     1.0  0.55089  0.77360  0.87782  1.0000
  C   C3766     1.0  0.54776  0.77554  0.86579  1.0000
  C   C3767     1.0  0.54433  0.76131  0.86245  1.0000
  C   C3768     1.0  0.54373  0.74520  0.87123  1.0000
  C   C3769     1.0  0.54695  0.74330  0.88319  1.0000
  C   C3770     1.0  0.55079  0.75734  0.88639  1.0000
  H   H4512     1.0  0.54825  0.78787  0.85899  1.0000
  C   C3771     1.0  0.63990  0.73066  0.80045  1.0000
  H   H4513     1.0  0.54662  0.73087  0.88998  1.0000
  H   H4514     1.0  0.55342  0.75564  0.89564  1.0000
  H   H4515     1.0  0.67296  0.69971  0.82329  1.0000
  H   H4516     1.0  0.77396  0.73824  0.74777  1.0000
  C   C3772     1.0  0.58947  0.67125  0.83839  1.0000
  C   C3773     1.0  0.55206  0.89304  0.91219  1.0000
  C   C3774     1.0  0.54808  0.90713  0.90220  1.0000
  C   C3775     1.0  0.54553  0.90389  0.89120  1.0000
  C   C3776     1.0  0.54685  0.88656  0.89008  1.0000
  C   C3777     1.0  0.55128  0.87240  0.89994  1.0000
  C   C3778     1.0  0.55399  0.87564  0.91091  1.0000
  H   H4517     1.0  0.54661  0.92056  0.90301  1.0000
  H   H4518     1.0  0.54209  0.91493  0.88363  1.0000
  H   H4519     1.0  0.55243  0.85900  0.89917  1.0000
  H   H4520     1.0  0.55728  0.86465  0.91854  1.0000
  C   C3779     1.0  0.59957  0.75370  0.84223  1.0000
  H   H4521     1.0  0.61413  0.71162  0.79083  1.0000
  H   H4522     1.0  0.62953  0.74565  0.77835  1.0000
  H   H4523     1.0  0.64679  0.86137  0.80233  1.0000
  Fe  Fe509     1.0  0.50967  0.84351  0.86877  1.0000
  H   H4524     1.0  0.76916  0.75467  0.75703  1.0000
  H   H4525     1.0  0.57752  0.67977  0.84259  1.0000
  H   H4526     1.0  0.72079  0.68310  0.81403  1.0000
  H   H4527     1.0  0.61514  0.80083  0.82922  1.0000
  H   H4528     1.0  0.53256  0.83138  0.79467  1.0000
  H   H4529     1.0  0.62913  0.67550  0.84437  1.0000
  C   C3780     1.0  0.73418  0.75226  0.76680  1.0000
  S   S1013     1.0  0.52894  0.82337  0.85858  1.0000
  C   C3781     1.0  0.59299  0.74430  0.86857  1.0000
  H   H4530     1.0  0.53166  0.80049  0.82627  1.0000
  H   H4531     1.0  0.50180  0.69912  0.83455  1.0000
  H   H4532     1.0  0.50573  0.75866  0.88591  1.0000
  H   H4533     1.0  0.68564  0.67875  0.77712  1.0000
  H   H4534     1.0  0.57161  0.94635  0.96342  1.0000
  H   H4535     1.0  0.62477  0.78224  0.84014  1.0000
  H   H4536     1.0  0.54352  0.81074  0.80299  1.0000
  S   S1014     1.0  0.71664  0.70048  0.76177  1.0000
  H   H4537     1.0  0.52589  0.79052  0.81105  1.0000
  H   H4538     1.0  0.59486  0.71802  0.86648  1.0000
  H   H4539     1.0  0.50492  0.71816  0.86710  1.0000
  H   H4540     1.0  0.59115  0.81228  0.84522  1.0000
  H   H4541     1.0  0.68759  0.73066  0.76245  1.0000
  C   C3782     1.0  0.78542  0.70038  0.73654  1.0000
  H   H4542     1.0  0.67401  0.85043  0.77211  1.0000
  H   H4543     1.0  0.60128  0.72615  0.84315  1.0000
  H   H4544     1.0  0.57782  0.79825  0.85678  1.0000
  C   C3783     1.0  0.52371  0.88686  0.95990  1.0000
  H   H4545     1.0  0.69960  0.69168  0.80973  1.0000
  N   N252      1.0  0.59636  0.78574  0.84217  1.0000
  C   C3784     1.0  0.70119  0.85187  0.73524  1.0000
  C   C3785     1.0  0.59640  0.76718  0.84902  1.0000
  H   H4546     1.0  0.50246  0.79586  0.89894  1.0000
  N   N253      1.0  0.51996  0.82452  0.81433  1.0000
  H   H4547     1.0  0.68149  0.85241  0.78520  1.0000
  S   S1015     1.0  0.73513  0.65799  0.78423  1.0000
  H   H4548     1.0  0.66361  0.87371  0.79844  1.0000
  C   C3786     1.0  0.53614  0.82435  0.80392  1.0000
  S   S1016     1.0  0.57920  0.97637  0.91344  1.0000
  C   C3787     1.0  0.61447  0.78697  0.83428  1.0000
  C   C3788     1.0  0.52547  0.81458  0.82635  1.0000
  H   H4549     1.0  0.62127  0.86760  0.79583  1.0000
  C   C3789     1.0  0.50106  0.79001  0.80770  1.0000
  H   H4550     1.0  0.65501  0.87040  0.75799  1.0000
  C   C3790     1.0  0.73107  0.78028  0.74498  1.0000
  H   H4551     1.0  0.58176  0.80589  0.82931  1.0000
  S   S1017     1.0  0.53825  0.72745  0.86782  1.0000
  H   H4552     1.0  0.56986  0.78925  0.83915  1.0000
  Fe  Fe510     1.0  0.78007  0.66716  0.76284  1.0000
  C   C3791     1.0  0.51244  0.84326  0.81543  1.0000
  C   C3792     1.0  0.62372  0.86853  0.78577  1.0000
  C   C3793     1.0  0.59922  0.73615  0.84849  1.0000
  H   H4553     1.0  0.63158  0.74440  0.79979  1.0000
  C   C3794     1.0  0.50729  0.81608  0.81175  1.0000
  H   H4554     1.0  0.64116  0.70206  0.83237  1.0000
  H   H4555     1.0  0.63397  0.69261  0.81197  1.0000
  C   C3795     1.0  0.65175  0.87275  0.79541  1.0000
  C   C3796     1.0  0.66862  0.68766  0.82855  1.0000
  C   C3797     1.0  0.50514  0.89549  0.91156  1.0000
  C   C3798     1.0  0.76458  0.74335  0.75596  1.0000
  H   H4556     1.0  0.60018  0.86777  0.76487  1.0000
  C   C3799     1.0  0.59341  0.76187  0.86242  1.0000
  C   C3800     1.0  0.66319  0.69890  0.78336  1.0000
  S   S1018     1.0  0.75875  0.66315  0.75499  1.0000
  H   H4557     1.0  0.54206  0.76282  0.85313  1.0000
  S   S1019     1.0  0.53467  0.94250  0.97259  1.0000
  C   C3801     1.0  0.57851  0.95269  0.97871  1.0000
  C   C3802     1.0  0.66528  0.88461  0.77405  1.0000
  H   H4558     1.0  0.70598  0.66903  0.84254  1.0000
  C   C3803     1.0  0.66936  0.85301  0.78182  1.0000
  H   H4559     1.0  0.59653  0.86673  0.78759  1.0000
  N   N254      1.0  0.70033  0.66863  0.82497  1.0000
  C   C3804     1.0  0.61705  0.72030  0.79588  1.0000
  H   H4560     1.0  0.72002  0.80675  0.73579  1.0000
  C   C3805     1.0  0.65022  0.68923  0.83369  1.0000
  H   H4561     1.0  0.66812  0.79631  0.73530  1.0000
  C   C3806     1.0  0.50559  0.88857  0.96565  1.0000
  H   H4562     1.0  0.67937  0.76608  0.74523  1.0000
  Fe  Fe511     1.0  0.75859  0.66191  0.78971  1.0000
  N   N255      1.0  0.65640  0.87013  0.78222  1.0000
  C   C3807     1.0  0.59626  0.67517  0.82535  1.0000
  H   H4563     1.0  0.52902  0.88192  0.95127  1.0000
  C   C3808     1.0  0.59570  0.73152  0.86164  1.0000
  H   H4564     1.0  0.58483  0.98026  0.95526  1.0000
  C   C3809     1.0  0.61174  0.66403  0.81998  1.0000
  S   S1020     1.0  0.69533  0.82610  0.75630  1.0000
  C   C3810     1.0  0.64237  0.87013  0.76468  1.0000
  H   H4565     1.0  0.64137  0.88507  0.79646  1.0000
  C   C3811     1.0  0.64341  0.67434  0.84053  1.0000
  H   H4566     1.0  0.66691  0.70815  0.77468  1.0000
  C   C3812     1.0  0.51253  0.87255  0.92934  1.0000
  C   C3813     1.0  0.51264  0.79826  0.81026  1.0000
  H   H4567     1.0  0.52239  0.84917  0.81727  1.0000
  S   S1021     1.0  0.58564  0.69367  0.81543  1.0000
  H   H4568     1.0  0.60792  0.73349  0.79396  1.0000
  H   H4569     1.0  0.52159  0.87999  0.93066  1.0000
  H   H4570     1.0  0.59010  0.74069  0.87882  1.0000
  H   H4571     1.0  0.65422  0.73167  0.79795  1.0000
  C   C3814     1.0  0.68080  0.67096  0.83030  1.0000
  C   C3815     1.0  0.67415  0.68190  0.78464  1.0000
  H   H4572     1.0  0.76637  0.73242  0.76439  1.0000
  H   H4573     1.0  0.69972  0.66254  0.80764  1.0000
  H   H4574     1.0  0.61277  0.71504  0.80617  1.0000
  C   C3816     1.0  0.64496  0.69011  0.80410  1.0000
  C   C3817     1.0  0.64802  0.70347  0.79300  1.0000
  S   S1022     1.0  0.80606  0.67334  0.75060  1.0000
  C   C3818     1.0  0.61135  0.86843  0.76837  1.0000
  H   H4575     1.0  0.63701  0.72598  0.77208  1.0000
  C   C3819     1.0  0.67038  0.66895  0.79547  1.0000
  C   C3820     1.0  0.56684  0.94905  0.97282  1.0000
  C   C3821     1.0  0.58332  0.79158  0.83382  1.0000
  H   H4576     1.0  0.52007  0.98754  0.91091  1.0000
  H   H4577     1.0  0.51420  0.79366  0.87621  1.0000
  H   H4578     1.0  0.51351  0.90372  0.91270  1.0000
  H   H4579     1.0  0.51458  0.76838  0.89453  1.0000
  C   C3822     1.0  0.65594  0.67311  0.80524  1.0000
  H   H4580     1.0  0.71451  0.84942  0.73696  1.0000
  C   C3823     1.0  0.59142  0.79841  0.85064  1.0000
  H   H4581     1.0  0.61854  0.77904  0.82687  1.0000
  H   H4582     1.0  0.51366  0.88729  0.90472  1.0000
  H   H4583     1.0  0.73616  0.74053  0.77470  1.0000
  H   H4584     1.0  0.50735  0.90889  0.93213  1.0000
  C   C3824     1.0  0.63901  0.73252  0.77898  1.0000
  C   C3825     1.0  0.60931  0.86790  0.78115  1.0000
  H   H4585     1.0  0.58745  0.78450  0.82595  1.0000
  N   N256      1.0  0.63625  0.72142  0.79200  1.0000
  C   C3826     1.0  0.52834  0.89882  0.97602  1.0000
  Fe  Fe512     1.0  0.52281  0.73164  0.82610  1.0000
  H   H4586     1.0  0.60122  0.79553  0.85675  1.0000
  H   H4587     1.0  0.67188  0.88222  0.76442  1.0000
  H   H4588     1.0  0.71967  0.75534  0.76669  1.0000
  C   C3827     1.0  0.68863  0.84258  0.74365  1.0000
  H   H4589     1.0  0.65545  0.89752  0.77305  1.0000
  H   H4590     1.0  0.50546  0.77631  0.80671  1.0000
  S   S1023     1.0  0.52559  0.75166  0.83564  1.0000
  H   H4591     1.0  0.60204  0.75671  0.83203  1.0000
  H   H4592     1.0  0.59086  0.77110  0.86844  1.0000
  C   C3828     1.0  0.64070  0.86989  0.77761  1.0000
  C   C3829     1.0  0.67131  0.84612  0.74154  1.0000
  H   H4593     1.0  0.63701  0.72363  0.81050  1.0000
  H   H4594     1.0  0.54588  0.83079  0.80549  1.0000
  H   H4595     1.0  0.62952  0.86969  0.75024  1.0000
  H   H4596     1.0  0.53777  0.90309  0.97923  1.0000
  H   H4597     1.0  0.51392  0.81482  0.83452  1.0000
  H   H4598     1.0  0.50749  0.86450  0.93875  1.0000
  H   H4599     1.0  0.52112  0.86333  0.92318  1.0000
  C   C3830     1.0  0.62786  0.86954  0.76015  1.0000
  H   H4600     1.0  0.50849  0.85165  0.80656  1.0000
  H   H4601     1.0  0.50190  0.74999  0.86552  1.0000
  H   H4602     1.0  0.59226  0.95280  0.97383  1.0000
  H   H4603     1.0  0.51002  0.95462  0.90684  1.0000
  C   C3831     1.0  0.71028  0.66079  0.83531  1.0000
  C   C3832     1.0  0.50998  0.90044  0.98228  1.0000
  H   H4604     1.0  0.72501  0.65946  0.83169  1.0000
  C   C3833     1.0  0.68683  0.77189  0.73613  1.0000
  H   H4605     1.0  0.74945  0.72936  0.74337  1.0000
  C   C3834     1.0  0.70604  0.68540  0.81796  1.0000
  C   C3835     1.0  0.50175  0.76726  0.89291  1.0000
  S   S1024     1.0  0.75578  0.65932  0.81052  1.0000
  H   H4606     1.0  0.65318  0.66308  0.81375  1.0000
  C   C3836     1.0  0.80266  0.69229  0.73859  1.0000
  C   C3837     1.0  0.74363  0.76405  0.74376  1.0000
  H   H4607     1.0  0.72674  0.73685  0.75107  1.0000
  C   C3838     1.0  0.74089  0.73358  0.75207  1.0000
  H   H4608     1.0  0.50264  0.78446  0.86871  1.0000
  C   C3839     1.0  0.54925  0.94830  0.97929  1.0000
  C   C3840     1.0  0.65499  0.65787  0.84248  1.0000
