data_image0
_chemical_formula_structural       FeHC2SHFeS2HS2C4HC6H4C4H3C3HFeSHCH2FeCSCSC2H6CH3NH2C2H2CHC3HCH4C2FeHSFeSHFeS2FeSCFeSFeS3CH2CHC6H4C6HCH2NHC3H2CHCH3CSHCH2CH3CHC2HCH3NHCH2C2SCH6CH3FeSHFeS2FeS2FeS2H2CHC7H4CNC6H13CHC2HC3HNH3CH5C2H2CH2C4FeS2FeS2FeS2FeSHFeSFeS3CHCH2C6H4C6H3C4HSHNC2H4CH7C6HCH5FeS2FeS2H2C2H3C4H3FeS2FeS3C2HC6HCH5CH2CNCHC2HC2H5C3HNHCH3C2NCH2CHCH2C2H3CH2C4HCH8CHCHCNSC2H2C2H2C2HNHC2S2C2HC3HC4HCHSCH2CS2CHC2H4CFe3H2CHNSHSHC3H2CFeC2HS2H4C2HSH5CH3CHC3HNHC2H2C2H2C2HC4H10CHNCH3C3HC2HC2HC2H2CH4CHFeS2FeHSFeS2FeS2HCHCH2C6H4CHCH7CH2C2H2C2NCH3CHCH3CHC3H2C2HNHCH3CH3CHNH3CFeS2FeS2FeS2FeS2FeSFeCS2CSHCHC7H3C6H4C2HC2HCH3CH2CH2CH2CH3NCH2C2H5C2H3CHCHC3H5CH4C2HSFeHSFeS2FeS2CHCHCSC6H4NH3CH4CFeH3CHNCHC3H2C2HC2HCHCH4CHCH3FeS2FeSHFeS2FeS2FeSFeCS2CSCH2C8H2C6H4CH3C2H3CHC2H2NCHC3SHCH2CH5CHCHNCH2CH4NH2CHCHCH2NHCH3CH3C2HCHC2
_chemical_formula_sum              "Fe48 H432 C360 S96 N24"
_cell_length_a       42.2871
_cell_length_b       42.0328
_cell_length_c       26.4859
_cell_angle_alpha    90.2022
_cell_angle_beta     90.0904
_cell_angle_gamma    119.903

_space_group_name_H-M_alt    "P 1"
_space_group_IT_number       1

loop_
  _space_group_symop_operation_xyz
  'x, y, z'

loop_
  _atom_site_type_symbol
  _atom_site_label
  _atom_site_symmetry_multiplicity
  _atom_site_fract_x
  _atom_site_fract_y
  _atom_site_fract_z
  _atom_site_occupancy
  Fe  Fe1       1.0  0.25298  0.01400  0.43297  1.0000
  H   H1        1.0  0.27551  0.46749  0.31307  1.0000
  C   C1        1.0  0.03326  0.40458  0.28649  1.0000
  C   C2        1.0  0.99443  0.42022  0.35804  1.0000
  S   S1        1.0  0.17113  0.45324  0.37313  1.0000
  H   H2        1.0  0.07996  0.43615  0.33467  1.0000
  Fe  Fe2       1.0  0.01779  0.24316  0.12934  1.0000
  S   S2        1.0  0.01542  0.29486  0.14486  1.0000
  S   S3        1.0  0.06992  0.24917  0.09333  1.0000
  H   H3        1.0  0.99171  0.09000  0.05334  1.0000
  S   S4        1.0  0.02552  0.30909  0.29934  1.0000
  S   S5        1.0  0.00976  0.22615  0.21119  1.0000
  C   C3        1.0  0.23874  0.16947  0.29752  1.0000
  C   C4        1.0  0.12215  0.24660  0.03443  1.0000
  C   C5        1.0  0.08452  0.23319  0.04070  1.0000
  C   C6        1.0  0.31129  0.23781  0.00740  1.0000
  H   H4        1.0  0.14126  0.26635  0.06123  1.0000
  C   C7        1.0  0.06834  0.34686  0.31923  1.0000
  C   C8        1.0  0.09504  0.37001  0.28493  1.0000
  C   C9        1.0  0.12669  0.40184  0.30229  1.0000
  C   C10       1.0  0.13286  0.41039  0.35421  1.0000
  C   C11       1.0  0.10674  0.38655  0.38858  1.0000
  C   C12       1.0  0.07456  0.35534  0.37111  1.0000
  H   H5        1.0  0.09075  0.36409  0.24494  1.0000
  H   H6        1.0  0.14636  0.42019  0.27519  1.0000
  H   H7        1.0  0.11067  0.39288  0.42851  1.0000
  H   H8        1.0  0.05410  0.33786  0.39807  1.0000
  C   C13       1.0  0.03657  0.16046  0.17865  1.0000
  C   C14       1.0  0.22460  0.13497  0.31959  1.0000
  C   C15       1.0  0.09682  0.15068  0.05716  1.0000
  C   C16       1.0  0.29664  0.17107  0.28033  1.0000
  H   H9        1.0  0.23480  0.09114  0.33896  1.0000
  H   H10       1.0  0.00815  0.08661  0.17517  1.0000
  H   H11       1.0  0.12619  0.16853  0.05631  1.0000
  C   C17       1.0  0.03761  0.13198  0.09687  1.0000
  C   C18       1.0  0.04180  0.10393  0.01735  1.0000
  C   C19       1.0  0.02099  0.10696  0.05609  1.0000
  H   H12       1.0  0.09140  0.17519  0.12380  1.0000
  Fe  Fe3       1.0  0.00444  0.27599  0.22557  1.0000
  S   S6        1.0  0.19463  0.00119  0.44034  1.0000
  H   H13       1.0  0.01294  0.34760  0.21686  1.0000
  C   C20       1.0  0.27419  0.18739  0.27799  1.0000
  H   H14       1.0  0.03126  0.19738  0.00940  1.0000
  H   H15       1.0  0.02018  0.38791  0.18272  1.0000
  Fe  Fe4       1.0  0.20864  0.47543  0.44359  1.0000
  C   C21       1.0  0.05103  0.42600  0.32897  1.0000
  S   S7        1.0  0.25600  0.46518  0.44191  1.0000
  C   C22       1.0  0.03169  0.43379  0.36465  1.0000
  S   S8        1.0  0.28225  0.04318  0.35989  1.0000
  C   C23       1.0  0.24572  0.11808  0.32190  1.0000
  C   C24       1.0  0.07630  0.15416  0.09593  1.0000
  H   H16       1.0  0.22212  0.18243  0.29555  1.0000
  H   H17       1.0  0.05542  0.15248  0.19647  1.0000
  H   H18       1.0  0.01878  0.16102  0.20921  1.0000
  H   H19       1.0  0.04993  0.39929  0.26090  1.0000
  H   H20       1.0  0.19721  0.12121  0.33487  1.0000
  H   H21       1.0  0.29833  0.48261  0.25366  1.0000
  C   C25       1.0  0.28106  0.13568  0.30240  1.0000
  H   H22       1.0  0.05280  0.18924  0.16481  1.0000
  H   H23       1.0  0.29605  0.12116  0.30488  1.0000
  H   H24       1.0  0.28336  0.21395  0.26125  1.0000
  N   N1        1.0  0.01488  0.13476  0.13728  1.0000
  H   H25       1.0  0.21944  0.45416  0.27423  1.0000
  H   H26       1.0  0.04565  0.45015  0.39769  1.0000
  C   C26       1.0  0.99909  0.36126  0.19870  1.0000
  C   C27       1.0  0.23342  0.47933  0.25047  1.0000
  H   H27       1.0  0.00775  0.17521  0.09761  1.0000
  H   H28       1.0  0.31098  0.06786  0.26127  1.0000
  C   C28       1.0  0.99518  0.39001  0.27871  1.0000
  H   H29       1.0  0.10964  0.31219  0.02334  1.0000
  C   C29       1.0  0.99113  0.14785  0.11549  1.0000
  C   C30       1.0  0.99141  0.09824  0.16037  1.0000
  C   C31       1.0  0.06021  0.20776  0.00558  1.0000
  H   H30       1.0  0.21290  0.48809  0.24426  1.0000
  C   C32       1.0  0.07965  0.12569  0.01798  1.0000
  H   H31       1.0  0.23973  0.47148  0.21326  1.0000
  H   H32       1.0  0.30515  0.20892  0.07727  1.0000
  H   H33       1.0  0.05197  0.31066  0.00304  1.0000
  H   H34       1.0  0.28226  0.22604  0.00141  1.0000
  C   C33       1.0  0.13540  0.23459  0.99404  1.0000
  C   C34       1.0  0.29010  0.49185  0.28808  1.0000
  Fe  Fe5       1.0  0.25314  0.46371  0.52699  1.0000
  H   H35       1.0  0.23618  0.18601  0.61761  1.0000
  S   S9        1.0  0.26796  0.42373  0.56592  1.0000
  Fe  Fe6       1.0  0.20634  0.01050  0.52438  1.0000
  S   S10       1.0  0.18426  0.04320  0.56765  1.0000
  H   H36       1.0  0.14798  0.30975  0.95650  1.0000
  Fe  Fe7       1.0  0.22481  0.27099  0.79353  1.0000
  S   S11       1.0  0.18147  0.21139  0.78921  1.0000
  S   S12       1.0  0.20904  0.30682  0.74635  1.0000
  Fe  Fe8       1.0  0.26581  0.25396  0.87795  1.0000
  S   S13       1.0  0.22365  0.19403  0.87856  1.0000
  C   C35       1.0  0.13914  0.27305  0.85927  1.0000
  Fe  Fe9       1.0  0.22665  0.19779  0.79331  1.0000
  S   S14       1.0  0.24537  0.16426  0.74558  1.0000
  Fe  Fe10      1.0  0.18251  0.21367  0.87440  1.0000
  S   S15       1.0  0.12602  0.18957  0.91109  1.0000
  S   S16       1.0  0.26997  0.25746  0.79288  1.0000
  S   S17       1.0  0.22460  0.27354  0.87880  1.0000
  C   C36       1.0  0.11106  0.20843  0.95972  1.0000
  H   H37       1.0  0.17439  0.36550  0.85790  1.0000
  H   H38       1.0  0.09710  0.28307  0.79444  1.0000
  C   C37       1.0  0.23793  0.26679  0.59408  1.0000
  H   H39       1.0  0.05434  0.17499  0.93939  1.0000
  C   C38       1.0  0.20192  0.07687  0.61719  1.0000
  C   C39       1.0  0.17991  0.09049  0.63667  1.0000
  C   C40       1.0  0.19248  0.11700  0.67592  1.0000
  C   C41       1.0  0.22748  0.13048  0.69625  1.0000
  C   C42       1.0  0.24964  0.11716  0.67646  1.0000
  C   C43       1.0  0.23700  0.09056  0.63736  1.0000
  H   H40       1.0  0.15270  0.08010  0.62158  1.0000
  H   H41       1.0  0.17491  0.12663  0.69070  1.0000
  H   H42       1.0  0.27678  0.12732  0.69160  1.0000
  H   H43       1.0  0.25434  0.08052  0.62293  1.0000
  C   C44       1.0  0.22729  0.34103  0.69828  1.0000
  C   C45       1.0  0.26121  0.35249  0.67586  1.0000
  C   C46       1.0  0.27347  0.37842  0.63632  1.0000
  C   C47       1.0  0.25226  0.39352  0.61885  1.0000
  C   C48       1.0  0.21866  0.38256  0.64198  1.0000
  C   C49       1.0  0.20626  0.35641  0.68122  1.0000
  H   H44       1.0  0.27784  0.34116  0.68847  1.0000
  C   C50       1.0  0.23950  0.32344  0.53400  1.0000
  H   H45       1.0  0.20198  0.39377  0.62897  1.0000
  H   H46       1.0  0.18001  0.34791  0.69811  1.0000
  N   N2        1.0  0.23876  0.23841  0.62623  1.0000
  H   H47       1.0  0.21137  0.19567  0.57074  1.0000
  C   C51       1.0  0.20833  0.22172  0.66298  1.0000
  C   C52       1.0  0.23660  0.20829  0.59430  1.0000
  C   C53       1.0  0.26620  0.31358  0.52797  1.0000
  H   H48       1.0  0.29058  0.15251  0.90148  1.0000
  H   H49       1.0  0.20979  0.20059  0.68666  1.0000
  C   C54       1.0  0.05855  0.30898  0.92259  1.0000
  H   H50       1.0  0.07051  0.30695  0.84560  1.0000
  C   C55       1.0  0.27331  0.25498  0.65557  1.0000
  H   H51       1.0  0.16437  0.24481  0.99035  1.0000
  H   H52       1.0  0.27642  0.27855  0.67880  1.0000
  H   H53       1.0  0.02858  0.08517  0.98606  1.0000
  C   C56       1.0  0.26542  0.28556  0.55728  1.0000
  S   S18       1.0  0.20348  0.47102  0.52939  1.0000
  H   H54       1.0  0.18132  0.20768  0.64369  1.0000
  C   C57       1.0  0.06913  0.31049  0.97278  1.0000
  H   H55       1.0  0.29944  0.38657  0.61865  1.0000
  H   H56       1.0  0.14296  0.30690  0.77281  1.0000
  C   C58       1.0  0.08043  0.30819  0.88353  1.0000
  H   H57       1.0  0.09569  0.12417  0.98708  1.0000
  H   H58       1.0  0.24089  0.34612  0.51265  1.0000
  H   H59       1.0  0.18864  0.33865  0.89409  1.0000
  C   C59       1.0  0.21175  0.30513  0.56900  1.0000
  H   H60       1.0  0.15225  0.27231  0.89527  1.0000
  C   C60       1.0  0.12427  0.30759  0.80187  1.0000
  C   C61       1.0  0.07344  0.19531  0.96560  1.0000
  H   H61       1.0  0.19281  0.34009  0.82747  1.0000
  C   C62       1.0  0.21087  0.27733  0.59891  1.0000
  H   H62       1.0  0.18936  0.26550  0.62659  1.0000
  H   H63       1.0  0.20916  0.24281  0.68942  1.0000
  H   H64       1.0  0.15527  0.26987  0.82846  1.0000
  N   N3        1.0  0.13735  0.30721  0.85386  1.0000
  H   H65       1.0  0.03311  0.30825  0.91397  1.0000
  C   C63       1.0  0.17478  0.33922  0.85871  1.0000
  H   H66       1.0  0.12292  0.33298  0.79483  1.0000
  H   H67       1.0  0.11142  0.24828  0.85861  1.0000
  C   C64       1.0  0.12355  0.31015  0.94553  1.0000
  C   C65       1.0  0.11373  0.30871  0.89395  1.0000
  S   S19       1.0  0.26552  0.02662  0.51601  1.0000
  C   C66       1.0  0.10170  0.31138  0.98416  1.0000
  H   H68       1.0  0.28146  0.17639  0.85306  1.0000
  H   H69       1.0  0.29772  0.26530  0.63106  1.0000
  H   H70       1.0  0.28804  0.32839  0.50119  1.0000
  H   H71       1.0  0.28700  0.27926  0.55165  1.0000
  H   H72       1.0  0.26026  0.21776  0.56852  1.0000
  H   H73       1.0  0.19172  0.31376  0.57451  1.0000
  C   C67       1.0  0.30196  0.17939  0.88199  1.0000
  H   H74       1.0  0.30974  0.15908  0.79221  1.0000
  H   H75       1.0  0.30375  0.20039  0.90931  1.0000
  H   H76       1.0  0.27431  0.23470  0.68165  1.0000
  Fe  Fe11      1.0  0.29216  0.52647  0.44743  1.0000
  S   S20       1.0  0.24542  0.53737  0.44589  1.0000
  H   H77       1.0  0.04514  0.82943  0.40589  1.0000
  Fe  Fe12      1.0  0.18032  0.94262  0.45315  1.0000
  S   S21       1.0  0.13581  0.88840  0.41777  1.0000
  S   S22       1.0  0.23793  0.95488  0.44189  1.0000
  Fe  Fe13      1.0  0.00796  0.72274  0.12416  1.0000
  S   S23       1.0  0.00313  0.77114  0.09905  1.0000
  S   S24       1.0  0.04606  0.70501  0.08851  1.0000
  Fe  Fe14      1.0  0.00696  0.78454  0.18247  1.0000
  S   S25       1.0  0.04467  0.84295  0.21147  1.0000
  S   S26       1.0  0.01464  0.73799  0.20676  1.0000
  H   H78       1.0  0.26979  0.60613  0.18849  1.0000
  H   H79       1.0  0.18386  0.76092  0.07098  1.0000
  C   C68       1.0  0.07444  0.72086  0.03401  1.0000
  H   H80       1.0  0.24524  0.49550  0.35059  1.0000
  C   C69       1.0  0.98806  0.78945  0.42174  1.0000
  C   C70       1.0  0.07372  0.85623  0.26559  1.0000
  C   C71       1.0  0.09037  0.89277  0.28295  1.0000
  C   C72       1.0  0.11115  0.90368  0.32804  1.0000
  C   C73       1.0  0.11541  0.87806  0.35650  1.0000
  C   C74       1.0  0.09986  0.84183  0.33803  1.0000
  C   C75       1.0  0.07944  0.83103  0.29271  1.0000
  H   H81       1.0  0.08635  0.91262  0.26221  1.0000
  H   H82       1.0  0.12271  0.93158  0.34176  1.0000
  H   H83       1.0  0.10302  0.82177  0.35964  1.0000
  H   H84       1.0  0.06735  0.80299  0.27955  1.0000
  C   C76       1.0  0.26688  0.55976  0.22753  1.0000
  N   N4        1.0  0.13192  0.82885  0.13230  1.0000
  C   C77       1.0  0.12462  0.85878  0.11805  1.0000
  C   C78       1.0  0.09631  0.79589  0.14311  1.0000
  C   C79       1.0  0.15400  0.84043  0.17941  1.0000
  C   C80       1.0  0.15095  0.81984  0.09266  1.0000
  C   C81       1.0  0.16047  0.79232  0.10124  1.0000
  C   C82       1.0  0.15948  0.83686  0.04439  1.0000
  H   H85       1.0  0.02756  0.77652  0.35519  1.0000
  H   H86       1.0  0.23908  0.55026  0.23900  1.0000
  H   H87       1.0  0.06290  0.84882  0.49247  1.0000
  H   H88       1.0  0.10601  0.85096  0.08480  1.0000
  H   H89       1.0  0.11076  0.86517  0.14905  1.0000
  H   H90       1.0  0.15033  0.88471  0.10982  1.0000
  H   H91       1.0  0.07964  0.78529  0.10807  1.0000
  H   H92       1.0  0.08042  0.80200  0.17108  1.0000
  H   H93       1.0  0.09914  0.77290  0.15871  1.0000
  H   H94       1.0  0.18168  0.86422  0.17239  1.0000
  H   H95       1.0  0.14092  0.84868  0.20937  1.0000
  H   H96       1.0  0.15746  0.81809  0.19593  1.0000
  H   H97       1.0  0.15379  0.77731  0.13630  1.0000
  C   C83       1.0  0.17772  0.78271  0.06412  1.0000
  H   H98       1.0  0.09645  0.68503  0.04683  1.0000
  C   C84       1.0  0.02432  0.81668  0.43436  1.0000
  C   C85       1.0  0.03489  0.82789  0.48423  1.0000
  H   H99       1.0  0.15262  0.85744  0.03374  1.0000
  C   C86       1.0  0.28544  0.54099  0.24268  1.0000
  C   C87       1.0  0.18578  0.79996  0.01736  1.0000
  C   C88       1.0  0.09644  0.70547  0.02212  1.0000
  H   H100      1.0  0.27661  0.74240  0.45227  1.0000
  N   N5        1.0  0.26703  0.50825  0.27541  1.0000
  H   H101      1.0  0.26562  0.67902  0.46107  1.0000
  H   H102      1.0  0.31807  0.73293  0.03926  1.0000
  H   H103      1.0  0.30852  0.96079  0.40204  1.0000
  C   C89       1.0  0.26436  0.72718  0.48652  1.0000
  H   H104      1.0  0.23547  0.52661  0.31863  1.0000
  H   H105      1.0  0.28069  0.54185  0.34201  1.0000
  H   H106      1.0  0.99204  0.75149  0.31003  1.0000
  H   H107      1.0  0.31077  0.94484  0.46283  1.0000
  H   H108      1.0  0.31504  0.51160  0.30935  1.0000
  C   C90       1.0  0.25668  0.51862  0.32349  1.0000
  C   C91       1.0  0.28418  0.59176  0.19866  1.0000
  H   H109      1.0  0.98909  0.73331  0.37194  1.0000
  H   H110      1.0  0.01766  0.82986  0.33577  1.0000
  C   C92       1.0  0.07482  0.74731  0.00168  1.0000
  H   H111      1.0  0.99094  0.71063  0.02239  1.0000
  H   H112      1.0  0.05846  0.75976  0.01038  1.0000
  C   C93       1.0  0.99759  0.75916  0.35067  1.0000
  C   C94       1.0  0.17659  0.82686  0.00746  1.0000
  C   C95       1.0  0.98789  0.81038  0.33621  1.0000
  C   C96       1.0  0.25818  0.69149  0.49127  1.0000
  Fe  Fe15      1.0  0.24559  0.96568  0.52565  1.0000
  S   S27       1.0  0.18706  0.95026  0.53813  1.0000
  S   S28       1.0  0.28075  0.94590  0.56679  1.0000
  Fe  Fe16      1.0  0.24430  0.53248  0.53094  1.0000
  S   S29       1.0  0.25565  0.58228  0.58103  1.0000
  S   S30       1.0  0.29323  0.52433  0.53211  1.0000
  Fe  Fe17      1.0  0.25265  0.78636  0.78208  1.0000
  S   S31       1.0  0.19398  0.74373  0.77151  1.0000
  S   S32       1.0  0.28609  0.83551  0.73005  1.0000
  Fe  Fe18      1.0  0.26139  0.74624  0.87444  1.0000
  S   S33       1.0  0.20245  0.70075  0.86881  1.0000
  H   H113      1.0  0.18397  0.68944  0.64123  1.0000
  Fe  Fe19      1.0  0.21261  0.70250  0.78466  1.0000
  S   S34       1.0  0.18787  0.65177  0.73281  1.0000
  Fe  Fe20      1.0  0.18884  0.74557  0.85635  1.0000
  S   S35       1.0  0.14374  0.75525  0.88831  1.0000
  S   S36       1.0  0.27202  0.74509  0.79112  1.0000
  S   S37       1.0  0.24698  0.79099  0.86604  1.0000
  C   C97       1.0  0.11788  0.74170  0.94520  1.0000
  H   H114      1.0  0.26085  0.77118  0.51977  1.0000
  C   C98       1.0  0.11815  0.71588  0.97815  1.0000
  H   H115      1.0  0.06075  0.67518  0.85977  1.0000
  H   H116      1.0  0.09575  0.77738  0.93223  1.0000
  C   C99       1.0  0.23596  0.59914  0.62598  1.0000
  C   C100      1.0  0.19825  0.58341  0.63231  1.0000
  C   C101      1.0  0.18415  0.59941  0.66599  1.0000
  C   C102      1.0  0.20743  0.63108  0.69430  1.0000
  C   C103      1.0  0.24518  0.64640  0.68873  1.0000
  C   C104      1.0  0.25924  0.63074  0.65444  1.0000
  H   H117      1.0  0.17993  0.55927  0.61063  1.0000
  H   H118      1.0  0.15492  0.58728  0.66981  1.0000
  H   H119      1.0  0.26356  0.67056  0.71027  1.0000
  H   H120      1.0  0.28845  0.64320  0.64989  1.0000
  C   C105      1.0  0.28075  0.86440  0.68518  1.0000
  C   C106      1.0  0.24751  0.86301  0.67364  1.0000
  C   C107      1.0  0.24632  0.88750  0.63745  1.0000
  C   C108      1.0  0.27836  0.91344  0.61267  1.0000
  C   C109      1.0  0.24246  0.67176  0.53509  1.0000
  C   C110      1.0  0.00980  0.81215  0.52320  1.0000
  H   H121      1.0  0.22288  0.84349  0.69287  1.0000
  H   H122      1.0  0.22080  0.88650  0.62907  1.0000
  H   H123      1.0  0.17271  0.71263  0.59379  1.0000
  C   C111      1.0  0.25505  0.74340  0.52574  1.0000
  C   C112      1.0  0.99192  0.69381  0.87867  1.0000
  C   C113      1.0  0.23284  0.68761  0.57425  1.0000
  C   C114      1.0  0.19050  0.71696  0.62711  1.0000
  H   H124      1.0  0.26566  0.79774  0.59774  1.0000
  S   S38       1.0  0.29384  0.74540  0.94397  1.0000
  H   H125      1.0  0.24772  0.75688  0.69067  1.0000
  N   N6        1.0  0.22964  0.74031  0.61408  1.0000
  C   C115      1.0  0.23623  0.77795  0.60427  1.0000
  C   C116      1.0  0.25208  0.74252  0.65843  1.0000
  H   H126      1.0  0.13471  0.70360  0.96943  1.0000
  H   H127      1.0  0.21993  0.77841  0.57155  1.0000
  H   H128      1.0  0.22841  0.78907  0.63729  1.0000
  H   H129      1.0  0.18218  0.72934  0.65790  1.0000
  C   C117      1.0  0.23894  0.72394  0.57102  1.0000
  H   H130      1.0  0.22081  0.67117  0.60741  1.0000
  H   H131      1.0  0.02745  0.70133  0.81578  1.0000
  H   H132      1.0  0.31329  0.85472  0.90912  1.0000
  H   H133      1.0  0.01818  0.82089  0.56186  1.0000
  H   H134      1.0  0.23791  0.64403  0.53901  1.0000
  H   H135      1.0  0.28170  0.75785  0.64939  1.0000
  H   H136      1.0  0.24541  0.71495  0.67236  1.0000
  C   C118      1.0  0.01971  0.69107  0.85391  1.0000
  C   C119      1.0  0.09610  0.75733  0.95736  1.0000
  C   C120      1.0  0.03843  0.67616  0.87847  1.0000
  C   C121      1.0  0.31225  0.89014  0.65995  1.0000
  C   C122      1.0  0.31106  0.91419  0.62433  1.0000
  C   C123      1.0  0.00201  0.66677  0.95320  1.0000
  H   H137      1.0  0.18181  0.83914  0.97025  1.0000
  C   C124      1.0  0.02932  0.66368  0.92780  1.0000
  H   H138      1.0  0.31450  0.87280  0.84812  1.0000
  H   H139      1.0  0.99534  0.74311  0.97523  1.0000
  H   H140      1.0  0.19795  0.79149  0.98798  1.0000
  H   H141      1.0  0.04462  0.65299  0.94724  1.0000
  H   H142      1.0  0.99787  0.65891  0.99252  1.0000
  Fe  Fe21      1.0  0.45734  0.19918  0.21272  1.0000
  S   S39       1.0  0.45002  0.24838  0.22066  1.0000
  S   S40       1.0  0.44107  0.16094  0.28115  1.0000
  Fe  Fe22      1.0  0.43279  0.23846  0.13847  1.0000
  S   S41       1.0  0.37688  0.23079  0.11532  1.0000
  S   S42       1.0  0.43762  0.18760  0.13201  1.0000
  H   H143      1.0  0.64870  0.42780  0.33557  1.0000
  H   H144      1.0  0.37439  0.04322  0.28114  1.0000
  C   C125      1.0  0.36210  0.24350  0.05952  1.0000
  C   C126      1.0  0.35987  0.19148  0.30114  1.0000
  H   H145      1.0  0.46960  0.07728  0.37238  1.0000
  H   H146      1.0  0.61213  0.28561  0.47700  1.0000
  H   H147      1.0  0.38118  0.18879  0.02225  1.0000
  C   C127      1.0  0.36756  0.10968  0.26934  1.0000
  C   C128      1.0  0.39646  0.12948  0.30288  1.0000
  C   C129      1.0  0.39029  0.12269  0.35500  1.0000
  C   C130      1.0  0.35550  0.09679  0.37346  1.0000
  H   H148      1.0  0.37211  0.11397  0.22913  1.0000
  H   H149      1.0  0.41258  0.13759  0.38125  1.0000
  H   H150      1.0  0.57555  0.21134  0.08963  1.0000
  Fe  Fe23      1.0  0.49636  0.22576  0.10951  1.0000
  S   S43       1.0  0.49023  0.27601  0.11232  1.0000
  S   S44       1.0  0.52057  0.22119  0.03386  1.0000
  Fe  Fe24      1.0  0.50810  0.28106  0.19402  1.0000
  S   S45       1.0  0.55493  0.33683  0.22090  1.0000
  S   S46       1.0  0.51677  0.23253  0.18976  1.0000
  S   S47       1.0  0.62642  0.39972  0.43888  1.0000
  C   C131      1.0  0.33649  0.16749  0.21789  1.0000
  C   C132      1.0  0.56086  0.22048  0.01553  1.0000
  H   H151      1.0  0.35867  0.20708  0.33439  1.0000
  C   C133      1.0  0.57511  0.35283  0.28186  1.0000
  C   C134      1.0  0.60748  0.38702  0.28589  1.0000
  C   C135      1.0  0.62405  0.40134  0.33328  1.0000
  C   C136      1.0  0.60805  0.38197  0.37763  1.0000
  C   C137      1.0  0.57574  0.34772  0.37361  1.0000
  C   C138      1.0  0.55954  0.33307  0.32611  1.0000
  H   H152      1.0  0.61962  0.40286  0.25219  1.0000
  C   C139      1.0  0.58295  0.21534  0.05014  1.0000
  H   H153      1.0  0.56287  0.33254  0.40752  1.0000
  H   H154      1.0  0.53459  0.30688  0.32387  1.0000
  H   H155      1.0  0.63037  0.20927  0.06033  1.0000
  H   H156      1.0  0.37630  0.24006  0.22849  1.0000
  H   H157      1.0  0.58404  0.35327  0.11991  1.0000
  C   C140      1.0  0.34766  0.22713  0.24223  1.0000
  H   H158      1.0  0.60832  0.32587  0.47974  1.0000
  H   H159      1.0  0.44124  0.07917  0.29166  1.0000
  C   C141      1.0  0.61407  0.21415  0.03334  1.0000
  N   N7        1.0  0.33443  0.18921  0.26070  1.0000
  C   C142      1.0  0.44024  0.06103  0.36791  1.0000
  H   H160      1.0  0.60617  0.37219  0.06094  1.0000
  C   C143      1.0  0.37977  0.01940  0.40354  1.0000
  C   C144      1.0  0.36458  0.02114  0.35647  1.0000
  H   H161      1.0  0.36490  0.17940  0.20342  1.0000
  C   C145      1.0  0.32440  0.22821  0.05054  1.0000
  C   C146      1.0  0.38656  0.26849  0.02454  1.0000
  H   H162      1.0  0.35110  0.09229  0.41360  1.0000
  H   H163      1.0  0.33539  0.00792  0.35082  1.0000
  H   H164      1.0  0.33151  0.22749  0.20916  1.0000
  H   H165      1.0  0.59144  0.29704  0.02129  1.0000
  H   H166      1.0  0.56561  0.32769  0.06350  1.0000
  C   C147      1.0  0.42438  0.06197  0.32222  1.0000
  C   C148      1.0  0.38668  0.04171  0.31635  1.0000
  C   C149      1.0  0.32668  0.07673  0.33979  1.0000
  H   H167      1.0  0.43251  0.04108  0.44262  1.0000
  N   N8        1.0  0.61488  0.32916  0.08908  1.0000
  H   H168      1.0  0.38865  0.20513  0.28791  1.0000
  C   C150      1.0  0.33655  0.01854  0.46325  1.0000
  H   H169      1.0  0.41560  0.28055  0.03076  1.0000
  H   H170      1.0  0.32726  0.13868  0.22839  1.0000
  H   H171      1.0  0.35390  0.16411  0.31469  1.0000
  C   C151      1.0  0.41844  0.04005  0.40812  1.0000
  C   C152      1.0  0.59182  0.34640  0.08308  1.0000
  N   N9        1.0  0.35568  0.99902  0.44630  1.0000
  C   C153      1.0  0.37546  0.99565  0.49056  1.0000
  H   H172      1.0  0.62597  0.36435  0.18048  1.0000
  H   H173      1.0  0.34720  0.24530  0.27250  1.0000
  C   C154      1.0  0.33299  0.08338  0.28770  1.0000
  H   H174      1.0  0.56916  0.27568  0.10479  1.0000
  C   C155      1.0  0.59553  0.29654  0.12188  1.0000
  H   H175      1.0  0.35619  0.04736  0.47444  1.0000
  H   H176      1.0  0.58884  0.30349  0.15946  1.0000
  C   C156      1.0  0.61859  0.31611  0.03837  1.0000
  C   C157      1.0  0.65089  0.37134  0.16064  1.0000
  H   H177      1.0  0.63273  0.33924  0.01147  1.0000
  H   H178      1.0  0.61218  0.28314  0.12832  1.0000
  H   H179      1.0  0.63338  0.30040  0.04025  1.0000
  C   C158      1.0  0.65016  0.35558  0.11283  1.0000
  H   H180      1.0  0.31920  0.16678  0.18563  1.0000
  H   H181      1.0  0.31878  0.01967  0.43312  1.0000
  C   C159      1.0  0.37346  0.27851  0.98182  1.0000
  C   C160      1.0  0.38643  0.19181  0.98194  1.0000
  C   C161      1.0  0.42783  0.20476  0.91260  1.0000
  C   C162      1.0  0.35934  0.18863  0.94843  1.0000
  H   H182      1.0  0.35803  0.24844  0.86343  1.0000
  C   C163      1.0  0.35102  0.22657  0.83452  1.0000
  H   H183      1.0  0.32327  0.13553  0.83620  1.0000
  H   H184      1.0  0.59291  0.29455  0.53206  1.0000
  H   H185      1.0  0.39273  0.29834  0.95558  1.0000
  H   H186      1.0  0.40814  0.20624  0.83924  1.0000
  H   H187      1.0  0.35626  0.17064  0.79585  1.0000
  H   H188      1.0  0.32989  0.22648  0.80917  1.0000
  H   H189      1.0  0.44163  0.20276  0.99039  1.0000
  H   H190      1.0  0.60937  0.22804  0.90790  1.0000
  C   C164      1.0  0.40095  0.20157  0.87870  1.0000
  H   H191      1.0  0.37581  0.23503  0.81139  1.0000
  C   C165      1.0  0.33168  0.16278  0.81915  1.0000
  H   H192      1.0  0.45463  0.21137  0.89909  1.0000
  C   C166      1.0  0.33578  0.26340  0.97297  1.0000
  N   N10       1.0  0.33793  0.19041  0.85881  1.0000
  S   S48       1.0  0.32101  0.27776  0.91875  1.0000
  C   C167      1.0  0.42058  0.19988  0.96412  1.0000
  C   C168      1.0  0.36572  0.19314  0.89550  1.0000
  H   H193      1.0  0.39391  0.02279  0.50829  1.0000
  H   H194      1.0  0.33394  0.18339  0.96518  1.0000
  C   C169      1.0  0.60234  0.22468  0.94754  1.0000
  C   C170      1.0  0.61459  0.30754  0.50296  1.0000
  H   H195      1.0  0.55416  0.22938  0.93704  1.0000
  H   H196      1.0  0.63190  0.35022  0.58507  1.0000
  C   C171      1.0  0.62392  0.21860  0.98191  1.0000
  C   C172      1.0  0.57094  0.22533  0.96424  1.0000
  H   H197      1.0  0.31886  0.00478  0.49636  1.0000
  N   N11       1.0  0.65124  0.32816  0.52674  1.0000
  H   H198      1.0  0.64736  0.37744  0.52953  1.0000
  C   C173      1.0  0.36006  0.59090  0.35509  1.0000
  C   C174      1.0  0.35648  0.64060  0.31354  1.0000
  S   S49       1.0  0.34421  0.55409  0.39904  1.0000
  S   S50       1.0  0.63586  0.93110  0.41970  1.0000
  C   C175      1.0  0.32806  0.96121  0.43047  1.0000
  C   C176      1.0  0.37639  0.75518  0.03522  1.0000
  H   H199      1.0  0.37890  0.74914  0.07421  1.0000
  C   C177      1.0  0.45871  0.68444  0.39150  1.0000
  C   C178      1.0  0.38756  0.64935  0.28440  1.0000
  C   C179      1.0  0.59539  0.74100  0.02871  1.0000
  H   H200      1.0  0.55218  0.79625  0.36145  1.0000
  C   C180      1.0  0.34185  0.74608  0.01525  1.0000
  C   C181      1.0  0.39118  0.59963  0.32594  1.0000
  C   C182      1.0  0.42856  0.66139  0.42116  1.0000
  C   C183      1.0  0.41610  0.71071  0.43545  1.0000
  H   H201      1.0  0.34270  0.65624  0.30866  1.0000
  C   C184      1.0  0.64397  0.89121  0.34069  1.0000
  H   H202      1.0  0.53117  0.71901  0.35647  1.0000
  S   S51       1.0  0.47130  0.77609  0.18096  1.0000
  C   C185      1.0  0.52707  0.77780  0.38317  1.0000
  H   H203      1.0  0.51039  0.77951  0.28425  1.0000
  H   H204      1.0  0.50025  0.70578  0.30299  1.0000
  C   C186      1.0  0.62095  0.90077  0.36633  1.0000
  S   S52       1.0  0.40212  0.68506  0.23899  1.0000
  S   S53       1.0  0.45247  0.79013  0.03070  1.0000
  C   C187      1.0  0.40710  0.67434  0.44262  1.0000
  H   H205      1.0  0.54208  0.74864  0.30322  1.0000
  C   C188      1.0  0.59442  0.85178  0.28195  1.0000
  C   C189      1.0  0.44645  0.73416  0.40639  1.0000
  H   H206      1.0  0.37717  0.83235  0.02659  1.0000
  H   H207      1.0  0.42109  0.63287  0.42654  1.0000
  H   H208      1.0  0.56653  0.89284  0.36876  1.0000
  H   H209      1.0  0.44416  0.87142  0.02365  1.0000
  C   C190      1.0  0.63074  0.86688  0.29894  1.0000
  Fe  Fe25      1.0  0.45152  0.71530  0.18686  1.0000
  Fe  Fe26      1.0  0.52789  0.78325  0.18264  1.0000
  Fe  Fe27      1.0  0.50733  0.72023  0.10685  1.0000
  H   H210      1.0  0.47666  0.77940  0.32423  1.0000
  H   H211      1.0  0.46586  0.73943  0.28742  1.0000
  C   C191      1.0  0.34292  0.61176  0.34886  1.0000
  H   H212      1.0  0.31931  0.60584  0.37139  1.0000
  N   N12       1.0  0.50005  0.74693  0.35157  1.0000
  S   S54       1.0  0.52558  0.68718  0.05785  1.0000
  H   H213      1.0  0.36756  0.59963  0.18686  1.0000
  S   S55       1.0  0.50798  0.72279  0.19211  1.0000
  H   H214      1.0  0.54357  0.85049  0.29479  1.0000
  C   C192      1.0  0.40769  0.77363  0.00550  1.0000
  C   C193      1.0  0.58457  0.88555  0.34947  1.0000
  C   C194      1.0  0.46847  0.72164  0.38294  1.0000
  H   H215      1.0  0.40476  0.58377  0.33056  1.0000
  H   H216      1.0  0.47341  0.67212  0.37506  1.0000
  C   C195      1.0  0.40501  0.62879  0.29098  1.0000
  Fe  Fe28      1.0  0.47092  0.76737  0.09656  1.0000
  C   C196      1.0  0.57140  0.86139  0.30751  1.0000
  C   C197      1.0  0.56692  0.70483  0.02283  1.0000
  H   H217      1.0  0.45235  0.76213  0.40192  1.0000
  S   S56       1.0  0.44847  0.70665  0.10254  1.0000
  S   S57       1.0  0.57950  0.82073  0.22939  1.0000
  H   H218      1.0  0.42878  0.63497  0.26867  1.0000
  H   H219      1.0  0.51626  0.79538  0.39758  1.0000
  H   H220      1.0  0.53552  0.76758  0.41632  1.0000
  H   H221      1.0  0.59248  0.75907  0.05510  1.0000
  C   C198      1.0  0.48769  0.76196  0.31028  1.0000
  C   C199      1.0  0.51912  0.72912  0.32773  1.0000
  H   H222      1.0  0.34131  0.94635  0.41424  1.0000
  S   S58       1.0  0.52984  0.78058  0.09729  1.0000
  H   H223      1.0  0.39923  0.72062  0.45218  1.0000
  H   H224      1.0  0.33897  0.54439  0.23717  1.0000
  H   H225      1.0  0.64887  0.85978  0.27950  1.0000
  H   H226      1.0  0.44301  0.72138  0.99476  1.0000
  H   H227      1.0  0.38322  0.65592  0.46445  1.0000
  C   C200      1.0  0.33912  0.58786  0.19736  1.0000
  H   H228      1.0  0.39147  0.98220  0.47992  1.0000
  H   H229      1.0  0.46317  0.67724  0.00739  1.0000
  H   H230      1.0  0.64947  0.78190  0.00542  1.0000
  C   C201      1.0  0.32222  0.55600  0.22654  1.0000
  H   H231      1.0  0.33414  0.63137  0.16294  1.0000
  C   C202      1.0  0.62775  0.75384  0.00045  1.0000
  C   C203      1.0  0.38987  0.84986  0.99419  1.0000
  C   C204      1.0  0.32030  0.60589  0.18387  1.0000
  H   H232      1.0  0.47360  0.91016  0.94905  1.0000
  N   N13       1.0  0.36111  0.86653  0.86518  1.0000
  H   H233      1.0  0.36647  0.77770  0.89580  1.0000
  C   C205      1.0  0.36894  0.77132  0.93453  1.0000
  C   C206      1.0  0.33204  0.87450  0.88075  1.0000
  H   H234      1.0  0.40684  0.69188  0.95399  1.0000
  H   H235      1.0  0.43759  0.90956  0.87726  1.0000
  C   C207      1.0  0.44546  0.68273  0.88361  1.0000
  C   C208      1.0  0.33783  0.75446  0.96502  1.0000
  H   H236      1.0  0.45735  0.66631  0.86853  1.0000
  H   H237      1.0  0.56182  0.81270  0.97040  1.0000
  C   C209      1.0  0.60366  0.69473  0.95966  1.0000
  C   C210      1.0  0.42297  0.89255  0.90896  1.0000
  H   H238      1.0  0.45168  0.70529  0.85651  1.0000
  C   C211      1.0  0.63205  0.73096  0.96549  1.0000
  C   C212      1.0  0.36846  0.84875  0.95322  1.0000
  C   C213      1.0  0.45398  0.66715  0.96824  1.0000
  C   C214      1.0  0.34386  0.82853  0.84513  1.0000
  H   H239      1.0  0.54967  0.65367  0.98367  1.0000
  H   H240      1.0  0.32605  0.80790  0.87343  1.0000
  H   H241      1.0  0.60363  0.79608  0.92748  1.0000
  H   H242      1.0  0.42483  0.64529  0.97027  1.0000
  H   H243      1.0  0.39491  0.92095  0.83532  1.0000
  H   H244      1.0  0.57957  0.73455  0.88967  1.0000
  H   H245      1.0  0.51480  0.68940  0.89444  1.0000
  H   H246      1.0  0.41535  0.66396  0.88334  1.0000
  H   H247      1.0  0.40208  0.88571  0.80681  1.0000
  H   H248      1.0  0.33599  0.93387  0.60586  1.0000
  C   C215      1.0  0.38132  0.89172  0.82298  1.0000
  H   H249      1.0  0.42762  0.79584  0.93157  1.0000
  N   N14       1.0  0.45932  0.69765  0.93489  1.0000
  C   C216      1.0  0.43645  0.71261  0.95465  1.0000
  H   H250      1.0  0.44011  0.73658  0.93227  1.0000
  H   H251      1.0  0.34394  0.90248  0.89752  1.0000
  H   H252      1.0  0.32652  0.82487  0.81149  1.0000
  C   C217      1.0  0.49873  0.72524  0.93283  1.0000
  C   C218      1.0  0.57457  0.77679  0.92825  1.0000
  C   C219      1.0  0.38432  0.86989  0.90914  1.0000
  H   H253      1.0  0.36476  0.82123  0.83367  1.0000
  C   C220      1.0  0.44413  0.89328  0.95016  1.0000
  C   C221      1.0  0.40365  0.78137  0.95491  1.0000
  H   H254      1.0  0.47002  0.65412  0.95583  1.0000
  C   C222      1.0  0.55103  0.78605  0.95242  1.0000
  C   C223      1.0  0.56093  0.74208  0.90683  1.0000
  H   H255      1.0  0.35624  0.97874  0.52105  1.0000
  C   C224      1.0  0.52369  0.71646  0.90955  1.0000
  C   C225      1.0  0.51366  0.76082  0.95474  1.0000
  H   H256      1.0  0.60651  0.67669  0.93315  1.0000
  H   H257      1.0  0.36268  0.88871  0.79108  1.0000
  C   C226      1.0  0.57139  0.68176  0.98834  1.0000
  H   H258      1.0  0.64468  0.66957  0.64705  1.0000
  H   H259      1.0  0.33805  0.89169  0.66814  1.0000
  H   H260      1.0  0.33941  0.82988  0.95569  1.0000
  H   H261      1.0  0.49721  0.76973  0.97470  1.0000
  C   C227      1.0  0.42764  0.87177  0.99248  1.0000
  H   H262      1.0  0.64702  0.56917  0.58167  1.0000
  Fe  Fe29      1.0  0.76960  0.02915  0.45347  1.0000
  S   S59       1.0  0.71605  0.02630  0.47085  1.0000
  S   S60       1.0  0.81827  0.08213  0.42291  1.0000
  Fe  Fe30      1.0  0.68259  0.44824  0.46057  1.0000
  H   H263      1.0  0.97231  0.12900  0.08608  1.0000
  S   S61       1.0  0.73075  0.44196  0.44182  1.0000
  Fe  Fe31      1.0  0.94960  0.19597  0.19410  1.0000
  S   S62       1.0  0.94333  0.24436  0.21384  1.0000
  S   S63       1.0  0.91121  0.13644  0.21838  1.0000
  Fe  Fe32      1.0  0.95456  0.25977  0.13159  1.0000
  S   S64       1.0  0.91982  0.28271  0.09798  1.0000
  S   S65       1.0  0.95763  0.20933  0.11051  1.0000
  H   H264      1.0  0.86820  0.30325  0.06203  1.0000
  C   C228      1.0  0.95605  0.38212  0.20671  1.0000
  H   H265      1.0  0.83191  0.15336  0.46729  1.0000
  C   C229      1.0  0.89361  0.27169  0.04082  1.0000
  H   H266      1.0  0.93445  0.38303  0.22937  1.0000
  H   H267      1.0  0.68677  0.35526  0.05419  1.0000
  C   C230      1.0  0.84190  0.09682  0.36422  1.0000
  C   C231      1.0  0.83410  0.07316  0.32288  1.0000
  C   C232      1.0  0.85537  0.08570  0.27852  1.0000
  C   C233      1.0  0.88406  0.12228  0.27430  1.0000
  C   C234      1.0  0.89126  0.14608  0.31527  1.0000
  C   C235      1.0  0.87055  0.13332  0.35996  1.0000
  H   H268      1.0  0.81187  0.04517  0.32520  1.0000
  H   H269      1.0  0.84937  0.06705  0.24705  1.0000
  H   H270      1.0  0.91329  0.17419  0.31288  1.0000
  H   H271      1.0  0.87699  0.15195  0.39155  1.0000
  C   C236      1.0  0.71381  0.16210  0.99797  1.0000
  H   H272      1.0  0.74308  0.39890  0.09603  1.0000
  C   C237      1.0  0.71682  0.40626  0.16073  1.0000
  H   H273      1.0  0.93273  0.31031  0.22150  1.0000
  H   H274      1.0  0.68338  0.40789  0.22066  1.0000
  H   H275      1.0  0.80591  0.18526  0.16681  1.0000
  H   H276      1.0  0.87233  0.05020  0.38530  1.0000
  H   H277      1.0  0.84649  0.17607  0.10911  1.0000
  H   H278      1.0  0.67789  0.32218  0.46043  1.0000
  H   H279      1.0  0.96120  0.31678  0.27567  1.0000
  C   C238      1.0  0.89611  0.24994  0.00262  1.0000
  H   H280      1.0  0.82175  0.18932  0.48055  1.0000
  H   H281      1.0  0.72897  0.22088  0.09483  1.0000
  C   C239      1.0  0.87007  0.28597  0.03323  1.0000
  C   C240      1.0  0.71720  0.39114  0.11396  1.0000
  H   H282      1.0  0.83146  0.02500  0.45798  1.0000
  H   H283      1.0  0.94220  0.36560  0.17223  1.0000
  C   C241      1.0  0.68446  0.36607  0.09018  1.0000
  C   C242      1.0  0.77266  0.18825  0.10706  1.0000
  N   N15       1.0  0.73748  0.19319  0.03197  1.0000
  C   C243      1.0  0.68371  0.39629  0.18408  1.0000
  H   H284      1.0  0.92703  0.33010  0.27814  1.0000
  H   H285      1.0  0.83974  0.00423  0.32913  1.0000
  H   H286      1.0  0.75627  0.19262  0.13433  1.0000
  C   C244      1.0  0.88743  0.03621  0.39790  1.0000
  H   H287      1.0  0.67526  0.36313  0.46207  1.0000
  C   C245      1.0  0.81833  0.17726  0.04209  1.0000
  H   H288      1.0  0.77397  0.25131  0.02588  1.0000
  H   H289      1.0  0.74220  0.42570  0.17907  1.0000
  H   H290      1.0  0.69157  0.19983  0.05202  1.0000
  C   C246      1.0  0.82400  0.17863  0.09401  1.0000
  H   H291      1.0  0.91426  0.23899  0.00743  1.0000
  C   C247      1.0  0.76641  0.18741  0.05411  1.0000
  C   C248      1.0  0.84984  0.01497  0.47151  1.0000
  C   C249      1.0  0.94780  0.32932  0.25341  1.0000
  H   H292      1.0  0.83653  0.17371  0.01688  1.0000
  H   H293      1.0  0.89849  0.02925  0.36418  1.0000
  C   C250      1.0  0.71348  0.19638  0.07018  1.0000
  C   C251      1.0  0.80116  0.18399  0.12642  1.0000
  H   H294      1.0  0.91115  0.05719  0.42004  1.0000
  N   N16       1.0  0.86385  0.00310  0.42842  1.0000
  H   H295      1.0  0.69954  0.17130  0.09386  1.0000
  C   C252      1.0  0.79028  0.18194  0.02225  1.0000
  H   H296      1.0  0.94732  0.38815  0.31287  1.0000
  H   H297      1.0  0.91207  0.01059  0.46741  1.0000
  H   H298      1.0  0.97126  0.07814  0.13321  1.0000
  C   C253      1.0  0.75468  0.22753  0.00226  1.0000
  H   H299      1.0  0.97373  0.15050  0.14491  1.0000
  H   H300      1.0  0.97501  0.09988  0.19221  1.0000
  H   H301      1.0  0.70167  0.13550  0.01833  1.0000
  C   C254      1.0  0.97633  0.39855  0.31586  1.0000
  H   H302      1.0  0.97945  0.42623  0.38608  1.0000
  N   N17       1.0  0.97517  0.36623  0.23505  1.0000
  H   H303      1.0  0.97557  0.41062  0.19440  1.0000
  H   H304      1.0  0.77165  0.10531  0.48401  1.0000
  H   H305      1.0  0.98323  0.34347  0.16614  1.0000
  C   C255      1.0  0.67905  0.34358  0.48625  1.0000
  Fe  Fe33      1.0  0.74548  0.45336  0.52413  1.0000
  S   S66       1.0  0.69616  0.45755  0.54425  1.0000
  S   S67       1.0  0.76359  0.41656  0.56368  1.0000
  Fe  Fe34      1.0  0.72456  0.01643  0.55202  1.0000
  S   S68       1.0  0.73166  0.04737  0.62667  1.0000
  S   S69       1.0  0.77882  0.02182  0.53496  1.0000
  Fe  Fe35      1.0  0.73788  0.28523  0.80629  1.0000
  S   S70       1.0  0.68290  0.23379  0.80819  1.0000
  S   S71       1.0  0.73820  0.33708  0.77760  1.0000
  Fe  Fe36      1.0  0.77467  0.24750  0.86376  1.0000
  S   S72       1.0  0.72135  0.19410  0.86745  1.0000
  S   S73       1.0  0.82478  0.24487  0.89356  1.0000
  Fe  Fe37      1.0  0.71343  0.20425  0.78614  1.0000
  S   S74       1.0  0.69067  0.16350  0.71942  1.0000
  Fe  Fe38      1.0  0.69582  0.22846  0.88918  1.0000
  C   C256      1.0  0.81746  0.12459  0.56117  1.0000
  S   S75       1.0  0.76786  0.25615  0.78060  1.0000
  S   S76       1.0  0.74967  0.28134  0.88900  1.0000
  C   C257      1.0  0.85123  0.25628  0.95057  1.0000
  S   S77       1.0  0.66250  0.21492  0.96283  1.0000
  H   H306      1.0  0.77013  0.22591  0.96943  1.0000
  C   C258      1.0  0.76881  0.12300  0.51300  1.0000
  H   H307      1.0  0.79777  0.23608  0.68191  1.0000
  C   C259      1.0  0.72043  0.08026  0.65067  1.0000
  C   C260      1.0  0.69437  0.08681  0.62782  1.0000
  C   C261      1.0  0.68547  0.11207  0.64968  1.0000
  C   C262      1.0  0.70273  0.13148  0.69427  1.0000
  C   C263      1.0  0.72918  0.12529  0.71664  1.0000
  C   C264      1.0  0.73774  0.09969  0.69515  1.0000
  C   C265      1.0  0.67043  0.25465  0.61899  1.0000
  H   H308      1.0  0.77304  0.99936  0.74494  1.0000
  H   H309      1.0  0.74287  0.14009  0.75069  1.0000
  H   H310      1.0  0.75796  0.09498  0.71326  1.0000
  C   C266      1.0  0.74217  0.35566  0.71598  1.0000
  C   C267      1.0  0.76092  0.34964  0.67704  1.0000
  C   C268      1.0  0.76644  0.36788  0.63042  1.0000
  C   C269      1.0  0.75283  0.39188  0.62168  1.0000
  C   C270      1.0  0.73273  0.39670  0.65986  1.0000
  C   C271      1.0  0.72789  0.37909  0.70687  1.0000
  H   H311      1.0  0.77221  0.33186  0.68341  1.0000
  H   H312      1.0  0.78196  0.36382  0.60120  1.0000
  H   H313      1.0  0.72180  0.41473  0.65382  1.0000
  H   H314      1.0  0.71345  0.38407  0.73673  1.0000
  C   C272      1.0  0.83329  0.19646  0.60555  1.0000
  C   C273      1.0  0.80916  0.47693  0.68161  1.0000
  H   H315      1.0  0.87746  0.22563  0.92867  1.0000
  C   C274      1.0  0.80193  0.17210  0.57689  1.0000
  C   C275      1.0  0.79916  0.21882  0.65244  1.0000
  H   H316      1.0  0.70712  0.35875  0.50247  1.0000
  C   C276      1.0  0.76814  0.19590  0.62432  1.0000
  H   H317      1.0  0.85581  0.23717  0.66502  1.0000
  H   H318      1.0  0.84565  0.14075  0.57621  1.0000
  H   H319      1.0  0.68051  0.07192  0.59393  1.0000
  C   C277      1.0  0.87521  0.24247  0.95783  1.0000
  H   H320      1.0  0.66496  0.11658  0.63202  1.0000
  H   H321      1.0  0.75770  0.13850  0.49284  1.0000
  C   C278      1.0  0.65788  0.30332  0.55902  1.0000
  H   H322      1.0  0.66614  0.33220  0.63157  1.0000
  H   H323      1.0  0.81417  0.42488  0.77592  1.0000
  C   C279      1.0  0.76920  0.17263  0.58731  1.0000
  H   H324      1.0  0.82740  0.43738  0.68508  1.0000
  H   H325      1.0  0.85923  0.19792  0.59946  1.0000
  C   C280      1.0  0.66354  0.24809  0.56743  1.0000
  H   H326      1.0  0.79949  0.10832  0.59296  1.0000
  H   H327      1.0  0.78820  0.45683  0.82398  1.0000
  H   H328      1.0  0.67543  0.23625  0.64198  1.0000
  N   N18       1.0  0.80426  0.14794  0.53796  1.0000
  C   C281      1.0  0.83173  0.21923  0.64296  1.0000
  H   H329      1.0  0.78814  0.18231  0.98155  1.0000
  H   H330      1.0  0.74277  0.19553  0.63229  1.0000
  C   C282      1.0  0.80957  0.44526  0.75750  1.0000
  C   C283      1.0  0.84909  0.27840  0.98852  1.0000
  H   H331      1.0  0.81789  0.10490  0.53328  1.0000
  H   H332      1.0  0.74825  0.10414  0.54076  1.0000
  H   H333      1.0  0.74379  0.15491  0.56815  1.0000
  H   H334      1.0  0.67670  0.29020  0.68124  1.0000
  H   H335      1.0  0.69099  0.16511  0.98205  1.0000
  C   C284      1.0  0.81708  0.45239  0.70633  1.0000
  C   C285      1.0  0.78699  0.48811  0.76018  1.0000
  H   H336      1.0  0.72880  0.16012  0.96481  1.0000
  H   H337      1.0  0.87222  0.03762  0.49353  1.0000
  H   H338      1.0  0.74679  0.01630  0.71471  1.0000
  C   C286      1.0  0.67101  0.28503  0.64109  1.0000
  H   H339      1.0  0.85842  0.18795  0.51282  1.0000
  C   C287      1.0  0.83024  0.17068  0.49805  1.0000
  H   H340      1.0  0.68034  0.37740  0.57159  1.0000
  C   C288      1.0  0.65281  0.35957  0.55480  1.0000
  C   C289      1.0  0.79468  0.46316  0.78438  1.0000
  C   C290      1.0  0.66486  0.30910  0.61183  1.0000
  H   H341      1.0  0.83181  0.29028  0.98302  1.0000
  H   H342      1.0  0.75745  0.47996  0.61999  1.0000
  H   H343      1.0  0.81331  0.47946  0.64121  1.0000
  H   H344      1.0  0.73414  0.23399  0.98657  1.0000
  H   H345      1.0  0.72796  0.47550  0.67142  1.0000
  C   C291      1.0  0.65734  0.27197  0.53778  1.0000
  H   H346      1.0  0.66314  0.22439  0.55042  1.0000
  H   H347      1.0  0.65223  0.26580  0.49797  1.0000
  H   H348      1.0  0.83395  0.99228  0.49843  1.0000
  H   H349      1.0  0.73088  0.99245  0.77300  1.0000
  C   C292      1.0  0.74456  0.99279  0.73698  1.0000
  C   C293      1.0  0.80894  0.93973  0.42281  1.0000
  H   H350      1.0  0.77134  0.69008  0.16736  1.0000
  S   S78       1.0  0.79344  0.52412  0.35534  1.0000
  Fe  Fe39      1.0  0.69135  0.96472  0.45965  1.0000
  H   H351      1.0  0.74324  0.78229  0.07372  1.0000
  S   S79       1.0  0.74478  0.96833  0.43795  1.0000
  Fe  Fe40      1.0  0.95330  0.70506  0.21293  1.0000
  S   S80       1.0  0.94582  0.75288  0.19248  1.0000
  S   S81       1.0  0.92979  0.67840  0.28952  1.0000
  Fe  Fe41      1.0  0.94247  0.73449  0.11133  1.0000
  S   S82       1.0  0.89298  0.71753  0.05890  1.0000
  S   S83       1.0  0.94729  0.68498  0.13260  1.0000
  C   C294      1.0  0.96322  0.77350  0.46250  1.0000
  H   H352      1.0  0.83822  0.72689  0.15573  1.0000
  C   C295      1.0  0.88717  0.98876  0.44821  1.0000
  H   H353      1.0  0.92903  0.72532  0.37965  1.0000
  C   C296      1.0  0.78239  0.70998  0.13710  1.0000
  S   S84       1.0  0.71222  0.50915  0.44396  1.0000
  C   C297      1.0  0.83045  0.56790  0.33779  1.0000
  C   C298      1.0  0.84080  0.57450  0.28665  1.0000
  C   C299      1.0  0.87059  0.60827  0.27097  1.0000
  C   C300      1.0  0.89082  0.63581  0.30645  1.0000
  C   C301      1.0  0.88045  0.62928  0.35759  1.0000
  C   C302      1.0  0.85034  0.59569  0.37317  1.0000
  H   H354      1.0  0.82571  0.55321  0.25896  1.0000
  H   H355      1.0  0.87821  0.61271  0.23159  1.0000
  H   H356      1.0  0.89594  0.65019  0.38550  1.0000
  H   H357      1.0  0.84290  0.59101  0.41261  1.0000
  N   N19       1.0  0.74715  0.74222  0.02751  1.0000
  H   H358      1.0  0.89607  0.97708  0.41718  1.0000
  H   H359      1.0  0.87291  0.96691  0.47687  1.0000
  H   H360      1.0  0.78660  0.95598  0.28664  1.0000
  C   C303      1.0  0.77263  0.73920  0.06300  1.0000
  H   H361      1.0  0.82569  0.68497  0.00338  1.0000
  H   H362      1.0  0.92683  0.78715  0.00219  1.0000
  H   H363      1.0  0.70382  0.68550  0.03348  1.0000
  H   H364      1.0  0.74658  0.89701  0.32899  1.0000
  C   C304      1.0  0.82002  0.73082  0.13090  1.0000
  Fe  Fe42      1.0  0.76157  0.50322  0.42937  1.0000
  H   H365      1.0  0.72998  0.69752  0.11045  1.0000
  H   H366      1.0  0.70779  0.73582  0.08456  1.0000
  H   H367      1.0  0.97441  0.82584  0.34936  1.0000
  C   C305      1.0  0.79323  0.95135  0.32451  1.0000
  H   H368      1.0  0.94373  0.64718  0.01731  1.0000
  N   N20       1.0  0.97781  0.77788  0.36850  1.0000
  C   C306      1.0  0.75896  0.71426  0.10402  1.0000
  H   H369      1.0  0.70651  0.75902  0.02919  1.0000
  C   C307      1.0  0.83259  0.97399  0.39978  1.0000
  C   C308      1.0  0.93816  0.75220  0.36086  1.0000
  C   C309      1.0  0.97540  0.71741  0.99466  1.0000
  H   H370      1.0  0.92148  0.76414  0.37468  1.0000
  H   H371      1.0  0.93132  0.74534  0.32013  1.0000
  C   C310      1.0  0.81123  0.76049  0.05830  1.0000
  C   C311      1.0  0.83436  0.75638  0.09214  1.0000
  H   H372      1.0  0.95654  0.72345  0.01643  1.0000
  C   C312      1.0  0.82382  0.97900  0.34961  1.0000
  C   C313      1.0  0.77858  0.91222  0.39726  1.0000
  H   H373      1.0  0.67196  0.90260  0.35298  1.0000
  C   C314      1.0  0.72531  0.75539  0.05506  1.0000
  H   H374      1.0  0.82439  0.77990  0.02814  1.0000
  C   C315      1.0  0.77065  0.91807  0.34826  1.0000
  H   H375      1.0  0.86371  0.77224  0.08725  1.0000
  H   H376      1.0  0.93535  0.75195  0.45688  1.0000
  H   H377      1.0  0.98013  0.80250  0.29593  1.0000
  H   H378      1.0  0.81303  0.93427  0.46144  1.0000
  C   C316      1.0  0.87806  0.73447  0.00777  1.0000
  H   H379      1.0  0.76050  0.88665  0.41621  1.0000
  C   C317      1.0  0.72198  0.70570  0.00510  1.0000
  H   H380      1.0  0.72687  0.64223  0.47684  1.0000
  H   H381      1.0  0.90812  0.65662  0.00577  1.0000
  H   H382      1.0  0.78393  0.79647  0.99872  1.0000
  Fe  Fe43      1.0  0.74999  0.96110  0.52174  1.0000
  S   S85       1.0  0.69580  0.95475  0.54298  1.0000
  S   S86       1.0  0.77971  0.93450  0.56008  1.0000
  Fe  Fe44      1.0  0.73068  0.51783  0.52574  1.0000
  S   S87       1.0  0.74555  0.57045  0.57086  1.0000
  H   H383      1.0  0.68999  0.97753  0.67696  1.0000
  Fe  Fe45      1.0  0.73167  0.76378  0.76044  1.0000
  S   S88       1.0  0.68061  0.71377  0.78770  1.0000
  S   S89       1.0  0.71597  0.78881  0.69433  1.0000
  Fe  Fe46      1.0  0.77798  0.75148  0.84168  1.0000
  S   S90       1.0  0.72949  0.70115  0.87223  1.0000
  S   S91       1.0  0.83464  0.77686  0.87881  1.0000
  Fe  Fe47      1.0  0.71473  0.68613  0.78980  1.0000
  S   S92       1.0  0.69142  0.62761  0.75842  1.0000
  Fe  Fe48      1.0  0.69977  0.73330  0.86685  1.0000
  C   C318      1.0  0.92993  0.65357  0.98648  1.0000
  S   S93       1.0  0.76486  0.73497  0.75917  1.0000
  S   S94       1.0  0.74933  0.78470  0.83963  1.0000
  C   C319      1.0  0.85067  0.75944  0.92803  1.0000
  S   S95       1.0  0.67350  0.74944  0.93061  1.0000
  C   C320      1.0  0.88608  0.78176  0.94770  1.0000
  H   H384      1.0  0.68461  0.57927  0.50576  1.0000
  H   H385      1.0  0.78209  0.75914  0.96205  1.0000
  C   C321      1.0  0.73032  0.58487  0.62442  1.0000
  C   C322      1.0  0.69861  0.56124  0.65100  1.0000
  C   C323      1.0  0.68729  0.57467  0.69212  1.0000
  C   C324      1.0  0.70768  0.61165  0.70765  1.0000
  C   C325      1.0  0.74001  0.63486  0.68214  1.0000
  C   C326      1.0  0.75103  0.62163  0.64059  1.0000
  C   C327      1.0  0.84280  0.71202  0.98777  1.0000
  C   C328      1.0  0.71924  0.92524  0.73772  1.0000
  H   H386      1.0  0.75663  0.66296  0.69460  1.0000
  H   H387      1.0  0.77580  0.64009  0.62071  1.0000
  C   C329      1.0  0.73451  0.83024  0.65879  1.0000
  C   C330      1.0  0.77094  0.85813  0.66294  1.0000
  C   C331      1.0  0.78424  0.88989  0.63271  1.0000
  C   C332      1.0  0.76119  0.89457  0.59880  1.0000
  C   C333      1.0  0.72460  0.86700  0.59537  1.0000
  C   C334      1.0  0.71153  0.83491  0.62470  1.0000
  H   H388      1.0  0.78899  0.85504  0.68890  1.0000
  H   H389      1.0  0.81262  0.91096  0.63568  1.0000
  H   H390      1.0  0.70654  0.86997  0.56926  1.0000
  H   H391      1.0  0.68330  0.81356  0.62108  1.0000
  C   C335      1.0  0.73116  0.89713  0.81128  1.0000
  H   H392      1.0  0.90303  0.80893  0.93236  1.0000
  H   H393      1.0  0.73968  0.74291  0.64900  1.0000
  H   H394      1.0  0.83888  0.56211  0.66886  1.0000
  C   C336      1.0  0.81329  0.54559  0.64690  1.0000
  C   C337      1.0  0.75117  0.49573  0.64818  1.0000
  H   H395      1.0  0.66232  0.55636  0.71173  1.0000
  H   H396      1.0  0.80630  0.56493  0.62776  1.0000
  H   H397      1.0  0.70770  0.83834  0.80910  1.0000
  C   C338      1.0  0.77325  0.54152  0.71351  1.0000
  H   H398      1.0  0.68236  0.53290  0.63919  1.0000
  C   C339      1.0  0.69415  0.85854  0.74289  1.0000
  C   C340      1.0  0.82913  0.72437  0.94832  1.0000
  H   H399      1.0  0.74403  0.89991  0.84774  1.0000
  H   H400      1.0  0.67800  0.71114  0.67618  1.0000
  N   N21       1.0  0.72380  0.95749  0.70907  1.0000
  C   C341      1.0  0.76577  0.76793  0.98513  1.0000
  H   H401      1.0  0.70450  0.72907  0.54355  1.0000
  C   C342      1.0  0.68752  0.95286  0.69630  1.0000
  C   C343      1.0  0.73565  0.71916  0.62544  1.0000
  C   C344      1.0  0.69859  0.88940  0.71693  1.0000
  S   S96       1.0  0.78124  0.51402  0.50992  1.0000
  H   H402      1.0  0.74487  0.70310  0.64815  1.0000
  C   C345      1.0  0.93262  0.69707  0.92600  1.0000
  H   H403      1.0  0.95477  0.77246  0.54296  1.0000
  H   H404      1.0  0.67084  0.94822  0.73085  1.0000
  C   C346      1.0  0.69260  0.66352  0.58127  1.0000
  H   H405      1.0  0.65217  0.62024  0.63049  1.0000
  H   H406      1.0  0.67859  0.83143  0.72606  1.0000
  H   H407      1.0  0.91127  0.69893  0.94847  1.0000
  H   H408      1.0  0.75444  0.73094  0.59294  1.0000
  H   H409      1.0  0.74153  0.51207  0.62692  1.0000
  C   C347      1.0  0.73549  0.92823  0.78592  1.0000
  H   H410      1.0  0.91828  0.67622  0.89582  1.0000
  C   C348      1.0  0.68668  0.71799  0.57717  1.0000
  H   H411      1.0  0.91653  0.62931  0.96090  1.0000
  N   N22       1.0  0.78325  0.51945  0.68003  1.0000
  C   C349      1.0  0.71061  0.86238  0.78976  1.0000
  H   H412      1.0  0.80193  0.70674  0.93364  1.0000
  H   H413      1.0  0.74914  0.98556  0.63985  1.0000
  C   C350      1.0  0.71320  0.66822  0.53680  1.0000
  H   H414      1.0  0.81923  0.53169  0.61563  1.0000
  H   H415      1.0  0.73748  0.69406  0.98608  1.0000
  H   H416      1.0  0.68622  0.88497  0.67994  1.0000
  H   H417      1.0  0.67169  0.92952  0.67001  1.0000
  N   N23       1.0  0.95530  0.68720  0.95812  1.0000
  H   H418      1.0  0.76737  0.56057  0.69147  1.0000
  H   H419      1.0  0.72803  0.93684  0.63598  1.0000
  C   C351      1.0  0.97409  0.78494  0.51240  1.0000
  H   H420      1.0  0.79574  0.55866  0.74029  1.0000
  C   C352      1.0  0.66834  0.62679  0.59655  1.0000
  H   H421      1.0  0.77031  0.96224  0.66909  1.0000
  C   C353      1.0  0.79405  0.49578  0.70781  1.0000
  H   H422      1.0  0.74787  0.52398  0.73512  1.0000
  H   H423      1.0  0.74596  0.76926  0.95875  1.0000
  N   N24       1.0  0.69701  0.69592  0.60968  1.0000
  H   H424      1.0  0.97913  0.70634  0.85773  1.0000
  C   C354      1.0  0.74364  0.96069  0.66158  1.0000
  H   H425      1.0  0.70341  0.70729  0.97659  1.0000
  H   H426      1.0  0.75194  0.95424  0.80471  1.0000
  H   H427      1.0  0.65803  0.70123  0.56357  1.0000
  C   C355      1.0  0.98217  0.68163  0.92929  1.0000
  H   H428      1.0  0.94906  0.72460  0.90854  1.0000
  H   H429      1.0  0.68892  0.74218  0.59802  1.0000
  H   H430      1.0  0.68172  0.67095  0.68324  1.0000
  C   C356      1.0  0.89973  0.76944  0.98729  1.0000
  C   C357      1.0  0.71017  0.63812  0.50989  1.0000
  H   H431      1.0  0.73223  0.69524  0.52289  1.0000
  C   C358      1.0  0.68620  0.60255  0.52592  1.0000
  H   H432      1.0  0.77473  0.50031  0.78307  1.0000
  C   C359      1.0  0.67428  0.68627  0.65593  1.0000
  C   C360      1.0  0.66509  0.59693  0.56880  1.0000
