data_image0
_chemical_formula_structural       CH2C2HC2HFeHCNHCNCHCH4FeH3SCHCSH2CHCH3CH3C2H4CHSH2C4HC2H2FeHSHS2HS2H2C7SFeHC2FeSHSC2HC2HSHC2HCHFeH2CNCHCH2CFeHNCH2SFeS2FeSFeS2C6H2NC7H8SH2FeSC2H2C2HCH3CH5CHCH9FeH2CSHSC2SC2HFeH2C3FeNFeS2HC4H3SHCHCNCH6SHCH2C2HC2H4C3HC3H2CFeCNC4SHCHC4H5C2H4SHSH2FeCSH5CHC2HSH2CH2NC3H3C2HC4SCHCHCH2C2H4NSH2CHCH4C5HCSHCH6FeS2FeS2FeSFeS3FeS2FeSCFe2NS2H2C2H2C2HCHC2HCNH3C6H3CHCHC2H4C2HC3H3CSH3CHC2HCH2CHCH2CNH2C2H2CH3CH2CHC4H3CHC2H6CH2C2HSH2CSH2FeC3HCSC2H2CHCH3C8H2CH2C2H4CH3C3HNHSHSC2HFeSC3SHFeHCFeSCFeHSCHC2H2SC2SHC2H2CH3SNC9HCH8CHSHC5HCH2CH3CHC5H2C2H6NCFeHCHFeS2HNFe2HCSHFeSCFeS2FeSFeHS2HCHCHCH2C3HSC2HC6H3CSC2FeH5CH4C3H2CH2CNH5C2HCS2CHCH3C2HSH2C2H2NC3H2C2H4C2HC2SHCFe2HSH2S3H2CSC2HSHCHCFeHFeHC2H3C3Fe2HNHCHCH2CHC2HCHC2H4CNHC2H4CS2HCHCH2SHCSC2H2C3HSNH5C4H2CSH3C2HSHC4SHCHS2FeHCHCNCH4FeH3FeH4C2HC2SCHSCHCH5CHC2H6C3NCHCHSCHC2HCHC2H3CH2C2H2C
_chemical_formula_sum              "C360 H432 Fe48 N24 S96"
_cell_length_a       36.2886
_cell_length_b       37.2448
_cell_length_c       53.2846
_cell_angle_alpha    89.8714
_cell_angle_beta     89.3684
_cell_angle_gamma    115.128

_space_group_name_H-M_alt    "P 1"
_space_group_IT_number       1

loop_
  _space_group_symop_operation_xyz
  'x, y, z'

loop_
  _atom_site_type_symbol
  _atom_site_label
  _atom_site_symmetry_multiplicity
  _atom_site_fract_x
  _atom_site_fract_y
  _atom_site_fract_z
  _atom_site_occupancy
  C   C1        1.0  0.34392  0.29830  0.29713  1.0000
  H   H1        1.0  0.40964  0.16927  0.00079  1.0000
  H   H2        1.0  0.25311  0.29682  0.26980  1.0000
  C   C2        1.0  0.26723  0.35471  0.25476  1.0000
  C   C3        1.0  0.27048  0.31882  0.25574  1.0000
  H   H3        1.0  0.28797  0.41165  0.23656  1.0000
  C   C4        1.0  0.28972  0.38328  0.23696  1.0000
  C   C5        1.0  0.30304  0.27762  0.30474  1.0000
  H   H4        1.0  0.39489  0.39395  0.20566  1.0000
  Fe  Fe1       1.0  0.42571  0.07073  0.99994  1.0000
  H   H5        1.0  0.33368  0.39993  0.20743  1.0000
  C   C6        1.0  0.39690  0.47850  0.26132  1.0000
  N   N1        1.0  0.34846  0.33364  0.20310  1.0000
  H   H6        1.0  0.27992  0.19177  0.27305  1.0000
  C   C7        1.0  0.46399  0.36849  0.14869  1.0000
  N   N2        1.0  0.44231  0.23223  0.09381  1.0000
  C   C8        1.0  0.48052  0.43881  0.14872  1.0000
  H   H7        1.0  0.43031  0.36723  0.28740  1.0000
  C   C9        1.0  0.29651  0.31137  0.23913  1.0000
  H   H8        1.0  0.34385  0.37053  0.17287  1.0000
  H   H9        1.0  0.45614  0.43179  0.24176  1.0000
  H   H10       1.0  0.29784  0.28311  0.24127  1.0000
  H   H11       1.0  0.35400  0.42613  0.31440  1.0000
  Fe  Fe2       1.0  0.45708  0.21127  0.18787  1.0000
  H   H12       1.0  0.37735  0.12802  0.03821  1.0000
  H   H13       1.0  0.30595  0.31995  0.17285  1.0000
  H   H14       1.0  0.45148  0.99913  0.16750  1.0000
  S   S1        1.0  0.41811  0.00772  0.05862  1.0000
  C   C10       1.0  0.28035  0.23939  0.29581  1.0000
  H   H15       1.0  0.45119  0.18133  0.10592  1.0000
  C   C11       1.0  0.31593  0.37624  0.22032  1.0000
  S   S2        1.0  0.45662  0.02984  0.00159  1.0000
  H   H16       1.0  0.48294  0.11882  0.13045  1.0000
  H   H17       1.0  0.39926  0.35963  0.22782  1.0000
  C   C12       1.0  0.39070  0.36277  0.20822  1.0000
  H   H18       1.0  0.47098  0.46241  0.14687  1.0000
  C   C13       1.0  0.37454  0.19788  0.31297  1.0000
  H   H19       1.0  0.24875  0.22332  0.30146  1.0000
  H   H20       1.0  0.35725  0.28775  0.22359  1.0000
  H   H21       1.0  0.31627  0.26980  0.20128  1.0000
  C   C14       1.0  0.41568  0.18247  0.01933  1.0000
  H   H22       1.0  0.41774  0.39929  0.30769  1.0000
  H   H23       1.0  0.36809  0.28912  0.19086  1.0000
  H   H24       1.0  0.41304  0.35874  0.19535  1.0000
  C   C15       1.0  0.39751  0.15926  0.04038  1.0000
  C   C16       1.0  0.34728  0.29332  0.20488  1.0000
  H   H25       1.0  0.41086  0.23665  0.12759  1.0000
  H   H26       1.0  0.38792  0.18990  0.11288  1.0000
  H   H27       1.0  0.47163  0.28705  0.11426  1.0000
  H   H28       1.0  0.47306  0.02753  0.09963  1.0000
  C   C17       1.0  0.37186  0.44685  0.27665  1.0000
  H   H29       1.0  0.46413  0.47066  0.30881  1.0000
  S   S3        1.0  0.46524  0.22439  0.22905  1.0000
  H   H30       1.0  0.24768  0.36056  0.26808  1.0000
  H   H31       1.0  0.35749  0.33229  0.16301  1.0000
  C   C18       1.0  0.33840  0.33937  0.17689  1.0000
  C   C19       1.0  0.32009  0.34002  0.22080  1.0000
  C   C20       1.0  0.40443  0.22217  0.10886  1.0000
  C   C21       1.0  0.45198  0.39933  0.14603  1.0000
  H   H32       1.0  0.35345  0.41837  0.26855  1.0000
  C   C22       1.0  0.39696  0.12939  0.14606  1.0000
  C   C23       1.0  0.43696  0.13340  0.14753  1.0000
  H   H33       1.0  0.41370  0.02454  0.14274  1.0000
  H   H34       1.0  0.42049  0.39276  0.14246  1.0000
  Fe  Fe3       1.0  0.44330  0.28463  0.17692  1.0000
  H   H35       1.0  0.38525  0.14297  0.16005  1.0000
  S   S4        1.0  0.40073  0.22167  0.18550  1.0000
  H   H36       1.0  0.34077  0.10389  0.12557  1.0000
  S   S5        1.0  0.42746  0.31912  0.14794  1.0000
  S   S6        1.0  0.36547  0.02647  0.01505  1.0000
  H   H37       1.0  0.44901  0.29142  0.08548  1.0000
  S   S7        1.0  0.40059  0.47079  0.22918  1.0000
  S   S8        1.0  0.44832  0.09871  0.03715  1.0000
  H   H38       1.0  0.34862  0.17791  0.30235  1.0000
  H   H39       1.0  0.36118  0.32803  0.30383  1.0000
  C   C24       1.0  0.43396  0.39819  0.29004  1.0000
  C   C25       1.0  0.44185  0.22242  0.02219  1.0000
  C   C26       1.0  0.40588  0.17567  0.06436  1.0000
  C   C27       1.0  0.42715  0.09433  0.10962  1.0000
  C   C28       1.0  0.38702  0.09001  0.10824  1.0000
  C   C29       1.0  0.36166  0.28052  0.28030  1.0000
  C   C30       1.0  0.48144  0.46718  0.29239  1.0000
  S   S9        1.0  0.35756  0.21630  0.25135  1.0000
  Fe  Fe4       1.0  0.41258  0.24077  0.22578  1.0000
  H   H40       1.0  0.39188  0.15588  0.07999  1.0000
  C   C31       1.0  0.45181  0.11532  0.12951  1.0000
  C   C32       1.0  0.48238  0.42531  0.24340  1.0000
  Fe  Fe5       1.0  0.39107  0.05079  0.05264  1.0000
  S   S10       1.0  0.35603  0.06446  0.08324  1.0000
  H   H41       1.0  0.41734  0.40492  0.27475  1.0000
  S   S11       1.0  0.45094  0.30480  0.21690  1.0000
  C   C33       1.0  0.37184  0.10723  0.12661  1.0000
  C   C34       1.0  0.43239  0.21623  0.06806  1.0000
  H   H42       1.0  0.39309  0.29615  0.27433  1.0000
  C   C35       1.0  0.29799  0.22157  0.27960  1.0000
  C   C36       1.0  0.33841  0.24194  0.27156  1.0000
  H   H43       1.0  0.43926  0.08159  0.09532  1.0000
  S   S12       1.0  0.46977  0.16226  0.17086  1.0000
  H   H44       1.0  0.48396  0.31524  0.30839  1.0000
  C   C37       1.0  0.37230  0.45123  0.30273  1.0000
  C   C38       1.0  0.45021  0.23928  0.04614  1.0000
  H   H45       1.0  0.38328  0.23198  0.09911  1.0000
  C   C39       1.0  0.41322  0.20099  0.30695  1.0000
  H   H46       1.0  0.39957  0.00859  0.11149  1.0000
  Fe  Fe6       1.0  0.47367  0.05373  0.04033  1.0000
  H   H47       1.0  0.46974  0.47611  0.27546  1.0000
  H   H48       1.0  0.47325  0.22322  0.12602  1.0000
  C   C40       1.0  0.46585  0.27603  0.09459  1.0000
  N   N3        1.0  0.47769  0.42616  0.29053  1.0000
  C   C41       1.0  0.46693  0.21418  0.10602  1.0000
  H   H49       1.0  0.45591  0.24032  0.00570  1.0000
  C   C42       1.0  0.40578  0.99864  0.13003  1.0000
  H   H50       1.0  0.47092  0.27028  0.04699  1.0000
  H   H51       1.0  0.41715  0.18356  0.29174  1.0000
  C   C43       1.0  0.47630  0.01938  0.11930  1.0000
  Fe  Fe7       1.0  0.39795  0.98740  0.01959  1.0000
  H   H52       1.0  0.48343  0.04631  0.13090  1.0000
  N   N4        1.0  0.43893  0.98523  0.12832  1.0000
  C   C44       1.0  0.44680  0.22716  0.32008  1.0000
  H   H53       1.0  0.47701  0.22999  0.31509  1.0000
  H   H54       1.0  0.48730  0.42206  0.20319  1.0000
  S   S13       1.0  0.23020  0.39945  0.41108  1.0000
  Fe  Fe8       1.0  0.09691  0.36294  0.59398  1.0000
  S   S14       1.0  0.06847  0.40337  0.58294  1.0000
  S   S15       1.0  0.08197  0.33459  0.63203  1.0000
  Fe  Fe9       1.0  0.14662  0.37776  0.54564  1.0000
  S   S16       1.0  0.19364  0.36197  0.52668  1.0000
  Fe  Fe10      1.0  0.06212  0.37511  0.54526  1.0000
  S   S17       1.0  0.16047  0.40567  0.58368  1.0000
  S   S18       1.0  0.08541  0.33085  0.55737  1.0000
  C   C45       1.0  0.22244  0.39101  0.44349  1.0000
  C   C46       1.0  0.19518  0.40266  0.45598  1.0000
  C   C47       1.0  0.18792  0.39578  0.48180  1.0000
  C   C48       1.0  0.20646  0.37565  0.49506  1.0000
  C   C49       1.0  0.23460  0.36494  0.48274  1.0000
  C   C50       1.0  0.24290  0.37293  0.45699  1.0000
  H   H55       1.0  0.17994  0.41733  0.44563  1.0000
  H   H56       1.0  0.16755  0.40559  0.49128  1.0000
  N   N5        1.0  0.06765  0.29973  0.47575  1.0000
  C   C51       1.0  0.08748  0.33682  0.49009  1.0000
  C   C52       1.0  0.03208  0.30096  0.46283  1.0000
  C   C53       1.0  0.05173  0.26578  0.49372  1.0000
  C   C54       1.0  0.09819  0.29634  0.45840  1.0000
  C   C55       1.0  0.13104  0.28942  0.46792  1.0000
  C   C56       1.0  0.09816  0.30273  0.43206  1.0000
  C   C57       1.0  0.12897  0.30182  0.41640  1.0000
  H   H57       1.0  0.41938  0.33905  0.36898  1.0000
  H   H58       1.0  0.01772  0.30475  0.59569  1.0000
  H   H59       1.0  0.09998  0.36308  0.47733  1.0000
  H   H60       1.0  0.26130  0.44289  0.53809  1.0000
  H   H61       1.0  0.40101  0.23937  0.39478  1.0000
  H   H62       1.0  0.46169  0.36928  0.50242  1.0000
  H   H63       1.0  0.04099  0.32824  0.45112  1.0000
  H   H64       1.0  0.41141  0.28934  0.40352  1.0000
  S   S19       1.0  0.39360  0.35303  0.42400  1.0000
  H   H65       1.0  0.13477  0.28684  0.48785  1.0000
  H   H66       1.0  0.07531  0.30946  0.42311  1.0000
  Fe  Fe11      1.0  0.13120  0.44374  0.56961  1.0000
  S   S20       1.0  0.12242  0.41978  0.53048  1.0000
  C   C58       1.0  0.16033  0.29429  0.42634  1.0000
  C   C59       1.0  0.16116  0.28778  0.45202  1.0000
  H   H67       1.0  0.15295  0.45990  0.62052  1.0000
  H   H68       1.0  0.12932  0.30809  0.39649  1.0000
  C   C60       1.0  0.02935  0.30642  0.63534  1.0000
  C   C61       1.0  0.24414  0.46123  0.54091  1.0000
  H   H69       1.0  0.18641  0.28332  0.45980  1.0000
  C   C62       1.0  0.35642  0.27031  0.36901  1.0000
  H   H70       1.0  0.01665  0.27441  0.45087  1.0000
  H   H71       1.0  0.21358  0.44447  0.53268  1.0000
  H   H72       1.0  0.06634  0.43677  0.63845  1.0000
  C   C63       1.0  0.44185  0.25063  0.33908  1.0000
  H   H73       1.0  0.24939  0.34971  0.49299  1.0000
  H   H74       1.0  0.03972  0.23700  0.48363  1.0000
  H   H75       1.0  0.99168  0.46948  0.59104  1.0000
  H   H76       1.0  0.41153  0.32264  0.33689  1.0000
  H   H77       1.0  0.46836  0.36479  0.39924  1.0000
  C   C64       1.0  0.00445  0.29654  0.61425  1.0000
  H   H78       1.0  0.02678  0.26646  0.50584  1.0000
  C   C65       1.0  0.44845  0.42740  0.43764  1.0000
  H   H79       1.0  0.11300  0.33696  0.50153  1.0000
  H   H80       1.0  0.03485  0.38398  0.63896  1.0000
  H   H81       1.0  0.42398  0.42897  0.44868  1.0000
  H   H82       1.0  0.18481  0.29489  0.41422  1.0000
  H   H83       1.0  0.23989  0.46278  0.56154  1.0000
  H   H84       1.0  0.35462  0.29082  0.38370  1.0000
  H   H85       1.0  0.33861  0.21880  0.33449  1.0000
  H   H86       1.0  0.26424  0.36417  0.44745  1.0000
  H   H87       1.0  0.00901  0.30194  0.47653  1.0000
  Fe  Fe12      1.0  0.28208  0.38962  0.39401  1.0000
  H   H88       1.0  0.44931  0.27980  0.38730  1.0000
  H   H89       1.0  0.07521  0.26605  0.50703  1.0000
  C   C66       1.0  0.41595  0.27087  0.38843  1.0000
  S   S21       1.0  0.28847  0.33228  0.39281  1.0000
  H   H90       1.0  0.05090  0.43881  0.51892  1.0000
  S   S22       1.0  0.37201  0.38079  0.35874  1.0000
  C   C67       1.0  0.44158  0.39316  0.42391  1.0000
  C   C68       1.0  0.40299  0.24909  0.34518  1.0000
  S   S23       1.0  0.34697  0.42676  0.40448  1.0000
  C   C69       1.0  0.42240  0.31774  0.35548  1.0000
  C   C70       1.0  0.00778  0.46420  0.51507  1.0000
  H   H91       1.0  0.34248  0.27639  0.35194  1.0000
  Fe  Fe13      1.0  0.35834  0.43363  0.36303  1.0000
  H   H92       1.0  0.45551  0.32587  0.35360  1.0000
  H   H93       1.0  0.06574  0.34107  0.50323  1.0000
  C   C71       1.0  0.01907  0.43286  0.51843  1.0000
  C   C72       1.0  0.36927  0.22173  0.33161  1.0000
  C   C73       1.0  0.47311  0.39122  0.40959  1.0000
  Fe  Fe14      1.0  0.30544  0.34708  0.35215  1.0000
  N   N6        1.0  0.39910  0.27627  0.36418  1.0000
  Fe  Fe15      1.0  0.35447  0.37056  0.39944  1.0000
  S   S24       1.0  0.00282  0.35446  0.52493  1.0000
  S   S25       1.0  0.29278  0.40106  0.35265  1.0000
  H   H94       1.0  0.33707  0.23967  0.37577  1.0000
  C   C74       1.0  0.05259  0.41002  0.65074  1.0000
  C   C75       1.0  0.29188  0.47750  0.49235  1.0000
  C   C76       1.0  0.29666  0.47377  0.46656  1.0000
  C   C77       1.0  0.98912  0.39389  0.52066  1.0000
  H   H95       1.0  0.47801  0.41960  0.33091  1.0000
  H   H96       1.0  0.31348  0.45760  0.45968  1.0000
  H   H97       1.0  0.30576  0.46397  0.50478  1.0000
  S   S26       1.0  0.27734  0.29823  0.32403  1.0000
  H   H98       1.0  0.46906  0.27111  0.34832  1.0000
  C   C78       1.0  0.48726  0.45933  0.43742  1.0000
  H   H99       1.0  0.08209  0.43706  0.69416  1.0000
  C   C79       1.0  0.00594  0.37799  0.68496  1.0000
  N   N7        1.0  0.02785  0.41597  0.67136  1.0000
  C   C80       1.0  0.05691  0.44508  0.68886  1.0000
  H   H100      1.0  0.04224  0.44673  0.70691  1.0000
  H   H101      1.0  0.07114  0.47528  0.68031  1.0000
  H   H102      1.0  0.03114  0.30294  0.67562  1.0000
  H   H103      1.0  0.46905  0.03879  0.78411  1.0000
  H   H104      1.0  0.41464  0.11494  0.91456  1.0000
  H   H105      1.0  0.44670  0.10174  0.87654  1.0000
  S   S27       1.0  0.42710  0.10845  0.96682  1.0000
  H   H106      1.0  0.02202  0.42091  0.75464  1.0000
  C   C81       1.0  0.01190  0.29554  0.65931  1.0000
  H   H107      1.0  0.41513  0.00501  0.93609  1.0000
  H   H108      1.0  0.45496  0.98766  0.77714  1.0000
  C   C82       1.0  0.43880  0.10540  0.91642  1.0000
  C   C83       1.0  0.45112  0.09964  0.94027  1.0000
  H   H109      1.0  0.02726  0.36650  0.69273  1.0000
  C   C84       1.0  0.45692  0.09794  0.89493  1.0000
  C   C85       1.0  0.00258  0.46736  0.74768  1.0000
  H   H110      1.0  0.48447  0.02633  0.82655  1.0000
  H   H111      1.0  0.42546  0.00199  0.89046  1.0000
  H   H112      1.0  0.15253  0.47204  0.66614  1.0000
  H   H113      1.0  0.00044  0.46960  0.69190  1.0000
  C   C86       1.0  0.42959  0.98684  0.92891  1.0000
  C   C87       1.0  0.99649  0.42768  0.75062  1.0000
  C   C88       1.0  0.99748  0.42899  0.66145  1.0000
  H   H114      1.0  0.07793  0.40366  0.65798  1.0000
  C   C89       1.0  0.48253  0.08742  0.94258  1.0000
  C   C90       1.0  0.43520  0.98503  0.90316  1.0000
  C   C91       1.0  0.48107  0.01757  0.77724  1.0000
  H   H115      1.0  0.47913  0.90556  0.99292  1.0000
  H   H116      1.0  0.42887  0.71541  0.09460  1.0000
  C   C92       1.0  0.42162  0.51946  0.29820  1.0000
  Fe  Fe16      1.0  0.48490  0.80745  0.03747  1.0000
  C   C93       1.0  0.43361  0.65840  0.06572  1.0000
  N   N8        1.0  0.40189  0.67353  0.06501  1.0000
  C   C94       1.0  0.41503  0.88699  0.07803  1.0000
  C   C95       1.0  0.41342  0.77154  0.99682  1.0000
  C   C96       1.0  0.45826  0.93448  0.10806  1.0000
  C   C97       1.0  0.41888  0.71449  0.07487  1.0000
  S   S28       1.0  0.41817  0.78067  0.02914  1.0000
  H   H117      1.0  0.46020  0.69447  0.13053  1.0000
  C   C98       1.0  0.42969  0.95093  0.11144  1.0000
  H   H118      1.0  0.40995  0.86339  0.06470  1.0000
  C   C99       1.0  0.39729  0.48750  0.31355  1.0000
  C   C100      1.0  0.38620  0.90216  0.08101  1.0000
  C   C101      1.0  0.42147  0.51496  0.27211  1.0000
  C   C102      1.0  0.46941  0.67643  0.05065  1.0000
  H   H119      1.0  0.34129  0.66093  0.07863  1.0000
  H   H120      1.0  0.35893  0.89050  0.06970  1.0000
  H   H121      1.0  0.36380  0.68415  0.03772  1.0000
  H   H122      1.0  0.35096  0.61804  0.07391  1.0000
  H   H123      1.0  0.44562  0.73481  0.06365  1.0000
  C   C103      1.0  0.45070  0.90271  0.09183  1.0000
  C   C104      1.0  0.43105  0.62697  0.08193  1.0000
  H   H124      1.0  0.37697  0.97482  0.13745  1.0000
  H   H125      1.0  0.48721  0.94661  0.11747  1.0000
  H   H126      1.0  0.41932  0.94784  0.16110  1.0000
  H   H127      1.0  0.44114  0.53944  0.26050  1.0000
  S   S29       1.0  0.37198  0.92201  0.01178  1.0000
  H   H128      1.0  0.37202  0.65018  0.10055  1.0000
  S   S30       1.0  0.46334  0.52604  0.17024  1.0000
  H   H129      1.0  0.39625  0.72741  0.07432  1.0000
  H   H130      1.0  0.40592  0.61227  0.09483  1.0000
  Fe  Fe17      1.0  0.45516  0.52061  0.21196  1.0000
  C   C105      1.0  0.36496  0.64945  0.08020  1.0000
  S   S31       1.0  0.47722  0.58593  0.21829  1.0000
  H   H131      1.0  0.44135  0.54734  0.30645  1.0000
  H   H132      1.0  0.45727  0.74683  0.99597  1.0000
  H   H133      1.0  0.47426  0.70135  0.03852  1.0000
  H   H134      1.0  0.46044  0.59146  0.09590  1.0000
  H   H135      1.0  0.47332  0.89110  0.08932  1.0000
  C   C106      1.0  0.39286  0.93314  0.09778  1.0000
  H   H136      1.0  0.36932  0.94360  0.09886  1.0000
  C   C107      1.0  0.38873  0.67422  0.03877  1.0000
  C   C108      1.0  0.46231  0.61444  0.08269  1.0000
  H   H137      1.0  0.37796  0.64442  0.03005  1.0000
  S   S32       1.0  0.46800  0.63077  0.15564  1.0000
  H   H138      1.0  0.41347  0.69552  0.02666  1.0000
  H   H139      1.0  0.36780  0.79348  0.99158  1.0000
  C   C109      1.0  0.44604  0.97453  0.15407  1.0000
  H   H140      1.0  0.47317  0.96800  0.15498  1.0000
  H   H141      1.0  0.11226  0.66647  0.57584  1.0000
  N   N9        1.0  0.03640  0.53007  0.58721  1.0000
  C   C110      1.0  0.02267  0.60980  0.54806  1.0000
  C   C111      1.0  0.99534  0.49807  0.58257  1.0000
  C   C112      1.0  0.15595  0.51694  0.60982  1.0000
  H   H142      1.0  0.45730  0.57825  0.36909  1.0000
  H   H143      1.0  0.09831  0.54039  0.57901  1.0000
  H   H144      1.0  0.00244  0.62090  0.59765  1.0000
  C   C113      1.0  0.07835  0.60355  0.58148  1.0000
  C   C114      1.0  0.04259  0.56886  0.57624  1.0000
  H   H145      1.0  0.15888  0.57565  0.60539  1.0000
  C   C115      1.0  0.05768  0.64335  0.55404  1.0000
  C   C116      1.0  0.04188  0.53291  0.61485  1.0000
  C   C117      1.0  0.01496  0.57310  0.55903  1.0000
  C   C118      1.0  0.24045  0.52349  0.53623  1.0000
  S   S33       1.0  0.05354  0.63267  0.64046  1.0000
  C   C119      1.0  0.15474  0.55887  0.64442  1.0000
  H   H146      1.0  0.32271  0.55155  0.53135  1.0000
  C   C120      1.0  0.08541  0.64024  0.57077  1.0000
  H   H147      1.0  0.02069  0.54360  0.62388  1.0000
  C   C121      1.0  0.15684  0.55273  0.61857  1.0000
  H   H148      1.0  0.46417  0.52675  0.38735  1.0000
  H   H149      1.0  0.06308  0.67192  0.54599  1.0000
  C   C122      1.0  0.27835  0.48922  0.44948  1.0000
  C   C123      1.0  0.26881  0.49731  0.50186  1.0000
  H   H150      1.0  0.20846  0.50821  0.52968  1.0000
  H   H151      1.0  0.07318  0.55336  0.62041  1.0000
  H   H152      1.0  0.03599  0.50377  0.62354  1.0000
  H   H153      1.0  0.23813  0.52603  0.55699  1.0000
  N   N10       1.0  0.26464  0.50117  0.52931  1.0000
  S   S34       1.0  0.15693  0.50883  0.57738  1.0000
  H   H154      1.0  0.25439  0.55427  0.52858  1.0000
  H   H155      1.0  0.10103  0.60283  0.59417  1.0000
  C   C124      1.0  0.15374  0.48764  0.62704  1.0000
  H   H156      1.0  0.24027  0.51962  0.44467  1.0000
  C   C125      1.0  0.00139  0.60369  0.63620  1.0000
  H   H157      1.0  0.15497  0.58639  0.65103  1.0000
  H   H158      1.0  0.30340  0.52703  0.56098  1.0000
  H   H159      1.0  0.23157  0.52742  0.48923  1.0000
  H   H160      1.0  0.06289  0.51407  0.55531  1.0000
  C   C126      1.0  0.06674  0.51787  0.57596  1.0000
  C   C127      1.0  0.47886  0.59017  0.35376  1.0000
  C   C128      1.0  0.30550  0.52209  0.54050  1.0000
  C   C129      1.0  0.15343  0.49449  0.65290  1.0000
  C   C130      1.0  0.25032  0.51259  0.48390  1.0000
  H   H161      1.0  0.03093  0.49428  0.51304  1.0000
  C   C131      1.0  0.25516  0.50847  0.45812  1.0000
  S   S35       1.0  0.40118  0.49170  0.34620  1.0000
  H   H162      1.0  0.44457  0.62066  0.33932  1.0000
  C   C132      1.0  0.47098  0.61449  0.33663  1.0000
  H   H163      1.0  0.06450  0.48942  0.58406  1.0000
  H   H164      1.0  0.32414  0.50502  0.53860  1.0000
  H   H165      1.0  0.98986  0.49197  0.56224  1.0000
  H   H166      1.0  0.48459  0.50220  0.34953  1.0000
  H   H167      1.0  0.00084  0.61224  0.53525  1.0000
  H   H168      1.0  0.28104  0.48503  0.42950  1.0000
  Fe  Fe18      1.0  0.38458  0.82264  0.84017  1.0000
  S   S36       1.0  0.32162  0.81979  0.84221  1.0000
  S   S37       1.0  0.42833  0.84698  0.80772  1.0000
  Fe  Fe19      1.0  0.37605  0.78065  0.88972  1.0000
  S   S38       1.0  0.31282  0.77448  0.89702  1.0000
  S   S39       1.0  0.41304  0.75742  0.91207  1.0000
  Fe  Fe20      1.0  0.30227  0.75754  0.85640  1.0000
  S   S40       1.0  0.24472  0.70348  0.84720  1.0000
  Fe  Fe21      1.0  0.33681  0.83696  0.88249  1.0000
  S   S41       1.0  0.32112  0.88453  0.89851  1.0000
  S   S42       1.0  0.36391  0.75864  0.85035  1.0000
  S   S43       1.0  0.40145  0.84488  0.87926  1.0000
  Fe  Fe22      1.0  0.11439  0.64467  0.72727  1.0000
  S   S44       1.0  0.09948  0.58268  0.74077  1.0000
  S   S45       1.0  0.15489  0.70221  0.74581  1.0000
  Fe  Fe23      1.0  0.07159  0.61714  0.67759  1.0000
  S   S46       1.0  0.05425  0.55330  0.68628  1.0000
  C   C133      1.0  0.27460  0.66248  0.78334  1.0000
  Fe  Fe24      1.0  0.03775  0.56740  0.72438  1.0000
  Fe  Fe25      1.0  0.11682  0.57378  0.70151  1.0000
  N   N11       1.0  0.47539  0.91833  0.95362  1.0000
  S   S47       1.0  0.05074  0.63045  0.71463  1.0000
  S   S48       1.0  0.13629  0.63662  0.68898  1.0000
  H   H169      1.0  0.26232  0.76209  0.80738  1.0000
  H   H170      1.0  0.35411  0.74837  0.74359  1.0000
  C   C134      1.0  0.33285  0.89354  0.93041  1.0000
  C   C135      1.0  0.34150  0.86678  0.94490  1.0000
  H   H171      1.0  0.19978  0.72888  0.88773  1.0000
  H   H172      1.0  0.34037  0.83991  0.93658  1.0000
  C   C136      1.0  0.15987  0.80382  0.87653  1.0000
  C   C137      1.0  0.47732  0.87975  0.81714  1.0000
  H   H173      1.0  0.30131  0.69211  0.72247  1.0000
  C   C138      1.0  0.30553  0.69466  0.79496  1.0000
  H   H174      1.0  0.14915  0.81180  0.85877  1.0000
  C   C139      1.0  0.41100  0.76161  0.94465  1.0000
  C   C140      1.0  0.38580  0.77668  0.95629  1.0000
  H   H175      1.0  0.43586  0.96725  0.96508  1.0000
  C   C141      1.0  0.22445  0.81764  0.91724  1.0000
  N   N12       1.0  0.23949  0.62644  0.74368  1.0000
  H   H176      1.0  0.36588  0.78497  0.94514  1.0000
  H   H177      1.0  0.35737  0.75084  0.78988  1.0000
  H   H178      1.0  0.21932  0.71270  0.92787  1.0000
  C   C142      1.0  0.22083  0.70292  0.81855  1.0000
  C   C143      1.0  0.18622  0.66894  0.81186  1.0000
  C   C144      1.0  0.16602  0.66811  0.78937  1.0000
  C   C145      1.0  0.18011  0.70151  0.77367  1.0000
  C   C146      1.0  0.21480  0.73539  0.78032  1.0000
  C   C147      1.0  0.23537  0.73599  0.80258  1.0000
  H   H179      1.0  0.17481  0.64331  0.82421  1.0000
  H   H180      1.0  0.13902  0.64205  0.78448  1.0000
  H   H181      1.0  0.22592  0.76120  0.76812  1.0000
  C   C148      1.0  0.30150  0.69185  0.74274  1.0000
  H   H182      1.0  0.19339  0.61021  0.77281  1.0000
  C   C149      1.0  0.22031  0.74193  0.92497  1.0000
  H   H183      1.0  0.23491  0.57948  0.71845  1.0000
  C   C150      1.0  0.46106  0.94112  0.93661  1.0000
  C   C151      1.0  0.34509  0.93664  0.96655  1.0000
  H   H184      1.0  0.26090  0.84147  0.86327  1.0000
  H   H185      1.0  0.24753  0.82967  0.95487  1.0000
  H   H186      1.0  0.27861  0.62505  0.71312  1.0000
  H   H187      1.0  0.22423  0.58262  0.77335  1.0000
  C   C152      1.0  0.38681  0.78138  0.98250  1.0000
  C   C153      1.0  0.48285  0.90539  0.83736  1.0000
  H   H188      1.0  0.27689  0.59483  0.73984  1.0000
  C   C154      1.0  0.19472  0.77294  0.85245  1.0000
  C   C155      1.0  0.25839  0.60563  0.72813  1.0000
  C   C156      1.0  0.35158  0.87482  0.97027  1.0000
  H   H189      1.0  0.03271  0.49115  0.74954  1.0000
  H   H190      1.0  0.46127  0.86874  0.92841  1.0000
  H   H191      1.0  0.48051  0.92239  0.90204  1.0000
  C   C157      1.0  0.46789  0.92288  0.98065  1.0000
  S   S49       1.0  0.15176  0.53763  0.69401  1.0000
  H   H192      1.0  0.22326  0.76905  0.84979  1.0000
  H   H193      1.0  0.24397  0.76257  0.96166  1.0000
  H   H194      1.0  0.18548  0.57206  0.75045  1.0000
  C   C158      1.0  0.23612  0.80766  0.94018  1.0000
  H   H195      1.0  0.45573  0.73872  0.95016  1.0000
  C   C159      1.0  0.33199  0.72414  0.75461  1.0000
  C   C160      1.0  0.27160  0.66013  0.75675  1.0000
  H   H196      1.0  0.23206  0.86575  0.87629  1.0000
  C   C161      1.0  0.45445  0.87547  0.94772  1.0000
  H   H197      1.0  0.22658  0.84735  0.91541  1.0000
  H   H198      1.0  0.34712  0.96399  0.97466  1.0000
  C   C162      1.0  0.45360  0.96171  0.89382  1.0000
  H   H199      1.0  0.18800  0.78295  0.83404  1.0000
  C   C163      1.0  0.44208  0.96515  0.94546  1.0000
  H   H200      1.0  0.45669  0.90527  0.84725  1.0000
  H   H201      1.0  0.20282  0.65825  0.73786  1.0000
  C   C164      1.0  0.20950  0.59664  0.76095  1.0000
  N   N13       1.0  0.19935  0.80161  0.87287  1.0000
  H   H202      1.0  0.13598  0.77483  0.88323  1.0000
  H   H203      1.0  0.30687  0.69598  0.81528  1.0000
  C   C165      1.0  0.21159  0.79038  0.89705  1.0000
  C   C166      1.0  0.20920  0.75180  0.90179  1.0000
  H   H204      1.0  0.22342  0.84859  0.84492  1.0000
  H   H205      1.0  0.47859  0.82502  0.88452  1.0000
  C   C167      1.0  0.23008  0.84095  0.86403  1.0000
  H   H206      1.0  0.16924  0.74335  0.85616  1.0000
  H   H207      1.0  0.45810  0.96073  0.87377  1.0000
  H   H208      1.0  0.25310  0.64030  0.79572  1.0000
  C   C168      1.0  0.21643  0.64125  0.72705  1.0000
  H   H209      1.0  0.16199  0.82647  0.89074  1.0000
  H   H210      1.0  0.19128  0.61641  0.71763  1.0000
  C   C169      1.0  0.33374  0.92799  0.94141  1.0000
  H   H211      1.0  0.23545  0.66098  0.71180  1.0000
  C   C170      1.0  0.23420  0.76993  0.94401  1.0000
  C   C171      1.0  0.43653  0.75074  0.95910  1.0000
  C   C172      1.0  0.33395  0.72558  0.78069  1.0000
  C   C173      1.0  0.46635  0.93998  0.91021  1.0000
  H   H212      1.0  0.32702  0.94873  0.93024  1.0000
  H   H213      1.0  0.42083  0.86480  0.94926  1.0000
  H   H214      1.0  0.46319  0.85710  0.96082  1.0000
  C   C174      1.0  0.43777  0.75576  0.98507  1.0000
  H   H215      1.0  0.43485  0.91177  0.98494  1.0000
  C   C175      1.0  0.15363  0.52998  0.66162  1.0000
  C   C176      1.0  0.35435  0.91020  0.98096  1.0000
  H   H216      1.0  0.35849  0.85423  0.98143  1.0000
  H   H217      1.0  0.48353  0.95435  0.98669  1.0000
  H   H218      1.0  0.99021  0.58158  0.67425  1.0000
  H   H219      1.0  0.47542  0.97648  0.82088  1.0000
  H   H220      1.0  0.61880  0.40224  0.18444  1.0000
  H   H221      1.0  0.52702  0.43849  0.31631  1.0000
  C   C177      1.0  0.67197  0.47628  0.23779  1.0000
  H   H222      1.0  0.56527  0.42341  0.15768  1.0000
  H   H223      1.0  0.63739  0.17468  0.01642  1.0000
  C   C178      1.0  0.58042  0.00369  0.09182  1.0000
  C   C179      1.0  0.53480  0.41714  0.26723  1.0000
  H   H224      1.0  0.54826  0.40848  0.20473  1.0000
  S   S50       1.0  0.56381  0.32388  0.23256  1.0000
  H   H225      1.0  0.58916  0.06459  0.09350  1.0000
  H   H226      1.0  0.49643  0.28589  0.08561  1.0000
  C   C180      1.0  0.54470  0.03193  0.06592  1.0000
  S   S51       1.0  0.49877  0.27299  0.17547  1.0000
  H   H227      1.0  0.58009  0.40799  0.24518  1.0000
  H   H228      1.0  0.61696  0.99973  0.00010  1.0000
  Fe  Fe26      1.0  0.50278  0.28696  0.21640  1.0000
  C   C181      1.0  0.53500  0.41344  0.22189  1.0000
  C   C182      1.0  0.61980  0.14188  0.01636  1.0000
  C   C183      1.0  0.57790  0.08430  0.99237  1.0000
  H   H229      1.0  0.49286  0.38686  0.31342  1.0000
  C   C184      1.0  0.50027  0.42032  0.22114  1.0000
  S   S52       1.0  0.53441  0.07246  0.05825  1.0000
  C   C185      1.0  0.55790  0.33091  0.26451  1.0000
  C   C186      1.0  0.51898  0.31663  0.27537  1.0000
  H   H230      1.0  0.61362  0.37883  0.31488  1.0000
  H   H231      1.0  0.63996  0.12826  0.02309  1.0000
  C   C187      1.0  0.59203  0.35314  0.27885  1.0000
  H   H232      1.0  0.49659  0.22246  0.09610  1.0000
  C   C188      1.0  0.52406  0.99525  0.05427  1.0000
  H   H233      1.0  0.62215  0.36396  0.27051  1.0000
  H   H234      1.0  0.54977  0.41530  0.28425  1.0000
  H   H235      1.0  0.50363  0.01314  0.11957  1.0000
  C   C189      1.0  0.54826  0.34809  0.31465  1.0000
  C   C190      1.0  0.52135  0.44764  0.15329  1.0000
  C   C191      1.0  0.63436  0.42336  0.19904  1.0000
  C   C192      1.0  0.55276  0.41291  0.24479  1.0000
  C   C193      1.0  0.57322  0.03624  0.08445  1.0000
  C   C194      1.0  0.58719  0.36181  0.30390  1.0000
  C   C195      1.0  0.65241  0.41200  0.21855  1.0000
  C   C196      1.0  0.51419  0.32526  0.30041  1.0000
  H   H236      1.0  0.65083  0.38223  0.21904  1.0000
  H   H237      1.0  0.49251  0.29955  0.26435  1.0000
  C   C197      1.0  0.53369  0.41682  0.15461  1.0000
  H   H238      1.0  0.59540  0.13394  0.03085  1.0000
  H   H239      1.0  0.51440  0.35355  0.15489  1.0000
  C   C198      1.0  0.67118  0.43839  0.23786  1.0000
  C   C199      1.0  0.63495  0.46116  0.19876  1.0000
  H   H240      1.0  0.60194  0.00701  0.10651  1.0000
  H   H241      1.0  0.68453  0.42909  0.25325  1.0000
  H   H242      1.0  0.59518  0.06770  0.99923  1.0000
  H   H243      1.0  0.61922  0.46805  0.18371  1.0000
  C   C200      1.0  0.49471  0.41740  0.31374  1.0000
  H   H244      1.0  0.55144  0.07689  0.00532  1.0000
  H   H245      1.0  0.54000  0.13470  0.01542  1.0000
  H   H246      1.0  0.50176  0.99171  0.04004  1.0000
  C   C201      1.0  0.50487  0.37724  0.15299  1.0000
  C   C202      1.0  0.49830  0.42250  0.26721  1.0000
  C   C203      1.0  0.54706  0.14880  0.99713  1.0000
  H   H247      1.0  0.49751  0.16607  0.00028  1.0000
  N   N14       1.0  0.60378  0.12757  0.99099  1.0000
  H   H248      1.0  0.79246  0.18585  0.56785  1.0000
  S   S53       1.0  0.61013  0.42297  0.39897  1.0000
  H   H249      1.0  0.63165  0.39329  0.48718  1.0000
  S   S54       1.0  0.65954  0.44467  0.34495  1.0000
  C   C204      1.0  0.94461  0.26589  0.64114  1.0000
  C   C205      1.0  0.82261  0.35420  0.64084  1.0000
  H   H250      1.0  0.92466  0.35642  0.52134  1.0000
  Fe  Fe27      1.0  0.59442  0.41604  0.35824  1.0000
  S   S55       1.0  0.54144  0.36106  0.34535  1.0000
  C   C206      1.0  0.86520  0.41055  0.45320  1.0000
  C   C207      1.0  0.83454  0.45575  0.42589  1.0000
  C   C208      1.0  0.96660  0.45677  0.51514  1.0000
  S   S56       1.0  0.83290  0.43909  0.51913  1.0000
  H   H251      1.0  0.91532  0.33939  0.61348  1.0000
  Fe  Fe28      1.0  0.60554  0.48079  0.39515  1.0000
  H   H252      1.0  0.90839  0.29164  0.53983  1.0000
  C   C209      1.0  0.73551  0.46037  0.43425  1.0000
  Fe  Fe29      1.0  0.81982  0.41376  0.55819  1.0000
  S   S57       1.0  0.78624  0.34993  0.56895  1.0000
  C   C210      1.0  0.94654  0.42417  0.62998  1.0000
  Fe  Fe30      1.0  0.67453  0.45688  0.38577  1.0000
  H   H253      1.0  0.94662  0.34104  0.57156  1.0000
  S   S58       1.0  0.79427  0.45527  0.57202  1.0000
  C   C211      1.0  0.64826  0.46533  0.50777  1.0000
  H   H254      1.0  0.79697  0.40099  0.40767  1.0000
  C   C212      1.0  0.56231  0.42224  0.51499  1.0000
  C   C213      1.0  0.78631  0.34773  0.60183  1.0000
  H   H255      1.0  0.76737  0.43621  0.48898  1.0000
  H   H256      1.0  0.74681  0.41068  0.44613  1.0000
  S   S59       1.0  0.58554  0.47179  0.35527  1.0000
  C   C214      1.0  0.93980  0.45417  0.64182  1.0000
  C   C215      1.0  0.82294  0.35872  0.61465  1.0000
  S   S60       1.0  0.88271  0.44942  0.57214  1.0000
  H   H257      1.0  0.73656  0.22810  0.60595  1.0000
  C   C216      1.0  0.96219  0.27546  0.61714  1.0000
  C   C217      1.0  0.51119  0.42357  0.40862  1.0000
  H   H258      1.0  0.85139  0.36966  0.60424  1.0000
  H   H259      1.0  0.82073  0.47104  0.41485  1.0000
  C   C218      1.0  0.82045  0.41509  0.42149  1.0000
  H   H260      1.0  0.84705  0.29079  0.62341  1.0000
  H   H261      1.0  0.91859  0.46455  0.63391  1.0000
  H   H262      1.0  0.67221  0.43347  0.47141  1.0000
  S   S61       1.0  0.89155  0.24243  0.64449  1.0000
  N   N15       1.0  0.79486  0.23083  0.59398  1.0000
  C   C219      1.0  0.77471  0.20275  0.57339  1.0000
  C   C220      1.0  0.79800  0.20731  0.61569  1.0000
  C   C221      1.0  0.76801  0.25011  0.60118  1.0000
  C   C222      1.0  0.83588  0.26148  0.58705  1.0000
  C   C223      1.0  0.85467  0.26287  0.56324  1.0000
  C   C224      1.0  0.85884  0.29055  0.60472  1.0000
  C   C225      1.0  0.89414  0.29142  0.55786  1.0000
  C   C226      1.0  0.89817  0.31886  0.59915  1.0000
  C   C227      1.0  0.91580  0.31945  0.57573  1.0000
  H   H263      1.0  0.77059  0.21862  0.55667  1.0000
  C   C228      1.0  0.55204  0.40828  0.47057  1.0000
  H   H264      1.0  0.74383  0.18042  0.57914  1.0000
  H   H265      1.0  0.76830  0.18242  0.62071  1.0000
  H   H266      1.0  0.80838  0.22553  0.63287  1.0000
  H   H267      1.0  0.82050  0.19485  0.61184  1.0000
  H   H268      1.0  0.76601  0.26921  0.58562  1.0000
  H   H269      1.0  0.68137  0.48126  0.50313  1.0000
  H   H270      1.0  0.77908  0.26920  0.61797  1.0000
  H   H271      1.0  0.83980  0.24211  0.54853  1.0000
  C   C229      1.0  0.74949  0.33350  0.61528  1.0000
  H   H272      1.0  0.53463  0.42192  0.39686  1.0000
  S   S62       1.0  0.72238  0.44223  0.40378  1.0000
  H   H273      1.0  0.72116  0.32514  0.60542  1.0000
  C   C230      1.0  0.75910  0.45339  0.47572  1.0000
  C   C231      1.0  0.51016  0.38787  0.47500  1.0000
  C   C232      1.0  0.63872  0.41919  0.47445  1.0000
  C   C233      1.0  0.52027  0.40192  0.51916  1.0000
  C   C234      1.0  0.97497  0.41166  0.63957  1.0000
  H   H274      1.0  0.50773  0.39941  0.53799  1.0000
  C   C235      1.0  0.51869  0.45738  0.42285  1.0000
  H   H275      1.0  0.92975  0.41079  0.61318  1.0000
  H   H276      1.0  0.56277  0.41022  0.45138  1.0000
  C   C236      1.0  0.57947  0.42614  0.49043  1.0000
  H   H277      1.0  0.94305  0.26711  0.60080  1.0000
  H   H278      1.0  0.90481  0.41203  0.51780  1.0000
  H   H279      1.0  0.80365  0.45757  0.65524  1.0000
  C   C237      1.0  0.94795  0.38642  0.51980  1.0000
  H   H280      1.0  0.62528  0.40764  0.45587  1.0000
  C   C238      1.0  0.86426  0.47500  0.44445  1.0000
  C   C239      1.0  0.87956  0.45118  0.45767  1.0000
  C   C240      1.0  0.74726  0.43887  0.45147  1.0000
  C   C241      1.0  0.49427  0.38485  0.49920  1.0000
  C   C242      1.0  0.93668  0.41791  0.51765  1.0000
  H   H281      1.0  0.82413  0.36090  0.43194  1.0000
  H   H282      1.0  0.90258  0.46374  0.47177  1.0000
  C   C243      1.0  0.74928  0.33042  0.64152  1.0000
  C   C244      1.0  0.83556  0.39249  0.43520  1.0000
  H   H283      1.0  0.87697  0.39301  0.46394  1.0000
  H   H284      1.0  0.97872  0.38795  0.62992  1.0000
  H   H285      1.0  0.85090  0.36206  0.65061  1.0000
  H   H286      1.0  0.72075  0.31969  0.65188  1.0000
  H   H287      1.0  0.61949  0.46839  0.44787  1.0000
  H   H288      1.0  0.64569  0.44242  0.52199  1.0000
  N   N16       1.0  0.62373  0.44733  0.48517  1.0000
  C   C245      1.0  0.63139  0.47974  0.46673  1.0000
  Fe  Fe31      1.0  0.89366  0.47937  0.53454  1.0000
  H   H289      1.0  0.58063  0.43466  0.53130  1.0000
  C   C246      1.0  0.78572  0.34014  0.65429  1.0000
  H   H290      1.0  0.48982  0.37453  0.45953  1.0000
  Fe  Fe32      1.0  0.65754  0.10856  0.86853  1.0000
  S   S63       1.0  0.60576  0.07095  0.84439  1.0000
  S   S64       1.0  0.70453  0.16786  0.85494  1.0000
  H   H291      1.0  0.56182  0.19320  0.92995  1.0000
  N   N17       1.0  0.82655  0.45959  0.69277  1.0000
  Fe  Fe33      1.0  0.61104  0.01907  0.86227  1.0000
  Fe  Fe34      1.0  0.56624  0.06791  0.87750  1.0000
  H   H292      1.0  0.89608  0.22296  0.78357  1.0000
  C   C247      1.0  0.52808  0.18294  0.96461  1.0000
  S   S65       1.0  0.61743  0.10953  0.90062  1.0000
  H   H293      1.0  0.51621  0.08762  0.81181  1.0000
  Fe  Fe35      1.0  0.89561  0.30836  0.72754  1.0000
  S   S66       1.0  0.88432  0.24581  0.71834  1.0000
  C   C248      1.0  0.54877  0.05818  0.79203  1.0000
  Fe  Fe36      1.0  0.82245  0.30394  0.69935  1.0000
  S   S67       1.0  0.80433  0.24103  0.68779  1.0000
  S   S68       1.0  0.78468  0.33520  0.68707  1.0000
  Fe  Fe37      1.0  0.81888  0.23143  0.72735  1.0000
  S   S69       1.0  0.78074  0.17333  0.74690  1.0000
  Fe  Fe38      1.0  0.87080  0.26066  0.67997  1.0000
  H   H294      1.0  0.98439  0.35476  0.67255  1.0000
  S   S70       1.0  0.83127  0.29302  0.73988  1.0000
  S   S71       1.0  0.88794  0.32474  0.68808  1.0000
  H   H295      1.0  0.94602  0.30243  0.80435  1.0000
  C   C249      1.0  0.62368  0.99612  0.96006  1.0000
  H   H296      1.0  0.65833  0.11988  0.98222  1.0000
  C   C250      1.0  0.61898  0.10412  0.78044  1.0000
  H   H297      1.0  0.74929  0.23284  0.82161  1.0000
  C   C251      1.0  0.80299  0.17514  0.86135  1.0000
  H   H298      1.0  0.52543  0.07114  0.92284  1.0000
  H   H299      1.0  0.83603  0.28123  0.79951  1.0000
  C   C252      1.0  0.48816  0.08561  0.89718  1.0000
  C   C253      1.0  0.57892  0.14770  0.98189  1.0000
  C   C254      1.0  0.82274  0.21493  0.86791  1.0000
  H   H300      1.0  0.79317  0.40620  0.71448  1.0000
  S   S72       1.0  0.56723  0.01286  0.89369  1.0000
  C   C255      1.0  0.95979  0.47022  0.66405  1.0000
  C   C256      1.0  0.50135  0.08076  0.92102  1.0000
  H   H301      1.0  0.53438  0.98986  0.76373  1.0000
  C   C257      1.0  0.72247  0.16905  0.82402  1.0000
  C   C258      1.0  0.71639  0.13399  0.81160  1.0000
  C   C259      1.0  0.73393  0.13568  0.78774  1.0000
  C   C260      1.0  0.75685  0.17233  0.77598  1.0000
  C   C261      1.0  0.76146  0.20730  0.78795  1.0000
  C   C262      1.0  0.74476  0.20570  0.81208  1.0000
  H   H302      1.0  0.69927  0.10563  0.82071  1.0000
  H   H303      1.0  0.73019  0.10852  0.77850  1.0000
  H   H304      1.0  0.77814  0.23549  0.77871  1.0000
  C   C263      1.0  0.84897  0.24281  0.85077  1.0000
  S   S73       1.0  0.95051  0.34723  0.74955  1.0000
  C   C264      1.0  0.92473  0.27992  0.81780  1.0000
  C   C265      1.0  0.85555  0.23166  0.82625  1.0000
  Fe  Fe39      1.0  0.62280  0.05468  0.91365  1.0000
  H   H305      1.0  0.78149  0.15380  0.87432  1.0000
  H   H306      1.0  0.88652  0.31564  0.79015  1.0000
  H   H307      1.0  0.89457  0.38196  0.74043  1.0000
  H   H308      1.0  0.90470  0.45176  0.73775  1.0000
  H   H309      1.0  0.85316  0.23247  0.77438  1.0000
  C   C266      1.0  0.58374  0.16452  0.95737  1.0000
  H   H310      1.0  0.60599  0.16384  0.94401  1.0000
  H   H311      1.0  0.88379  0.45506  0.69606  1.0000
  H   H312      1.0  0.83740  0.17919  0.80197  1.0000
  H   H313      1.0  0.87162  0.31128  0.82231  1.0000
  C   C267      1.0  0.93047  0.44521  0.74083  1.0000
  C   C268      1.0  0.55857  0.18181  0.94899  1.0000
  C   C269      1.0  0.80954  0.16301  0.83770  1.0000
  H   H314      1.0  0.65944  0.16639  0.97202  1.0000
  H   H315      1.0  0.90427  0.26930  0.76987  1.0000
  C   C270      1.0  0.83521  0.19067  0.82026  1.0000
  H   H316      1.0  0.77830  0.41301  0.67278  1.0000
  H   H317      1.0  0.86350  0.27331  0.85672  1.0000
  C   C271      1.0  0.58698  0.06606  0.78035  1.0000
  N   N18       1.0  0.88257  0.26199  0.80821  1.0000
  H   H318      1.0  0.84493  0.41440  0.68060  1.0000
  H   H319      1.0  0.79315  0.13216  0.83245  1.0000
  H   H320      1.0  0.50754  0.19487  0.95770  1.0000
  H   H321      1.0  0.93621  0.25688  0.82080  1.0000
  H   H322      1.0  0.81686  0.22422  0.88620  1.0000
  C   C272      1.0  0.88391  0.24578  0.78297  1.0000
  C   C273      1.0  0.86856  0.29383  0.80498  1.0000
  H   H323      1.0  0.92694  0.29536  0.83592  1.0000
  C   C274      1.0  0.92469  0.40563  0.74259  1.0000
  S   S74       1.0  0.66746  0.05689  0.88354  1.0000
  S   S75       1.0  0.62974  0.04462  0.95444  1.0000
  C   C275      1.0  0.95763  0.39680  0.74767  1.0000
  H   H324      1.0  0.78839  0.44964  0.72561  1.0000
  C   C276      1.0  0.57664  0.12889  0.80287  1.0000
  H   H325      1.0  0.56571  0.07228  0.97358  1.0000
  H   H326      1.0  0.64827  0.10933  0.77211  1.0000
  H   H327      1.0  0.86987  0.46128  0.66472  1.0000
  C   C277      1.0  0.79270  0.44596  0.67452  1.0000
  C   C278      1.0  0.54432  0.09106  0.80272  1.0000
  H   H328      1.0  0.59345  0.04323  0.77161  1.0000
  S   S76       1.0  0.50929  0.07526  0.86993  1.0000
  H   H329      1.0  0.57300  0.15309  0.81214  1.0000
  H   H330      1.0  0.98760  0.38132  0.70089  1.0000
  C   C279      1.0  0.96946  0.47614  0.74287  1.0000
  C   C280      1.0  0.61400  0.13533  0.79193  1.0000
  H   H331      1.0  0.63941  0.16441  0.79271  1.0000
  H   H332      1.0  0.76837  0.45502  0.68029  1.0000
  N   N19       1.0  0.51459  0.01804  0.79305  1.0000
  C   C281      1.0  0.80988  0.43891  0.71697  1.0000
  C   C282      1.0  0.85768  0.44703  0.68320  1.0000
  C   C283      1.0  0.49907  0.00757  0.81922  1.0000
  H   H333      1.0  0.62989  0.12074  0.95574  1.0000
  H   H334      1.0  0.95601  0.26821  0.68083  1.0000
  C   C284      1.0  0.96945  0.27595  0.66225  1.0000
  C   C285      1.0  0.63943  0.13426  0.97451  1.0000
  H   H335      1.0  0.83399  0.44299  0.73077  1.0000
  H   H336      1.0  0.52409  0.01083  0.83221  1.0000
  H   H337      1.0  0.49288  0.08387  0.96091  1.0000
  H   H338      1.0  0.49159  0.02596  0.75749  1.0000
  C   C286      1.0  0.98739  0.45718  0.67410  1.0000
  C   C287      1.0  0.52604  0.98637  0.78402  1.0000
  H   H339      1.0  0.55209  0.98622  0.79484  1.0000
  C   C288      1.0  0.52244  0.16660  0.98865  1.0000
  C   C289      1.0  0.60793  0.54378  0.29241  1.0000
  S   S77       1.0  0.55452  0.59756  0.18073  1.0000
  H   H340      1.0  0.65702  0.87146  0.09721  1.0000
  C   C290      1.0  0.51370  0.72290  0.10706  1.0000
  Fe  Fe40      1.0  0.49057  0.59174  0.17687  1.0000
  Fe  Fe41      1.0  0.55138  0.87638  0.06327  1.0000
  H   H341      1.0  0.56119  0.84174  0.13539  1.0000
  S   S78       1.0  0.58444  0.62300  0.25017  1.0000
  H   H342      1.0  0.63212  0.82813  0.21860  1.0000
  H   H343      1.0  0.54815  0.63202  0.29504  1.0000
  S   S79       1.0  0.52180  0.87054  0.02590  1.0000
  S   S80       1.0  0.60063  0.86012  0.04902  1.0000
  S   S81       1.0  0.56857  0.92645  0.09065  1.0000
  H   H344      1.0  0.69512  0.54966  0.18731  1.0000
  H   H345      1.0  0.52818  0.67897  0.04060  1.0000
  C   C291      1.0  0.60698  0.60073  0.27023  1.0000
  S   S82       1.0  0.58199  0.75806  0.07715  1.0000
  C   C292      1.0  0.64549  0.62440  0.27958  1.0000
  C   C293      1.0  0.55070  0.72314  0.09936  1.0000
  H   H346      1.0  0.66032  0.65556  0.27462  1.0000
  S   S83       1.0  0.52841  0.78490  0.02142  1.0000
  H   H347      1.0  0.69656  0.62603  0.30042  1.0000
  C   C294      1.0  0.66486  0.54784  0.19319  1.0000
  H   H348      1.0  0.64277  0.53248  0.17815  1.0000
  C   C295      1.0  0.58787  0.56042  0.27686  1.0000
  Fe  Fe42      1.0  0.53882  0.58614  0.22174  1.0000
  H   H349      1.0  0.59399  0.51239  0.29676  1.0000
  Fe  Fe43      1.0  0.56741  0.84878  0.01263  1.0000
  H   H350      1.0  0.57230  0.81028  0.11415  1.0000
  C   C296      1.0  0.56349  0.69589  0.10995  1.0000
  C   C297      1.0  0.53881  0.66782  0.12775  1.0000
  H   H351      1.0  0.58842  0.50271  0.20877  1.0000
  H   H352      1.0  0.59227  0.69614  0.10415  1.0000
  H   H353      1.0  0.55809  0.54222  0.26960  1.0000
  C   C298      1.0  0.60474  0.76145  0.17131  1.0000
  C   C299      1.0  0.64743  0.56748  0.30075  1.0000
  C   C300      1.0  0.63028  0.84259  0.17950  1.0000
  Fe  Fe44      1.0  0.52606  0.53113  0.17778  1.0000
  Fe  Fe45      1.0  0.55704  0.79791  0.05928  1.0000
  H   H354      1.0  0.60279  0.77408  0.13265  1.0000
  N   N20       1.0  0.65212  0.52789  0.21804  1.0000
  H   H355      1.0  0.66677  0.57850  0.19341  1.0000
  C   C301      1.0  0.60963  0.52147  0.22328  1.0000
  H   H356      1.0  0.60908  0.75626  0.21122  1.0000
  C   C302      1.0  0.66589  0.60772  0.29434  1.0000
  H   H357      1.0  0.68388  0.85905  0.12153  1.0000
  H   H358      1.0  0.64251  0.82111  0.10545  1.0000
  C   C303      1.0  0.61291  0.77629  0.19557  1.0000
  H   H359      1.0  0.54834  0.64628  0.13544  1.0000
  C   C304      1.0  0.62582  0.81677  0.19965  1.0000
  C   C305      1.0  0.56016  0.96704  0.08009  1.0000
  H   H360      1.0  0.64038  0.91511  0.12224  1.0000
  C   C306      1.0  0.65329  0.85134  0.11350  1.0000
  H   H361      1.0  0.67000  0.90910  0.14720  1.0000
  C   C307      1.0  0.58394  0.84097  0.12148  1.0000
  C   C308      1.0  0.62199  0.82830  0.15450  1.0000
  H   H362      1.0  0.64000  0.87348  0.18401  1.0000
  H   H363      1.0  0.60661  0.55003  0.22369  1.0000
  H   H364      1.0  0.61759  0.90142  0.15251  1.0000
  H   H365      1.0  0.51617  0.93473  0.05212  1.0000
  C   C309      1.0  0.63893  0.89675  0.13915  1.0000
  N   N21       1.0  0.62472  0.85417  0.13273  1.0000
  H   H366      1.0  0.58452  0.86025  0.10537  1.0000
  C   C310      1.0  0.60947  0.78702  0.15108  1.0000
  C   C311      1.0  0.67841  0.55558  0.23722  1.0000
  H   H367      1.0  0.66853  0.54416  0.25658  1.0000
  H   H368      1.0  0.67696  0.58488  0.23652  1.0000
  H   H369      1.0  0.48953  0.64800  0.30214  1.0000
  H   H370      1.0  0.71083  0.56102  0.23463  1.0000
  C   C312      1.0  0.53237  0.96299  0.06105  1.0000
  S   S84       1.0  0.67767  0.54712  0.31514  1.0000
  S   S85       1.0  0.51558  0.52045  0.21914  1.0000
  H   H371      1.0  0.51372  0.48875  0.29433  1.0000
  C   C313      1.0  0.65399  0.48892  0.21805  1.0000
  H   H372      1.0  0.60398  0.92979  0.00808  1.0000
  C   C314      1.0  0.52902  0.62049  0.31158  1.0000
  H   H373      1.0  0.59434  0.72985  0.16812  1.0000
  H   H374      1.0  0.52164  0.62382  0.06889  1.0000
  S   S86       1.0  0.50993  0.81501  0.07631  1.0000
  H   H375      1.0  0.50390  0.74398  0.09920  1.0000
  C   C315      1.0  0.49691  0.63274  0.06757  1.0000
  S   S87       1.0  0.55658  0.49661  0.15902  1.0000
  C   C316      1.0  0.50047  0.66370  0.05159  1.0000
  C   C317      1.0  0.50133  0.66708  0.13497  1.0000
  H   H376      1.0  0.59858  0.50616  0.24165  1.0000
  H   H377      1.0  0.68635  0.49478  0.25364  1.0000
  C   C318      1.0  0.49607  0.62970  0.31562  1.0000
  C   C319      1.0  0.60946  0.94138  0.98911  1.0000
  C   C320      1.0  0.48907  0.69492  0.12480  1.0000
  H   H378      1.0  0.56276  0.58948  0.32424  1.0000
  S   S88       1.0  0.77497  0.50890  0.51289  1.0000
  N   N22       1.0  0.87960  0.51788  0.44994  1.0000
  H   H379      1.0  0.74770  0.53915  0.47108  1.0000
  H   H380      1.0  0.72646  0.51320  0.42815  1.0000
  H   H381      1.0  0.82533  0.52418  0.43974  1.0000
  H   H382      1.0  0.50601  0.52820  0.40506  1.0000
  H   H383      1.0  0.86349  0.53680  0.41500  1.0000
  C   C321      1.0  0.98427  0.60169  0.61256  1.0000
  C   C322      1.0  0.51276  0.58082  0.35044  1.0000
  C   C323      1.0  0.51644  0.51804  0.35613  1.0000
  C   C324      1.0  0.93693  0.55367  0.65161  1.0000
  H   H384      1.0  0.98676  0.54873  0.55403  1.0000
  H   H385      1.0  0.97107  0.50577  0.59049  1.0000
  C   C325      1.0  0.92035  0.55027  0.62771  1.0000
  S   S89       1.0  0.87511  0.52684  0.54689  1.0000
  H   H386      1.0  0.93120  0.57238  0.58968  1.0000
  H   H387      1.0  0.57228  0.60648  0.38366  1.0000
  H   H388      1.0  0.87005  0.56984  0.44055  1.0000
  C   C326      1.0  0.92369  0.53795  0.44374  1.0000
  C   C327      1.0  0.73521  0.49633  0.44143  1.0000
  H   H389      1.0  0.84171  0.50620  0.48296  1.0000
  S   S90       1.0  0.67167  0.51598  0.38571  1.0000
  H   H390      1.0  0.49922  0.57277  0.40149  1.0000
  C   C328      1.0  0.49678  0.54565  0.39154  1.0000
  C   C329      1.0  0.94402  0.57435  0.60811  1.0000
  C   C330      1.0  0.85868  0.53793  0.43560  1.0000
  C   C331      1.0  0.75950  0.48966  0.48281  1.0000
  S   S91       1.0  0.95274  0.49636  0.51363  1.0000
  H   H391      1.0  0.93619  0.57049  0.44695  1.0000
  C   C332      1.0  0.74734  0.51101  0.46568  1.0000
  H   H392      1.0  0.57322  0.55983  0.39104  1.0000
  S   S92       1.0  0.87026  0.51527  0.62281  1.0000
  S   S93       1.0  0.56740  0.49684  0.42230  1.0000
  Fe  Fe46      1.0  0.65168  0.50127  0.34571  1.0000
  H   H393      1.0  0.88195  0.55521  0.48161  1.0000
  C   C333      1.0  0.56566  0.57653  0.37616  1.0000
  H   H394      1.0  0.94184  0.52681  0.45556  1.0000
  C   C334      1.0  0.87386  0.52363  0.47701  1.0000
  N   N23       1.0  0.52252  0.55576  0.36838  1.0000
  C   C335      1.0  0.53720  0.59621  0.32855  1.0000
  H   H395      1.0  0.92956  0.53310  0.42377  1.0000
  H   H396      1.0  0.89293  0.51435  0.48917  1.0000
  H   H397      1.0  0.52202  0.49778  0.36943  1.0000
  H   H398      1.0  0.58755  0.58016  0.36054  1.0000
  Fe  Fe47      1.0  0.85834  0.49312  0.58330  1.0000
  H   H399      1.0  0.61665  0.49918  0.47282  1.0000
  H   H400      1.0  0.66441  0.49877  0.46392  1.0000
  H   H401      1.0  0.53719  0.52288  0.33970  1.0000
  Fe  Fe48      1.0  0.81287  0.48437  0.53421  1.0000
  H   H402      1.0  0.63928  0.48762  0.51647  1.0000
  H   H403      1.0  0.49283  0.48543  0.44846  1.0000
  H   H404      1.0  0.69903  0.90990  0.88763  1.0000
  H   H405      1.0  0.52842  0.92676  0.93087  1.0000
  C   C336      1.0  0.51197  0.84209  0.88122  1.0000
  C   C337      1.0  0.55057  0.90758  0.81076  1.0000
  H   H406      1.0  0.92249  0.57366  0.73025  1.0000
  C   C338      1.0  0.89790  0.56144  0.71690  1.0000
  C   C339      1.0  0.61660  0.93238  0.94464  1.0000
  S   S94       1.0  0.97591  0.52534  0.73907  1.0000
  C   C340      1.0  0.62363  0.97184  0.94007  1.0000
  H   H407      1.0  0.58064  0.88921  0.86316  1.0000
  S   S95       1.0  0.59551  0.86639  0.97425  1.0000
  C   C341      1.0  0.64984  0.86215  0.90666  1.0000
  H   H408      1.0  0.61638  0.91377  0.92914  1.0000
  C   C342      1.0  0.55614  0.93367  0.83070  1.0000
  H   H409      1.0  0.51945  0.87378  0.88505  1.0000
  H   H410      1.0  0.90573  0.61850  0.70304  1.0000
  H   H411      1.0  0.53730  0.86151  0.93001  1.0000
  H   H412      1.0  0.57671  0.90835  0.80037  1.0000
  H   H413      1.0  0.53799  0.77081  0.90369  1.0000
  C   C343      1.0  0.60896  0.91693  0.96909  1.0000
  H   H414      1.0  0.59634  0.81777  0.92325  1.0000
  C   C344      1.0  0.64072  0.90176  0.87357  1.0000
  C   C345      1.0  0.52220  0.93246  0.84406  1.0000
  H   H415      1.0  0.81471  0.51966  0.66640  1.0000
  H   H416      1.0  0.95388  0.49280  0.67381  1.0000
  H   H417      1.0  0.91874  0.53539  0.66683  1.0000
  H   H418      1.0  0.49023  0.76735  0.89299  1.0000
  H   H419      1.0  0.66974  0.85564  0.91906  1.0000
  H   H420      1.0  0.51717  0.83892  0.86086  1.0000
  C   C346      1.0  0.87684  0.52036  0.71447  1.0000
  C   C347      1.0  0.60763  0.84062  0.90892  1.0000
  C   C348      1.0  0.58059  0.84950  0.89376  1.0000
  N   N24       1.0  0.53599  0.82730  0.89724  1.0000
  C   C349      1.0  0.52377  0.78501  0.89108  1.0000
  H   H421      1.0  0.53260  0.78177  0.87144  1.0000
  C   C350      1.0  0.52467  0.83012  0.92379  1.0000
  H   H422      1.0  0.52617  0.95247  0.85940  1.0000
  S   S96       1.0  0.60575  0.96772  0.83811  1.0000
  C   C351      1.0  0.66635  0.89279  0.88908  1.0000
  H   H423      1.0  0.65353  0.92584  0.85998  1.0000
  C   C352      1.0  0.59849  0.88043  0.87570  1.0000
  C   C353      1.0  0.88857  0.58666  0.70156  1.0000
  H   H424      1.0  0.53196  0.91619  0.96321  1.0000
  C   C354      1.0  0.51987  0.93185  0.95015  1.0000
  H   H425      1.0  0.50716  0.86139  0.78809  1.0000
  C   C355      1.0  0.83676  0.52973  0.68122  1.0000
  C   C356      1.0  0.85796  0.57084  0.68385  1.0000
  H   H426      1.0  0.53614  0.81411  0.93696  1.0000
  H   H427      1.0  0.49115  0.81681  0.92674  1.0000
  H   H428      1.0  0.85156  0.59054  0.67144  1.0000
  C   C357      1.0  0.51126  0.88107  0.80379  1.0000
  H   H429      1.0  0.88637  0.50237  0.72627  1.0000
  H   H430      1.0  0.53645  0.96426  0.95381  1.0000
  C   C358      1.0  0.61699  0.98101  0.98460  1.0000
  C   C359      1.0  0.84581  0.50312  0.69640  1.0000
  H   H431      1.0  0.50057  0.95624  0.78629  1.0000
  H   H432      1.0  0.62891  0.98342  0.92109  1.0000
  C   C360      1.0  0.97749  0.57990  0.65582  1.0000
