data_image0
_chemical_formula_structural       FeSFeSCFeHFeS2CHFeS2FeS2FeSFeS4C2SH2CHNC6H4C8H4C4HC2H2SH2CH4C2HC4H3CH2SC3HCH2C3HCNH2CH5SCH2CH2CHC3HCHCHCHFeHC3HNH2SCHCHCHCH4CH3CHC2HC2H2CH2CH2CHSNH2NC4H3CH2C2H3C3H4CH2CHCH3FeSFeSHCS2HFeS2CHFeSC3HC4HC2HCH2CH5SCHFeHCNCSHFeS2HFeSNSC3HSHC5H2C2H2FeHSHSH2SHC2HFeH7C3HCH2C2HCSNH2SHCH2CHCNCHCHCH3CFeCHCH3FeCH3CFeH2CSCH2C2H2CSH3C2H2SC2H5CHC4H2C5H2CHCH2C3NHC2H2CSHCH4CHCHCH3CHCHCH3CNH2CSHC2H2SC3H2FeS2FeHFeCFeS2HSFeSHFeS2FeSFeS3H3C8H3C9SH2C2HC3SH5C2HNC2H2CHCS2CH8NCFeHC2H7CH2CH3C2HCH2CN2CSCH2CHCHCFeH4SH2SH3C2H5FeC6HCH2C2SH2C3HCHSC2H2C2H2NCHC3HC2H2C2HC2HCH4C2SHCH4C2H5CH2CHCH2CHCH9CHCHC3NC3HSC2HC2FeCHFeS2FeSFeCS2CH2FeSFeS2FeHFeS2H3CHC3H4C6H6C7S2HCH3C2NC8H16CH2CH2SC2HCH2C2H2CSCH3CH2CH3SHSC3NHC3HCHSC2H2SHCHCH2C2HCHSH2NHNH2CSC3H2CHCH5CHCH2NCSH6SFeSHFeSFeS3CSHCFeHSHFeHCH2C3HC6HC4H2FeS2FeS2Fe2HS2CFeS2FeH2SC2H2CHC4HCH2CHC2HNC7H8FeCH3CHNC2H2CSFeH3SCHC2H4CHFeCSH5CHNHCHSCH2SCHC2HFeCSHC4HCHCH5CHCNCH4CHCHCHCHFeH4C2NHC4H4C2HCHC2H5C2HCH3CH2C2HNHCHCH2CH3FeS2FeSCFeCFeS3CFeS2FeSFe2CS2CH2CH3C7HC2HC6H4C3HC2H3CH2SH4C2HC6H4C2NH7CSH3CHC2HS2CH2CHCH4CN2H2C2HC2HSHCHCHC3H2CHCH5NH2CHC3HCHC2HCSH5CHC2
_chemical_formula_sum              "Fe64 S128 C480 H576 N32"
_cell_length_a       35.1293
_cell_length_b       35.8654
_cell_length_c       35.1294
_cell_angle_alpha    90.1634
_cell_angle_beta     90.2231
_cell_angle_gamma    90.5391

_space_group_name_H-M_alt    "P 1"
_space_group_IT_number       1

loop_
  _space_group_symop_operation_xyz
  'x, y, z'

loop_
  _atom_site_type_symbol
  _atom_site_label
  _atom_site_symmetry_multiplicity
  _atom_site_fract_x
  _atom_site_fract_y
  _atom_site_fract_z
  _atom_site_occupancy
  Fe  Fe1       1.0  0.45072  0.08363  0.48204  1.0000
  S   S1        1.0  0.43713  0.05616  0.42619  1.0000
  Fe  Fe2       1.0  0.38540  0.14204  0.47142  1.0000
  S   S2        1.0  0.36712  0.11728  0.41552  1.0000
  C   C1        1.0  0.48052  0.24040  0.01461  1.0000
  Fe  Fe3       1.0  0.37609  0.06203  0.44417  1.0000
  H   H1        1.0  0.37429  0.17504  0.26105  1.0000
  Fe  Fe4       1.0  0.42964  0.11409  0.40347  1.0000
  S   S3        1.0  0.45330  0.13814  0.34948  1.0000
  S   S4        1.0  0.44799  0.14180  0.45779  1.0000
  C   C2        1.0  0.19496  0.27886  0.32230  1.0000
  H   H2        1.0  0.33604  0.26430  0.39666  1.0000
  Fe  Fe5       1.0  0.38833  0.16304  0.08831  1.0000
  S   S5        1.0  0.38189  0.17052  0.15183  1.0000
  S   S6        1.0  0.43402  0.18849  0.04915  1.0000
  Fe  Fe6       1.0  0.32001  0.10751  0.08366  1.0000
  S   S7        1.0  0.30749  0.11223  0.14565  1.0000
  S   S8        1.0  0.28733  0.07299  0.04002  1.0000
  Fe  Fe7       1.0  0.31943  0.17314  0.13890  1.0000
  S   S9        1.0  0.28044  0.21339  0.16756  1.0000
  Fe  Fe8       1.0  0.37062  0.10859  0.15369  1.0000
  S   S10       1.0  0.38350  0.06719  0.19993  1.0000
  S   S11       1.0  0.32603  0.16954  0.07567  1.0000
  S   S12       1.0  0.38289  0.10007  0.09157  1.0000
  S   S13       1.0  0.21591  0.28164  0.42710  1.0000
  C   C3        1.0  0.42335  0.31579  0.44914  1.0000
  C   C4        1.0  0.20834  0.31528  0.32633  1.0000
  S   S14       1.0  0.22701  0.32782  0.04284  1.0000
  H   H3        1.0  0.09283  0.14294  0.43395  1.0000
  H   H4        1.0  0.24537  0.20834  0.41394  1.0000
  C   C5        1.0  0.19700  0.26114  0.28705  1.0000
  H   H5        1.0  0.29147  0.32819  0.18775  1.0000
  N   N1        1.0  0.24364  0.33585  0.22544  1.0000
  C   C6        1.0  0.26575  0.24529  0.13300  1.0000
  C   C7        1.0  0.22867  0.25904  0.13378  1.0000
  C   C8        1.0  0.21684  0.28493  0.10647  1.0000
  C   C9        1.0  0.24196  0.29664  0.07802  1.0000
  C   C10       1.0  0.27911  0.28295  0.07734  1.0000
  C   C11       1.0  0.29105  0.25733  0.10487  1.0000
  H   H6        1.0  0.20886  0.24913  0.15505  1.0000
  H   H7        1.0  0.18807  0.29524  0.10704  1.0000
  H   H8        1.0  0.29872  0.29239  0.05571  1.0000
  H   H9        1.0  0.31997  0.24727  0.10459  1.0000
  C   C12       1.0  0.24127  0.05057  0.39600  1.0000
  C   C13       1.0  0.44594  0.30270  0.04641  1.0000
  C   C14       1.0  0.43590  0.11688  0.30787  1.0000
  C   C15       1.0  0.41576  0.08309  0.30937  1.0000
  C   C16       1.0  0.40056  0.06745  0.27585  1.0000
  C   C17       1.0  0.40485  0.08594  0.24100  1.0000
  C   C18       1.0  0.42534  0.11947  0.23949  1.0000
  C   C19       1.0  0.44112  0.13476  0.27286  1.0000
  H   H10       1.0  0.41187  0.06908  0.33634  1.0000
  H   H11       1.0  0.38501  0.04131  0.27706  1.0000
  H   H12       1.0  0.42935  0.13347  0.21257  1.0000
  H   H13       1.0  0.45695  0.16075  0.27164  1.0000
  C   C20       1.0  0.32020  0.21962  0.47519  1.0000
  C   C21       1.0  0.25633  0.25859  0.44618  1.0000
  C   C22       1.0  0.28077  0.27573  0.47263  1.0000
  C   C23       1.0  0.10127  0.05741  0.47362  1.0000
  H   H14       1.0  0.35521  0.23235  0.03014  1.0000
  C   C24       1.0  0.19592  0.15981  0.48178  1.0000
  C   C25       1.0  0.29602  0.20269  0.44839  1.0000
  H   H15       1.0  0.30180  0.17469  0.43863  1.0000
  H   H16       1.0  0.02972  0.30963  0.05803  1.0000
  S   S15       1.0  0.36038  0.19631  0.49448  1.0000
  H   H17       1.0  0.23917  0.13262  0.00870  1.0000
  H   H18       1.0  0.18618  0.23290  0.28388  1.0000
  C   C26       1.0  0.43319  0.26645  0.05635  1.0000
  H   H19       1.0  0.38879  0.26662  0.45761  1.0000
  H   H20       1.0  0.40993  0.26290  0.07614  1.0000
  H   H21       1.0  0.10865  0.10072  0.41163  1.0000
  H   H22       1.0  0.18295  0.26449  0.34668  1.0000
  C   C27       1.0  0.22372  0.33438  0.29524  1.0000
  C   C28       1.0  0.21599  0.09574  0.48024  1.0000
  H   H23       1.0  0.40447  0.32721  0.42773  1.0000
  C   C29       1.0  0.22654  0.31703  0.25887  1.0000
  C   C30       1.0  0.29336  0.22205  0.32062  1.0000
  C   C31       1.0  0.29907  0.24697  0.35088  1.0000
  C   C32       1.0  0.33234  0.24569  0.37253  1.0000
  H   H24       1.0  0.27265  0.19690  0.24786  1.0000
  H   H25       1.0  0.26680  0.22435  0.30542  1.0000
  H   H26       1.0  0.27713  0.26681  0.35835  1.0000
  C   C33       1.0  0.27931  0.04786  0.40815  1.0000
  H   H27       1.0  0.29891  0.07075  0.40351  1.0000
  H   H28       1.0  0.23155  0.07570  0.38223  1.0000
  S   S16       1.0  0.16793  0.02464  0.38845  1.0000
  C   C34       1.0  0.48206  0.32056  0.48730  1.0000
  C   C35       1.0  0.21287  0.27969  0.25585  1.0000
  C   C36       1.0  0.32116  0.19499  0.31114  1.0000
  H   H29       1.0  0.06162  0.10328  0.43167  1.0000
  C   C37       1.0  0.22489  0.13358  0.48282  1.0000
  H   H30       1.0  0.19469  0.18407  0.02213  1.0000
  H   H31       1.0  0.14277  0.02259  0.23721  1.0000
  C   C38       1.0  0.27792  0.16928  0.26116  1.0000
  C   C39       1.0  0.34478  0.17563  0.24969  1.0000
  C   C40       1.0  0.36024  0.21973  0.36386  1.0000
  H   H32       1.0  0.27524  0.14862  0.23748  1.0000
  C   C41       1.0  0.26403  0.22190  0.43439  1.0000
  N   N2        1.0  0.31607  0.16793  0.27951  1.0000
  H   H33       1.0  0.25485  0.16307  0.28188  1.0000
  H   H34       1.0  0.34325  0.15458  0.22632  1.0000
  C   C42       1.0  0.35504  0.19501  0.33342  1.0000
  H   H35       1.0  0.34054  0.20359  0.23668  1.0000
  H   H36       1.0  0.38592  0.21829  0.38108  1.0000
  H   H37       1.0  0.27503  0.30381  0.48222  1.0000
  H   H38       1.0  0.37786  0.17573  0.32771  1.0000
  H   H39       1.0  0.25435  0.14258  0.48547  1.0000
  S   S17       1.0  0.11982  0.33221  0.07885  1.0000
  C   C43       1.0  0.17807  0.08385  0.47694  1.0000
  H   H40       1.0  0.25418  0.03011  0.10516  1.0000
  H   H41       1.0  0.26978  0.28602  0.20319  1.0000
  C   C44       1.0  0.32137  0.12936  0.29371  1.0000
  H   H42       1.0  0.30149  0.12299  0.31749  1.0000
  H   H43       1.0  0.31682  0.10820  0.27080  1.0000
  C   C45       1.0  0.41437  0.28174  0.46596  1.0000
  H   H44       1.0  0.35064  0.12468  0.30447  1.0000
  C   C46       1.0  0.25914  0.03179  0.04400  1.0000
  C   C47       1.0  0.47632  0.30804  0.02083  1.0000
  C   C48       1.0  0.21566  0.02111  0.40253  1.0000
  H   H45       1.0  0.43228  0.32674  0.05877  1.0000
  C   C49       1.0  0.27737  0.31472  0.21259  1.0000
  H   H46       1.0  0.17347  0.05411  0.47444  1.0000
  C   C50       1.0  0.23439  0.22700  0.00560  1.0000
  H   H47       1.0  0.29881  0.31224  0.23584  1.0000
  C   C51       1.0  0.31224  0.25617  0.48734  1.0000
  H   H48       1.0  0.23870  0.07540  0.48042  1.0000
  Fe  Fe9       1.0  0.20079  0.34311  0.43562  1.0000
  H   H49       1.0  0.20367  0.30947  0.18627  1.0000
  C   C52       1.0  0.09189  0.11202  0.43592  1.0000
  C   C53       1.0  0.43854  0.26680  0.49332  1.0000
  C   C54       1.0  0.45026  0.23500  0.04022  1.0000
  H   H50       1.0  0.21423  0.26459  0.22919  1.0000
  N   N3        1.0  0.10717  0.09842  0.47269  1.0000
  H   H51       1.0  0.20643  0.32891  0.35382  1.0000
  H   H52       1.0  0.21488  0.24954  0.01164  1.0000
  S   S18       1.0  0.38973  0.08659  0.50163  1.0000
  C   C55       1.0  0.21566  0.33717  0.19375  1.0000
  H   H53       1.0  0.22837  0.34878  0.16725  1.0000
  C   C56       1.0  0.45680  0.33486  0.45934  1.0000
  H   H54       1.0  0.28022  0.02963  0.30778  1.0000
  C   C57       1.0  0.14769  0.10986  0.47639  1.0000
  H   H55       1.0  0.13653  0.16972  0.47738  1.0000
  C   C58       1.0  0.15788  0.14825  0.47851  1.0000
  H   H56       1.0  0.11529  0.04354  0.44911  1.0000
  H   H57       1.0  0.08181  0.24450  0.02601  1.0000
  H   H58       1.0  0.20306  0.18932  0.48334  1.0000
  H   H59       1.0  0.10858  0.33459  0.26446  1.0000
  C   C59       1.0  0.22295  0.19020  0.01145  1.0000
  H   H60       1.0  0.07064  0.04952  0.47160  1.0000
  H   H61       1.0  0.31079  0.02968  0.24418  1.0000
  H   H62       1.0  0.08329  0.14540  0.50320  1.0000
  C   C60       1.0  0.08449  0.11449  0.50424  1.0000
  H   H63       1.0  0.05430  0.10448  0.50349  1.0000
  C   C61       1.0  0.47193  0.28575  0.50400  1.0000
  C   C62       1.0  0.24664  0.01642  0.07868  1.0000
  H   H64       1.0  0.11198  0.04521  0.50070  1.0000
  C   C63       1.0  0.26493  0.01844  0.28329  1.0000
  C   C64       1.0  0.28222  0.01833  0.24763  1.0000
  H   H65       1.0  0.36469  0.16886  0.00036  1.0000
  H   H66       1.0  0.05130  0.25463  0.88867  1.0000
  C   C65       1.0  0.35495  0.24322  0.00048  1.0000
  H   H67       1.0  0.03493  0.14470  0.95716  1.0000
  H   H68       1.0  0.39264  0.19118  0.96492  1.0000
  C   C66       1.0  0.05369  0.21783  0.97831  1.0000
  H   H69       1.0  0.02862  0.15093  0.87290  1.0000
  H   H70       1.0  0.30291  0.14516  0.98662  1.0000
  C   C67       1.0  0.29801  0.20641  0.98615  1.0000
  H   H71       1.0  0.09653  0.10648  0.53240  1.0000
  S   S19       1.0  0.50065  0.06536  0.51987  1.0000
  N   N4        1.0  0.33726  0.21580  0.97386  1.0000
  H   H72       1.0  0.07172  0.16243  0.89858  1.0000
  H   H73       1.0  0.49376  0.21640  0.00170  1.0000
  N   N5        1.0  0.02173  0.19008  0.91915  1.0000
  C   C68       1.0  0.28492  0.16905  0.99108  1.0000
  C   C69       1.0  0.07920  0.27920  0.93644  1.0000
  C   C70       1.0  0.04427  0.21951  0.93890  1.0000
  C   C71       1.0  0.36286  0.18303  0.97224  1.0000
  H   H74       1.0  0.33050  0.26942  0.50834  1.0000
  H   H75       1.0  0.34020  0.27043  0.00082  1.0000
  H   H76       1.0  0.48947  0.27222  0.52503  1.0000
  C   C72       1.0  0.33586  0.23252  0.93536  1.0000
  H   H77       1.0  0.31940  0.25887  0.93503  1.0000
  H   H78       1.0  0.10416  0.29874  0.98893  1.0000
  C   C73       1.0  0.38916  0.34611  0.54494  1.0000
  C   C74       1.0  0.08825  0.27649  0.97494  1.0000
  H   H79       1.0  0.25837  0.02539  0.98310  1.0000
  H   H80       1.0  0.32210  0.21305  0.91461  1.0000
  H   H81       1.0  0.05138  0.19477  0.86541  1.0000
  C   C75       1.0  0.49362  0.27653  0.00517  1.0000
  C   C76       1.0  0.27119  0.23508  0.99284  1.0000
  C   C77       1.0  0.07560  0.24587  0.99578  1.0000
  H   H82       1.0  0.35339  0.16233  0.95046  1.0000
  H   H83       1.0  0.38504  0.24957  0.99273  1.0000
  H   H84       1.0  0.36492  0.23938  0.92468  1.0000
  H   H85       1.0  0.39053  0.31591  0.54448  1.0000
  C   C78       1.0  0.24802  0.16131  0.00385  1.0000
  H   H86       1.0  0.27846  0.26416  0.98889  1.0000
  H   H87       1.0  0.04387  0.19560  0.99656  1.0000
  C   C79       1.0  0.05770  0.25114  0.91854  1.0000
  H   H88       1.0  0.08841  0.30357  0.92064  1.0000
  C   C80       1.0  0.04442  0.17391  0.88772  1.0000
  H   H89       1.0  0.34000  0.34806  0.50838  1.0000
  H   H90       1.0  0.51662  0.27998  0.98516  1.0000
  H   H91       1.0  0.43139  0.24005  0.50603  1.0000
  Fe  Fe10      1.0  0.18162  0.41025  0.38559  1.0000
  S   S20       1.0  0.17936  0.43662  0.32727  1.0000
  Fe  Fe11      1.0  0.22411  0.42139  0.45971  1.0000
  S   S21       1.0  0.33547  0.67027  0.47411  1.0000
  H   H92       1.0  0.23269  0.36284  0.30050  1.0000
  C   C81       1.0  0.29549  0.52897  0.47532  1.0000
  S   S22       1.0  0.23659  0.38744  0.40774  1.0000
  S   S23       1.0  0.17208  0.44820  0.43553  1.0000
  H   H93       1.0  0.09794  0.48667  0.47022  1.0000
  Fe  Fe12      1.0  0.14904  0.43763  0.07575  1.0000
  S   S24       1.0  0.17962  0.39659  0.11269  1.0000
  S   S25       1.0  0.16508  0.49944  0.07621  1.0000
  C   C82       1.0  0.02619  0.47109  0.38092  1.0000
  H   H94       1.0  0.39647  0.41725  0.03166  1.0000
  Fe  Fe13      1.0  0.43423  0.66046  0.04559  1.0000
  S   S26       1.0  0.09052  0.41813  0.09411  1.0000
  C   C83       1.0  0.27340  0.50626  0.03440  1.0000
  C   C84       1.0  0.23713  0.49241  0.04463  1.0000
  C   C85       1.0  0.21246  0.51438  0.06616  1.0000
  H   H95       1.0  0.48227  0.67641  0.17622  1.0000
  C   C86       1.0  0.04821  0.43437  0.32723  1.0000
  C   C87       1.0  0.15741  0.41368  0.28859  1.0000
  C   C88       1.0  0.15909  0.43026  0.25252  1.0000
  C   C89       1.0  0.14275  0.41240  0.22074  1.0000
  H   H96       1.0  0.08089  0.54232  0.04538  1.0000
  C   C90       1.0  0.26188  0.57627  0.25947  1.0000
  C   C91       1.0  0.12255  0.36139  0.26112  1.0000
  H   H97       1.0  0.26819  0.38834  0.20731  1.0000
  C   C92       1.0  0.25738  0.50215  0.42450  1.0000
  H   H98       1.0  0.23052  0.52847  0.23838  1.0000
  H   H99       1.0  0.42875  0.48357  0.07855  1.0000
  C   C93       1.0  0.03224  0.46687  0.01197  1.0000
  H   H100      1.0  0.03698  0.49786  0.36910  1.0000
  H   H101      1.0  0.02475  0.37730  0.32476  1.0000
  H   H102      1.0  0.46299  0.36063  0.44466  1.0000
  H   H103      1.0  0.07301  0.48908  0.31500  1.0000
  H   H104      1.0  0.10861  0.42398  0.36990  1.0000
  S   S27       1.0  0.38832  0.63125  0.40538  1.0000
  C   C94       1.0  0.05150  0.51820  0.49414  1.0000
  H   H105      1.0  0.27087  0.59065  0.07845  1.0000
  Fe  Fe14      1.0  0.32735  0.64661  0.41530  1.0000
  H   H106      1.0  0.25632  0.56855  0.28871  1.0000
  C   C95       1.0  0.06159  0.46343  0.30323  1.0000
  N   N6        1.0  0.05569  0.50123  0.00770  1.0000
  C   C96       1.0  0.06236  0.51699  0.04637  1.0000
  S   S28       1.0  0.14595  0.36366  0.40929  1.0000
  H   H107      1.0  0.24613  0.66233  0.28784  1.0000
  Fe  Fe15      1.0  0.36040  0.61133  0.05330  1.0000
  S   S29       1.0  0.34181  0.64143  0.10593  1.0000
  S   S30       1.0  0.33089  0.55884  0.03045  1.0000
  H   H108      1.0  0.13762  0.36626  0.32060  1.0000
  Fe  Fe16      1.0  0.40315  0.63787  0.12368  1.0000
  S   S31       1.0  0.42164  0.61248  0.17917  1.0000
  N   N7        1.0  0.41972  0.47197  0.01902  1.0000
  S   S32       1.0  0.42103  0.60500  0.07262  1.0000
  C   C97       1.0  0.28585  0.54185  0.04624  1.0000
  C   C98       1.0  0.22504  0.54983  0.07840  1.0000
  C   C99       1.0  0.26171  0.56330  0.06897  1.0000
  H   H109      1.0  0.38014  0.47234  0.06598  1.0000
  S   S33       1.0  0.10470  0.35437  0.18549  1.0000
  H   H110      1.0  0.09233  0.44605  0.41286  1.0000
  C   C100      1.0  0.42099  0.64440  0.28957  1.0000
  C   C101      1.0  0.42173  0.62288  0.25613  1.0000
  C   C102      1.0  0.41913  0.64002  0.22040  1.0000
  C   C103      1.0  0.25913  0.53604  0.40480  1.0000
  C   C104      1.0  0.24706  0.55305  0.23086  1.0000
  H   H111      1.0  0.42327  0.63112  0.31710  1.0000
  H   H112      1.0  0.42442  0.59290  0.25798  1.0000
  C   C105      1.0  0.45215  0.56266  0.48254  1.0000
  C   C106      1.0  0.08951  0.44585  0.38130  1.0000
  H   H113      1.0  0.27049  0.63322  0.01852  1.0000
  H   H114      1.0  0.25137  0.62368  0.31980  1.0000
  Fe  Fe17      1.0  0.09259  0.37761  0.04490  1.0000
  H   H115      1.0  0.22789  0.46511  0.03494  1.0000
  S   S34       1.0  0.37524  0.66359  0.02059  1.0000
  H   H116      1.0  0.35808  0.47196  0.49050  1.0000
  S   S35       1.0  0.26997  0.45721  0.48624  1.0000
  H   H117      1.0  0.51161  0.61928  0.18814  1.0000
  H   H118      1.0  0.17324  0.45696  0.24911  1.0000
  S   S36       1.0  0.14843  0.40117  0.02369  1.0000
  H   H119      1.0  0.33820  0.62848  0.32877  1.0000
  C   C107      1.0  0.42367  0.43091  0.02298  1.0000
  C   C108      1.0  0.04827  0.42676  0.24673  1.0000
  H   H120      1.0  0.27743  0.66537  0.32853  1.0000
  Fe  Fe18      1.0  0.39761  0.65789  0.46282  1.0000
  H   H121      1.0  0.05344  0.38076  0.38451  1.0000
  H   H122      1.0  0.43474  0.56924  0.45803  1.0000
  H   H123      1.0  0.24254  0.47868  0.41191  1.0000
  H   H124      1.0  0.10975  0.47337  0.01213  1.0000
  H   H125      1.0  0.02610  0.47464  0.41251  1.0000
  H   H126      1.0  0.27871  0.37607  0.25556  1.0000
  H   H127      1.0  0.44523  0.42356  0.04501  1.0000
  C   C109      1.0  0.28363  0.60869  0.25065  1.0000
  C   C110      1.0  0.28998  0.61615  0.21137  1.0000
  C   C111      1.0  0.27504  0.59267  0.18300  1.0000
  H   H128      1.0  0.49924  0.39625  0.48132  1.0000
  C   C112      1.0  0.40652  0.48678  0.05615  1.0000
  H   H129      1.0  0.29171  0.48939  0.01684  1.0000
  H   H130      1.0  0.30660  0.63976  0.20171  1.0000
  C   C113      1.0  0.32500  0.61095  0.30594  1.0000
  C   C114      1.0  0.46941  0.52735  0.48552  1.0000
  H   H131      1.0  0.34845  0.59879  0.28884  1.0000
  C   C115      1.0  0.26701  0.64663  0.30530  1.0000
  S   S37       1.0  0.28006  0.60885  0.39554  1.0000
  N   N8        1.0  0.29882  0.63281  0.28160  1.0000
  H   H132      1.0  0.20624  0.56709  0.09506  1.0000
  H   H133      1.0  0.02836  0.57415  0.02106  1.0000
  S   S38       1.0  0.19187  0.37571  0.48987  1.0000
  H   H134      1.0  0.46502  0.50698  0.46314  1.0000
  C   C116      1.0  0.12440  0.37791  0.22500  1.0000
  H   H135      1.0  0.24492  0.53864  0.37758  1.0000
  H   H136      1.0  0.10173  0.66350  0.05126  1.0000
  C   C117      1.0  0.06165  0.45953  0.26361  1.0000
  H   H137      1.0  0.14426  0.42531  0.19298  1.0000
  C   C118      1.0  0.27927  0.56639  0.42019  1.0000
  N   N9        1.0  0.04963  0.43887  0.36916  1.0000
  C   C119      1.0  0.25358  0.56128  0.19268  1.0000
  H   H138      1.0  0.02563  0.37187  0.25596  1.0000
  C   C120      1.0  0.03557  0.40564  0.39026  1.0000
  H   H139      1.0  0.24215  0.54321  0.17049  1.0000
  C   C121      1.0  0.05837  0.45084  0.49965  1.0000
  H   H140      1.0  0.04944  0.42328  0.21606  1.0000
  H   H141      1.0  0.31025  0.58766  0.32082  1.0000
  H   H142      1.0  0.31377  0.58602  0.46711  1.0000
  C   C122      1.0  0.13898  0.37926  0.29291  1.0000
  Fe  Fe19      1.0  0.14010  0.40046  0.46124  1.0000
  C   C123      1.0  0.29808  0.56266  0.45515  1.0000
  H   H143      1.0  0.34526  0.65753  0.25059  1.0000
  C   C124      1.0  0.07180  0.48527  0.48631  1.0000
  H   H144      1.0  0.48338  0.62516  0.12664  1.0000
  H   H145      1.0  0.28032  0.59874  0.15324  1.0000
  H   H146      1.0  0.49947  0.65874  0.09286  1.0000
  Fe  Fe20      1.0  0.12160  0.37407  0.12680  1.0000
  C   C125      1.0  0.27478  0.49877  0.46019  1.0000
  H   H147      1.0  0.23189  0.39243  0.24245  1.0000
  H   H148      1.0  0.06220  0.54464  0.48371  1.0000
  H   H149      1.0  0.19108  0.35475  0.20127  1.0000
  C   C126      1.0  0.32028  0.66593  0.26775  1.0000
  Fe  Fe21      1.0  0.17524  0.35880  0.06188  1.0000
  H   H150      1.0  0.10099  0.47303  0.37119  1.0000
  H   H151      1.0  0.17566  0.66292  0.39979  1.0000
  C   C127      1.0  0.25620  0.37483  0.23320  1.0000
  S   S39       1.0  0.48991  0.66932  0.01304  1.0000
  C   C128      1.0  0.50932  0.63901  0.11503  1.0000
  H   H152      1.0  0.07746  0.49695  0.06522  1.0000
  H   H153      1.0  0.03513  0.52378  0.06083  1.0000
  C   C129      1.0  0.03476  0.40123  0.30905  1.0000
  C   C130      1.0  0.17498  0.64863  0.02218  1.0000
  H   H154      1.0  0.04505  0.44710  0.03257  1.0000
  H   H155      1.0  0.20904  0.59982  0.01163  1.0000
  C   C131      1.0  0.03485  0.39772  0.26937  1.0000
  S   S40       1.0  0.08221  0.40822  0.48987  1.0000
  H   H156      1.0  0.07308  0.48163  0.24591  1.0000
  H   H157      1.0  0.40922  0.47178  0.49350  1.0000
  H   H158      1.0  0.39921  0.51686  0.05475  1.0000
  C   C132      1.0  0.24398  0.64821  0.02182  1.0000
  C   C133      1.0  0.20927  0.62950  0.01785  1.0000
  H   H159      1.0  0.03673  0.41010  0.42168  1.0000
  H   H160      1.0  0.14925  0.63227  0.01891  1.0000
  S   S41       1.0  0.49087  0.35429  0.00810  1.0000
  C   C134      1.0  0.45548  0.49118  0.00779  1.0000
  C   C135      1.0  0.41573  0.67874  0.21810  1.0000
  H   H161      1.0  0.30881  0.52670  0.50295  1.0000
  H   H162      1.0  0.43114  0.54704  0.00775  1.0000
  H   H163      1.0  0.24274  0.68215  0.40865  1.0000
  H   H164      1.0  0.08824  0.60696  0.69129  1.0000
  H   H165      1.0  0.04509  0.63205  0.68385  1.0000
  C   C136      1.0  0.02460  0.44997  0.52112  1.0000
  H   H166      1.0  0.34153  0.46542  0.59401  1.0000
  C   C137      1.0  0.08324  0.56463  0.62507  1.0000
  C   C138      1.0  0.02406  0.56330  0.99266  1.0000
  C   C139      1.0  0.14983  0.55364  0.60720  1.0000
  C   C140      1.0  0.34427  0.47669  0.56466  1.0000
  H   H167      1.0  0.44030  0.47870  0.55888  1.0000
  H   H168      1.0  0.05056  0.54710  0.69162  1.0000
  C   C141      1.0  0.13887  0.52281  0.58541  1.0000
  C   C142      1.0  0.03154  0.56078  0.67059  1.0000
  C   C143      1.0  0.51058  0.38019  0.50576  1.0000
  C   C144      1.0  0.41551  0.36685  0.56612  1.0000
  C   C145      1.0  0.49226  0.51830  0.51713  1.0000
  H   H169      1.0  0.11108  0.51629  0.98634  1.0000
  H   H170      1.0  0.48486  0.60072  0.56514  1.0000
  C   C146      1.0  0.49776  0.54509  0.54570  1.0000
  H   H171      1.0  0.38246  0.50885  0.98774  1.0000
  C   C147      1.0  0.38289  0.48108  0.50811  1.0000
  H   H172      1.0  0.43215  0.41755  0.99564  1.0000
  H   H173      1.0  0.38283  0.51217  0.50752  1.0000
  C   C148      1.0  0.07311  0.53329  0.60224  1.0000
  C   C149      1.0  0.48048  0.58032  0.54275  1.0000
  C   C150      1.0  0.09335  0.49102  0.99197  1.0000
  N   N10       1.0  0.05343  0.58597  0.64510  1.0000
  H   H174      1.0  0.17965  0.56165  0.60859  1.0000
  C   C151      1.0  0.38473  0.42520  0.54682  1.0000
  C   C152      1.0  0.06850  0.61716  0.66886  1.0000
  H   H175      1.0  0.36272  0.46404  0.99691  1.0000
  H   H176      1.0  0.49004  0.38283  0.52960  1.0000
  C   C153      1.0  0.12258  0.57434  0.62691  1.0000
  S   S42       1.0  0.51081  0.47236  0.52128  1.0000
  H   H177      1.0  0.10240  0.67366  0.00060  1.0000
  C   C154      1.0  0.38984  0.47882  0.98995  1.0000
  H   H178      1.0  0.08335  0.63850  0.65121  1.0000
  H   H179      1.0  0.51493  0.53861  0.57035  1.0000
  H   H180      1.0  0.43484  0.42010  0.58420  1.0000
  H   H181      1.0  0.43738  0.35262  0.58222  1.0000
  C   C155      1.0  0.41165  0.48549  0.56997  1.0000
  H   H182      1.0  0.04262  0.61964  0.59559  1.0000
  C   C156      1.0  0.02708  0.60219  0.61672  1.0000
  H   H183      1.0  0.48961  0.57958  0.98952  1.0000
  C   C157      1.0  0.45758  0.58940  0.51121  1.0000
  H   H184      1.0  0.13305  0.59796  0.64305  1.0000
  H   H185      1.0  0.41058  0.47781  0.60062  1.0000
  H   H186      1.0  0.04369  0.52481  0.59849  1.0000
  C   C158      1.0  0.35843  0.40311  0.52554  1.0000
  H   H187      1.0  0.34079  0.50750  0.56604  1.0000
  C   C159      1.0  0.10062  0.51258  0.58310  1.0000
  H   H188      1.0  0.31965  0.46574  0.54798  1.0000
  C   C160      1.0  0.41356  0.40582  0.56713  1.0000
  H   H189      1.0  0.09095  0.47478  0.96507  1.0000
  H   H190      1.0  0.40931  0.51645  0.56853  1.0000
  H   H191      1.0  0.15998  0.50693  0.56997  1.0000
  C   C161      1.0  0.02808  0.51607  0.94339  1.0000
  N   N11       1.0  0.38124  0.46637  0.54755  1.0000
  H   H192      1.0  0.39917  0.46935  0.96128  1.0000
  H   H193      1.0  0.09214  0.48869  0.56595  1.0000
  C   C162      1.0  0.48971  0.54945  0.99271  1.0000
  S   S43       1.0  0.43680  0.63448  0.50915  1.0000
  H   H194      1.0  0.33554  0.41580  0.50965  1.0000
  C   C163      1.0  0.36073  0.36422  0.52462  1.0000
  C   C164      1.0  0.03622  0.52715  0.98144  1.0000
  H   H195      1.0  0.03603  0.48889  0.93290  1.0000
  H   H196      1.0  0.02922  0.45095  0.98489  1.0000
  S   S44       1.0  0.04424  0.36827  0.00198  1.0000
  C   C165      1.0  0.01784  0.51735  0.51577  1.0000
  C   C166      1.0  0.45638  0.53055  0.00328  1.0000
  C   C167      1.0  0.49003  0.47189  0.00083  1.0000
  H   H197      1.0  0.49235  0.44194  0.00328  1.0000
  H   H198      1.0  0.32722  0.84988  0.05503  1.0000
  Fe  Fe22      1.0  0.08078  0.91385  0.39582  1.0000
  S   S45       1.0  0.07318  0.90013  0.45757  1.0000
  S   S46       1.0  0.05947  0.87261  0.35207  1.0000
  Fe  Fe23      1.0  0.13432  0.97729  0.41374  1.0000
  H   H199      1.0  0.41476  0.73041  0.24968  1.0000
  Fe  Fe24      1.0  0.13684  0.90658  0.46128  1.0000
  C   C168      1.0  0.16872  0.93259  0.25084  1.0000
  Fe  Fe25      1.0  0.06894  0.96227  0.46728  1.0000
  S   S47       1.0  0.14436  0.91736  0.39901  1.0000
  S   S48       1.0  0.07101  0.97527  0.40462  1.0000
  H   H200      1.0  0.14723  0.78692  0.32026  1.0000
  S   S49       1.0  0.33167  0.74834  0.06956  1.0000
  Fe  Fe26      1.0  0.08194  0.83301  0.06806  1.0000
  S   S50       1.0  0.08000  0.82159  0.13091  1.0000
  H   H201      1.0  0.50495  0.80413  0.03882  1.0000
  Fe  Fe27      1.0  0.15112  0.88761  0.07691  1.0000
  S   S51       1.0  0.15502  0.87908  0.13993  1.0000
  S   S52       1.0  0.19369  0.92004  0.04107  1.0000
  Fe  Fe28      1.0  0.14375  0.81871  0.12691  1.0000
  S   S53       1.0  0.17580  0.77205  0.15465  1.0000
  Fe  Fe29      1.0  0.09125  0.88313  0.13825  1.0000
  S   S54       1.0  0.06287  0.92221  0.17945  1.0000
  S   S55       1.0  0.14516  0.82632  0.06369  1.0000
  S   S56       1.0  0.08773  0.89541  0.07553  1.0000
  H   H202      1.0  0.36573  0.87608  0.07613  1.0000
  H   H203      1.0  0.41337  0.69213  0.19065  1.0000
  H   H204      1.0  0.39628  0.89506  0.45567  1.0000
  C   C169      1.0  0.13759  0.72532  0.07379  1.0000
  C   C170      1.0  0.28020  0.80348  0.46003  1.0000
  C   C171      1.0  0.28892  0.75420  0.09436  1.0000
  C   C172      1.0  0.26705  0.78564  0.08652  1.0000
  C   C173      1.0  0.23282  0.79153  0.10573  1.0000
  C   C174      1.0  0.21988  0.76562  0.13243  1.0000
  C   C175      1.0  0.24161  0.73397  0.14028  1.0000
  C   C176      1.0  0.27623  0.72827  0.12128  1.0000
  H   H205      1.0  0.21245  0.97698  0.19551  1.0000
  H   H206      1.0  0.21648  0.81620  0.09991  1.0000
  H   H207      1.0  0.23160  0.71380  0.16087  1.0000
  C   C177      1.0  0.30837  0.91891  0.04685  1.0000
  C   C178      1.0  0.06154  0.88694  0.30434  1.0000
  C   C179      1.0  0.07033  0.86088  0.27593  1.0000
  C   C180      1.0  0.07142  0.87160  0.23753  1.0000
  C   C181      1.0  0.06232  0.90810  0.22731  1.0000
  C   C182      1.0  0.05296  0.93400  0.25569  1.0000
  C   C183      1.0  0.05330  0.92364  0.29421  1.0000
  C   C184      1.0  0.14626  0.80658  0.34481  1.0000
  C   C185      1.0  0.13639  0.81417  0.41225  1.0000
  S   S57       1.0  0.04492  0.80679  0.02114  1.0000
  H   H208      1.0  0.16323  0.83065  0.41384  1.0000
  H   H209      1.0  0.51206  0.93100  0.48815  1.0000
  C   C186      1.0  0.50818  0.68797  0.16224  1.0000
  C   C187      1.0  0.32512  0.92483  0.11528  1.0000
  H   H210      1.0  0.30204  0.68450  0.25027  1.0000
  C   C188      1.0  0.33127  0.91033  0.15236  1.0000
  C   C189      1.0  0.36865  0.90843  0.46253  1.0000
  C   C190      1.0  0.27158  0.88714  0.09444  1.0000
  S   S58       1.0  0.32671  0.78579  0.45311  1.0000
  H   H211      1.0  0.32170  0.95251  0.49965  1.0000
  H   H212      1.0  0.20866  0.96594  0.42574  1.0000
  H   H213      1.0  0.27578  0.96051  0.44553  1.0000
  H   H214      1.0  0.17707  0.92705  0.22086  1.0000
  H   H215      1.0  0.07624  0.79493  0.37072  1.0000
  C   C191      1.0  0.33551  0.86732  0.08007  1.0000
  C   C192      1.0  0.01700  0.76521  0.02154  1.0000
  H   H216      1.0  0.28862  0.94288  0.04743  1.0000
  N   N12       1.0  0.16833  0.97301  0.25991  1.0000
  C   C193      1.0  0.26626  0.98578  0.43194  1.0000
  C   C194      1.0  0.22820  0.98879  0.42056  1.0000
  H   H217      1.0  0.25265  0.91106  0.10067  1.0000
  H   H218      1.0  0.07846  0.85143  0.21578  1.0000
  C   C195      1.0  0.20737  0.98868  0.25637  1.0000
  H   H219      1.0  0.25795  0.87119  0.07069  1.0000
  C   C196      1.0  0.22611  0.98857  0.22058  1.0000
  S   S59       1.0  0.42078  0.71110  0.32827  1.0000
  S   S60       1.0  0.40799  0.71530  0.43838  1.0000
  C   C197      1.0  0.41641  0.70034  0.25147  1.0000
  H   H220      1.0  0.14962  0.98625  0.20252  1.0000
  H   H221      1.0  0.11067  0.74077  0.07881  1.0000
  H   H222      1.0  0.37072  0.93800  0.45314  1.0000
  H   H223      1.0  0.13264  0.80018  0.44030  1.0000
  H   H224      1.0  0.29301  0.70397  0.12751  1.0000
  H   H225      1.0  0.02752  0.75127  0.08017  1.0000
  H   H226      1.0  0.16105  0.74567  0.07883  1.0000
  H   H227      1.0  0.16162  0.75998  0.01084  1.0000
  N   N13       1.0  0.13641  0.78679  0.38053  1.0000
  C   C198      1.0  0.27094  0.83843  0.44456  1.0000
  Fe  Fe30      1.0  0.36118  0.69325  0.07522  1.0000
  H   H228      1.0  0.26088  0.75901  0.49629  1.0000
  C   C199      1.0  0.21053  0.83845  0.47817  1.0000
  C   C200      1.0  0.34736  0.98563  0.13966  1.0000
  H   H229      1.0  0.04583  0.94368  0.31597  1.0000
  H   H230      1.0  0.32507  0.88143  0.15875  1.0000
  H   H231      1.0  0.21647  0.00512  0.31625  1.0000
  H   H232      1.0  0.26104  0.74872  0.40453  1.0000
  H   H233      1.0  0.37963  0.84827  0.50300  1.0000
  H   H234      1.0  0.09426  0.75241  0.35197  1.0000
  H   H235      1.0  0.04529  0.96210  0.24785  1.0000
  C   C201      1.0  0.15548  0.71895  0.39047  1.0000
  H   H236      1.0  0.11242  0.98198  0.23589  1.0000
  H   H237      1.0  0.33435  0.84821  0.10493  1.0000
  C   C202      1.0  0.16498  0.75756  0.38816  1.0000
  H   H238      1.0  0.15031  0.00719  0.30716  1.0000
  H   H239      1.0  0.34623  0.89467  0.44477  1.0000
  H   H240      1.0  0.14004  0.91954  0.25449  1.0000
  C   C203      1.0  0.17463  0.68749  0.03061  1.0000
  C   C204      1.0  0.23612  0.85569  0.45323  1.0000
  H   H241      1.0  0.49771  0.70808  0.14070  1.0000
  C   C205      1.0  0.15194  0.97731  0.29862  1.0000
  H   H242      1.0  0.32847  0.97748  0.08309  1.0000
  H   H243      1.0  0.35064  0.92095  0.20979  1.0000
  C   C206      1.0  0.35397  0.97023  0.17539  1.0000
  N   N14       1.0  0.31046  0.90022  0.08449  1.0000
  N   N15       1.0  0.13900  0.70889  0.03505  1.0000
  C   C207      1.0  0.22805  0.00399  0.28779  1.0000
  S   S61       1.0  0.42089  0.69277  0.09850  1.0000
  C   C208      1.0  0.22422  0.98319  0.07879  1.0000
  H   H244      1.0  0.29877  0.90849  0.49712  1.0000
  H   H245      1.0  0.21330  0.79621  0.39270  1.0000
  C   C209      1.0  0.34564  0.93274  0.18184  1.0000
  H   H246      1.0  0.17429  0.82108  0.34667  1.0000
  C   C210      1.0  0.09689  0.77212  0.37637  1.0000
  H   H247      1.0  0.21500  0.97116  0.10542  1.0000
  C   C211      1.0  0.22129  0.70293  0.40261  1.0000
  Fe  Fe31      1.0  0.39367  0.68931  0.38194  1.0000
  H   H248      1.0  0.18891  0.91754  0.26972  1.0000
  H   H249      1.0  0.48453  0.99421  0.48005  1.0000
  H   H250      1.0  0.22968  0.88286  0.44168  1.0000
  H   H251      1.0  0.11313  0.83489  0.40922  1.0000
  S   S62       1.0  0.33176  0.70187  0.38641  1.0000
  H   H252      1.0  0.27133  0.86867  0.11980  1.0000
  H   H253      1.0  0.29110  0.85249  0.42622  1.0000
  S   S63       1.0  0.13242  0.96734  0.47683  1.0000
  H   H254      1.0  0.12508  0.82849  0.33796  1.0000
  H   H255      1.0  0.12668  0.70868  0.38719  1.0000
  H   H256      1.0  0.27174  0.70056  0.03368  1.0000
  C   C212      1.0  0.22766  0.98078  0.01014  1.0000
  C   C213      1.0  0.20391  0.76742  0.39340  1.0000
  H   H257      1.0  0.27638  0.80520  0.06511  1.0000
  H   H258      1.0  0.08711  0.75813  0.40289  1.0000
  H   H259      1.0  0.12244  0.96580  0.30030  1.0000
  H   H260      1.0  0.07617  0.83230  0.28356  1.0000
  H   H261      1.0  0.16878  0.96218  0.32051  1.0000
  Fe  Fe32      1.0  0.34499  0.72527  0.44411  1.0000
  C   C214      1.0  0.21504  0.96506  0.04426  1.0000
  C   C215      1.0  0.33301  0.96350  0.10993  1.0000
  C   C216      1.0  0.14237  0.99185  0.23276  1.0000
  C   C217      1.0  0.18339  0.69220  0.39766  1.0000
  C   C218      1.0  0.49803  0.74517  0.02790  1.0000
  C   C219      1.0  0.21945  0.80322  0.49303  1.0000
  H   H262      1.0  0.33685  0.92905  0.03745  1.0000
  C   C220      1.0  0.50688  0.98978  0.50079  1.0000
  H   H263      1.0  0.47180  0.74292  0.04379  1.0000
  H   H264      1.0  0.21274  0.73490  0.04176  1.0000
  C   C221      1.0  0.24904  0.01388  0.00999  1.0000
  C   C222      1.0  0.23153  0.74042  0.40029  1.0000
  S   S64       1.0  0.16787  0.86036  0.49275  1.0000
  H   H265      1.0  0.36559  0.98749  0.19812  1.0000
  H   H266      1.0  0.29707  0.89988  0.02427  1.0000
  C   C223      1.0  0.10385  0.68607  0.02966  1.0000
  C   C224      1.0  0.26281  0.00346  0.21634  1.0000
  C   C225      1.0  0.51281  0.71368  0.00986  1.0000
  H   H267      1.0  0.07774  0.70319  0.03280  1.0000
  C   C226      1.0  0.13798  0.73953  0.00674  1.0000
  H   H268      1.0  0.14014  0.70355  0.09618  1.0000
  S   S65       1.0  0.33897  0.01060  0.44180  1.0000
  C   C227      1.0  0.21059  0.70555  0.03480  1.0000
  C   C228      1.0  0.25396  0.78565  0.48380  1.0000
  H   H269      1.0  0.11116  0.75585  0.00873  1.0000
  H   H270      1.0  0.27633  0.00348  0.18861  1.0000
  C   C229      1.0  0.51694  0.77990  0.02506  1.0000
  C   C230      1.0  0.24463  0.68613  0.03034  1.0000
  H   H271      1.0  0.33185  0.68317  0.29173  1.0000
  H   H272      1.0  0.32986  0.85283  0.49874  1.0000
  N   N16       1.0  0.36003  0.90546  0.50365  1.0000
  C   C231      1.0  0.29180  0.01540  0.42617  1.0000
  H   H273      1.0  0.35369  0.01498  0.13495  1.0000
  C   C232      1.0  0.41891  0.68321  0.28723  1.0000
  C   C233      1.0  0.45005  0.96067  0.56705  1.0000
  C   C234      1.0  0.46580  0.76982  0.93812  1.0000
  H   H274      1.0  0.22122  0.96698  0.98340  1.0000
  C   C235      1.0  0.49598  0.78902  0.92102  1.0000
  C   C236      1.0  0.51108  0.77745  0.88549  1.0000
  H   H275      1.0  0.42735  0.72296  0.93470  1.0000
  H   H276      1.0  0.35130  0.86101  0.54412  1.0000
  C   C237      1.0  0.49405  0.74545  0.86820  1.0000
  C   C238      1.0  0.44798  0.92189  0.56646  1.0000
  H   H277      1.0  0.51079  0.84282  0.84915  1.0000
  C   C239      1.0  0.45009  0.73831  0.92075  1.0000
  C   C240      1.0  0.42392  0.98139  0.54627  1.0000
  H   H278      1.0  0.31693  0.92498  0.54214  1.0000
  C   C241      1.0  0.46403  0.72626  0.88579  1.0000
  H   H279      1.0  0.45177  0.70158  0.87250  1.0000
  H   H280      1.0  0.14003  0.72850  0.97718  1.0000
  H   H281      1.0  0.47295  0.97469  0.58234  1.0000
  H   H282      1.0  0.50369  0.73433  0.84138  1.0000
  C   C242      1.0  0.41899  0.90361  0.54607  1.0000
  C   C243      1.0  0.35525  0.86528  0.51303  1.0000
  S   S66       1.0  0.02888  0.98773  0.51185  1.0000
  H   H283      1.0  0.45517  0.77888  0.96555  1.0000
  C   C244      1.0  0.32292  0.92368  0.51108  1.0000
  H   H284      1.0  0.46951  0.90590  0.58126  1.0000
  H   H285      1.0  0.19984  0.78968  0.51236  1.0000
  H   H286      1.0  0.37645  0.98078  0.50878  1.0000
  H   H287      1.0  0.50815  0.81239  0.93654  1.0000
  C   C245      1.0  0.39098  0.92397  0.52566  1.0000
  C   C246      1.0  0.39507  0.96342  0.52550  1.0000
  H   H288      1.0  0.51249  0.70914  0.52361  1.0000
  H   H289      1.0  0.41946  0.87352  0.54633  1.0000
  H   H290      1.0  0.42675  0.01156  0.54538  1.0000
  H   H291      1.0  0.63923  0.09327  0.44434  1.0000
  H   H292      1.0  0.75446  0.04432  0.45858  1.0000
  C   C247      1.0  0.98821  0.27235  0.03215  1.0000
  H   H293      1.0  0.00177  0.04011  0.45299  1.0000
  H   H294      1.0  0.56630  0.19083  0.01780  1.0000
  C   C248      1.0  0.56337  0.03490  0.43398  1.0000
  H   H295      1.0  0.98703  0.25409  0.05661  1.0000
  C   C249      1.0  0.67526  0.15542  0.02233  1.0000
  H   H296      1.0  0.66104  0.14963  0.04890  1.0000
  H   H297      1.0  0.85057  0.28611  0.03307  1.0000
  C   C250      1.0  0.62313  0.06734  0.44284  1.0000
  H   H298      1.0  0.71944  0.11575  0.03499  1.0000
  C   C251      1.0  0.96572  0.07928  0.48271  1.0000
  H   H299      1.0  0.65716  0.24400  0.03701  1.0000
  H   H300      1.0  0.59849  0.15809  0.03746  1.0000
  H   H301      1.0  0.95944  0.09526  0.45740  1.0000
  H   H302      1.0  0.56957  0.09449  0.43259  1.0000
  H   H303      1.0  0.67168  0.03432  0.45449  1.0000
  H   H304      1.0  0.63684  0.20790  0.06587  1.0000
  H   H305      1.0  0.54945  0.30973  0.45462  1.0000
  H   H306      1.0  0.82651  0.32857  0.04582  1.0000
  H   H307      1.0  0.80588  0.29688  0.01194  1.0000
  C   C252      1.0  0.75272  0.02908  0.48508  1.0000
  H   H308      1.0  0.73815  0.26778  0.01853  1.0000
  C   C253      1.0  0.58405  0.06812  0.43606  1.0000
  H   H309      1.0  0.53280  0.03575  0.42935  1.0000
  C   C254      1.0  0.99005  0.04819  0.48018  1.0000
  C   C255      1.0  0.63185  0.22534  0.04029  1.0000
  C   C256      1.0  0.64155  0.03331  0.44810  1.0000
  N   N17       1.0  0.51807  0.34052  0.49649  1.0000
  C   C257      1.0  0.01248  0.30390  0.03306  1.0000
  C   C258      1.0  0.83319  0.30951  0.02172  1.0000
  C   C259      1.0  0.59356  0.17608  0.01227  1.0000
  H   H310      1.0  0.60710  0.24351  0.04673  1.0000
  S   S67       1.0  0.67476  0.31730  0.01023  1.0000
  C   C260      1.0  0.70878  0.13600  0.01480  1.0000
  C   C261      1.0  0.54362  0.33910  0.46305  1.0000
  H   H311      1.0  0.90785  0.31732  0.01612  1.0000
  C   C262      1.0  0.89104  0.34156  0.00593  1.0000
  C   C263      1.0  0.94896  0.08957  0.51753  1.0000
  Fe  Fe33      1.0  0.78359  0.12466  0.55511  1.0000
  C   C264      1.0  0.64223  0.07091  0.54175  1.0000
  H   H312      1.0  0.80310  0.33272  0.55617  1.0000
  Fe  Fe34      1.0  0.82448  0.12534  0.63103  1.0000
  S   S68       1.0  0.86328  0.17236  0.61372  1.0000
  S   S69       1.0  0.82078  0.09763  0.68847  1.0000
  Fe  Fe35      1.0  0.80968  0.19840  0.58991  1.0000
  S   S70       1.0  0.79393  0.25825  0.60672  1.0000
  Fe  Fe36      1.0  0.86830  0.14083  0.55792  1.0000
  C   C265      1.0  0.60249  0.11684  0.57039  1.0000
  S   S71       1.0  0.77106  0.15270  0.61053  1.0000
  S   S72       1.0  0.83290  0.09226  0.57740  1.0000
  C   C266      1.0  0.72397  0.03922  0.92207  1.0000
  H   H313      1.0  0.87381  0.31763  0.93451  1.0000
  H   H314      1.0  0.66966  0.31283  0.92859  1.0000
  Fe  Fe37      1.0  0.82353  0.20238  0.90984  1.0000
  S   S73       1.0  0.77599  0.23737  0.88772  1.0000
  Fe  Fe38      1.0  0.89101  0.16347  0.87673  1.0000
  S   S74       1.0  0.90841  0.13989  0.93317  1.0000
  S   S75       1.0  0.92495  0.15809  0.82286  1.0000
  Fe  Fe39      1.0  0.84586  0.12709  0.94076  1.0000
  H   H315      1.0  0.55788  0.03545  0.56850  1.0000
  Fe  Fe40      1.0  0.89626  0.19715  0.95646  1.0000
  S   S76       1.0  0.82978  0.14646  0.88235  1.0000
  S   S77       1.0  0.88341  0.22146  0.89928  1.0000
  H   H316      1.0  0.76112  0.08750  0.91746  1.0000
  H   H317      1.0  0.75423  0.26043  0.68489  1.0000
  H   H318      1.0  0.78161  0.32622  0.95929  1.0000
  C   C267      1.0  0.70207  0.29351  0.97669  1.0000
  H   H319      1.0  0.67111  0.27318  0.53952  1.0000
  C   C268      1.0  0.75506  0.25335  0.96134  1.0000
  C   C269      1.0  0.74746  0.25788  0.92249  1.0000
  C   C270      1.0  0.73223  0.27108  0.98849  1.0000
  H   H320      1.0  0.77851  0.23646  0.97052  1.0000
  H   H321      1.0  0.59618  0.13439  0.59572  1.0000
  H   H322      1.0  0.71027  0.28252  0.88097  1.0000
  H   H323      1.0  0.99110  0.16891  0.96783  1.0000
  C   C271      1.0  0.85200  0.11270  0.72477  1.0000
  C   C272      1.0  0.84489  0.10134  0.76221  1.0000
  C   C273      1.0  0.86754  0.11483  0.79227  1.0000
  C   C274      1.0  0.89773  0.13945  0.78506  1.0000
  C   C275      1.0  0.90568  0.14988  0.74746  1.0000
  C   C276      1.0  0.88267  0.13673  0.71735  1.0000
  H   H324      1.0  0.82143  0.08249  0.76807  1.0000
  H   H325      1.0  0.86204  0.10564  0.82098  1.0000
  H   H326      1.0  0.92925  0.16863  0.74168  1.0000
  H   H327      1.0  0.88875  0.14517  0.68851  1.0000
  H   H328      1.0  0.88529  0.03350  0.53617  1.0000
  H   H329      1.0  0.64866  0.09059  0.51814  1.0000
  C   C277      1.0  0.69379  0.29690  0.93794  1.0000
  C   C278      1.0  0.68032  0.31720  0.58054  1.0000
  C   C279      1.0  0.70495  0.33083  0.60888  1.0000
  C   C280      1.0  0.73918  0.31201  0.61710  1.0000
  C   C281      1.0  0.74908  0.27926  0.59742  1.0000
  C   C282      1.0  0.72398  0.26514  0.56983  1.0000
  C   C283      1.0  0.68992  0.28407  0.56142  1.0000
  S   S78       1.0  0.81863  0.17202  0.53230  1.0000
  S   S79       1.0  0.63772  0.34060  0.56734  1.0000
  H   H330      1.0  0.73119  0.24008  0.55433  1.0000
  C   C284      1.0  0.62704  0.06405  0.60876  1.0000
  H   H331      1.0  0.83312  0.29024  0.94810  1.0000
  H   H332      1.0  0.68131  0.03544  0.60339  1.0000
  H   H333      1.0  0.75512  0.12783  0.97596  1.0000
  C   C285      1.0  0.99136  0.32004  0.96976  1.0000
  C   C286      1.0  0.98662  0.20630  0.90281  1.0000
  N   N18       1.0  0.78509  0.21281  0.74095  1.0000
  C   C287      1.0  0.80128  0.20981  0.70202  1.0000
  C   C288      1.0  0.81733  0.21924  0.76775  1.0000
  C   C289      1.0  0.76676  0.17654  0.75011  1.0000
  C   C290      1.0  0.75668  0.24285  0.74488  1.0000
  C   C291      1.0  0.74357  0.26425  0.71344  1.0000
  C   C292      1.0  0.74000  0.25044  0.78084  1.0000
  C   C293      1.0  0.71214  0.27773  0.78506  1.0000
  C   C294      1.0  0.70000  0.29820  0.75375  1.0000
  H   H334      1.0  0.81568  0.23619  0.69317  1.0000
  H   H335      1.0  0.82288  0.18737  0.70006  1.0000
  H   H336      1.0  0.80859  0.21771  0.79812  1.0000
  H   H337      1.0  0.83070  0.24710  0.76309  1.0000
  H   H338      1.0  0.83990  0.19787  0.76427  1.0000
  H   H339      1.0  0.74166  0.17116  0.73137  1.0000
  H   H340      1.0  0.78667  0.15293  0.74606  1.0000
  H   H341      1.0  0.74810  0.23507  0.80602  1.0000
  H   H342      1.0  0.61744  0.05326  0.53302  1.0000
  H   H343      1.0  0.70209  0.05085  0.90401  1.0000
  H   H344      1.0  0.69961  0.28284  0.81274  1.0000
  H   H345      1.0  0.98984  0.02314  0.57326  1.0000
  H   H346      1.0  0.67825  0.31918  0.75716  1.0000
  H   H347      1.0  0.66740  0.05256  0.54376  1.0000
  H   H348      1.0  0.67362  0.20818  0.94117  1.0000
  H   H349      1.0  0.57023  0.08339  0.62554  1.0000
  C   C295      1.0  0.98275  0.03842  0.54771  1.0000
  H   H350      1.0  0.60781  0.21321  0.94747  1.0000
  H   H351      1.0  0.99337  0.13716  0.92870  1.0000
  C   C296      1.0  0.74571  0.02865  0.55357  1.0000
  H   H352      1.0  0.69471  0.09716  0.59057  1.0000
  H   H353      1.0  0.74287  0.04358  0.58016  1.0000
  S   S80       1.0  0.58210  0.32169  0.95153  1.0000
  C   C297      1.0  0.74716  0.04829  0.51926  1.0000
  C   C298      1.0  0.96736  0.28822  0.96868  1.0000
  H   H354      1.0  0.56019  0.03711  0.67476  1.0000
  C   C299      1.0  0.65458  0.03688  0.61822  1.0000
  H   H355      1.0  0.99256  0.22824  0.88136  1.0000
  H   H356      1.0  0.63458  0.25079  0.96977  1.0000
  C   C300      1.0  0.58670  0.03731  0.65903  1.0000
  C   C301      1.0  0.66852  0.11413  0.58780  1.0000
  H   H357      1.0  0.75811  0.32292  0.63884  1.0000
  H   H358      1.0  0.87854  0.27989  0.96783  1.0000
  C   C302      1.0  0.71562  0.29145  0.71804  1.0000
  S   S81       1.0  0.91994  0.13006  0.51962  1.0000
  C   C303      1.0  0.71659  0.27935  0.91091  1.0000
  H   H359      1.0  0.58622  0.24281  0.98213  1.0000
  H   H360      1.0  0.75702  0.17523  0.78016  1.0000
  H   H361      1.0  0.95000  0.28262  0.94381  1.0000
  C   C304      1.0  0.78555  0.04560  0.95360  1.0000
  H   H362      1.0  0.56468  0.34119  0.53674  1.0000
  H   H363      1.0  0.67500  0.13526  0.56546  1.0000
  C   C305      1.0  0.95759  0.06879  0.55004  1.0000
  H   H364      1.0  0.94570  0.07680  0.57720  1.0000
  H   H365      1.0  0.77905  0.20263  0.68050  1.0000
  H   H366      1.0  0.70577  0.30721  0.69365  1.0000
  S   S82       1.0  0.83500  0.18229  0.96928  1.0000
  H   H367      1.0  0.96885  0.18479  0.88801  1.0000
  S   S83       1.0  0.82766  0.07097  0.96518  1.0000
  C   C306      1.0  0.68184  0.18802  0.96238  1.0000
  C   C307      1.0  0.75736  0.06010  0.92973  1.0000
  C   C308      1.0  0.59294  0.06389  0.63053  1.0000
  N   N19       1.0  0.63458  0.09109  0.57782  1.0000
  H   H368      1.0  0.57611  0.10135  0.56177  1.0000
  C   C309      1.0  0.71534  0.16840  0.95517  1.0000
  C   C310      1.0  0.72886  0.14261  0.98138  1.0000
  C   C311      1.0  0.96566  0.26415  0.99999  1.0000
  H   H369      1.0  0.73130  0.17370  0.92930  1.0000
  C   C312      1.0  0.85990  0.30333  0.95894  1.0000
  H   H370      1.0  0.66448  0.12910  0.61526  1.0000
  S   S84       1.0  0.59909  0.33893  0.84317  1.0000
  C   C313      1.0  0.53882  0.32446  0.52945  1.0000
  C   C314      1.0  0.51962  0.01954  0.52351  1.0000
  H   H371      1.0  0.79158  0.02052  0.82611  1.0000
  H   H372      1.0  0.60904  0.13641  0.54668  1.0000
  S   S85       1.0  0.73934  0.09639  0.51872  1.0000
  H   H373      1.0  0.85261  0.33645  0.54998  1.0000
  C   C315      1.0  0.00993  0.15894  0.94446  1.0000
  H   H374      1.0  0.96887  0.21888  0.92550  1.0000
  C   C316      1.0  0.01427  0.32794  0.00184  1.0000
  H   H375      1.0  0.99249  0.33848  0.94547  1.0000
  H   H376      1.0  0.60989  0.33356  0.76250  1.0000
  C   C317      1.0  0.99884  0.02758  0.51280  1.0000
  C   C318      1.0  0.61313  0.22833  0.97471  1.0000
  H   H377      1.0  0.84973  0.02698  0.65864  1.0000
  C   C319      1.0  0.66065  0.18201  0.99631  1.0000
  H   H378      1.0  0.54929  0.29586  0.52338  1.0000
  S   S86       1.0  0.93510  0.22427  0.00126  1.0000
  H   H379      1.0  0.88425  0.02398  0.59875  1.0000
  H   H380      1.0  0.58902  0.15741  0.98723  1.0000
  N   N20       1.0  0.85322  0.32973  0.99080  1.0000
  H   H381      1.0  0.52087  0.32390  0.55548  1.0000
  N   N21       1.0  0.62546  0.20267  0.00542  1.0000
  H   H382      1.0  0.84045  0.01772  0.51719  1.0000
  H   H383      1.0  0.55514  0.64280  0.20000  1.0000
  C   C320      1.0  0.62325  0.64019  0.01574  1.0000
  S   S87       1.0  0.94245  0.65845  0.01970  1.0000
  C   C321      1.0  0.63120  0.60310  0.02413  1.0000
  C   C322      1.0  0.56672  0.67419  0.12869  1.0000
  C   C323      1.0  0.75085  0.67989  0.01124  1.0000
  H   H384      1.0  0.99613  0.46747  0.37136  1.0000
  H   H385      1.0  0.55423  0.60550  0.16486  1.0000
  C   C324      1.0  0.60389  0.66230  0.13897  1.0000
  H   H386      1.0  0.59449  0.65044  0.01938  1.0000
  C   C325      1.0  0.69707  0.61345  0.00693  1.0000
  H   H387      1.0  0.67421  0.56083  0.02612  1.0000
  H   H388      1.0  0.52640  0.61732  0.10040  1.0000
  H   H389      1.0  0.74826  0.48218  0.01346  1.0000
  H   H390      1.0  0.60870  0.64081  0.15985  1.0000
  H   H391      1.0  0.76408  0.65298  0.01942  1.0000
  C   C326      1.0  0.53882  0.63022  0.17588  1.0000
  H   H392      1.0  0.00307  0.47347  0.02210  1.0000
  C   C327      1.0  0.63632  0.67829  0.12238  1.0000
  H   H393      1.0  0.66441  0.66898  0.13076  1.0000
  H   H394      1.0  0.88827  0.36056  0.03084  1.0000
  N   N22       1.0  0.53165  0.65798  0.14539  1.0000
  C   C328      1.0  0.66806  0.58981  0.01986  1.0000
  S   S88       1.0  0.59591  0.39487  0.00828  1.0000
  H   H395      1.0  0.00535  0.39907  0.38321  1.0000
  H   H396      1.0  0.60874  0.58453  0.03381  1.0000
  H   H397      1.0  0.53117  0.35333  0.43789  1.0000
  H   H398      1.0  0.57156  0.35297  0.46913  1.0000
  H   H399      1.0  0.67486  0.66929  0.50389  1.0000
  H   H400      1.0  0.80316  0.55751  0.59591  1.0000
  S   S89       1.0  0.63310  0.42789  0.64153  1.0000
  Fe  Fe41      1.0  0.55451  0.45587  0.56661  1.0000
  S   S90       1.0  0.56854  0.49074  0.61755  1.0000
  H   H401      1.0  0.00932  0.57609  0.68675  1.0000
  Fe  Fe42      1.0  0.62925  0.47853  0.60405  1.0000
  S   S91       1.0  0.66779  0.52869  0.60220  1.0000
  Fe  Fe43      1.0  0.57057  0.43719  0.65036  1.0000
  S   S92       1.0  0.54141  0.43962  0.70738  1.0000
  S   S93       1.0  0.61564  0.44666  0.55065  1.0000
  S   S94       1.0  0.55163  0.40236  0.60033  1.0000
  C   C329      1.0  0.75502  0.39384  0.54914  1.0000
  S   S95       1.0  0.55353  0.40505  0.92577  1.0000
  H   H402      1.0  0.71593  0.65024  0.92595  1.0000
  C   C330      1.0  0.00458  0.48298  0.52938  1.0000
  Fe  Fe44      1.0  0.60629  0.42817  0.95487  1.0000
  H   H403      1.0  0.86902  0.40739  0.99101  1.0000
  S   S96       1.0  0.64522  0.38643  0.92903  1.0000
  H   H404      1.0  0.68904  0.41294  0.80686  1.0000
  Fe  Fe45      1.0  0.61470  0.39633  0.58898  1.0000
  H   H405      1.0  0.53712  0.39535  0.51433  1.0000
  C   C331      1.0  0.68962  0.47183  0.85376  1.0000
  H   H406      1.0  0.79713  0.37165  0.61330  1.0000
  H   H407      1.0  0.99535  0.61383  0.97641  1.0000
  C   C332      1.0  0.65198  0.66398  0.00225  1.0000
  C   C333      1.0  0.65686  0.65251  0.59729  1.0000
  C   C334      1.0  0.72248  0.41417  0.54002  1.0000
  H   H408      1.0  0.68340  0.52811  0.68750  1.0000
  C   C335      1.0  0.79177  0.41069  0.54963  1.0000
  C   C336      1.0  0.55611  0.41000  0.74434  1.0000
  C   C337      1.0  0.54413  0.41751  0.78160  1.0000
  C   C338      1.0  0.55662  0.39546  0.81208  1.0000
  C   C339      1.0  0.58000  0.37977  0.73750  1.0000
  C   C340      1.0  0.00499  0.58660  0.96719  1.0000
  H   H409      1.0  0.54768  0.40181  0.84075  1.0000
  C   C341      1.0  0.71582  0.51846  0.60948  1.0000
  C   C342      1.0  0.74340  0.54521  0.60013  1.0000
  C   C343      1.0  0.76558  0.47629  0.62942  1.0000
  C   C344      1.0  0.72686  0.48403  0.62424  1.0000
  H   H410      1.0  0.77400  0.44972  0.64096  1.0000
  H   H411      1.0  0.70571  0.46335  0.63163  1.0000
  Fe  Fe46      1.0  0.87509  0.54408  0.60908  1.0000
  S   S97       1.0  0.88036  0.56550  0.54923  1.0000
  S   S98       1.0  0.84163  0.49247  0.62322  1.0000
  Fe  Fe47      1.0  0.92504  0.60404  0.64271  1.0000
  S   S99       1.0  0.93475  0.62995  0.58556  1.0000
  S   S100      1.0  0.95086  0.63257  0.69412  1.0000
  Fe  Fe48      1.0  0.87174  0.62205  0.57656  1.0000
  Fe  Fe49      1.0  0.94274  0.57120  0.56390  1.0000
  H   H412      1.0  0.86671  0.43415  0.56863  1.0000
  S   S101      1.0  0.86185  0.59972  0.63528  1.0000
  S   S102      1.0  0.93761  0.54616  0.62222  1.0000
  C   C345      1.0  0.59167  0.35709  0.76790  1.0000
  Fe  Fe50      1.0  0.89889  0.58937  0.89868  1.0000
  S   S103      1.0  0.89791  0.57439  0.96074  1.0000
  S   S104      1.0  0.92775  0.55457  0.85402  1.0000
  Fe  Fe51      1.0  0.83456  0.58360  0.95685  1.0000
  H   H413      1.0  0.68176  0.59817  0.55231  1.0000
  H   H414      1.0  0.76354  0.44247  0.94371  1.0000
  S   S105      1.0  0.83550  0.59414  0.89411  1.0000
  C   C346      1.0  0.84977  0.67649  0.78270  1.0000
  C   C347      1.0  0.86218  0.40781  0.55222  1.0000
  H   H415      1.0  0.82477  0.66160  0.79505  1.0000
  H   H416      1.0  0.97876  0.48180  0.54603  1.0000
  C   C348      1.0  0.94320  0.61072  0.73825  1.0000
  H   H417      1.0  0.67192  0.54773  0.91613  1.0000
  C   C349      1.0  0.94403  0.61411  0.80751  1.0000
  C   C350      1.0  0.93249  0.57675  0.80962  1.0000
  C   C351      1.0  0.92615  0.55648  0.77594  1.0000
  C   C352      1.0  0.93083  0.57362  0.74028  1.0000
  H   H418      1.0  0.52551  0.44080  0.78696  1.0000
  C   C353      1.0  0.68883  0.53290  0.93684  1.0000
  H   H419      1.0  0.91732  0.52753  0.77744  1.0000
  H   H420      1.0  0.92549  0.55789  0.71445  1.0000
  C   C354      1.0  0.79381  0.44926  0.54040  1.0000
  H   H421      1.0  0.73868  0.56810  0.92923  1.0000
  C   C355      1.0  0.78205  0.53719  0.60451  1.0000
  C   C356      1.0  0.79320  0.50276  0.61916  1.0000
  H   H422      1.0  0.73504  0.57190  0.58880  1.0000
  N   N23       1.0  0.66041  0.46294  0.82430  1.0000
  C   C357      1.0  0.62286  0.47320  0.84039  1.0000
  C   C358      1.0  0.66680  0.48222  0.78755  1.0000
  C   C359      1.0  0.70104  0.50201  0.77910  1.0000
  C   C360      1.0  0.63917  0.47967  0.75796  1.0000
  C   C361      1.0  0.70677  0.51833  0.74336  1.0000
  C   C362      1.0  0.64505  0.49637  0.72255  1.0000
  C   C363      1.0  0.67881  0.51560  0.71521  1.0000
  H   H423      1.0  0.62074  0.50389  0.84447  1.0000
  H   H424      1.0  0.59861  0.46394  0.82229  1.0000
  H   H425      1.0  0.61788  0.45989  0.86860  1.0000
  H   H426      1.0  0.63944  0.41349  0.79602  1.0000
  H   H427      1.0  0.72400  0.50498  0.79941  1.0000
  H   H428      1.0  0.61292  0.46418  0.76156  1.0000
  H   H429      1.0  0.69795  0.35618  0.62398  1.0000
  H   H430      1.0  0.62338  0.49399  0.70051  1.0000
  Fe  Fe52      1.0  0.84692  0.65365  0.91004  1.0000
  C   C364      1.0  0.66089  0.42216  0.81761  1.0000
  H   H431      1.0  0.63398  0.63829  0.61382  1.0000
  H   H432      1.0  0.65439  0.40616  0.84398  1.0000
  H   H433      1.0  0.69137  0.50237  0.85931  1.0000
  C   C365      1.0  0.76110  0.46929  0.53106  1.0000
  H   H434      1.0  0.82718  0.45691  0.97008  1.0000
  N   N24       1.0  0.64962  0.64923  0.55579  1.0000
  C   C366      1.0  0.61187  0.66509  0.54664  1.0000
  C   C367      1.0  0.72660  0.54467  0.94439  1.0000
  H   H435      1.0  0.82611  0.41263  0.61848  1.0000
  H   H436      1.0  0.69470  0.40068  0.54063  1.0000
  C   C368      1.0  0.65305  0.60923  0.54532  1.0000
  S   S106      1.0  0.99366  0.55989  0.52491  1.0000
  Fe  Fe53      1.0  0.90421  0.63631  0.97155  1.0000
  H   H437      1.0  0.74091  0.37695  0.93927  1.0000
  H   H438      1.0  0.58395  0.61413  0.52450  1.0000
  H   H439      1.0  0.58919  0.37371  0.70880  1.0000
  S   S107      1.0  0.79429  0.54251  0.98627  1.0000
  C   C369      1.0  0.76919  0.38319  0.95025  1.0000
  H   H440      1.0  0.82010  0.46505  0.54159  1.0000
  C   C370      1.0  0.84154  0.39913  0.97985  1.0000
  C   C371      1.0  0.00882  0.53955  0.91828  1.0000
  H   H441      1.0  0.00203  0.53029  0.88955  1.0000
  H   H442      1.0  0.75299  0.63070  0.95490  1.0000
  H   H443      1.0  0.68278  0.45837  0.88154  1.0000
  H   H444      1.0  0.68442  0.63960  0.60550  1.0000
  C   C372      1.0  0.73195  0.49619  0.99165  1.0000
  H   H445      1.0  0.94949  0.62976  0.83334  1.0000
  Fe  Fe54      1.0  0.54687  0.36710  0.97697  1.0000
  C   C373      1.0  0.99734  0.57474  0.93014  1.0000
  S   S108      1.0  0.84059  0.64417  0.97294  1.0000
  H   H446      1.0  0.80985  0.63801  0.72953  1.0000
  H   H447      1.0  0.71827  0.46161  0.84563  1.0000
  H   H448      1.0  0.83393  0.65771  0.68927  1.0000
  H   H449      1.0  0.86045  0.63258  0.72383  1.0000
  H   H450      1.0  0.68294  0.45978  0.99798  1.0000
  C   C374      1.0  0.78178  0.42002  0.95295  1.0000
  H   H451      1.0  0.84799  0.36767  0.61471  1.0000
  N   N25       1.0  0.82548  0.38926  0.56207  1.0000
  H   H452      1.0  0.87427  0.65719  0.78557  1.0000
  C   C375      1.0  0.67285  0.50210  0.95594  1.0000
  H   H453      1.0  0.63245  0.59149  0.56137  1.0000
  S   S109      1.0  0.62483  0.48879  0.94688  1.0000
  C   C376      1.0  0.74813  0.52677  0.97244  1.0000
  H   H454      1.0  0.76322  0.49894  0.52531  1.0000
  H   H455      1.0  0.95997  0.65944  0.77051  1.0000
  S   S110      1.0  0.91053  0.65014  0.90949  1.0000
  C   C377      1.0  0.95003  0.63084  0.77191  1.0000
  H   H456      1.0  0.73322  0.53293  0.73720  1.0000
  C   C378      1.0  0.83643  0.65245  0.72034  1.0000
  C   C379      1.0  0.72551  0.45187  0.53109  1.0000
  H   H457      1.0  0.01395  0.42355  0.53164  1.0000
  Fe  Fe55      1.0  0.59264  0.36110  0.90306  1.0000
  C   C380      1.0  0.81781  0.42801  0.96775  1.0000
  S   S111      1.0  0.83903  0.67050  0.55020  1.0000
  H   H458      1.0  0.88708  0.39015  0.55942  1.0000
  C   C381      1.0  0.52301  0.52969  0.98601  1.0000
  C   C382      1.0  0.69489  0.48341  0.98291  1.0000
  C   C383      1.0  0.82416  0.38502  0.60395  1.0000
  C   C384      1.0  0.58049  0.36523  0.80531  1.0000
  H   H459      1.0  0.75088  0.36498  0.55657  1.0000
  C   C385      1.0  0.58147  0.64350  0.53074  1.0000
  H   H460      1.0  0.98191  0.59257  0.91066  1.0000
  C   C386      1.0  0.67988  0.67004  0.53518  1.0000
  H   H461      1.0  0.70868  0.65841  0.54086  1.0000
  H   H462      1.0  0.78343  0.65749  0.61148  1.0000
  H   H463      1.0  0.86359  0.41426  0.52128  1.0000
  H   H464      1.0  0.70017  0.46788  0.52511  1.0000
  H   H465      1.0  0.52339  0.64273  0.51023  1.0000
  C   C387      1.0  0.73797  0.65695  0.94783  1.0000
  H   H466      1.0  0.75974  0.67523  0.93414  1.0000
  C   C388      1.0  0.54624  0.65954  0.52247  1.0000
  N   N26       1.0  0.72086  0.67494  0.98177  1.0000
  C   C389      1.0  0.68982  0.65106  0.99692  1.0000
  H   H467      1.0  0.54917  0.47588  0.98477  1.0000
  H   H468      1.0  0.64861  0.60467  0.51428  1.0000
  H   H469      1.0  0.00517  0.61992  0.63046  1.0000
  H   H470      1.0  0.01147  0.58044  0.60030  1.0000
  C   C390      1.0  0.82555  0.35147  0.54442  1.0000
  H   H471      1.0  0.82148  0.35311  0.51304  1.0000
  C   C391      1.0  0.82951  0.36115  0.97749  1.0000
  H   H472      1.0  0.54880  0.54419  0.97739  1.0000
  C   C392      1.0  0.52315  0.49108  0.99011  1.0000
  H   H473      1.0  0.72527  0.60177  0.00438  1.0000
  C   C393      1.0  0.79270  0.35420  0.96209  1.0000
  H   H474      1.0  0.90857  0.35554  0.98369  1.0000
  Fe  Fe56      1.0  0.63105  0.35119  0.97960  1.0000
  H   H475      1.0  0.65835  0.68208  0.60693  1.0000
  H   H476      1.0  0.01618  0.53839  0.65473  1.0000
  H   H477      1.0  0.87198  0.87444  0.00908  1.0000
  H   H478      1.0  0.52448  0.70402  0.18416  1.0000
  C   C394      1.0  0.87357  0.84483  0.01832  1.0000
  C   C395      1.0  0.97065  0.69991  0.01958  1.0000
  N   N27       1.0  0.64150  0.96314  0.45168  1.0000
  H   H479      1.0  0.60606  0.92896  0.41498  1.0000
  C   C396      1.0  0.58159  0.00066  0.43846  1.0000
  C   C397      1.0  0.92669  0.85734  0.06378  1.0000
  C   C398      1.0  0.90491  0.88599  0.08112  1.0000
  C   C399      1.0  0.61731  0.92958  0.44463  1.0000
  H   H480      1.0  0.59399  0.74052  0.06357  1.0000
  H   H481      1.0  0.00654  0.86776  0.12006  1.0000
  H   H482      1.0  0.89395  0.78955  0.06649  1.0000
  H   H483      1.0  0.53697  0.71242  0.09079  1.0000
  C   C400      1.0  0.96363  0.85117  0.07902  1.0000
  C   C401      1.0  0.97806  0.87261  0.10919  1.0000
  H   H484      1.0  0.87650  0.89275  0.07176  1.0000
  C   C402      1.0  0.65509  0.96151  0.49159  1.0000
  H   H485      1.0  0.68996  0.93358  0.42949  1.0000
  C   C403      1.0  0.01305  0.74321  0.05412  1.0000
  C   C404      1.0  0.67476  0.96053  0.42590  1.0000
  H   H486      1.0  0.98734  0.69373  0.07835  1.0000
  H   H487      1.0  0.76147  0.97543  0.45883  1.0000
  H   H488      1.0  0.65794  0.71910  0.08293  1.0000
  H   H489      1.0  0.90276  0.92911  0.12408  1.0000
  H   H490      1.0  0.98189  0.82992  0.06746  1.0000
  C   C405      1.0  0.59680  0.71846  0.08446  1.0000
  C   C406      1.0  0.91966  0.90721  0.11140  1.0000
  H   H491      1.0  0.66581  0.96286  0.39556  1.0000
  C   C407      1.0  0.99016  0.71064  0.05303  1.0000
  H   H492      1.0  0.96777  0.91726  0.14856  1.0000
  H   H493      1.0  0.69642  0.98257  0.43147  1.0000
  H   H494      1.0  0.67070  0.93521  0.49741  1.0000
  C   C408      1.0  0.62141  0.99881  0.44562  1.0000
  H   H495      1.0  0.56363  0.97614  0.43671  1.0000
  H   H496      1.0  0.73912  0.69273  0.03752  1.0000
  C   C409      1.0  0.75653  0.99022  0.48522  1.0000
  C   C410      1.0  0.91214  0.79477  0.04114  1.0000
  H   H497      1.0  0.94098  0.78415  0.04788  1.0000
  N   N28       1.0  0.91264  0.83492  0.03098  1.0000
  H   H498      1.0  0.63333  0.90328  0.44924  1.0000
  C   C411      1.0  0.95619  0.90061  0.12530  1.0000
  H   H499      1.0  0.59290  0.92811  0.46461  1.0000
  C   C412      1.0  0.56424  0.70244  0.10057  1.0000
  H   H500      1.0  0.88420  0.01025  0.49174  1.0000
  H   H501      1.0  0.87644  0.94534  0.48565  1.0000
  C   C413      1.0  0.63278  0.70644  0.09536  1.0000
  H   H502      1.0  0.85215  0.83991  0.04112  1.0000
  H   H503      1.0  0.90112  0.77703  0.01735  1.0000
  H   H504      1.0  0.67481  0.98487  0.49881  1.0000
  Fe  Fe57      1.0  0.68223  0.82377  0.59302  1.0000
  S   S112      1.0  0.72606  0.86562  0.61283  1.0000
  S   S113      1.0  0.69307  0.76169  0.60423  1.0000
  Fe  Fe58      1.0  0.62597  0.88657  0.56790  1.0000
  S   S114      1.0  0.66641  0.93161  0.58646  1.0000
  C   C414      1.0  0.57754  0.79155  0.89475  1.0000
  Fe  Fe59      1.0  0.71125  0.89655  0.55945  1.0000
  C   C415      1.0  0.75225  0.97035  0.51915  1.0000
  Fe  Fe60      1.0  0.67652  0.89603  0.63795  1.0000
  S   S115      1.0  0.67918  0.92373  0.69557  1.0000
  S   S116      1.0  0.67063  0.85291  0.53739  1.0000
  S   S117      1.0  0.63285  0.85277  0.62167  1.0000
  C   C416      1.0  0.64825  0.01083  0.64699  1.0000
  Fe  Fe61      1.0  0.66655  0.84258  0.89215  1.0000
  S   S118      1.0  0.62220  0.88138  0.91447  1.0000
  S   S119      1.0  0.66408  0.81391  0.83511  1.0000
  Fe  Fe62      1.0  0.71222  0.84595  0.96479  1.0000
  S   S120      1.0  0.67165  0.88476  0.99376  1.0000
  Fe  Fe63      1.0  0.62580  0.84732  0.96832  1.0000
  Fe  Fe64      1.0  0.67193  0.91506  0.93757  1.0000
  C   C417      1.0  0.74778  0.76106  0.72531  1.0000
  S   S121      1.0  0.66683  0.80635  0.94412  1.0000
  S   S122      1.0  0.71557  0.87858  0.91062  1.0000
  C   C418      1.0  0.74724  0.98861  0.96075  1.0000
  H   H505      1.0  0.84670  0.71993  0.95029  1.0000
  H   H506      1.0  0.78683  0.89437  0.86401  1.0000
  C   C419      1.0  0.74475  0.70425  0.60906  1.0000
  H   H507      1.0  0.00033  0.77132  0.96275  1.0000
  H   H508      1.0  0.74507  0.80698  0.91231  1.0000
  H   H509      1.0  0.56458  0.75381  0.83136  1.0000
  C   C420      1.0  0.77907  0.76072  0.89539  1.0000
  C   C421      1.0  0.84355  0.00450  0.63873  1.0000
  C   C422      1.0  0.78367  0.79100  0.95713  1.0000
  C   C423      1.0  0.81258  0.76651  0.96765  1.0000
  C   C424      1.0  0.82436  0.73881  0.94215  1.0000
  C   C425      1.0  0.80692  0.73542  0.90640  1.0000
  C   C426      1.0  0.74678  0.98956  0.55337  1.0000
  H   H510      1.0  0.76283  0.75926  0.66623  1.0000
  C   C427      1.0  0.54002  0.69711  0.52998  1.0000
  C   C428      1.0  0.56452  0.97732  0.55480  1.0000
  H   H511      1.0  0.58642  0.97286  0.57601  1.0000
  C   C429      1.0  0.66676  0.84467  0.79644  1.0000
  C   C430      1.0  0.66839  0.83030  0.75937  1.0000
  C   C431      1.0  0.67157  0.85442  0.72811  1.0000
  C   C432      1.0  0.67250  0.89302  0.73390  1.0000
  C   C433      1.0  0.66976  0.90738  0.77092  1.0000
  C   C434      1.0  0.66725  0.88325  0.80223  1.0000
  H   H512      1.0  0.66742  0.80047  0.75486  1.0000
  H   H513      1.0  0.67367  0.84314  0.69961  1.0000
  H   H514      1.0  0.66997  0.93719  0.77537  1.0000
  H   H515      1.0  0.66570  0.89450  0.83078  1.0000
  C   C435      1.0  0.73553  0.73815  0.59119  1.0000
  C   C436      1.0  0.75900  0.75130  0.56204  1.0000
  C   C437      1.0  0.79070  0.73039  0.55029  1.0000
  H   H516      1.0  0.81628  0.71724  0.67544  1.0000
  C   C438      1.0  0.72857  0.97569  0.83380  1.0000
  C   C439      1.0  0.78391  0.96477  0.87227  1.0000
  H   H517      1.0  0.75223  0.77715  0.54782  1.0000
  H   H518      1.0  0.92858  0.82453  0.97255  1.0000
  H   H519      1.0  0.78377  0.99328  0.88491  1.0000
  C   C440      1.0  0.97439  0.72212  0.98713  1.0000
  H   H520      1.0  0.63086  0.96270  0.51182  1.0000
  H   H521      1.0  0.72391  0.77942  0.72051  1.0000
  S   S123      1.0  0.67727  0.97725  0.92545  1.0000
  H   H522      1.0  0.55857  0.69321  0.97511  1.0000
  H   H523      1.0  0.64369  0.69224  0.99596  1.0000
  H   H524      1.0  0.74391  0.97435  0.57974  1.0000
  H   H525      1.0  0.56113  0.85262  0.85185  1.0000
  C   C441      1.0  0.80039  0.72558  0.70035  1.0000
  C   C442      1.0  0.70811  0.71264  0.97011  1.0000
  H   H526      1.0  0.66978  0.99032  0.65353  1.0000
  C   C443      1.0  0.77171  0.92763  0.81374  1.0000
  C   C444      1.0  0.76311  0.92371  0.77438  1.0000
  C   C445      1.0  0.78077  0.89447  0.83387  1.0000
  C   C446      1.0  0.76440  0.88903  0.75620  1.0000
  C   C447      1.0  0.78133  0.85981  0.81551  1.0000
  C   C448      1.0  0.77332  0.85714  0.77674  1.0000
  H   H527      1.0  0.58334  0.76141  0.89907  1.0000
  H   H528      1.0  0.80186  0.99835  0.98756  1.0000
  H   H529      1.0  0.71618  0.97892  0.80486  1.0000
  H   H530      1.0  0.77875  0.99871  0.78252  1.0000
  C   C449      1.0  0.55159  0.94745  0.53238  1.0000
  C   C450      1.0  0.80806  0.94895  0.62208  1.0000
  N   N29       1.0  0.87512  0.97378  0.53998  1.0000
  H   H531      1.0  0.74362  0.96106  0.97278  1.0000
  H   H532      1.0  0.80816  0.74051  0.52713  1.0000
  H   H533      1.0  0.75390  0.94713  0.75751  1.0000
  H   H534      1.0  0.59237  0.75439  0.97102  1.0000
  H   H535      1.0  0.75691  0.88671  0.72626  1.0000
  H   H536      1.0  0.78739  0.83476  0.83162  1.0000
  H   H537      1.0  0.77330  0.83025  0.76271  1.0000
  C   C451      1.0  0.78026  0.00978  0.96902  1.0000
  S   S124      1.0  0.76567  0.82273  0.99024  1.0000
  H   H538      1.0  0.78652  0.92823  0.62901  1.0000
  H   H539      1.0  0.81902  0.92427  0.56861  1.0000
  H   H540      1.0  0.86401  0.82776  0.99346  1.0000
  C   C452      1.0  0.76745  0.78845  0.92074  1.0000
  H   H541      1.0  0.73195  0.72943  0.95811  1.0000
  C   C453      1.0  0.87819  0.70563  0.72832  1.0000
  C   C454      1.0  0.75657  0.74897  0.76195  1.0000
  H   H542      1.0  0.85649  0.70119  0.80090  1.0000
  S   S125      1.0  0.57067  0.90178  0.53703  1.0000
  S   S126      1.0  0.81690  0.69763  0.87679  1.0000
  C   C455      1.0  0.86294  0.00270  0.60411  1.0000
  H   H543      1.0  0.95967  0.71424  0.96117  1.0000
  H   H544      1.0  0.62601  0.72142  0.56650  1.0000
  C   C456      1.0  0.54696  0.71734  0.98930  1.0000
  H   H545      1.0  0.71092  0.95452  0.84907  1.0000
  C   C457      1.0  0.71885  0.00328  0.93731  1.0000
  H   H546      1.0  0.53159  0.78644  0.80996  1.0000
  H   H547      1.0  0.76545  0.75813  0.86779  1.0000
  H   H548      1.0  0.73935  0.75815  0.78578  1.0000
  H   H549      1.0  0.76597  0.94735  0.89147  1.0000
  C   C458      1.0  0.56604  0.75208  0.98667  1.0000
  N   N30       1.0  0.76906  0.96452  0.83260  1.0000
  N   N31       1.0  0.84296  0.68727  0.74242  1.0000
  H   H550      1.0  0.88314  0.73293  0.74274  1.0000
  H   H551      1.0  0.92887  0.98772  0.56664  1.0000
  C   C459      1.0  0.85475  0.97439  0.57685  1.0000
  C   C460      1.0  0.91607  0.96679  0.54701  1.0000
  H   H552      1.0  0.56417  0.74825  0.55161  1.0000
  C   C461      1.0  0.53711  0.83760  0.86598  1.0000
  C   C462      1.0  0.79988  0.69644  0.56793  1.0000
  H   H553      1.0  0.57309  0.80436  0.92316  1.0000
  S   S127      1.0  0.75254  0.92155  0.51787  1.0000
  H   H554      1.0  0.87738  0.71061  0.69709  1.0000
  C   C463      1.0  0.93842  0.84047  0.99806  1.0000
  H   H555      1.0  0.72700  0.69393  0.63186  1.0000
  C   C464      1.0  0.76977  0.74958  0.69467  1.0000
  H   H556      1.0  0.80066  0.97961  0.67424  1.0000
  C   C465      1.0  0.78738  0.72518  0.76808  1.0000
  C   C466      1.0  0.82708  0.94706  0.58719  1.0000
  C   C467      1.0  0.81022  0.71258  0.73726  1.0000
  H   H557      1.0  0.82110  0.98428  0.80714  1.0000
  H   H558      1.0  0.77443  0.69829  0.00102  1.0000
  C   C468      1.0  0.55538  0.78341  0.83070  1.0000
  H   H559      1.0  0.60373  0.80459  0.88313  1.0000
  C   C469      1.0  0.81598  0.97782  0.64759  1.0000
  H   H560      1.0  0.58016  0.79939  0.81906  1.0000
  H   H561      1.0  0.79263  0.71705  0.79723  1.0000
  H   H562      1.0  0.82506  0.76822  0.99580  1.0000
  H   H563      1.0  0.68160  0.69985  0.54384  1.0000
  H   H564      1.0  0.92047  0.93899  0.56024  1.0000
  N   N32       1.0  0.54453  0.79701  0.86915  1.0000
  H   H565      1.0  0.72482  0.00269  0.84899  1.0000
  H   H566      1.0  0.68585  0.71106  0.94750  1.0000
  C   C470      1.0  0.54841  0.01292  0.55046  1.0000
  H   H567      1.0  0.81384  0.95497  0.87362  1.0000
  C   C471      1.0  0.87104  0.01029  0.52054  1.0000
  C   C472      1.0  0.61427  0.01077  0.66716  1.0000
  C   C473      1.0  0.56908  0.71897  0.54574  1.0000
  H   H568      1.0  0.86498  0.91602  0.52488  1.0000
  C   C474      1.0  0.99752  0.75448  0.98812  1.0000
  H   H569      1.0  0.83025  0.94832  0.50661  1.0000
  C   C475      1.0  0.60446  0.70331  0.55405  1.0000
  C   C476      1.0  0.79105  0.99308  0.81109  1.0000
  H   H570      1.0  0.60943  0.98999  0.68906  1.0000
  C   C477      1.0  0.86097  0.94456  0.51326  1.0000
  S   S128      1.0  0.57228  0.82876  0.00041  1.0000
  H   H571      1.0  0.93302  0.96784  0.52024  1.0000
  H   H572      1.0  0.53388  0.85132  0.89420  1.0000
  H   H573      1.0  0.69726  0.72907  0.99464  1.0000
  H   H574      1.0  0.94048  0.87048  0.99021  1.0000
  H   H575      1.0  0.96786  0.83099  0.00406  1.0000
  C   C478      1.0  0.52259  0.95391  0.50545  1.0000
  H   H576      1.0  0.90373  0.68814  0.73337  1.0000
  C   C479      1.0  0.77690  0.68364  0.59776  1.0000
  C   C480      1.0  0.55085  0.78373  0.00423  1.0000
