data_image0
_chemical_formula_structural       FeS2FeS2FeSFeS3H2FeS2FeS2FeSFeS3CSHSFeSFeSHFeC7H4CH2CHC2H3CHC5H3C8H6SH3C3HNCHC3HNC2H3CHC3H2C2H3CH2CH3NHCH3CHCH2CHC2NCH4C2NHC4HCH2C3HCH3CH2C2HCNCH3C3HCSCHC2HCH2CHCHCHCHC2HC2H7CHC2H2CH3CHCH3NH2C2HCH2CH7CH3FeS2FeS2FeSFeS3HSFeS2FeS2FeSFeS3CSCSFeSFeSH3C6H4CHC3H3CHC6H4NHC6H5NHC2SCHC2NH3C6HCH4CHCHCHNC9H16CHC4HCH3CHCHC4HCHC2HC3H12C4HCH2CH2C2H2NSNH2CFeCHC2H3CH2CH6C2HCH2CHC2H4CH2CHCHC2H5SFeS2FeSFeHFeCS2FeS2FeS2FeSFeS3FeS4FeSFeSCSCSC2H2CHSCHCHCH2C6H4C6H4C2H2C6H4C2H4CH2CH2NC2HSNC4HCH8CH4CHC2HC4H2C2HCFeCNC5HCH8CHCH3FeHC2H2C2HCH4CH4CHCHC2HCHC2HSCHNCH2SH3CHCHC2H2CHCHCH2CHCHC2HCH5SH3NH3CHCNC2H3SC3HNCFeS2FeSFeCFeHS2FeS2FeS2FeSFeS3FeSNCSFeSFeSHSCSFeHCHC6H3C7H4C6H4C3HC6H4SC2H4NC4SH2CHC2H2CHCH2C2H2NC6H13NC9H14NC2H6CH5C2SH4CHC2HC3H2CHCHFeH2C2H3C4HCHCH2CHC2HCH2SCH2C2HSH2C3H2C2HFeS2FeS2FeSFeS3FeSFeSC2S2HFeS2FeS2FeHFeS3H2C3H2C2H5C3HC6H4CHC4NHCHC6H4C6HCH2CHCHNC8H2CH12CNH2CHCHC2H2C2HC2HCH2SC2H3C3H4CH2C2HC2H2C2SH2C2H3C2HC2H3CH4C3H2CHC2NHCHCHCHSH2CHCH2C2HCH2C2H2FeHCNH2CHCH2FeS2FeS2FeSFeS3FeSFeSC2S2HFeS2FeS2FeSFeS3H4CH2CHCH2CHC3HC6H4CHC2H4C8H4C6H4CH4CH4SH4CH2CH3CNH3NH2C6HCH6NC9H7CHCH2C3H2SC3H2C3H6C2HC3H2SC3H9C2H3CNCH4NC2FeC2NC5H2CH8CH4C2H6SFeS2FeS2FeSFeS3HSFeSHFeSFeSHSFeS2FeSFeCFeHS2CHSH6C2HCH2SC6H4C2HCHCH2CHC6H4C6H5NC8HCHCHCH5S2CHSHCHCNHCHNH2C2HCH3CHCHCH4CH2CHCH2CH7CH3CHNHC2H2CHSHC2HC2FeCFeCHCH2C2HCHC2HC2HCH3NHSFeS2FeS2FeSFeS3CSFeS2FeSFeS3FeS2FeSFeHFeHS2HC2HFeH4C5HC7H4CH2CHSH4C6H4C6H3CHNC9H7SH4NH7CHCH3C2SC3HC3H2NC9H14NC4HCHC2HC2H6CHC2HC2H6CH2C2HCNSCH6CHCH3C2HNHFeC2HC2H3CH5C2FeS2FeS2FeSFeS3HSFeS2FeS2FeSFeS4HSHFeSFeSCHC2HCH2CHC6H4C2FeC8H2C8H7CNH4CHC2HCH4CH2CHCHNCH3CH2CH2CH2CHC4H2CHC2H2SC3H3CH2CHCH2CNCHCH3CH4C2SHC3H7C2H5C2H4CHC4NHCH4C3NH4C2HC2H2CHCHNHCHCHCH2C3NH7C2H2C5HC2SFeS2FeS2FeSFeCS2HSFeS2FeS2FeSFeS3H2SHFeSFeSC2HCHCH4C6H4C2HC6H6C6H6CHCH2C7H2SCSHC2H2NC9H11CH4C5H7FeCH4SCNH2CH2NH2CH2CH3CH3CHCHCH2C2HCH2C4H3C5HC4H2NH2CH2SNFeHC2HC2H2NCHCHCH2CHCH2C6H6C2HNHFeSHFeSHFeSFeS2FeS2FeS2FeSFeS3FeS2FeS2HFeS3CSH2NC4HC5H5C6H4C6H4C6H4CHCSHC2NHFeHCSH7CHCHC2NCHFeHC2NCH2C4HCH4SH2C2H2CH2NH2CH7C2HCH2CHCHC2H3C2H2CHC2HC2H2CH8C2HC2H4C3HC2H3CH8CHC2H3CHCHFeSCFeSHFeSFeS2FeS2FeS2FeSFeS3FeHSFeS2HFeS3H6C5HC2H6C6H4C6H4C6H4CHNH2CHCHSCHCNC9H11C2HCH2SCH5CH5C2HCH5CH4CSCH3C7SHCHNC2HNC9H16CNC6H2SH4CHCH3C3FeH5C4SH4FeS2FeS2FeSFeS4FeSHFeSFeSCFeS2FeS2FeHFeS3HC2HCH2C4H2NC3H2C2NC7H4C6H5CHCH6C6H2C2H2S2CNH2CHCH3C2HC2H2CHCHC2H3SCH5CSC2NC5H11CH2NC9H12C2HC2HCH3C2H4CH4CH5NCH4CH3NCHCH2CHSHCH4CFeS2FeS2FeSFeS4CSHFeSFeSHFeS2FeS2FeSFeS3HC3H3CH5C2HCH2NH2C7H4C6H4C6H4C6H2CNC5HCH12CHC2HC2HNFeH2C2HC2H2CHC3HC2H2CH4C2HSHCHCH2CHC4H2NCHCHCH7CH2SC2H2C6H2C2NHC3HCH2C2H6CH3C2H3CSCHCHCH5C3SCNFeS2FeS2FeSFeS3CSFeSCFeSFeSCHFeS2FeSFeHFeHS2C2H8SHC6H4C2HCHCH2CHC6H4CH4C6H4CSC2HC2HSNHCHNC9H14NHCFeC2H3C2H5CH2C2H4C3HCH2CHC3H3CH2CH2CH3CHCHFeC4H2CHC2H2CHC2HCH2CH2SHSHNCHCHNCH2C3HC2H3C3HC4H3C4HCSHSCHFeS2FeS2FeSFeS3HSFeSCFeSFeSCHFeS2FeSFeHFeHS2C2H9SC6H4C2HC3H2SHC6H4C3H2C6H4NSCHCHCFeSHC2HCH3CH3C2HCH2CHCHNC2HC2H2CHC2H2CH2C2H3CNCH2CHCH2N2H2CHC2NC9H11C2HC3HCH3CSH4NHCH6C3SH3C2H3FeH4CHCH2CH3SCH2C3H3
_chemical_formula_sum              "Fe192 S384 H1728 C1440 N96"
_cell_length_a       58.9172
_cell_length_b       89.6118
_cell_length_c       48.8608
_cell_angle_alpha    89.8015
_cell_angle_beta     89.7658
_cell_angle_gamma    88.2627

_space_group_name_H-M_alt    "P 1"
_space_group_IT_number       1

loop_
  _space_group_symop_operation_xyz
  'x, y, z'

loop_
  _atom_site_type_symbol
  _atom_site_label
  _atom_site_symmetry_multiplicity
  _atom_site_fract_x
  _atom_site_fract_y
  _atom_site_fract_z
  _atom_site_occupancy
  Fe  Fe1       1.0  0.11129  0.01157  0.41589  1.0000
  S   S1        1.0  0.08667  0.03118  0.41652  1.0000
  S   S2        1.0  0.12500  0.00654  0.45931  1.0000
  Fe  Fe2       1.0  0.10572  0.00844  0.35237  1.0000
  S   S3        1.0  0.08071  0.02800  0.35014  1.0000
  S   S4        1.0  0.11394  0.99138  0.31794  1.0000
  Fe  Fe3       1.0  0.10445  0.03984  0.37898  1.0000
  S   S5        1.0  0.10800  0.06560  0.37822  1.0000
  Fe  Fe4       1.0  0.06550  0.01797  0.38806  1.0000
  S   S6        1.0  0.03004  0.01155  0.40012  1.0000
  S   S7        1.0  0.13055  0.02075  0.37932  1.0000
  S   S8        1.0  0.08913  0.99795  0.38920  1.0000
  H   H1        1.0  0.08410  0.00253  0.22460  1.0000
  H   H2        1.0  0.18405  0.20279  0.13921  1.0000
  Fe  Fe5       1.0  0.17072  0.14739  0.37271  1.0000
  S   S9        1.0  0.13694  0.15942  0.36682  1.0000
  S   S10       1.0  0.17428  0.12161  0.37547  1.0000
  Fe  Fe6       1.0  0.19704  0.17681  0.37958  1.0000
  S   S11       1.0  0.16427  0.18989  0.37432  1.0000
  S   S12       1.0  0.22290  0.19496  0.38870  1.0000
  Fe  Fe7       1.0  0.14804  0.17356  0.40201  1.0000
  S   S13       1.0  0.12254  0.18267  0.43322  1.0000
  Fe  Fe8       1.0  0.15613  0.17500  0.33924  1.0000
  S   S14       1.0  0.14210  0.19025  0.30529  1.0000
  S   S15       1.0  0.18088  0.16101  0.40967  1.0000
  S   S16       1.0  0.18973  0.16237  0.34285  1.0000
  C   C1        1.0  0.02173  0.99014  0.24336  1.0000
  S   S17       1.0  0.08109  0.19593  0.11926  1.0000
  H   H3        1.0  0.14608  0.21474  0.17780  1.0000
  S   S18       1.0  0.13463  0.20208  0.10807  1.0000
  Fe  Fe9       1.0  0.10343  0.20005  0.08258  1.0000
  S   S19       1.0  0.09884  0.18530  0.04505  1.0000
  Fe  Fe10      1.0  0.11195  0.20026  0.14497  1.0000
  S   S20       1.0  0.12570  0.18364  0.17681  1.0000
  H   H4        1.0  0.10890  0.97571  0.45479  1.0000
  Fe  Fe11      1.0  0.07494  0.22077  0.11990  1.0000
  C   C2        1.0  0.28446  0.21785  0.29437  1.0000
  C   C3        1.0  0.13671  0.18783  0.26985  1.0000
  C   C4        1.0  0.14210  0.17450  0.25618  1.0000
  C   C5        1.0  0.13849  0.17343  0.22773  1.0000
  C   C6        1.0  0.12938  0.18560  0.21268  1.0000
  C   C7        1.0  0.12390  0.19891  0.22637  1.0000
  C   C8        1.0  0.12757  0.20000  0.25478  1.0000
  H   H5        1.0  0.14917  0.16506  0.26745  1.0000
  H   H6        1.0  0.14274  0.16307  0.21732  1.0000
  H   H7        1.0  0.11677  0.20835  0.21514  1.0000
  H   H8        1.0  0.12342  0.21038  0.26516  1.0000
  C   C9        1.0  0.11865  0.18463  0.01764  1.0000
  H   H9        1.0  0.14022  0.97636  0.11805  1.0000
  H   H10       1.0  0.14769  0.09935  0.42925  1.0000
  C   C10       1.0  0.12760  0.18385  0.46876  1.0000
  H   H11       1.0  0.06088  0.20542  0.05544  1.0000
  C   C11       1.0  0.00655  0.20960  0.12877  1.0000
  C   C12       1.0  0.15584  0.09105  0.44237  1.0000
  H   H12       1.0  0.15674  0.16877  0.46901  1.0000
  H   H13       1.0  0.01102  0.99734  0.23063  1.0000
  H   H14       1.0  0.13902  0.20235  0.03260  1.0000
  C   C13       1.0  0.29966  0.20448  0.38589  1.0000
  H   H15       1.0  0.18771  0.06141  0.48673  1.0000
  C   C14       1.0  0.26003  0.21286  0.38960  1.0000
  C   C15       1.0  0.25263  0.19811  0.38735  1.0000
  C   C16       1.0  0.26893  0.18654  0.38448  1.0000
  C   C17       1.0  0.29228  0.18972  0.38399  1.0000
  C   C18       1.0  0.14553  0.17588  0.48118  1.0000
  H   H16       1.0  0.02444  0.98781  0.45332  1.0000
  H   H17       1.0  0.26359  0.17514  0.38285  1.0000
  H   H18       1.0  0.99586  0.17344  0.04696  1.0000
  C   C19       1.0  0.16183  0.03966  0.47902  1.0000
  C   C20       1.0  0.17094  0.02760  0.17450  1.0000
  C   C21       1.0  0.12691  0.08091  0.37508  1.0000
  C   C22       1.0  0.15060  0.07895  0.37479  1.0000
  C   C23       1.0  0.16470  0.09149  0.37425  1.0000
  C   C24       1.0  0.15549  0.10621  0.37365  1.0000
  C   C25       1.0  0.13181  0.10815  0.37325  1.0000
  C   C26       1.0  0.11770  0.09563  0.37420  1.0000
  H   H19       1.0  0.15811  0.06780  0.37539  1.0000
  H   H20       1.0  0.18296  0.08976  0.37455  1.0000
  H   H21       1.0  0.12434  0.11931  0.37228  1.0000
  H   H22       1.0  0.09945  0.09735  0.37411  1.0000
  H   H23       1.0  0.09964  0.13869  0.40110  1.0000
  H   H24       1.0  0.02915  0.19655  0.00830  1.0000
  S   S21       1.0  0.32933  0.20780  0.38418  1.0000
  H   H25       1.0  0.18841  0.21831  0.40389  1.0000
  H   H26       1.0  0.02068  0.20176  0.13135  1.0000
  H   H27       1.0  0.14725  0.13251  0.44779  1.0000
  C   C27       1.0  0.10782  0.98758  0.28267  1.0000
  C   C28       1.0  0.09266  0.99438  0.23763  1.0000
  C   C29       1.0  0.27705  0.20735  0.31404  1.0000
  H   H28       1.0  0.05549  0.18100  0.07232  1.0000
  N   N1        1.0  0.17782  0.21738  0.44625  1.0000
  C   C30       1.0  0.09636  0.14380  0.42156  1.0000
  H   H29       1.0  0.31265  0.20789  0.44572  1.0000
  C   C31       1.0  0.00592  0.02512  0.35787  1.0000
  C   C32       1.0  0.00540  0.01615  0.38133  1.0000
  C   C33       1.0  0.10739  0.14341  0.47062  1.0000
  H   H30       1.0  0.02177  0.02972  0.35112  1.0000
  N   N2        1.0  0.02912  0.19411  0.05205  1.0000
  C   C34       1.0  0.10629  0.97924  0.01081  1.0000
  C   C35       1.0  0.24791  0.21504  0.27109  1.0000
  H   H31       1.0  0.05388  0.18689  0.02187  1.0000
  H   H32       1.0  0.20203  0.19571  0.16611  1.0000
  H   H33       1.0  0.14694  0.03181  0.43127  1.0000
  C   C36       1.0  0.18646  0.08372  0.47251  1.0000
  H   H34       1.0  0.10914  0.99598  0.10777  1.0000
  C   C37       1.0  0.25583  0.20089  0.31218  1.0000
  C   C38       1.0  0.13494  0.13868  0.43450  1.0000
  C   C39       1.0  0.05151  0.00003  0.47071  1.0000
  H   H35       1.0  0.03621  0.01040  0.31342  1.0000
  H   H36       1.0  0.09038  0.97519  0.01856  1.0000
  C   C40       1.0  0.14620  0.98338  0.01671  1.0000
  C   C41       1.0  0.14748  0.00839  0.15395  1.0000
  H   H37       1.0  0.01563  0.98741  0.35370  1.0000
  H   H38       1.0  0.09966  0.15591  0.41913  1.0000
  H   H39       1.0  0.09924  0.19921  0.47544  1.0000
  C   C42       1.0  0.15354  0.21741  0.43832  1.0000
  H   H40       1.0  0.16663  0.03125  0.21780  1.0000
  H   H41       1.0  0.17009  0.00086  0.10541  1.0000
  C   C43       1.0  0.32503  0.21296  0.30034  1.0000
  H   H42       1.0  0.18677  0.18963  0.20937  1.0000
  H   H43       1.0  0.13253  0.07438  0.43180  1.0000
  H   H44       1.0  0.13817  0.13456  0.41329  1.0000
  N   N3        1.0  0.13993  0.99945  0.13040  1.0000
  H   H45       1.0  0.18678  0.18826  0.25881  1.0000
  C   C44       1.0  0.02243  0.99233  0.27169  1.0000
  H   H46       1.0  0.17010  0.04392  0.42466  1.0000
  H   H47       1.0  0.10496  0.99770  0.14377  1.0000
  H   H48       1.0  0.11070  0.01399  0.12370  1.0000
  C   C45       1.0  0.99394  0.21104  0.05877  1.0000
  H   H49       1.0  0.07094  0.97608  0.32668  1.0000
  C   C46       1.0  0.03514  0.97891  0.23125  1.0000
  H   H50       1.0  0.00344  0.99512  0.32357  1.0000
  H   H51       1.0  0.10819  0.11544  0.42342  1.0000
  C   C47       1.0  0.24133  0.20467  0.29069  1.0000
  H   H52       1.0  0.09152  0.00878  0.27328  1.0000
  C   C48       1.0  0.09935  0.98037  0.22665  1.0000
  C   C49       1.0  0.05293  0.97558  0.33370  1.0000
  N   N4        1.0  0.11101  0.13683  0.44309  1.0000
  C   C50       1.0  0.03679  0.98335  0.28877  1.0000
  H   H53       1.0  0.02764  0.17756  0.02003  1.0000
  H   H54       1.0  0.07802  0.14248  0.42613  1.0000
  H   H55       1.0  0.20472  0.20121  0.45455  1.0000
  H   H56       1.0  0.18241  0.10556  0.45432  1.0000
  C   C51       1.0  0.04708  0.00142  0.32272  1.0000
  C   C52       1.0  0.03288  0.97988  0.49404  1.0000
  N   N5        1.0  0.14963  0.04994  0.45976  1.0000
  H   H57       1.0  0.03904  0.21227  0.07774  1.0000
  C   C53       1.0  0.09673  0.99795  0.26539  1.0000
  C   C54       1.0  0.11278  0.97783  0.47602  1.0000
  C   C55       1.0  0.15824  0.06531  0.45983  1.0000
  C   C56       1.0  0.03519  0.98912  0.47110  1.0000
  H   H58       1.0  0.16272  0.98108  0.14084  1.0000
  C   C57       1.0  0.18620  0.19911  0.24886  1.0000
  H   H59       1.0  0.07847  0.01014  0.49256  1.0000
  H   H60       1.0  0.30472  0.18065  0.38185  1.0000
  C   C58       1.0  0.04225  0.20774  0.05687  1.0000
  C   C59       1.0  0.00420  0.19670  0.05401  1.0000
  C   C60       1.0  0.28334  0.21606  0.38867  1.0000
  H   H61       1.0  0.05348  0.00702  0.45274  1.0000
  C   C61       1.0  0.14451  0.98336  0.13600  1.0000
  H   H62       1.0  0.18374  0.03598  0.17237  1.0000
  H   H63       1.0  0.02946  0.17168  0.06902  1.0000
  H   H64       1.0  0.28757  0.20415  0.33122  1.0000
  C   C62       1.0  0.12049  0.13812  0.49321  1.0000
  H   H65       1.0  0.01206  0.00139  0.28007  1.0000
  H   H66       1.0  0.25051  0.19298  0.32765  1.0000
  C   C63       1.0  0.18649  0.20171  0.44861  1.0000
  C   C64       1.0  0.16421  0.01946  0.15165  1.0000
  H   H67       1.0  0.08854  0.11886  0.45110  1.0000
  C   C65       1.0  0.15144  0.00312  0.10421  1.0000
  N   N6        1.0  0.03800  0.98638  0.31851  1.0000
  C   C66       1.0  0.14732  0.07668  0.44396  1.0000
  H   H68       1.0  0.11865  0.03861  0.46909  1.0000
  H   H69       1.0  0.30531  0.20614  0.48137  1.0000
  H   H70       1.0  0.22493  0.19958  0.28943  1.0000
  C   C67       1.0  0.14493  0.01422  0.20304  1.0000
  C   C68       1.0  0.16134  0.02497  0.20012  1.0000
  C   C69       1.0  0.10622  0.12068  0.44397  1.0000
  H   H71       1.0  0.06440  0.00221  0.31364  1.0000
  C   C70       1.0  0.01501  0.98596  0.33104  1.0000
  S   S22       1.0  0.09335  0.97650  0.19138  1.0000
  C   C71       1.0  0.18525  0.20122  0.16182  1.0000
  H   H72       1.0  0.14801  0.01494  0.09813  1.0000
  C   C72       1.0  0.15964  0.22198  0.16972  1.0000
  C   C73       1.0  0.09119  0.15516  0.47591  1.0000
  H   H73       1.0  0.14530  0.99616  0.08700  1.0000
  C   C74       1.0  0.12519  0.05013  0.46741  1.0000
  H   H74       1.0  0.00690  0.97515  0.32687  1.0000
  H   H75       1.0  0.12224  0.05575  0.48742  1.0000
  C   C75       1.0  0.12586  0.97799  0.02733  1.0000
  H   H76       1.0  0.17998  0.03791  0.47310  1.0000
  C   C76       1.0  0.12043  0.99186  0.48362  1.0000
  H   H77       1.0  0.13927  0.15067  0.43499  1.0000
  C   C77       1.0  0.13675  0.19434  0.01639  1.0000
  H   H78       1.0  0.11424  0.05585  0.45186  1.0000
  C   C78       1.0  0.30349  0.21351  0.46308  1.0000
  H   H79       1.0  0.23642  0.21805  0.25454  1.0000
  C   C79       1.0  0.18416  0.21415  0.20675  1.0000
  C   C80       1.0  0.03514  0.18852  0.02434  1.0000
  H   H80       1.0  0.18511  0.19563  0.42890  1.0000
  C   C81       1.0  0.13807  0.00608  0.18034  1.0000
  C   C82       1.0  0.15217  0.04364  0.43187  1.0000
  H   H81       1.0  0.05323  0.97810  0.35603  1.0000
  H   H82       1.0  0.08097  0.16029  0.45998  1.0000
  H   H83       1.0  0.14294  0.21149  0.45341  1.0000
  H   H84       1.0  0.12532  0.99789  0.18368  1.0000
  H   H85       1.0  0.28531  0.21394  0.45709  1.0000
  H   H86       1.0  0.13748  0.01209  0.22300  1.0000
  H   H87       1.0  0.17240  0.02202  0.13248  1.0000
  C   C83       1.0  0.11317  0.19301  0.48492  1.0000
  H   H88       1.0  0.04831  0.00406  0.34490  1.0000
  C   C84       1.0  0.03668  0.18279  0.07259  1.0000
  C   C85       1.0  0.11515  0.00192  0.12629  1.0000
  H   H89       1.0  0.17157  0.19339  0.16728  1.0000
  H   H90       1.0  0.14158  0.04986  0.41654  1.0000
  C   C86       1.0  0.17546  0.09454  0.45641  1.0000
  H   H91       1.0  0.18252  0.21097  0.28685  1.0000
  H   H92       1.0  0.17697  0.19519  0.46387  1.0000
  H   H93       1.0  0.15100  0.21168  0.41841  1.0000
  C   C87       1.0  0.18617  0.20009  0.22029  1.0000
  H   H94       1.0  0.11786  0.11437  0.45792  1.0000
  C   C88       1.0  0.06548  0.00182  0.49327  1.0000
  H   H95       1.0  0.32452  0.20474  0.28334  1.0000
  H   H96       1.0  0.03178  0.18637  0.09364  1.0000
  H   H97       1.0  0.20186  0.08645  0.48326  1.0000
  N   N7        1.0  0.18240  0.21563  0.17662  1.0000
  H   H98       1.0  0.34220  0.21971  0.48943  1.0000
  H   H99       1.0  0.15453  0.02832  0.47907  1.0000
  C   C89       1.0  0.17809  0.06929  0.47428  1.0000
  C   C90       1.0  0.18381  0.21193  0.26474  1.0000
  H   H100      1.0  0.34226  0.21776  0.30049  1.0000
  C   C91       1.0  0.11454  0.97360  0.27165  1.0000
  H   H101      1.0  0.32379  0.20672  0.32002  1.0000
  H   H102      1.0  0.13428  0.97918  0.15346  1.0000
  C   C92       1.0  0.16909  0.21936  0.49660  1.0000
  H   H103      1.0  0.13328  0.12933  0.49077  1.0000
  H   H104      1.0  0.03514  0.97746  0.20919  1.0000
  H   H105      1.0  0.03823  0.21664  0.04158  1.0000
  H   H106      1.0  0.15926  0.20938  0.49575  1.0000
  H   H107      1.0  0.16148  0.98248  0.02889  1.0000
  H   H108      1.0  0.24760  0.22193  0.39163  1.0000
  H   H109      1.0  0.00372  0.22088  0.06211  1.0000
  C   C93       1.0  0.26911  0.22164  0.27284  1.0000
  H   H110      1.0  0.21724  0.22177  0.17186  1.0000
  H   H111      1.0  0.34537  0.22122  0.45310  1.0000
  H   H112      1.0  0.10208  0.16665  0.99732  1.0000
  Fe  Fe12      1.0  0.11397  0.00753  0.90073  1.0000
  S   S23       1.0  0.08605  0.02508  0.90477  1.0000
  S   S24       1.0  0.13177  0.99914  0.94020  1.0000
  Fe  Fe13      1.0  0.11341  0.00927  0.83636  1.0000
  S   S25       1.0  0.08586  0.02709  0.83841  1.0000
  S   S26       1.0  0.12055  0.00661  0.79009  1.0000
  Fe  Fe14      1.0  0.10527  0.03772  0.87230  1.0000
  S   S27       1.0  0.10758  0.06341  0.87241  1.0000
  Fe  Fe15      1.0  0.06986  0.01281  0.87012  1.0000
  S   S28       1.0  0.03535  0.00385  0.86098  1.0000
  S   S29       1.0  0.13391  0.02070  0.86910  1.0000
  S   S30       1.0  0.09672  0.99453  0.86749  1.0000
  H   H113      1.0  0.02513  0.02907  0.89711  1.0000
  S   S31       1.0  0.33490  0.20310  0.88153  1.0000
  Fe  Fe16      1.0  0.17901  0.14106  0.87234  1.0000
  S   S32       1.0  0.14757  0.15468  0.88347  1.0000
  S   S33       1.0  0.18101  0.11525  0.87431  1.0000
  Fe  Fe17      1.0  0.20708  0.16935  0.85993  1.0000
  S   S34       1.0  0.17678  0.18412  0.86974  1.0000
  S   S35       1.0  0.23525  0.18484  0.84550  1.0000
  Fe  Fe18      1.0  0.17126  0.16949  0.90627  1.0000
  S   S36       1.0  0.16907  0.18322  0.94545  1.0000
  Fe  Fe19      1.0  0.15603  0.16829  0.84586  1.0000
  S   S37       1.0  0.12775  0.17764  0.81833  1.0000
  S   S38       1.0  0.20255  0.15522  0.89772  1.0000
  S   S39       1.0  0.18636  0.15408  0.83348  1.0000
  C   C94       1.0  0.23201  0.19489  0.92060  1.0000
  S   S40       1.0  0.09997  0.19010  0.62717  1.0000
  C   C95       1.0  0.08462  0.17039  0.93022  1.0000
  S   S41       1.0  0.14433  0.21041  0.62437  1.0000
  Fe  Fe20      1.0  0.12066  0.20064  0.59400  1.0000
  S   S42       1.0  0.13905  0.18658  0.56146  1.0000
  Fe  Fe21      1.0  0.12194  0.20162  0.65764  1.0000
  S   S43       1.0  0.14428  0.19135  0.69141  1.0000
  H   H114      1.0  0.08419  0.17694  0.94872  1.0000
  H   H115      1.0  0.10699  0.00597  0.73345  1.0000
  H   H116      1.0  0.27215  0.20400  0.91519  1.0000
  C   C96       1.0  0.13253  0.18161  0.78311  1.0000
  C   C97       1.0  0.11475  0.18784  0.76717  1.0000
  C   C98       1.0  0.11797  0.19098  0.73909  1.0000
  C   C99       1.0  0.13901  0.18783  0.72666  1.0000
  C   C100      1.0  0.15677  0.18167  0.74266  1.0000
  C   C101      1.0  0.15360  0.17862  0.77070  1.0000
  H   H117      1.0  0.09838  0.19019  0.77653  1.0000
  H   H118      1.0  0.10415  0.19570  0.72703  1.0000
  H   H119      1.0  0.17307  0.17912  0.73326  1.0000
  H   H120      1.0  0.16743  0.17382  0.78265  1.0000
  C   C102      1.0  0.13441  0.18611  0.52579  1.0000
  H   H121      1.0  0.08328  0.97910  0.79947  1.0000
  C   C103      1.0  0.13126  0.17359  0.97411  1.0000
  C   C104      1.0  0.14935  0.18332  0.97293  1.0000
  C   C105      1.0  0.10182  0.15584  0.52374  1.0000
  H   H122      1.0  0.07507  0.99451  0.53280  1.0000
  H   H123      1.0  0.10900  0.98639  0.69746  1.0000
  H   H124      1.0  0.12925  0.16544  0.95808  1.0000
  C   C106      1.0  0.12544  0.99428  0.51144  1.0000
  H   H125      1.0  0.10535  0.20122  0.52565  1.0000
  C   C107      1.0  0.30649  0.19865  0.87322  1.0000
  C   C108      1.0  0.29896  0.18419  0.87884  1.0000
  C   C109      1.0  0.27689  0.17994  0.87162  1.0000
  C   C110      1.0  0.26221  0.19003  0.85809  1.0000
  C   C111      1.0  0.26962  0.20457  0.85282  1.0000
  C   C112      1.0  0.29144  0.20895  0.86078  1.0000
  H   H126      1.0  0.31040  0.17614  0.88857  1.0000
  H   H127      1.0  0.27157  0.16868  0.87561  1.0000
  H   H128      1.0  0.16166  0.22198  0.53961  1.0000
  H   H129      1.0  0.05352  0.00572  0.80528  1.0000
  N   N8        1.0  0.23119  0.20450  0.94537  1.0000
  H   H130      1.0  0.01314  0.98923  0.78335  1.0000
  C   C113      1.0  0.12845  0.07757  0.87286  1.0000
  C   C114      1.0  0.15181  0.07427  0.87437  1.0000
  C   C115      1.0  0.16749  0.08592  0.87501  1.0000
  C   C116      1.0  0.16020  0.10106  0.87411  1.0000
  C   C117      1.0  0.13683  0.10435  0.87275  1.0000
  C   C118      1.0  0.12114  0.09270  0.87214  1.0000
  H   H131      1.0  0.15787  0.06278  0.87518  1.0000
  H   H132      1.0  0.18548  0.08320  0.87609  1.0000
  H   H133      1.0  0.13087  0.11588  0.87199  1.0000
  H   H134      1.0  0.10316  0.09545  0.87103  1.0000
  H   H135      1.0  0.09957  0.21309  0.92240  1.0000
  N   N9        1.0  0.14207  0.04517  0.95605  1.0000
  H   H136      1.0  0.23410  0.20161  0.90159  1.0000
  C   C119      1.0  0.12806  0.99090  0.97357  1.0000
  C   C120      1.0  0.12307  0.98286  0.53128  1.0000
  S   S44       1.0  0.09846  0.22153  0.59114  1.0000
  C   C121      1.0  0.11975  0.99165  0.76584  1.0000
  H   H137      1.0  0.07680  0.20157  0.93306  1.0000
  C   C122      1.0  0.08847  0.16117  0.50216  1.0000
  C   C123      1.0  0.06332  0.99268  0.51636  1.0000
  N   N10       1.0  0.04944  0.98460  0.78504  1.0000
  H   H138      1.0  0.17369  0.03511  0.97036  1.0000
  H   H139      1.0  0.24301  0.18711  0.97268  1.0000
  H   H140      1.0  0.09647  0.17019  0.86164  1.0000
  C   C124      1.0  0.00975  0.01240  0.87222  1.0000
  C   C125      1.0  0.00937  0.02460  0.88999  1.0000
  C   C126      1.0  0.08443  0.19946  0.87860  1.0000
  C   C127      1.0  0.14747  0.06114  0.95857  1.0000
  C   C128      1.0  0.12758  0.97714  0.77211  1.0000
  C   C129      1.0  0.03876  0.97793  0.70927  1.0000
  H   H141      1.0  0.03151  0.21605  0.56357  1.0000
  C   C130      1.0  0.06521  0.97745  0.80520  1.0000
  H   H142      1.0  0.02394  0.98641  0.81685  1.0000
  H   H143      1.0  0.02536  0.99299  0.73919  1.0000
  H   H144      1.0  0.08824  0.21151  0.87658  1.0000
  H   H145      1.0  0.16070  0.04380  0.50043  1.0000
  C   C131      1.0  0.17160  0.08122  0.97465  1.0000
  H   H146      1.0  0.13333  0.97453  0.79263  1.0000
  C   C132      1.0  0.10736  0.98573  0.98408  1.0000
  H   H147      1.0  0.07593  0.13427  0.91261  1.0000
  C   C133      1.0  0.04683  0.98140  0.51748  1.0000
  H   H148      1.0  0.48498  0.21807  0.90782  1.0000
  N   N11       1.0  0.13943  0.05412  0.79294  1.0000
  C   C134      1.0  0.14818  0.04444  0.81542  1.0000
  C   C135      1.0  0.11433  0.05291  0.79257  1.0000
  C   C136      1.0  0.14830  0.04816  0.76656  1.0000
  C   C137      1.0  0.14707  0.06956  0.79703  1.0000
  C   C138      1.0  0.13172  0.08194  0.80110  1.0000
  C   C139      1.0  0.17061  0.07254  0.79757  1.0000
  C   C140      1.0  0.13962  0.09632  0.80523  1.0000
  C   C141      1.0  0.17829  0.08694  0.80206  1.0000
  C   C142      1.0  0.16282  0.09881  0.80586  1.0000
  H   H149      1.0  0.14203  0.04868  0.83560  1.0000
  H   H150      1.0  0.14252  0.03276  0.81319  1.0000
  H   H151      1.0  0.16701  0.04379  0.81612  1.0000
  H   H152      1.0  0.10657  0.05645  0.81246  1.0000
  H   H153      1.0  0.10923  0.04117  0.78921  1.0000
  H   H154      1.0  0.10653  0.05974  0.77582  1.0000
  H   H155      1.0  0.16714  0.04720  0.76611  1.0000
  H   H156      1.0  0.14220  0.03668  0.76258  1.0000
  H   H157      1.0  0.14280  0.05544  0.74917  1.0000
  H   H158      1.0  0.11355  0.08080  0.80187  1.0000
  H   H159      1.0  0.18331  0.06370  0.79502  1.0000
  H   H160      1.0  0.12770  0.10557  0.80891  1.0000
  H   H161      1.0  0.19633  0.08893  0.80315  1.0000
  H   H162      1.0  0.16884  0.10990  0.81011  1.0000
  H   H163      1.0  0.33047  0.19493  0.81843  1.0000
  H   H164      1.0  0.30529  0.21870  0.92309  1.0000
  C   C143      1.0  0.99345  0.20141  0.62937  1.0000
  H   H165      1.0  0.36393  0.20440  0.80181  1.0000
  C   C144      1.0  0.01457  0.21236  0.55896  1.0000
  C   C145      1.0  0.32119  0.19889  0.79976  1.0000
  C   C146      1.0  0.11405  0.98369  0.71819  1.0000
  C   C147      1.0  0.27134  0.21167  0.93212  1.0000
  H   H166      1.0  0.12846  0.14050  0.53609  1.0000
  C   C148      1.0  0.14731  0.98963  0.99030  1.0000
  H   H167      1.0  0.13638  0.04621  0.91243  1.0000
  H   H168      1.0  0.07492  0.15090  0.95295  1.0000
  H   H169      1.0  0.15009  0.02335  0.97318  1.0000
  C   C149      1.0  0.02595  0.98264  0.79528  1.0000
  H   H170      1.0  0.07661  0.17047  0.50560  1.0000
  C   C150      1.0  0.05908  0.97501  0.56477  1.0000
  H   H171      1.0  0.29020  0.20349  0.76414  1.0000
  C   C151      1.0  0.19539  0.21561  0.71207  1.0000
  C   C152      1.0  0.13510  0.07214  0.94327  1.0000
  C   C153      1.0  0.11289  0.99479  0.73875  1.0000
  C   C154      1.0  0.25191  0.21321  0.94934  1.0000
  H   H172      1.0  0.10593  0.19711  0.94288  1.0000
  C   C155      1.0  0.11660  0.19420  0.51334  1.0000
  H   H173      1.0  0.21292  0.21068  0.71299  1.0000
  C   C156      1.0  0.31974  0.21793  0.76270  1.0000
  C   C157      1.0  0.28793  0.21816  0.73020  1.0000
  H   H174      1.0  0.14464  0.02812  0.92521  1.0000
  C   C158      1.0  0.14890  0.17702  0.50957  1.0000
  C   C159      1.0  0.11778  0.14433  0.51929  1.0000
  C   C160      1.0  0.05422  0.00076  0.78439  1.0000
  H   H175      1.0  0.04182  0.00733  0.77185  1.0000
  H   H176      1.0  0.24597  0.18625  0.92166  1.0000
  H   H177      1.0  0.21605  0.18868  0.91802  1.0000
  H   H178      1.0  0.18127  0.20700  0.66430  1.0000
  H   H179      1.0  0.16269  0.17071  0.51913  1.0000
  H   H180      1.0  0.33553  0.22082  0.82913  1.0000
  H   H181      1.0  0.06587  0.19854  0.88232  1.0000
  H   H182      1.0  0.16401  0.10326  0.95874  1.0000
  H   H183      1.0  0.13268  0.18619  0.90889  1.0000
  H   H184      1.0  0.08834  0.19453  0.85815  1.0000
  H   H185      1.0  0.32196  0.18959  0.78472  1.0000
  H   H186      1.0  0.27189  0.21378  0.72364  1.0000
  C   C161      1.0  0.29876  0.21230  0.75351  1.0000
  C   C162      1.0  0.09477  0.20131  0.92595  1.0000
  C   C163      1.0  0.22789  0.19466  0.96944  1.0000
  C   C164      1.0  0.35557  0.20948  0.78342  1.0000
  H   H187      1.0  0.16528  0.04237  0.92222  1.0000
  C   C165      1.0  0.07983  0.14596  0.91033  1.0000
  H   H188      1.0  0.02324  0.18935  0.56663  1.0000
  H   H189      1.0  0.21293  0.18749  0.96685  1.0000
  C   C166      1.0  0.07924  0.15536  0.93300  1.0000
  H   H190      1.0  0.25837  0.21249  0.84247  1.0000
  H   H191      1.0  0.12853  0.20370  0.89131  1.0000
  C   C167      1.0  0.21112  0.21481  0.94260  1.0000
  C   C168      1.0  0.01017  0.21225  0.62631  1.0000
  H   H192      1.0  0.18593  0.08482  0.98656  1.0000
  H   H193      1.0  0.10033  0.16099  0.54378  1.0000
  N   N12       1.0  0.09780  0.19211  0.90086  1.0000
  S   S45       1.0  0.03968  0.20648  0.62713  1.0000
  N   N13       1.0  0.33096  0.21268  0.78821  1.0000
  H   H194      1.0  0.06291  0.98238  0.82599  1.0000
  H   H195      1.0  0.07149  0.00266  0.77595  1.0000
  C   C169      1.0  0.29061  0.22010  0.93646  1.0000
  Fe  Fe22      1.0  0.07827  0.21148  0.62613  1.0000
  C   C170      1.0  0.09126  0.16655  0.88178  1.0000
  H   H196      1.0  0.12123  0.06916  0.93014  1.0000
  C   C171      1.0  0.09090  0.17645  0.90441  1.0000
  C   C172      1.0  0.16592  0.06616  0.97447  1.0000
  H   H197      1.0  0.12742  0.98489  0.55240  1.0000
  H   H198      1.0  0.17647  0.05866  0.98659  1.0000
  H   H199      1.0  0.08666  0.14420  0.86717  1.0000
  C   C173      1.0  0.14731  0.04027  0.92775  1.0000
  H   H200      1.0  0.29667  0.22023  0.85704  1.0000
  H   H201      1.0  0.19546  0.20870  0.93780  1.0000
  C   C174      1.0  0.03747  0.98391  0.73567  1.0000
  H   H202      1.0  0.21071  0.21074  0.66049  1.0000
  H   H203      1.0  0.12553  0.18660  0.87338  1.0000
  H   H204      1.0  0.22487  0.20108  0.98860  1.0000
  H   H205      1.0  0.35828  0.20165  0.76600  1.0000
  H   H206      1.0  0.30328  0.20076  0.80655  1.0000
  H   H207      1.0  0.99875  0.18991  0.63288  1.0000
  C   C175      1.0  0.12214  0.19218  0.89329  1.0000
  C   C176      1.0  0.00984  0.19727  0.56067  1.0000
  H   H208      1.0  0.18346  0.20619  0.71138  1.0000
  C   C177      1.0  0.19362  0.21616  0.66317  1.0000
  H   H209      1.0  0.13145  0.00502  0.51769  1.0000
  H   H210      1.0  0.09227  0.98656  0.97157  1.0000
  C   C178      1.0  0.08579  0.15156  0.88476  1.0000
  H   H211      1.0  0.02797  0.98238  0.69307  1.0000
  C   C179      1.0  0.15518  0.03521  0.97502  1.0000
  C   C180      1.0  0.05159  0.97830  0.75712  1.0000
  H   H212      1.0  0.01492  0.98340  0.55648  1.0000
  H   H213      1.0  0.05532  0.98651  0.57235  1.0000
  H   H214      1.0  0.16593  0.20125  0.99341  1.0000
  H   H215      1.0  0.16342  0.99340  0.98268  1.0000
  C   C181      1.0  0.11759  0.04294  0.96160  1.0000
  H   H216      1.0  0.10636  0.04842  0.94607  1.0000
  H   H217      1.0  0.13158  0.09524  0.93117  1.0000
  C   C182      1.0  0.14094  0.08713  0.94361  1.0000
  H   H218      1.0  0.11342  0.03086  0.96111  1.0000
  C   C183      1.0  0.15924  0.09166  0.95910  1.0000
  H   H219      1.0  0.19163  0.22131  0.73177  1.0000
  C   C184      1.0  0.15198  0.19369  0.99412  1.0000
  C   C185      1.0  0.11592  0.17429  0.99636  1.0000
  H   H220      1.0  0.36518  0.21973  0.77907  1.0000
  H   H221      1.0  0.20727  0.22111  0.96167  1.0000
  H   H222      1.0  0.11257  0.04738  0.98205  1.0000
  H   H223      1.0  0.07743  0.97387  0.55944  1.0000
  H   H224      1.0  0.15229  0.03846  0.99673  1.0000
  S   S46       1.0  0.09949  0.22234  0.65895  1.0000
  Fe  Fe23      1.0  0.36758  0.42172  0.11684  1.0000
  S   S47       1.0  0.34382  0.44203  0.11444  1.0000
  S   S48       1.0  0.35848  0.39842  0.13385  1.0000
  Fe  Fe24      1.0  0.40875  0.44082  0.10250  1.0000
  S   S49       1.0  0.44462  0.44519  0.08910  1.0000
  Fe  Fe25      1.0  0.37072  0.45395  0.13849  1.0000
  H   H225      1.0  0.48439  0.41629  0.16112  1.0000
  Fe  Fe26      1.0  0.36332  0.44848  0.07596  1.0000
  C   C186      1.0  0.38056  0.27239  0.03468  1.0000
  S   S50       1.0  0.39370  0.43361  0.14245  1.0000
  S   S51       1.0  0.38522  0.42736  0.07717  1.0000
  Fe  Fe27      1.0  0.30293  0.31410  0.11582  1.0000
  S   S52       1.0  0.33217  0.29741  0.11130  1.0000
  S   S53       1.0  0.30322  0.33929  0.10471  1.0000
  Fe  Fe28      1.0  0.26898  0.28913  0.12927  1.0000
  S   S54       1.0  0.29613  0.27118  0.12602  1.0000
  S   S55       1.0  0.23229  0.28480  0.14308  1.0000
  Fe  Fe29      1.0  0.31842  0.28644  0.14953  1.0000
  S   S56       1.0  0.34399  0.27567  0.17952  1.0000
  Fe  Fe30      1.0  0.30797  0.28316  0.08808  1.0000
  S   S57       1.0  0.31772  0.26683  0.05367  1.0000
  S   S58       1.0  0.29060  0.30398  0.15552  1.0000
  S   S59       1.0  0.27934  0.30032  0.08998  1.0000
  Fe  Fe31      1.0  0.39657  0.24336  0.37401  1.0000
  S   S60       1.0  0.38103  0.26684  0.37275  1.0000
  S   S61       1.0  0.43404  0.23641  0.36417  1.0000
  S   S62       1.0  0.10476  0.22508  0.14812  1.0000
  S   S63       1.0  0.33154  0.25184  0.37992  1.0000
  Fe  Fe32      1.0  0.35459  0.25745  0.34470  1.0000
  S   S64       1.0  0.33457  0.26890  0.30976  1.0000
  Fe  Fe33      1.0  0.35913  0.25915  0.40808  1.0000
  S   S65       1.0  0.34441  0.27391  0.44245  1.0000
  C   C187      1.0  0.32646  0.28354  0.00660  1.0000
  S   S66       1.0  0.37581  0.23621  0.41084  1.0000
  C   C188      1.0  0.32191  0.46073  0.24639  1.0000
  S   S67       1.0  0.15800  0.24002  0.09798  1.0000
  C   C189      1.0  0.49159  0.25178  0.40150  1.0000
  C   C190      1.0  0.39100  0.26080  0.01999  1.0000
  H   H226      1.0  0.30887  0.40753  0.21470  1.0000
  H   H227      1.0  0.38209  0.29936  0.45722  1.0000
  C   C191      1.0  0.32619  0.26944  0.01900  1.0000
  H   H228      1.0  0.49148  0.45127  0.08301  1.0000
  S   S68       1.0  0.38763  0.46197  0.09990  1.0000
  C   C192      1.0  0.34445  0.27257  0.47881  1.0000
  H   H229      1.0  0.37497  0.28250  0.02408  1.0000
  C   C193      1.0  0.30109  0.23521  0.49297  1.0000
  H   H230      1.0  0.32383  0.45739  0.20349  1.0000
  C   C194      1.0  0.22204  0.34554  0.11020  1.0000
  H   H231      1.0  0.30158  0.24433  0.27182  1.0000
  H   H232      1.0  0.32119  0.29332  0.01817  1.0000
  C   C195      1.0  0.34099  0.27377  0.21571  1.0000
  C   C196      1.0  0.32189  0.27941  0.22980  1.0000
  C   C197      1.0  0.32036  0.27784  0.25851  1.0000
  C   C198      1.0  0.33780  0.27059  0.27358  1.0000
  C   C199      1.0  0.35680  0.26477  0.25948  1.0000
  C   C200      1.0  0.35836  0.26638  0.23074  1.0000
  H   H233      1.0  0.30839  0.28512  0.21862  1.0000
  H   H234      1.0  0.30558  0.28239  0.26915  1.0000
  H   H235      1.0  0.37036  0.25917  0.27073  1.0000
  H   H236      1.0  0.37323  0.26197  0.22012  1.0000
  C   C201      1.0  0.21240  0.27167  0.13097  1.0000
  C   C202      1.0  0.21571  0.26381  0.10651  1.0000
  C   C203      1.0  0.19893  0.25418  0.09696  1.0000
  C   C204      1.0  0.17872  0.25204  0.11181  1.0000
  C   C205      1.0  0.17559  0.25967  0.13658  1.0000
  C   C206      1.0  0.19225  0.26948  0.14595  1.0000
  H   H237      1.0  0.23101  0.26536  0.09464  1.0000
  H   H238      1.0  0.20158  0.24839  0.07776  1.0000
  H   H239      1.0  0.16009  0.25833  0.14813  1.0000
  H   H240      1.0  0.18939  0.27554  0.16482  1.0000
  C   C207      1.0  0.46281  0.23922  0.37477  1.0000
  C   C208      1.0  0.46854  0.24968  0.39464  1.0000
  H   H241      1.0  0.33604  0.33271  0.48904  1.0000
  H   H242      1.0  0.45522  0.25621  0.40467  1.0000
  C   C209      1.0  0.34356  0.38195  0.12450  1.0000
  C   C210      1.0  0.32843  0.38160  0.10247  1.0000
  C   C211      1.0  0.31643  0.36849  0.09676  1.0000
  C   C212      1.0  0.31953  0.35538  0.11262  1.0000
  C   C213      1.0  0.33481  0.35570  0.13450  1.0000
  C   C214      1.0  0.34653  0.36888  0.14047  1.0000
  H   H243      1.0  0.32578  0.39147  0.08994  1.0000
  H   H244      1.0  0.30471  0.36848  0.07978  1.0000
  H   H245      1.0  0.33743  0.34584  0.14705  1.0000
  H   H246      1.0  0.35810  0.36891  0.15760  1.0000
  C   C215      1.0  0.46637  0.42884  0.12978  1.0000
  C   C216      1.0  0.46839  0.43867  0.10768  1.0000
  H   H247      1.0  0.32460  0.41778  0.25546  1.0000
  H   H248      1.0  0.44988  0.42487  0.13562  1.0000
  H   H249      1.0  0.40522  0.24117  0.11680  1.0000
  H   H250      1.0  0.20463  0.31262  0.13961  1.0000
  C   C217      1.0  0.39736  0.24756  0.03329  1.0000
  H   H251      1.0  0.38583  0.45536  0.26659  1.0000
  H   H252      1.0  0.38196  0.45147  0.21646  1.0000
  C   C218      1.0  0.46863  0.26484  0.31249  1.0000
  H   H253      1.0  0.38282  0.26723  0.14455  1.0000
  H   H254      1.0  0.41910  0.44320  0.47358  1.0000
  N   N14       1.0  0.22335  0.32965  0.11864  1.0000
  C   C219      1.0  0.20283  0.32461  0.13339  1.0000
  C   C220      1.0  0.18003  0.22502  0.47292  1.0000
  H   H255      1.0  0.18745  0.32543  0.12027  1.0000
  S   S69       1.0  0.37086  0.23446  0.34404  1.0000
  N   N15       1.0  0.37684  0.25581  0.10640  1.0000
  C   C221      1.0  0.38568  0.26855  0.12210  1.0000
  C   C222      1.0  0.35186  0.25569  0.10981  1.0000
  C   C223      1.0  0.38640  0.24188  0.11895  1.0000
  C   C224      1.0  0.38240  0.25743  0.07693  1.0000
  H   H256      1.0  0.22056  0.38768  0.08793  1.0000
  C   C225      1.0  0.41680  0.45774  0.02922  1.0000
  H   H257      1.0  0.24238  0.33491  0.15473  1.0000
  H   H258      1.0  0.33043  0.23886  0.27628  1.0000
  H   H259      1.0  0.39625  0.44983  0.49440  1.0000
  H   H260      1.0  0.37512  0.25904  0.48223  1.0000
  H   H261      1.0  0.19743  0.23739  0.17353  1.0000
  H   H262      1.0  0.32206  0.46134  0.29036  1.0000
  H   H263      1.0  0.34363  0.26629  0.10278  1.0000
  H   H264      1.0  0.15735  0.22299  0.14721  1.0000
  C   C226      1.0  0.46114  0.46800  0.28720  1.0000
  H   H265      1.0  0.44630  0.27088  0.27936  1.0000
  H   H266      1.0  0.39829  0.23520  0.07019  1.0000
  H   H267      1.0  0.20909  0.22429  0.42755  1.0000
  H   H268      1.0  0.31334  0.22800  0.25417  1.0000
  C   C227      1.0  0.22641  0.32012  0.09406  1.0000
  H   H269      1.0  0.99492  0.24656  0.11949  1.0000
  C   C228      1.0  0.20198  0.36992  0.10648  1.0000
  C   C229      1.0  0.18249  0.22703  0.22361  1.0000
  H   H270      1.0  0.44973  0.46641  0.13661  1.0000
  C   C230      1.0  0.33748  0.22673  0.47139  1.0000
  C   C231      1.0  0.24032  0.36714  0.08937  1.0000
  C   C232      1.0  0.44253  0.43761  0.01714  1.0000
  C   C233      1.0  0.46355  0.44862  0.48975  1.0000
  H   H271      1.0  0.24364  0.31553  0.14553  1.0000
  H   H272      1.0  0.25958  0.32854  0.12651  1.0000
  C   C234      1.0  0.20242  0.35490  0.11452  1.0000
  C   C235      1.0  0.22091  0.37603  0.09402  1.0000
  H   H273      1.0  0.25633  0.34569  0.09296  1.0000
  C   C236      1.0  0.37772  0.46226  0.22520  1.0000
  Fe  Fe34      1.0  0.34900  0.22946  0.38071  1.0000
  C   C237      1.0  0.32734  0.28034  0.49361  1.0000
  N   N16       1.0  0.32664  0.42671  0.20002  1.0000
  C   C238      1.0  0.30879  0.43085  0.17973  1.0000
  C   C239      1.0  0.34912  0.42945  0.18772  1.0000
  C   C240      1.0  0.32535  0.41038  0.20510  1.0000
  C   C241      1.0  0.32395  0.43592  0.22501  1.0000
  C   C242      1.0  0.32295  0.45175  0.22306  1.0000
  H   H274      1.0  0.28859  0.22749  0.38985  1.0000
  C   C243      1.0  0.33316  0.25687  0.00357  1.0000
  H   H275      1.0  0.20131  0.24342  0.45948  1.0000
  H   H276      1.0  0.18689  0.37689  0.10999  1.0000
  H   H277      1.0  0.31044  0.44240  0.17172  1.0000
  H   H278      1.0  0.30976  0.42349  0.16136  1.0000
  H   H279      1.0  0.29154  0.43000  0.18885  1.0000
  H   H280      1.0  0.35206  0.42259  0.16908  1.0000
  H   H281      1.0  0.36308  0.42665  0.20232  1.0000
  H   H282      1.0  0.35084  0.44130  0.18151  1.0000
  C   C244      1.0  0.37995  0.46452  0.25371  1.0000
  H   H283      1.0  0.32694  0.40386  0.18569  1.0000
  C   C245      1.0  0.34811  0.32368  0.49318  1.0000
  H   H284      1.0  0.34674  0.25426  0.13163  1.0000
  H   H285      1.0  0.45553  0.25931  0.32416  1.0000
  H   H286      1.0  0.45680  0.44387  0.02597  1.0000
  Fe  Fe35      1.0  0.12640  0.22675  0.10983  1.0000
  H   H287      1.0  0.36688  0.27977  0.07269  1.0000
  C   C246      1.0  0.48591  0.42396  0.14411  1.0000
  C   C247      1.0  0.40491  0.43846  0.99864  1.0000
  H   H288      1.0  0.26666  0.23329  0.47728  1.0000
  H   H289      1.0  0.31402  0.28637  0.48266  1.0000
  C   C248      1.0  0.30789  0.23821  0.44447  1.0000
  C   C249      1.0  0.24305  0.32709  0.13709  1.0000
  H   H290      1.0  0.45456  0.45303  0.47213  1.0000
  C   C250      1.0  0.19244  0.23827  0.47623  1.0000
  H   H291      1.0  0.45926  0.45753  0.27652  1.0000
  H   H292      1.0  0.18721  0.35091  0.12411  1.0000
  H   H293      1.0  0.41889  0.46201  0.48740  1.0000
  H   H294      1.0  0.43837  0.44864  0.17106  1.0000
  C   C251      1.0  0.30658  0.23416  0.32212  1.0000
  H   H295      1.0  0.18009  0.23582  0.26462  1.0000
  H   H296      1.0  0.35446  0.32024  0.45006  1.0000
  H   H297      1.0  0.33953  0.40613  0.21825  1.0000
  H   H298      1.0  0.29322  0.24319  0.32090  1.0000
  C   C252      1.0  0.19988  0.22577  0.16600  1.0000
  H   H299      1.0  0.18431  0.23611  0.41967  1.0000
  C   C253      1.0  0.37613  0.27074  0.06264  1.0000
  H   H300      1.0  0.18048  0.23807  0.21479  1.0000
  C   C254      1.0  0.41502  0.45015  0.49186  1.0000
  C   C255      1.0  0.48062  0.23088  0.36209  1.0000
  H   H301      1.0  0.40420  0.26974  0.11854  1.0000
  C   C256      1.0  0.19049  0.22445  0.42352  1.0000
  H   H302      1.0  0.41056  0.45124  0.04699  1.0000
  C   C257      1.0  0.49065  0.26538  0.32283  1.0000
  C   C258      1.0  0.46344  0.27131  0.28725  1.0000
  H   H303      1.0  0.38245  0.24131  0.14127  1.0000
  S   S70       1.0  0.09606  0.22476  0.08185  1.0000
  C   C259      1.0  0.39322  0.24582  0.06135  1.0000
  H   H304      1.0  0.31675  0.23375  0.42592  1.0000
  N   N17       1.0  0.30687  0.22472  0.29730  1.0000
  C   C260      1.0  0.32286  0.43879  0.27505  1.0000
  H   H305      1.0  0.15658  0.23335  0.17817  1.0000
  H   H306      1.0  0.24225  0.32256  0.08267  1.0000
  S   S71       1.0  0.35034  0.45461  0.03262  1.0000
  H   H307      1.0  0.28955  0.23920  0.43946  1.0000
  H   H308      1.0  0.19932  0.22666  0.14322  1.0000
  H   H309      1.0  0.40520  0.23850  0.02161  1.0000
  C   C261      1.0  0.48984  0.44366  0.10010  1.0000
  H   H310      1.0  0.47619  0.28320  0.25252  1.0000
  C   C262      1.0  0.37446  0.30505  0.47469  1.0000
  H   H311      1.0  0.21202  0.32177  0.07959  1.0000
  C   C263      1.0  0.35874  0.31676  0.47072  1.0000
  C   C264      1.0  0.24088  0.35212  0.09715  1.0000
  H   H312      1.0  0.37701  0.27934  0.11674  1.0000
  H   H313      1.0  0.33320  0.24592  0.01300  1.0000
  C   C265      1.0  0.18224  0.22588  0.25216  1.0000
  H   H314      1.0  0.42877  0.45469  0.20432  1.0000
  C   C266      1.0  0.35180  0.46589  0.48260  1.0000
  H   H315      1.0  0.32311  0.43386  0.29535  1.0000
  C   C267      1.0  0.42937  0.45787  0.18229  1.0000
  H   H316      1.0  0.25514  0.37186  0.07978  1.0000
  H   H317      1.0  0.32307  0.23963  0.32488  1.0000
  C   C268      1.0  0.32211  0.45428  0.27233  1.0000
  H   H318      1.0  0.19979  0.33107  0.15253  1.0000
  C   C269      1.0  0.36162  0.26487  0.49329  1.0000
  H   H319      1.0  0.22750  0.30802  0.09959  1.0000
  C   C270      1.0  0.48033  0.27824  0.27222  1.0000
  C   C271      1.0  0.32374  0.42967  0.25183  1.0000
  H   H320      1.0  0.37898  0.23179  0.10973  1.0000
  C   C272      1.0  0.31317  0.23431  0.27373  1.0000
  H   H321      1.0  0.43093  0.46463  0.03658  1.0000
  H   H322      1.0  0.14633  0.22899  0.43649  1.0000
  H   H323      1.0  0.41156  0.45838  0.17470  1.0000
  H   H324      1.0  0.33992  0.45729  0.47797  1.0000
  H   H325      1.0  0.31389  0.24972  0.44799  1.0000
  S   S72       1.0  0.03897  0.23177  0.12265  1.0000
  H   H326      1.0  0.43635  0.43054  0.03431  1.0000
  H   H327      1.0  0.34428  0.24668  0.09751  1.0000
  H   H328      1.0  0.40262  0.46543  0.02318  1.0000
  N   N18       1.0  0.31243  0.22853  0.46859  1.0000
  H   H329      1.0  0.34564  0.23773  0.47316  1.0000
  H   H330      1.0  0.40012  0.43067  0.01539  1.0000
  H   H331      1.0  0.39365  0.26197  0.99810  1.0000
  C   C273      1.0  0.01078  0.22476  0.12486  1.0000
  H   H332      1.0  0.47675  0.45481  0.16076  1.0000
  C   C274      1.0  0.48045  0.46159  0.17832  1.0000
  N   N19       1.0  0.42423  0.44782  0.00651  1.0000
  C   C275      1.0  0.35505  0.46903  0.00780  1.0000
  C   C276      1.0  0.48180  0.47117  0.29973  1.0000
  H   H333      1.0  0.27303  0.22973  0.25722  1.0000
  H   H334      1.0  0.30360  0.22760  0.34103  1.0000
  H   H335      1.0  0.44917  0.42993  0.00096  1.0000
  S   S73       1.0  0.36451  0.47149  0.17241  1.0000
  C   C277      1.0  0.27703  0.23686  0.49406  1.0000
  C   C278      1.0  0.48724  0.44739  0.48759  1.0000
  C   C279      1.0  0.46364  0.47130  0.19010  1.0000
  H   H336      1.0  0.47653  0.22271  0.34676  1.0000
  N   N20       1.0  0.44047  0.47234  0.17839  1.0000
  C   C280      1.0  0.99199  0.23480  0.12236  1.0000
  Fe  Fe36      1.0  0.36647  0.42102  0.61963  1.0000
  S   S74       1.0  0.33936  0.43898  0.61264  1.0000
  S   S75       1.0  0.36101  0.39620  0.63093  1.0000
  Fe  Fe37      1.0  0.40417  0.44420  0.61554  1.0000
  S   S76       1.0  0.43871  0.45431  0.61796  1.0000
  Fe  Fe38      1.0  0.35915  0.45290  0.64260  1.0000
  C   C281      1.0  0.45211  0.44408  0.51396  1.0000
  Fe  Fe39      1.0  0.36249  0.44773  0.57914  1.0000
  H   H337      1.0  0.25025  0.25384  0.64804  1.0000
  S   S77       1.0  0.38510  0.43474  0.65108  1.0000
  S   S78       1.0  0.38858  0.42902  0.58480  1.0000
  Fe  Fe40      1.0  0.29705  0.31430  0.61999  1.0000
  S   S79       1.0  0.32734  0.30100  0.63576  1.0000
  S   S80       1.0  0.29720  0.33980  0.61076  1.0000
  Fe  Fe41      1.0  0.26838  0.28526  0.61327  1.0000
  S   S81       1.0  0.29761  0.27089  0.62848  1.0000
  S   S82       1.0  0.24034  0.27049  0.59628  1.0000
  Fe  Fe42      1.0  0.30206  0.28821  0.66103  1.0000
  S   S83       1.0  0.29963  0.28195  0.70657  1.0000
  Fe  Fe43      1.0  0.31967  0.28486  0.60156  1.0000
  S   S84       1.0  0.34662  0.27416  0.57330  1.0000
  S   S85       1.0  0.27178  0.30230  0.64688  1.0000
  S   S86       1.0  0.29054  0.29853  0.58481  1.0000
  Fe  Fe44      1.0  0.40358  0.23698  0.88249  1.0000
  S   S87       1.0  0.39075  0.26020  0.87230  1.0000
  N   N21       1.0  0.42704  0.44448  0.51667  1.0000
  C   C282      1.0  0.18237  0.23958  0.52435  1.0000
  S   S88       1.0  0.33898  0.24720  0.86729  1.0000
  Fe  Fe45      1.0  0.36944  0.24965  0.83979  1.0000
  S   S89       1.0  0.37134  0.25830  0.79575  1.0000
  Fe  Fe46      1.0  0.36141  0.25581  0.90082  1.0000
  S   S90       1.0  0.34894  0.27473  0.92888  1.0000
  H   H338      1.0  0.36500  0.45035  0.72109  1.0000
  S   S91       1.0  0.37526  0.23318  0.91316  1.0000
  C   C283      1.0  0.31523  0.32506  0.53906  1.0000
  S   S92       1.0  0.13874  0.25305  0.62809  1.0000
  Fe  Fe47      1.0  0.35456  0.22472  0.87787  1.0000
  H   H339      1.0  0.23168  0.26374  0.73089  1.0000
  C   C284      1.0  0.28447  0.38209  0.70136  1.0000
  H   H340      1.0  0.23926  0.22509  0.98558  1.0000
  C   C285      1.0  0.34493  0.27326  0.53696  1.0000
  C   C286      1.0  0.32740  0.28054  0.52247  1.0000
  C   C287      1.0  0.34037  0.25831  0.97614  1.0000
  C   C288      1.0  0.34045  0.27238  0.96363  1.0000
  C   C289      1.0  0.33350  0.28497  0.97906  1.0000
  C   C290      1.0  0.17031  0.22654  0.52188  1.0000
  H   H341      1.0  0.31402  0.28646  0.53346  1.0000
  H   H342      1.0  0.34585  0.24854  0.96467  1.0000
  H   H343      1.0  0.33352  0.29591  0.96964  1.0000
  C   C291      1.0  0.25319  0.22350  0.97132  1.0000
  C   C292      1.0  0.31983  0.27503  0.73075  1.0000
  C   C293      1.0  0.34299  0.27355  0.72464  1.0000
  C   C294      1.0  0.35842  0.26839  0.74483  1.0000
  C   C295      1.0  0.35092  0.26462  0.77128  1.0000
  C   C296      1.0  0.32771  0.26591  0.77731  1.0000
  C   C297      1.0  0.31230  0.27111  0.75715  1.0000
  H   H344      1.0  0.34905  0.27650  0.70446  1.0000
  H   H345      1.0  0.37632  0.26738  0.73991  1.0000
  H   H346      1.0  0.32160  0.26298  0.79744  1.0000
  H   H347      1.0  0.29441  0.27220  0.76205  1.0000
  C   C298      1.0  0.21286  0.26521  0.60771  1.0000
  C   C299      1.0  0.20372  0.25203  0.59735  1.0000
  C   C300      1.0  0.18146  0.24784  0.60421  1.0000
  C   C301      1.0  0.16774  0.25702  0.62098  1.0000
  C   C302      1.0  0.17702  0.27005  0.63175  1.0000
  C   C303      1.0  0.19950  0.27405  0.62545  1.0000
  H   H348      1.0  0.21388  0.24507  0.58369  1.0000
  H   H349      1.0  0.17463  0.23778  0.59578  1.0000
  H   H350      1.0  0.16663  0.27725  0.64476  1.0000
  H   H351      1.0  0.20616  0.28424  0.63353  1.0000
  C   C304      1.0  0.46850  0.23570  0.88442  1.0000
  C   C305      1.0  0.47229  0.24800  0.86741  1.0000
  C   C306      1.0  0.42009  0.45425  0.53989  1.0000
  H   H352      1.0  0.45794  0.25433  0.85922  1.0000
  C   C307      1.0  0.34336  0.38057  0.62413  1.0000
  C   C308      1.0  0.32392  0.38167  0.60771  1.0000
  C   C309      1.0  0.31017  0.36912  0.60390  1.0000
  C   C310      1.0  0.31559  0.35519  0.61618  1.0000
  C   C311      1.0  0.33519  0.35403  0.63229  1.0000
  C   C312      1.0  0.34881  0.36661  0.63632  1.0000
  H   H353      1.0  0.31932  0.39222  0.59812  1.0000
  H   H354      1.0  0.29511  0.37026  0.59138  1.0000
  H   H355      1.0  0.33972  0.34349  0.64199  1.0000
  H   H356      1.0  0.36371  0.36552  0.64913  1.0000
  S   S93       1.0  0.35203  0.45359  0.53476  1.0000
  C   C313      1.0  0.46445  0.44399  0.61523  1.0000
  C   C314      1.0  0.46505  0.42866  0.61000  1.0000
  H   H357      1.0  0.20273  0.25562  0.50378  1.0000
  H   H358      1.0  0.44939  0.42276  0.60808  1.0000
  H   H359      1.0  0.25568  0.26829  0.69029  1.0000
  H   H360      1.0  0.40015  0.42901  0.52343  1.0000
  N   N22       1.0  0.19255  0.22568  0.68801  1.0000
  C   C315      1.0  0.16963  0.23293  0.68923  1.0000
  C   C316      1.0  0.29659  0.38584  0.67796  1.0000
  C   C317      1.0  0.24310  0.25969  0.68980  1.0000
  C   C318      1.0  0.36192  0.26531  0.52220  1.0000
  S   S94       1.0  0.34480  0.46858  0.67626  1.0000
  H   H361      1.0  0.45843  0.43520  0.55500  1.0000
  H   H362      1.0  0.34049  0.45651  0.97496  1.0000
  C   C319      1.0  0.00288  0.22711  0.62203  1.0000
  H   H363      1.0  0.34158  0.34820  0.52749  1.0000
  C   C320      1.0  0.21308  0.24616  0.71189  1.0000
  C   C321      1.0  0.36904  0.30700  0.52373  1.0000
  H   H364      1.0  0.27133  0.38964  0.74011  1.0000
  H   H365      1.0  0.39180  0.29105  0.50408  1.0000
  C   C322      1.0  0.41517  0.46618  0.96874  1.0000
  H   H366      1.0  0.42462  0.42136  0.50559  1.0000
  C   C323      1.0  0.34859  0.46676  0.98039  1.0000
  H   H367      1.0  0.33160  0.24018  0.51673  1.0000
  H   H368      1.0  0.40130  0.45477  0.54253  1.0000
  C   C324      1.0  0.41907  0.42920  0.52211  1.0000
  C   C325      1.0  0.35253  0.31878  0.52038  1.0000
  H   H369      1.0  0.30526  0.32902  0.55718  1.0000
  H   H370      1.0  0.31034  0.22789  0.81224  1.0000
  N   N23       1.0  0.31120  0.42621  0.69196  1.0000
  C   C326      1.0  0.30044  0.43360  0.66788  1.0000
  C   C327      1.0  0.30748  0.43625  0.71584  1.0000
  C   C328      1.0  0.33605  0.42485  0.68721  1.0000
  C   C329      1.0  0.30185  0.41117  0.69563  1.0000
  C   C330      1.0  0.28934  0.40699  0.71926  1.0000
  C   C331      1.0  0.30508  0.40016  0.67500  1.0000
  H   H371      1.0  0.46793  0.45139  0.98373  1.0000
  H   H372      1.0  0.28170  0.43478  0.67058  1.0000
  H   H373      1.0  0.30709  0.44499  0.66439  1.0000
  H   H374      1.0  0.30357  0.42722  0.64869  1.0000
  H   H375      1.0  0.28909  0.43846  0.71988  1.0000
  H   H376      1.0  0.31497  0.44740  0.71231  1.0000
  H   H377      1.0  0.31566  0.43156  0.73463  1.0000
  H   H378      1.0  0.34043  0.41896  0.66783  1.0000
  H   H379      1.0  0.34381  0.43599  0.68572  1.0000
  H   H380      1.0  0.34466  0.41854  0.70408  1.0000
  H   H381      1.0  0.28592  0.41458  0.73599  1.0000
  H   H382      1.0  0.31433  0.40249  0.65637  1.0000
  H   H383      1.0  0.36475  0.34264  0.54941  1.0000
  N   N24       1.0  0.35111  0.29846  0.83894  1.0000
  C   C332      1.0  0.37608  0.29552  0.83893  1.0000
  C   C333      1.0  0.34622  0.31090  0.85828  1.0000
  C   C334      1.0  0.34029  0.28487  0.84950  1.0000
  C   C335      1.0  0.34181  0.30222  0.81155  1.0000
  C   C336      1.0  0.35538  0.30213  0.78738  1.0000
  C   C337      1.0  0.31828  0.30572  0.80834  1.0000
  C   C338      1.0  0.34589  0.30551  0.76181  1.0000
  C   C339      1.0  0.30897  0.30894  0.78262  1.0000
  C   C340      1.0  0.32276  0.30884  0.75941  1.0000
  H   H384      1.0  0.38539  0.30532  0.83127  1.0000
  H   H385      1.0  0.38257  0.29299  0.85989  1.0000
  H   H386      1.0  0.38090  0.28561  0.82619  1.0000
  H   H387      1.0  0.35333  0.32149  0.85058  1.0000
  H   H388      1.0  0.35363  0.30851  0.87889  1.0000
  H   H389      1.0  0.32773  0.31287  0.86178  1.0000
  H   H390      1.0  0.34724  0.28145  0.86984  1.0000
  H   H391      1.0  0.32166  0.28643  0.85234  1.0000
  H   H392      1.0  0.34318  0.27538  0.83516  1.0000
  H   H393      1.0  0.37323  0.29905  0.78745  1.0000
  H   H394      1.0  0.30681  0.30568  0.82564  1.0000
  H   H395      1.0  0.35638  0.30496  0.74352  1.0000
  H   H396      1.0  0.29088  0.31119  0.78048  1.0000
  H   H397      1.0  0.31538  0.31084  0.73936  1.0000
  N   N25       1.0  0.34008  0.32575  0.54369  1.0000
  C   C341      1.0  0.34507  0.31839  0.57037  1.0000
  C   C342      1.0  0.34618  0.34162  0.54608  1.0000
  H   H398      1.0  0.16684  0.23944  0.70831  1.0000
  H   H399      1.0  0.36324  0.31919  0.57610  1.0000
  H   H400      1.0  0.33515  0.32367  0.58740  1.0000
  H   H401      1.0  0.34062  0.30640  0.57004  1.0000
  H   H402      1.0  0.20257  0.24484  0.72985  1.0000
  H   H403      1.0  0.18296  0.24527  0.54389  1.0000
  C   C343      1.0  0.32894  0.22976  0.74721  1.0000
  H   H404      1.0  0.42708  0.45025  0.55978  1.0000
  H   H405      1.0  0.30930  0.33217  0.52173  1.0000
  H   H406      1.0  0.43240  0.46034  0.70919  1.0000
  H   H407      1.0  0.37558  0.25965  0.53319  1.0000
  H   H408      1.0  0.33756  0.23479  0.80298  1.0000
  C   C344      1.0  0.46588  0.43872  0.53588  1.0000
  C   C345      1.0  0.22377  0.24047  0.66508  1.0000
  S   S95       1.0  0.37912  0.46312  0.60831  1.0000
  H   H409      1.0  0.34441  0.23498  0.75335  1.0000
  H   H410      1.0  0.40906  0.43170  0.98013  1.0000
  H   H411      1.0  0.27315  0.23974  0.99229  1.0000
  H   H412      1.0  0.29949  0.37760  0.66199  1.0000
  C   C346      1.0  0.22955  0.25709  0.71265  1.0000
  H   H413      1.0  0.48656  0.40915  0.60259  1.0000
  C   C347      1.0  0.48608  0.42099  0.60693  1.0000
  C   C348      1.0  0.46034  0.46666  0.95163  1.0000
  H   H414      1.0  0.31165  0.25127  0.55535  1.0000
  C   C349      1.0  0.48483  0.45154  0.61780  1.0000
  C   C350      1.0  0.24013  0.25145  0.66607  1.0000
  C   C351      1.0  0.28082  0.39263  0.72194  1.0000
  H   H415      1.0  0.37341  0.30231  0.54349  1.0000
  H   H416      1.0  0.31026  0.31342  0.53477  1.0000
  C   C352      1.0  0.27252  0.23190  0.97543  1.0000
  H   H417      1.0  0.24758  0.24458  0.51711  1.0000
  C   C353      1.0  0.30200  0.24708  0.53826  1.0000
  H   H418      1.0  0.33720  0.34716  0.56364  1.0000
  Fe  Fe48      1.0  0.12142  0.23056  0.62411  1.0000
  H   H419      1.0  0.27792  0.37096  0.70348  1.0000
  H   H420      1.0  0.01538  0.23562  0.61963  1.0000
  C   C354      1.0  0.29753  0.22973  0.71545  1.0000
  C   C355      1.0  0.36019  0.46705  0.50949  1.0000
  H   H421      1.0  0.16692  0.24079  0.67177  1.0000
  H   H422      1.0  0.15598  0.22458  0.68828  1.0000
  H   H423      1.0  0.42576  0.46586  0.53672  1.0000
  C   C356      1.0  0.32850  0.22457  0.80905  1.0000
  C   C357      1.0  0.45432  0.45772  0.97395  1.0000
  C   C358      1.0  0.27841  0.24849  0.53868  1.0000
  C   C359      1.0  0.36460  0.46463  0.75679  1.0000
  H   H424      1.0  0.39753  0.46655  0.97479  1.0000
  C   C360      1.0  0.36115  0.46143  0.72878  1.0000
  H   H425      1.0  0.40253  0.46237  0.70056  1.0000
  C   C361      1.0  0.20995  0.23730  0.68822  1.0000
  H   H426      1.0  0.48444  0.46340  0.62182  1.0000
  H   H427      1.0  0.37118  0.45594  0.77026  1.0000
  C   C362      1.0  0.31329  0.24061  0.51579  1.0000
  H   H428      1.0  0.21370  0.22302  0.92579  1.0000
  C   C363      1.0  0.37984  0.30035  0.50112  1.0000
  C   C364      1.0  0.29116  0.23023  0.95797  1.0000
  H   H429      1.0  0.32536  0.24455  0.71246  1.0000
  C   C365      1.0  0.48952  0.43761  0.53356  1.0000
  H   H430      1.0  0.42555  0.42456  0.54181  1.0000
  H   H431      1.0  0.22202  0.23484  0.64573  1.0000
  S   S96       1.0  0.38390  0.22654  0.84830  1.0000
  C   C366      1.0  0.43137  0.45708  0.98298  1.0000
  H   H432      1.0  0.47790  0.46691  0.94486  1.0000
  H   H433      1.0  0.28901  0.23439  0.69758  1.0000
  C   C367      1.0  0.26594  0.24337  0.51665  1.0000
  C   C368      1.0  0.31804  0.23545  0.72387  1.0000
  H   H434      1.0  0.42305  0.45752  0.67499  1.0000
  S   S97       1.0  0.44054  0.23005  0.89395  1.0000
  H   H435      1.0  0.26981  0.25369  0.55606  1.0000
  H   H436      1.0  0.38912  0.44516  0.99442  1.0000
  C   C369      1.0  0.48759  0.22764  0.89475  1.0000
  C   C370      1.0  0.42012  0.46455  0.69354  1.0000
  C   C371      1.0  0.19347  0.24540  0.50164  1.0000
  H   H437      1.0  0.30611  0.23676  0.96117  1.0000
  H   H438      1.0  0.00100  0.23451  0.55216  1.0000
  C   C372      1.0  0.99729  0.22274  0.55269  1.0000
  C   C373      1.0  0.35202  0.47241  0.71116  1.0000
  H   H439      1.0  0.18914  0.22267  0.64439  1.0000
  Fe  Fe49      1.0  0.26393  0.66682  0.36032  1.0000
  S   S98       1.0  0.28657  0.68549  0.37113  1.0000
  S   S99       1.0  0.22988  0.67499  0.34219  1.0000
  Fe  Fe50      1.0  0.30224  0.64272  0.37237  1.0000
  S   S100      1.0  0.32675  0.66075  0.38311  1.0000
  S   S101      1.0  0.31868  0.61963  0.38331  1.0000
  Fe  Fe51      1.0  0.29792  0.67141  0.40707  1.0000
  S   S102      1.0  0.29506  0.67930  0.45171  1.0000
  Fe  Fe52      1.0  0.31299  0.67302  0.34591  1.0000
  S   S103      1.0  0.33305  0.68706  0.31552  1.0000
  S   S104      1.0  0.27363  0.65320  0.39755  1.0000
  S   S105      1.0  0.29020  0.65461  0.33368  1.0000
  Fe  Fe53      1.0  0.35474  0.69701  0.15435  1.0000
  S   S106      1.0  0.34782  0.67905  0.18651  1.0000
  Fe  Fe54      1.0  0.35910  0.70360  0.09230  1.0000
  S   S107      1.0  0.36521  0.69449  0.04887  1.0000
  C   C374      1.0  0.47004  0.47938  0.21375  1.0000
  C   C375      1.0  0.33406  0.64233  0.44950  1.0000
  S   S108      1.0  0.38348  0.69408  0.12395  1.0000
  S   S109      1.0  0.32938  0.70403  0.12186  1.0000
  H   H440      1.0  0.41531  0.70100  0.17223  1.0000
  Fe  Fe55      1.0  0.35756  0.53065  0.35670  1.0000
  S   S110      1.0  0.34915  0.50647  0.36635  1.0000
  S   S111      1.0  0.33324  0.55078  0.34707  1.0000
  Fe  Fe56      1.0  0.40802  0.52289  0.35326  1.0000
  S   S112      1.0  0.40396  0.49875  0.36323  1.0000
  S   S113      1.0  0.44057  0.53324  0.33939  1.0000
  Fe  Fe57      1.0  0.37486  0.49984  0.33316  1.0000
  H   H441      1.0  0.28824  0.64598  0.45447  1.0000
  Fe  Fe58      1.0  0.37896  0.50662  0.39573  1.0000
  S   S114      1.0  0.38423  0.49935  0.44101  1.0000
  S   S115      1.0  0.38063  0.52365  0.32170  1.0000
  S   S116      1.0  0.38564  0.53108  0.38757  1.0000
  H   H442      1.0  0.43335  0.49530  0.18959  1.0000
  H   H443      1.0  0.25957  0.67512  0.29397  1.0000
  C   C376      1.0  0.33181  0.65071  0.00939  1.0000
  C   C377      1.0  0.36382  0.48773  0.22044  1.0000
  C   C378      1.0  0.36636  0.49005  0.24889  1.0000
  H   H444      1.0  0.35724  0.49679  0.20776  1.0000
  H   H445      1.0  0.36170  0.50076  0.25779  1.0000
  C   C379      1.0  0.37418  0.48684  0.46689  1.0000
  C   C380      1.0  0.40654  0.69652  0.29210  1.0000
  H   H446      1.0  0.45001  0.69595  0.13104  1.0000
  H   H447      1.0  0.30551  0.60731  0.44165  1.0000
  H   H448      1.0  0.29618  0.63076  0.43310  1.0000
  H   H449      1.0  0.46643  0.50552  0.32519  1.0000
  H   H450      1.0  0.32198  0.58250  0.44750  1.0000
  C   C381      1.0  0.46357  0.53047  0.36172  1.0000
  C   C382      1.0  0.46047  0.52427  0.38769  1.0000
  C   C383      1.0  0.48628  0.69939  0.12916  1.0000
  H   H451      1.0  0.44361  0.52153  0.39461  1.0000
  C   C384      1.0  0.32192  0.60045  0.37310  1.0000
  C   C385      1.0  0.33734  0.59100  0.38744  1.0000
  C   C386      1.0  0.34075  0.57581  0.38023  1.0000
  C   C387      1.0  0.32907  0.56980  0.35809  1.0000
  C   C388      1.0  0.31353  0.57924  0.34386  1.0000
  C   C389      1.0  0.30993  0.59440  0.35128  1.0000
  H   H452      1.0  0.34685  0.59549  0.40422  1.0000
  H   H453      1.0  0.35230  0.56874  0.39197  1.0000
  H   H454      1.0  0.30420  0.57479  0.32686  1.0000
  H   H455      1.0  0.29794  0.60141  0.34002  1.0000
  C   C390      1.0  0.31524  0.68260  0.47779  1.0000
  H   H456      1.0  0.26602  0.71554  0.30077  1.0000
  C   C391      1.0  0.32233  0.69383  0.02493  1.0000
  C   C392      1.0  0.34583  0.69212  0.02143  1.0000
  C   C393      1.0  0.31675  0.64142  0.49430  1.0000
  C   C394      1.0  0.33860  0.68262  0.47266  1.0000
  N   N26       1.0  0.31869  0.63382  0.46733  1.0000
  H   H457      1.0  0.31548  0.69718  0.04463  1.0000
  C   C395      1.0  0.31452  0.64103  0.00082  1.0000
  H   H458      1.0  0.34493  0.68065  0.45213  1.0000
  C   C396      1.0  0.33522  0.68490  0.27936  1.0000
  C   C397      1.0  0.33181  0.67121  0.26655  1.0000
  C   C398      1.0  0.33549  0.66968  0.23811  1.0000
  C   C399      1.0  0.34229  0.68184  0.22203  1.0000
  C   C400      1.0  0.34514  0.69563  0.23473  1.0000
  C   C401      1.0  0.34181  0.69709  0.26324  1.0000
  H   H459      1.0  0.32692  0.66169  0.27866  1.0000
  H   H460      1.0  0.33323  0.65896  0.22852  1.0000
  H   H461      1.0  0.35018  0.70511  0.22268  1.0000
  H   H462      1.0  0.34456  0.70773  0.27290  1.0000
  C   C402      1.0  0.20630  0.68424  0.35880  1.0000
  C   C403      1.0  0.19064  0.69271  0.34295  1.0000
  C   C404      1.0  0.17101  0.69948  0.35487  1.0000
  C   C405      1.0  0.16636  0.69749  0.38274  1.0000
  C   C406      1.0  0.18210  0.68913  0.39866  1.0000
  C   C407      1.0  0.20209  0.68272  0.38689  1.0000
  H   H463      1.0  0.19346  0.69389  0.32120  1.0000
  C   C408      1.0  0.27088  0.70352  0.29907  1.0000
  H   H464      1.0  0.17864  0.68738  0.42016  1.0000
  H   H465      1.0  0.21376  0.67612  0.39935  1.0000
  C   C409      1.0  0.32891  0.59169  0.45891  1.0000
  H   H466      1.0  0.28966  0.68461  0.23176  1.0000
  C   C410      1.0  0.44241  0.70399  0.21522  1.0000
  H   H467      1.0  0.40909  0.70222  0.31133  1.0000
  N   N27       1.0  0.39898  0.57271  0.32795  1.0000
  C   C411      1.0  0.39666  0.56549  0.35510  1.0000
  C   C412      1.0  0.39343  0.56146  0.30693  1.0000
  C   C413      1.0  0.42310  0.57656  0.32386  1.0000
  C   C414      1.0  0.38423  0.58639  0.32678  1.0000
  C   C415      1.0  0.36547  0.58802  0.30864  1.0000
  C   C416      1.0  0.38826  0.59857  0.34448  1.0000
  C   C417      1.0  0.35206  0.60117  0.30796  1.0000
  C   C418      1.0  0.37458  0.61160  0.34380  1.0000
  H   H468      1.0  0.38193  0.66571  0.26719  1.0000
  H   H469      1.0  0.40846  0.55564  0.35728  1.0000
  C   C419      1.0  0.35660  0.61292  0.32548  1.0000
  H   H470      1.0  0.37596  0.55724  0.30997  1.0000
  H   H471      1.0  0.40514  0.55147  0.30802  1.0000
  H   H472      1.0  0.39483  0.56610  0.28587  1.0000
  H   H473      1.0  0.42961  0.58345  0.34078  1.0000
  H   H474      1.0  0.43445  0.56636  0.32317  1.0000
  H   H475      1.0  0.42536  0.58279  0.30435  1.0000
  H   H476      1.0  0.36037  0.57918  0.29526  1.0000
  H   H477      1.0  0.40172  0.59798  0.35941  1.0000
  H   H478      1.0  0.33748  0.60204  0.29452  1.0000
  H   H479      1.0  0.26065  0.67434  0.25748  1.0000
  H   H480      1.0  0.35200  0.47457  0.44104  1.0000
  H   H481      1.0  0.35493  0.57794  0.47789  1.0000
  C   C420      1.0  0.28817  0.71872  0.20235  1.0000
  N   N28       1.0  0.26172  0.69662  0.27404  1.0000
  H   H482      1.0  0.40365  0.70839  0.07550  1.0000
  H   H483      1.0  0.45066  0.69266  0.21645  1.0000
  C   C421      1.0  0.41436  0.70267  0.26758  1.0000
  H   H484      1.0  0.42649  0.47547  0.27994  1.0000
  C   C422      1.0  0.31817  0.65023  0.05620  1.0000
  H   H485      1.0  0.15906  0.70578  0.34227  1.0000
  C   C423      1.0  0.48544  0.53401  0.35290  1.0000
  C   C424      1.0  0.41014  0.69511  0.19125  1.0000
  H   H486      1.0  0.30608  0.71882  0.48820  1.0000
  H   H487      1.0  0.48816  0.50056  0.36155  1.0000
  C   C425      1.0  0.23659  0.69847  0.27435  1.0000
  C   C426      1.0  0.42567  0.48414  0.19119  1.0000
  H   H488      1.0  0.18325  0.72112  0.41852  1.0000
  C   C427      1.0  0.48135  0.70360  0.00753  1.0000
  C   C428      1.0  0.45278  0.71310  0.04045  1.0000
  H   H489      1.0  0.47676  0.51684  0.42494  1.0000
  C   C429      1.0  0.47925  0.52160  0.40481  1.0000
  H   H490      1.0  0.34664  0.66273  0.04273  1.0000
  H   H491      1.0  0.31939  0.65398  0.07722  1.0000
  S   S117      1.0  0.14076  0.70463  0.39832  1.0000
  C   C430      1.0  0.29312  0.70360  0.20654  1.0000
  C   C431      1.0  0.27112  0.70400  0.24945  1.0000
  H   H492      1.0  0.48786  0.53888  0.33284  1.0000
  H   H493      1.0  0.43183  0.70659  0.08837  1.0000
  H   H494      1.0  0.39513  0.71998  0.03218  1.0000
  C   C432      1.0  0.38253  0.48803  0.49381  1.0000
  C   C433      1.0  0.28485  0.69628  0.22973  1.0000
  C   C434      1.0  0.33352  0.65516  0.03670  1.0000
  H   H495      1.0  0.45836  0.48682  0.22453  1.0000
  H   H496      1.0  0.42430  0.47729  0.13958  1.0000
  H   H497      1.0  0.37744  0.62058  0.35806  1.0000
  H   H498      1.0  0.32730  0.65390  0.44583  1.0000
  C   C435      1.0  0.35867  0.47569  0.46150  1.0000
  H   H499      1.0  0.22889  0.69236  0.29183  1.0000
  H   H500      1.0  0.42196  0.48162  0.21308  1.0000
  C   C436      1.0  0.36529  0.48246  0.01436  1.0000
  C   C437      1.0  0.26653  0.71944  0.24459  1.0000
  H   H501      1.0  0.44911  0.71073  0.23226  1.0000
  C   C438      1.0  0.35383  0.68543  0.49411  1.0000
  C   C439      1.0  0.34760  0.61545  0.48689  1.0000
  H   H502      1.0  0.39464  0.67602  0.22428  1.0000
  H   H503      1.0  0.35124  0.64324  0.45855  1.0000
  C   C440      1.0  0.41268  0.71662  0.02546  1.0000
  C   C441      1.0  0.26727  0.68034  0.27553  1.0000
  S   S118      1.0  0.36419  0.72022  0.16517  1.0000
  H   H504      1.0  0.34557  0.62284  0.32567  1.0000
  H   H505      1.0  0.40026  0.57312  0.37229  1.0000
  C   C442      1.0  0.41026  0.69581  0.24198  1.0000
  C   C443      1.0  0.42159  0.70614  0.06940  1.0000
  H   H506      1.0  0.37009  0.48455  0.03532  1.0000
  H   H507      1.0  0.41799  0.68369  0.19005  1.0000
  H   H508      1.0  0.37917  0.56145  0.35810  1.0000
  C   C444      1.0  0.40725  0.71850  0.21482  1.0000
  C   C445      1.0  0.30759  0.69099  0.00298  1.0000
  H   H509      1.0  0.38804  0.67878  0.31079  1.0000
  C   C446      1.0  0.30123  0.64058  0.04861  1.0000
  C   C447      1.0  0.35698  0.60100  0.48971  1.0000
  H   H510      1.0  0.42318  0.71304  0.26877  1.0000
  H   H511      1.0  0.26447  0.69801  0.31797  1.0000
  H   H512      1.0  0.43066  0.49945  0.30383  1.0000
  C   C448      1.0  0.39487  0.68324  0.29191  1.0000
  H   H513      1.0  0.46734  0.71799  0.08032  1.0000
  H   H514      1.0  0.01012  0.71477  0.38888  1.0000
  H   H515      1.0  0.42275  0.69450  0.06153  1.0000
  H   H516      1.0  0.39133  0.69424  0.19051  1.0000
  C   C449      1.0  0.46318  0.70407  0.13213  1.0000
  C   C450      1.0  0.48448  0.48466  0.31453  1.0000
  C   C451      1.0  0.32816  0.61840  0.47040  1.0000
  H   H517      1.0  0.28607  0.62844  0.01656  1.0000
  H   H518      1.0  0.28589  0.67812  0.27718  1.0000
  C   C452      1.0  0.46562  0.49491  0.31485  1.0000
  H   H519      1.0  0.33620  0.63687  0.42915  1.0000
  C   C453      1.0  0.44273  0.47811  0.28886  1.0000
  C   C454      1.0  0.44505  0.49160  0.30243  1.0000
  N   N29       1.0  0.41732  0.70312  0.21618  1.0000
  H   H520      1.0  0.18502  0.71524  0.45352  1.0000
  C   C455      1.0  0.34757  0.58913  0.47585  1.0000
  H   H521      1.0  0.22911  0.69412  0.25518  1.0000
  C   C456      1.0  0.29946  0.63595  0.02140  1.0000
  H   H522      1.0  0.28979  0.70255  0.29941  1.0000
  C   C457      1.0  0.36919  0.47380  0.20837  1.0000
  H   H523      1.0  0.44824  0.70931  0.19583  1.0000
  S   S119      1.0  0.37592  0.48019  0.30232  1.0000
  H   H524      1.0  0.30362  0.69752  0.19177  1.0000
  H   H525      1.0  0.28943  0.69226  0.00605  1.0000
  C   C458      1.0  0.39139  0.67590  0.26728  1.0000
  H   H526      1.0  0.38851  0.71842  0.21788  1.0000
  C   C459      1.0  0.39885  0.68204  0.24260  1.0000
  H   H527      1.0  0.49050  0.68771  0.12573  1.0000
  H   H528      1.0  0.37707  0.50359  0.99932  1.0000
  C   C460      1.0  0.37410  0.47838  0.26588  1.0000
  C   C461      1.0  0.31941  0.60609  0.45592  1.0000
  H   H529      1.0  0.45122  0.48591  0.14454  1.0000
  C   C462      1.0  0.29572  0.63440  0.45485  1.0000
  H   H530      1.0  0.41115  0.70514  0.01713  1.0000
  H   H531      1.0  0.28930  0.63677  0.06389  1.0000
  C   C463      1.0  0.44156  0.47565  0.14859  1.0000
  C   C464      1.0  0.45882  0.70764  0.01402  1.0000
  H   H532      1.0  0.28374  0.62733  0.46637  1.0000
  H   H533      1.0  0.23077  0.71031  0.27662  1.0000
  Fe  Fe59      1.0  0.39171  0.71780  0.13294  1.0000
  H   H534      1.0  0.40879  0.48514  0.18100  1.0000
  C   C465      1.0  0.47061  0.71414  0.05976  1.0000
  N   N30       1.0  0.42906  0.71697  0.04851  1.0000
  H   H535      1.0  0.37188  0.68552  0.48989  1.0000
  H   H536      1.0  0.30729  0.65236  0.49272  1.0000
  C   C466      1.0  0.45729  0.71918  0.13617  1.0000
  H   H537      1.0  0.27023  0.70905  0.47417  1.0000
  C   C467      1.0  0.27093  0.71559  0.49284  1.0000
  H   H538      1.0  0.32177  0.47280  0.24438  1.0000
  H   H539      1.0  0.44644  0.70628  0.99807  1.0000
  Fe  Fe60      1.0  0.26304  0.67059  0.86032  1.0000
  S   S120      1.0  0.28854  0.68780  0.87000  1.0000
  S   S121      1.0  0.22986  0.67987  0.84129  1.0000
  Fe  Fe61      1.0  0.29800  0.64451  0.87408  1.0000
  S   S122      1.0  0.32531  0.66085  0.88380  1.0000
  S   S123      1.0  0.30507  0.62020  0.88863  1.0000
  Fe  Fe62      1.0  0.29809  0.67383  0.90676  1.0000
  S   S124      1.0  0.29639  0.68265  0.95072  1.0000
  Fe  Fe63      1.0  0.31315  0.67327  0.84582  1.0000
  S   S125      1.0  0.33522  0.68588  0.81526  1.0000
  S   S126      1.0  0.27098  0.65727  0.89832  1.0000
  S   S127      1.0  0.28745  0.65629  0.83468  1.0000
  Fe  Fe64      1.0  0.35455  0.69776  0.65278  1.0000
  S   S128      1.0  0.34110  0.68146  0.68475  1.0000
  Fe  Fe65      1.0  0.36370  0.70109  0.59062  1.0000
  S   S129      1.0  0.36610  0.69197  0.54688  1.0000
  C   C468      1.0  0.46190  0.50135  0.80133  1.0000
  C   C469      1.0  0.30739  0.68523  0.50466  1.0000
  S   S130      1.0  0.38384  0.69071  0.62536  1.0000
  S   S131      1.0  0.33298  0.70580  0.61718  1.0000
  H   H540      1.0  0.44855  0.69266  0.70020  1.0000
  Fe  Fe66      1.0  0.35128  0.53437  0.85229  1.0000
  S   S132      1.0  0.33884  0.51127  0.86332  1.0000
  S   S133      1.0  0.32993  0.55539  0.83983  1.0000
  Fe  Fe67      1.0  0.40094  0.52334  0.85405  1.0000
  S   S134      1.0  0.39248  0.49993  0.86522  1.0000
  S   S135      1.0  0.43603  0.53242  0.84776  1.0000
  Fe  Fe68      1.0  0.36516  0.50232  0.83274  1.0000
  S   S136      1.0  0.36362  0.48203  0.80357  1.0000
  Fe  Fe69      1.0  0.36713  0.51021  0.89485  1.0000
  S   S137      1.0  0.36901  0.50501  0.94138  1.0000
  S   S138      1.0  0.37558  0.52525  0.82002  1.0000
  S   S139      1.0  0.37756  0.53384  0.88526  1.0000
  H   H541      1.0  0.22313  0.57319  0.82365  1.0000
  H   H542      1.0  0.40645  0.49009  0.78027  1.0000
  H   H543      1.0  0.16113  0.71110  0.95367  1.0000
  H   H544      1.0  0.38627  0.69501  0.70845  1.0000
  C   C470      1.0  0.35090  0.48999  0.74990  1.0000
  H   H545      1.0  0.41010  0.51727  0.77429  1.0000
  H   H546      1.0  0.34678  0.50102  0.75777  1.0000
  C   C471      1.0  0.36295  0.49094  0.96637  1.0000
  H   H547      1.0  0.27289  0.58401  0.79153  1.0000
  C   C472      1.0  0.41815  0.51568  0.73137  1.0000
  H   H548      1.0  0.40868  0.49647  0.65811  1.0000
  H   H549      1.0  0.45575  0.72179  0.59499  1.0000
  C   C473      1.0  0.47422  0.51388  0.79473  1.0000
  H   H550      1.0  0.47861  0.48914  0.88574  1.0000
  C   C474      1.0  0.46058  0.52251  0.85887  1.0000
  C   C475      1.0  0.45953  0.50797  0.86912  1.0000
  C   C476      1.0  0.28889  0.64000  0.96212  1.0000
  H   H551      1.0  0.44347  0.50248  0.87001  1.0000
  C   C477      1.0  0.31547  0.60296  0.87402  1.0000
  C   C478      1.0  0.32270  0.59125  0.89161  1.0000
  C   C479      1.0  0.32891  0.57693  0.88134  1.0000
  C   C480      1.0  0.32748  0.57397  0.85327  1.0000
  C   C481      1.0  0.32084  0.58580  0.83564  1.0000
  C   C482      1.0  0.31516  0.60021  0.84585  1.0000
  H   H552      1.0  0.32305  0.59314  0.91344  1.0000
  H   H553      1.0  0.33370  0.56798  0.89529  1.0000
  H   H554      1.0  0.31964  0.58373  0.81390  1.0000
  H   H555      1.0  0.30978  0.60904  0.83198  1.0000
  C   C483      1.0  0.31606  0.68647  0.97723  1.0000
  H   H556      1.0  0.38196  0.47960  0.53547  1.0000
  C   C484      1.0  0.32262  0.68809  0.52608  1.0000
  C   C485      1.0  0.34597  0.68831  0.52090  1.0000
  H   H557      1.0  0.45922  0.47981  0.69304  1.0000
  H   H558      1.0  0.26524  0.63097  0.80277  1.0000
  H   H559      1.0  0.17811  0.69274  0.91833  1.0000
  H   H560      1.0  0.31627  0.68992  0.54663  1.0000
  C   C486      1.0  0.27259  0.69044  0.79064  1.0000
  C   C487      1.0  0.42139  0.50616  0.70897  1.0000
  C   C488      1.0  0.33561  0.68473  0.77888  1.0000
  C   C489      1.0  0.32907  0.67191  0.76506  1.0000
  C   C490      1.0  0.33058  0.67123  0.73626  1.0000
  C   C491      1.0  0.33836  0.68337  0.72087  1.0000
  C   C492      1.0  0.34423  0.69636  0.73465  1.0000
  C   C493      1.0  0.34317  0.69693  0.76349  1.0000
  H   H561      1.0  0.32335  0.66240  0.77658  1.0000
  H   H562      1.0  0.32594  0.66114  0.72584  1.0000
  H   H563      1.0  0.34985  0.70591  0.72315  1.0000
  H   H564      1.0  0.34828  0.70690  0.77394  1.0000
  C   C494      1.0  0.20656  0.68957  0.85757  1.0000
  C   C495      1.0  0.20182  0.68791  0.88549  1.0000
  C   C496      1.0  0.18199  0.69464  0.89698  1.0000
  C   C497      1.0  0.16692  0.70348  0.88098  1.0000
  C   C498      1.0  0.17211  0.70561  0.85326  1.0000
  C   C499      1.0  0.19161  0.69853  0.84159  1.0000
  H   H565      1.0  0.21298  0.68098  0.89805  1.0000
  H   H566      1.0  0.44883  0.50467  0.97485  1.0000
  H   H567      1.0  0.31464  0.61564  0.94896  1.0000
  H   H568      1.0  0.19489  0.69977  0.81994  1.0000
  C   C500      1.0  0.47294  0.48745  0.80358  1.0000
  H   H569      1.0  0.30288  0.61357  0.98244  1.0000
  H   H570      1.0  0.28550  0.71045  0.82552  1.0000
  H   H571      1.0  0.34641  0.68157  0.95390  1.0000
  H   H572      1.0  0.41361  0.65781  0.70053  1.0000
  C   C501      1.0  0.40659  0.48491  0.66568  1.0000
  H   H573      1.0  0.45075  0.67239  0.69831  1.0000
  H   H574      1.0  0.26897  0.68767  0.81238  1.0000
  H   H575      1.0  0.16060  0.71222  0.84059  1.0000
  H   H576      1.0  0.30546  0.71059  0.79779  1.0000
  S   S140      1.0  0.36864  0.72018  0.66188  1.0000
  H   H577      1.0  0.34756  0.47554  0.93891  1.0000
  H   H578      1.0  0.27542  0.63434  0.97376  1.0000
  H   H579      1.0  0.22174  0.58041  0.85779  1.0000
  H   H580      1.0  0.24498  0.60222  0.86749  1.0000
  C   C502      1.0  0.34695  0.48669  0.72201  1.0000
  H   H581      1.0  0.44028  0.54204  0.98107  1.0000
  H   H582      1.0  0.48564  0.69944  0.98729  1.0000
  C   C503      1.0  0.27584  0.71101  0.75682  1.0000
  H   H583      1.0  0.37176  0.59901  0.50252  1.0000
  H   H584      1.0  0.47812  0.70924  0.67551  1.0000
  H   H585      1.0  0.40510  0.52377  0.92873  1.0000
  C   C504      1.0  0.37554  0.47831  0.51494  1.0000
  N   N31       1.0  0.43790  0.52949  0.94381  1.0000
  H   H586      1.0  0.26565  0.55203  0.83594  1.0000
  H   H587      1.0  0.18618  0.71561  0.97173  1.0000
  H   H588      1.0  0.41982  0.50877  0.94498  1.0000
  N   N32       1.0  0.41709  0.68137  0.70720  1.0000
  H   H589      1.0  0.38188  0.67602  0.74262  1.0000
  H   H590      1.0  0.24982  0.62726  0.84931  1.0000
  C   C505      1.0  0.41816  0.67944  0.73729  1.0000
  C   C506      1.0  0.39810  0.67686  0.75257  1.0000
  C   C507      1.0  0.43859  0.68080  0.75240  1.0000
  C   C508      1.0  0.39841  0.67565  0.78109  1.0000
  C   C509      1.0  0.43874  0.67948  0.78097  1.0000
  C   C510      1.0  0.41870  0.67693  0.79526  1.0000
  H   H591      1.0  0.28529  0.65226  0.96353  1.0000
  C   C511      1.0  0.33959  0.68492  0.97361  1.0000
  H   H592      1.0  0.42853  0.51470  0.91144  1.0000
  H   H593      1.0  0.45446  0.68060  0.79213  1.0000
  H   H594      1.0  0.44869  0.55169  0.93372  1.0000
  H   H595      1.0  0.38273  0.67390  0.79228  1.0000
  H   H596      1.0  0.41880  0.67608  0.81740  1.0000
  H   H597      1.0  0.29466  0.69679  0.69517  1.0000
  N   N33       1.0  0.25560  0.57520  0.84293  1.0000
  C   C512      1.0  0.26517  0.57399  0.87098  1.0000
  C   C513      1.0  0.23101  0.57228  0.84430  1.0000
  C   C514      1.0  0.26677  0.56323  0.82617  1.0000
  C   C515      1.0  0.25868  0.59040  0.83167  1.0000
  C   C516      1.0  0.26737  0.59298  0.80490  1.0000
  C   C517      1.0  0.25204  0.60321  0.84717  1.0000
  C   C518      1.0  0.42130  0.47500  0.94641  1.0000
  C   C519      1.0  0.32837  0.64299  0.95289  1.0000
  C   C520      1.0  0.26328  0.61976  0.81066  1.0000
  H   H598      1.0  0.40571  0.66940  0.67168  1.0000
  H   H599      1.0  0.26567  0.56229  0.87877  1.0000
  H   H600      1.0  0.28285  0.57789  0.87129  1.0000
  H   H601      1.0  0.22786  0.56090  0.85246  1.0000
  H   H602      1.0  0.25888  0.56227  0.80565  1.0000
  H   H603      1.0  0.45462  0.68303  0.74267  1.0000
  H   H604      1.0  0.32588  0.63915  0.93146  1.0000
  C   C521      1.0  0.24785  0.71198  0.79367  1.0000
  H   H605      1.0  0.39437  0.49665  0.49839  1.0000
  C   C522      1.0  0.25453  0.61764  0.83684  1.0000
  H   H606      1.0  0.42058  0.54775  0.92259  1.0000
  H   H607      1.0  0.44856  0.48205  0.92047  1.0000
  C   C523      1.0  0.48057  0.52759  0.93492  1.0000
  C   C524      1.0  0.28309  0.70048  0.73663  1.0000
  C   C525      1.0  0.46380  0.71525  0.63629  1.0000
  H   H608      1.0  0.33282  0.61625  0.97842  1.0000
  H   H609      1.0  0.32608  0.65538  0.95253  1.0000
  S   S141      1.0  0.14120  0.71069  0.89616  1.0000
  C   C526      1.0  0.41092  0.49453  0.76034  1.0000
  C   C527      1.0  0.43797  0.54276  0.92546  1.0000
  C   C528      1.0  0.25144  0.71781  0.50872  1.0000
  H   H610      1.0  0.34628  0.64001  0.95817  1.0000
  H   H611      1.0  0.28937  0.68505  0.50895  1.0000
  C   C529      1.0  0.26963  0.60747  0.79471  1.0000
  C   C530      1.0  0.47945  0.50039  0.87779  1.0000
  C   C531      1.0  0.16738  0.71697  0.97216  1.0000
  H   H612      1.0  0.28531  0.68870  0.74099  1.0000
  H   H613      1.0  0.44931  0.49378  0.66903  1.0000
  H   H614      1.0  0.40311  0.69733  0.67856  1.0000
  H   H615      1.0  0.24362  0.70841  0.81498  1.0000
  H   H616      1.0  0.44414  0.53977  0.90457  1.0000
  H   H617      1.0  0.46330  0.47777  0.80911  1.0000
  C   C532      1.0  0.40404  0.69532  0.70094  1.0000
  C   C533      1.0  0.35945  0.47891  0.76768  1.0000
  H   H618      1.0  0.43832  0.68334  0.67117  1.0000
  C   C534      1.0  0.40545  0.66867  0.69446  1.0000
  C   C535      1.0  0.31575  0.61967  0.97049  1.0000
  C   C536      1.0  0.48444  0.50224  0.96826  1.0000
  H   H619      1.0  0.33348  0.64421  0.50300  1.0000
  H   H620      1.0  0.28676  0.63667  0.94035  1.0000
  S   S142      1.0  0.43497  0.71387  0.64842  1.0000
  C   C537      1.0  0.46061  0.52226  0.94764  1.0000
  C   C538      1.0  0.35435  0.68766  0.99563  1.0000
  C   C539      1.0  0.46926  0.71940  0.60942  1.0000
  H   H621      1.0  0.42549  0.52487  0.98465  1.0000
  H   H622      1.0  0.38714  0.66839  0.70002  1.0000
  H   H623      1.0  0.27662  0.60920  0.77441  1.0000
  H   H624      1.0  0.28991  0.68576  0.78665  1.0000
  H   H625      1.0  0.41204  0.70522  0.71015  1.0000
  H   H626      1.0  0.46554  0.52473  0.79381  1.0000
  H   H627      1.0  0.33970  0.49528  0.70880  1.0000
  H   H628      1.0  0.28522  0.56521  0.82345  1.0000
  H   H629      1.0  0.48033  0.53707  0.92122  1.0000
  C   C540      1.0  0.36922  0.49328  0.99383  1.0000
  C   C541      1.0  0.43974  0.68240  0.69388  1.0000
  H   H630      1.0  0.25535  0.58067  0.88629  1.0000
  H   H631      1.0  0.38875  0.48408  0.67310  1.0000
  H   H632      1.0  0.26014  0.68436  0.77812  1.0000
  C   C542      1.0  0.48166  0.52936  0.85709  1.0000
  N   N34       1.0  0.31208  0.63609  0.97209  1.0000
  C   C543      1.0  0.42232  0.51867  0.93173  1.0000
  H   H633      1.0  0.41179  0.54040  0.96833  1.0000
  H   H634      1.0  0.44385  0.50253  0.80553  1.0000
  H   H635      1.0  0.42536  0.51121  0.68948  1.0000
  H   H636      1.0  0.48256  0.54059  0.84906  1.0000
  N   N35       1.0  0.42300  0.48065  0.68751  1.0000
  C   C544      1.0  0.41398  0.48490  0.73806  1.0000
  C   C545      1.0  0.42854  0.53441  0.97065  1.0000
  Fe  Fe70      1.0  0.39761  0.71353  0.63294  1.0000
  C   C546      1.0  0.28774  0.71386  0.80376  1.0000
  C   C547      1.0  0.46323  0.50940  0.96457  1.0000
  N   N36       1.0  0.27109  0.70679  0.78560  1.0000
  C   C548      1.0  0.28852  0.70499  0.71001  1.0000
  C   C549      1.0  0.41288  0.50987  0.75699  1.0000
  C   C550      1.0  0.48189  0.71233  0.65463  1.0000
  C   C551      1.0  0.41934  0.49046  0.71158  1.0000
  C   C552      1.0  0.44642  0.48234  0.67686  1.0000
  H   H637      1.0  0.40837  0.48162  0.93568  1.0000
  H   H638      1.0  0.41949  0.52765  0.72884  1.0000
  C   C553      1.0  0.35260  0.47756  0.95981  1.0000
  H   H639      1.0  0.30758  0.63446  0.50939  1.0000
  H   H640      1.0  0.23488  0.70719  0.78001  1.0000
  H   H641      1.0  0.16108  0.71095  0.99052  1.0000
  H   H642      1.0  0.32439  0.71538  0.55817  1.0000
  H   H643      1.0  0.01382  0.72167  0.87829  1.0000
  H   H644      1.0  0.41163  0.47320  0.74211  1.0000
  H   H645      1.0  0.45017  0.47465  0.65945  1.0000
  H   H646      1.0  0.40864  0.47753  0.64750  1.0000
  C   C554      1.0  0.44385  0.47522  0.93783  1.0000
  H   H647      1.0  0.37249  0.68626  0.99268  1.0000
  H   H648      1.0  0.23554  0.71318  0.50226  1.0000
  H   H649      1.0  0.33830  0.72116  0.51276  1.0000
  H   H650      1.0  0.48602  0.49233  0.98096  1.0000
  C   C555      1.0  0.28691  0.72001  0.70263  1.0000
  C   C556      1.0  0.29160  0.72131  0.50123  1.0000
  H   H651      1.0  0.99233  0.71576  0.81419  1.0000
  H   H652      1.0  0.34405  0.65521  0.99538  1.0000
  H   H653      1.0  0.35591  0.62434  0.49742  1.0000
  H   H654      1.0  0.17415  0.74843  0.40775  1.0000
  H   H655      1.0  0.01025  0.73985  0.28521  1.0000
  H   H656      1.0  0.17158  0.76134  0.43558  1.0000
  S   S143      1.0  0.31464  0.74605  0.14553  1.0000
  Fe  Fe71      1.0  0.19196  0.78971  0.11491  1.0000
  S   S144      1.0  0.16054  0.77766  0.12799  1.0000
  S   S145      1.0  0.22218  0.77571  0.09780  1.0000
  Fe  Fe72      1.0  0.16616  0.82089  0.11762  1.0000
  S   S146      1.0  0.13385  0.81028  0.13019  1.0000
  S   S147      1.0  0.16830  0.84635  0.11088  1.0000
  Fe  Fe73      1.0  0.15540  0.79616  0.15890  1.0000
  S   S148      1.0  0.14465  0.79726  0.20408  1.0000
  Fe  Fe74      1.0  0.14221  0.79294  0.09808  1.0000
  S   S149      1.0  0.11475  0.78541  0.06874  1.0000
  S   S150      1.0  0.18797  0.80749  0.14744  1.0000
  S   S151      1.0  0.17341  0.80429  0.08375  1.0000
  H   H657      1.0  0.19840  0.85376  0.19870  1.0000
  S   S152      1.0  0.13614  0.74393  0.36781  1.0000
  Fe  Fe75      1.0  0.06992  0.74013  0.37627  1.0000
  S   S153      1.0  0.08680  0.76113  0.36166  1.0000
  H   H658      1.0  0.43471  0.74058  0.04611  1.0000
  Fe  Fe76      1.0  0.10923  0.74618  0.33553  1.0000
  S   S154      1.0  0.11644  0.74678  0.28944  1.0000
  Fe  Fe77      1.0  0.11215  0.75689  0.39560  1.0000
  S   S155      1.0  0.12816  0.77440  0.42285  1.0000
  H   H659      1.0  0.13577  0.83190  0.07677  1.0000
  S   S156      1.0  0.09451  0.73683  0.41167  1.0000
  Fe  Fe78      1.0  0.09680  0.92861  0.12585  1.0000
  S   S157      1.0  0.12147  0.94732  0.13159  1.0000
  S   S158      1.0  0.10090  0.90308  0.13286  1.0000
  Fe  Fe79      1.0  0.05765  0.95064  0.11338  1.0000
  S   S159      1.0  0.02159  0.95765  0.10268  1.0000
  Fe  Fe80      1.0  0.10538  0.95754  0.09320  1.0000
  C   C557      1.0  0.05357  0.76841  0.21123  1.0000
  Fe  Fe81      1.0  0.09354  0.95925  0.15602  1.0000
  H   H660      1.0  0.01918  0.92676  0.12120  1.0000
  S   S160      1.0  0.08261  0.93816  0.08622  1.0000
  S   S161      1.0  0.06979  0.94010  0.15255  1.0000
  C   C558      1.0  0.20421  0.74599  0.48234  1.0000
  H   H661      1.0  0.01008  0.74669  0.31939  1.0000
  S   S162      1.0  0.42834  0.72605  0.13880  1.0000
  H   H662      1.0  0.03532  0.76511  0.33408  1.0000
  H   H663      1.0  0.07043  0.74639  0.30344  1.0000
  H   H664      1.0  0.04713  0.96395  0.33152  1.0000
  H   H665      1.0  0.14646  0.73200  0.42370  1.0000
  H   H666      1.0  0.21732  0.74517  0.46684  1.0000
  H   H667      1.0  0.09322  0.81386  0.03529  1.0000
  C   C559      1.0  0.47499  0.72940  0.13772  1.0000
  C   C560      1.0  0.18016  0.75071  0.42887  1.0000
  H   H668      1.0  0.05811  0.77159  0.19053  1.0000
  C   C561      1.0  0.09039  0.82623  0.03619  1.0000
  H   H669      1.0  0.99601  0.96308  0.25852  1.0000
  H   H670      1.0  0.40974  0.73577  0.06518  1.0000
  S   S163      1.0  0.12677  0.97024  0.06142  1.0000
  C   C562      1.0  0.14911  0.86194  0.11690  1.0000
  C   C563      1.0  0.12719  0.86031  0.12751  1.0000
  C   C564      1.0  0.11279  0.87299  0.13202  1.0000
  C   C565      1.0  0.11984  0.88752  0.12578  1.0000
  C   C566      1.0  0.14167  0.88914  0.11492  1.0000
  C   C567      1.0  0.15617  0.87646  0.11061  1.0000
  H   H671      1.0  0.12125  0.84932  0.13226  1.0000
  H   H672      1.0  0.09598  0.87154  0.14043  1.0000
  H   H673      1.0  0.14747  0.90018  0.11004  1.0000
  H   H674      1.0  0.17301  0.87793  0.10232  1.0000
  C   C568      1.0  0.11925  0.78253  0.03316  1.0000
  C   C569      1.0  0.15219  0.86081  0.19846  1.0000
  H   H675      1.0  0.10079  0.87766  0.21517  1.0000
  C   C570      1.0  0.12736  0.77469  0.45929  1.0000
  H   H676      1.0  0.11560  0.95917  0.23604  1.0000
  C   C571      1.0  0.13900  0.78709  0.01999  1.0000
  H   H677      1.0  0.08712  0.77206  0.02765  1.0000
  H   H678      1.0  0.09982  0.75962  0.46358  1.0000
  C   C572      1.0  0.06943  0.76942  0.23212  1.0000
  H   H679      1.0  0.15217  0.79228  0.03162  1.0000
  C   C573      1.0  0.13762  0.78292  0.22763  1.0000
  C   C574      1.0  0.13263  0.78680  0.25496  1.0000
  C   C575      1.0  0.12656  0.77588  0.27433  1.0000
  C   C576      1.0  0.12529  0.76093  0.26650  1.0000
  C   C577      1.0  0.13021  0.75707  0.23915  1.0000
  C   C578      1.0  0.13643  0.76797  0.21983  1.0000
  H   H680      1.0  0.13348  0.79833  0.26122  1.0000
  H   H681      1.0  0.12275  0.77904  0.29523  1.0000
  H   H682      1.0  0.12917  0.74555  0.23285  1.0000
  H   H683      1.0  0.14017  0.76480  0.19891  1.0000
  C   C579      1.0  0.28836  0.75351  0.13227  1.0000
  C   C580      1.0  0.27507  0.76336  0.14860  1.0000
  C   C581      1.0  0.25456  0.76999  0.13875  1.0000
  C   C582      1.0  0.24717  0.76700  0.11218  1.0000
  C   C583      1.0  0.26040  0.75707  0.09591  1.0000
  C   C584      1.0  0.28073  0.75028  0.10590  1.0000
  H   H684      1.0  0.28077  0.76600  0.16898  1.0000
  H   H685      1.0  0.24472  0.77761  0.15153  1.0000
  H   H686      1.0  0.25495  0.75468  0.07533  1.0000
  H   H687      1.0  0.29071  0.74280  0.09300  1.0000
  H   H688      1.0  0.12664  0.88215  0.05932  1.0000
  N   N37       1.0  0.10189  0.83270  0.06015  1.0000
  C   C585      1.0  0.09217  0.82627  0.08549  1.0000
  C   C586      1.0  0.12620  0.82784  0.05880  1.0000
  C   C587      1.0  0.09833  0.84915  0.06028  1.0000
  C   C588      1.0  0.07606  0.85556  0.06266  1.0000
  C   C589      1.0  0.11651  0.85922  0.05862  1.0000
  C   C590      1.0  0.07231  0.87103  0.06426  1.0000
  C   C591      1.0  0.11250  0.87467  0.05985  1.0000
  C   C592      1.0  0.09052  0.88056  0.06308  1.0000
  H   H689      1.0  0.00043  0.75885  0.29259  1.0000
  C   C593      1.0  0.19842  0.74722  0.02819  1.0000
  H   H690      1.0  0.07687  0.76595  0.27418  1.0000
  C   C594      1.0  0.10247  0.77563  0.01766  1.0000
  H   H691      1.0  0.13454  0.83180  0.03977  1.0000
  C   C595      1.0  0.15192  0.74673  0.01734  1.0000
  H   H692      1.0  0.05524  0.87570  0.06686  1.0000
  H   H693      1.0  0.12320  0.96547  0.28463  1.0000
  H   H694      1.0  0.09565  0.81398  0.08688  1.0000
  H   H695      1.0  0.13957  0.74500  0.44969  1.0000
  H   H696      1.0  0.08768  0.89253  0.06514  1.0000
  S   S164      1.0  0.03047  0.74382  0.37613  1.0000
  S   S165      1.0  0.07960  0.97040  0.11802  1.0000
  C   C596      1.0  0.18732  0.84582  0.18802  1.0000
  H   H697      1.0  0.07344  0.82783  0.08670  1.0000
  S   S166      1.0  0.36826  0.72748  0.10043  1.0000
  H   H698      1.0  0.27116  0.73842  0.21790  1.0000
  C   C597      1.0  0.01332  0.74995  0.29768  1.0000
  H   H699      1.0  0.14740  0.74234  0.49504  1.0000
  C   C598      1.0  0.04207  0.75979  0.26542  1.0000
  N   N38       1.0  0.16405  0.84602  0.19995  1.0000
  H   H700      1.0  0.14843  0.83845  0.16313  1.0000
  C   C599      1.0  0.27493  0.72663  0.22134  1.0000
  H   H701      1.0  0.43678  0.73300  0.08016  1.0000
  N   N39       1.0  0.17505  0.73835  0.44800  1.0000
  H   H702      1.0  0.05237  0.73342  0.28726  1.0000
  H   H703      1.0  0.11844  0.89910  0.19242  1.0000
  C   C600      1.0  0.18296  0.75358  0.04670  1.0000
  C   C601      1.0  0.06383  0.76517  0.25878  1.0000
  H   H704      1.0  0.41425  0.72601  0.23048  1.0000
  C   C602      1.0  0.11028  0.96998  0.24397  1.0000
  H   H705      1.0  0.07170  0.82828  0.03678  1.0000
  H   H706      1.0  0.02884  0.77776  0.30636  1.0000
  H   H707      1.0  0.08630  0.77335  0.22764  1.0000
  C   C603      1.0  0.16184  0.87343  0.18567  1.0000
  H   H708      1.0  0.21645  0.74753  0.03258  1.0000
  C   C604      1.0  0.19076  0.74053  0.00422  1.0000
  H   H709      1.0  0.15482  0.78996  0.46226  1.0000
  C   C605      1.0  0.05261  0.74281  0.30210  1.0000
  H   H710      1.0  0.06217  0.96484  0.28671  1.0000
  H   H711      1.0  0.13382  0.83319  0.19389  1.0000
  H   H712      1.0  0.19860  0.75274  0.42728  1.0000
  H   H713      1.0  0.14785  0.75833  0.05583  1.0000
  C   C606      1.0  0.15979  0.75328  0.04134  1.0000
  H   H714      1.0  0.14559  0.72557  0.45818  1.0000
  H   H715      1.0  0.14921  0.83930  0.23857  1.0000
  C   C607      1.0  0.00171  0.73766  0.37895  1.0000
  H   H716      1.0  0.17835  0.87295  0.17601  1.0000
  C   C608      1.0  0.03976  0.76800  0.31256  1.0000
  H   H717      1.0  0.17513  0.84930  0.24134  1.0000
  H   H718      1.0  0.05760  0.77168  0.31313  1.0000
  C   C609      1.0  0.12796  0.88862  0.19476  1.0000
  H   H719      1.0  0.09685  0.83103  0.01673  1.0000
  H   H720      1.0  0.19578  0.83456  0.18959  1.0000
  H   H721      1.0  0.09948  0.83148  0.10399  1.0000
  H   H722      1.0  0.04830  0.73827  0.32264  1.0000
  H   H723      1.0  0.15717  0.89648  0.17347  1.0000
  H   H724      1.0  0.12132  0.85362  0.21888  1.0000
  H   H725      1.0  0.13409  0.85551  0.05725  1.0000
  C   C610      1.0  0.16603  0.84103  0.22886  1.0000
  H   H726      1.0  0.06138  0.84865  0.06383  1.0000
  H   H727      1.0  0.47083  0.74111  0.14089  1.0000
  H   H728      1.0  0.00928  0.75492  0.24662  1.0000
  C   C611      1.0  0.12990  0.86278  0.20933  1.0000
  H   H729      1.0  0.13377  0.74719  0.01438  1.0000
  N   N40       1.0  0.03681  0.75520  0.29384  1.0000
  H   H730      1.0  0.18698  0.84859  0.16576  1.0000
  C   C612      1.0  0.11801  0.87649  0.20739  1.0000
  C   C613      1.0  0.18137  0.74266  0.47615  1.0000
  H   H731      1.0  0.15965  0.82388  0.18461  1.0000
  H   H732      1.0  0.05997  0.96128  0.23772  1.0000
  C   C614      1.0  0.15083  0.83498  0.18477  1.0000
  H   H733      1.0  0.12832  0.81545  0.05885  1.0000
  S   S167      1.0  0.09163  0.72524  0.34857  1.0000
  H   H734      1.0  0.17538  0.83004  0.23054  1.0000
  C   C615      1.0  0.14280  0.78344  0.47360  1.0000
  C   C616      1.0  0.14984  0.88711  0.18407  1.0000
  H   H735      1.0  0.18897  0.75880  0.06524  1.0000
  C   C617      1.0  0.15063  0.73510  0.44504  1.0000
  C   C618      1.0  0.11190  0.76633  0.47424  1.0000
  Fe  Fe82      1.0  0.11777  0.72391  0.38233  1.0000
  C   C619      1.0  0.99898  0.94539  0.10599  1.0000
  Fe  Fe83      1.0  0.33979  0.72743  0.13169  1.0000
  C   C620      1.0  0.00228  0.93083  0.11590  1.0000
  H   H736      1.0  0.25639  0.72608  0.25875  1.0000
  C   C621      1.0  0.42760  0.73221  0.06040  1.0000
  H   H737      1.0  0.20676  0.72645  0.43864  1.0000
  H   H738      1.0  0.10585  0.95539  0.48926  1.0000
  C   C622      1.0  0.18820  0.72475  0.43944  1.0000
  C   C623      1.0  0.04911  0.96974  0.24743  1.0000
  H   H739      1.0  0.41058  0.72394  0.19471  1.0000
  C   C624      1.0  0.05018  0.97194  0.27572  1.0000
  H   H740      1.0  0.41743  0.72438  0.00872  1.0000
  C   C625      1.0  0.99648  0.72289  0.38528  1.0000
  C   C626      1.0  0.02620  0.75894  0.24364  1.0000
  H   H741      1.0  0.29467  0.72435  0.18435  1.0000
  C   C627      1.0  0.03200  0.76321  0.21697  1.0000
  C   C628      1.0  0.11103  0.96630  0.49572  1.0000
  H   H742      1.0  0.02024  0.97141  0.49313  1.0000
  C   C629      1.0  0.16724  0.74007  0.99801  1.0000
  H   H743      1.0  0.01975  0.76238  0.20059  1.0000
  H   H744      1.0  0.33053  0.73880  0.49645  1.0000
  H   H745      1.0  0.02347  0.92676  0.63074  1.0000
  N   N41       1.0  0.31501  0.73535  0.53598  1.0000
  H   H746      1.0  0.24567  0.72432  0.79334  1.0000
  S   S168      1.0  0.32756  0.74985  0.62088  1.0000
  Fe  Fe84      1.0  0.19241  0.78206  0.61936  1.0000
  S   S169      1.0  0.15899  0.77050  0.61966  1.0000
  S   S170      1.0  0.21979  0.76307  0.62163  1.0000
  Fe  Fe85      1.0  0.16679  0.81290  0.61733  1.0000
  S   S171      1.0  0.13251  0.80267  0.61701  1.0000
  S   S172      1.0  0.17053  0.83848  0.61937  1.0000
  Fe  Fe86      1.0  0.14658  0.78748  0.65007  1.0000
  S   S173      1.0  0.12283  0.78056  0.68475  1.0000
  Fe  Fe87      1.0  0.14779  0.78639  0.58648  1.0000
  S   S174      1.0  0.12618  0.77550  0.55382  1.0000
  S   S175      1.0  0.18037  0.79834  0.65222  1.0000
  S   S176      1.0  0.18165  0.79738  0.58441  1.0000
  C   C630      1.0  0.27310  0.73151  0.54172  1.0000
  S   S177      1.0  0.13759  0.75147  0.88024  1.0000
  Fe  Fe88      1.0  0.07236  0.74803  0.87618  1.0000
  S   S178      1.0  0.09033  0.77011  0.87372  1.0000
  S   S179      1.0  0.03307  0.75190  0.87484  1.0000
  Fe  Fe89      1.0  0.11510  0.75844  0.84527  1.0000
  S   S180      1.0  0.13661  0.77043  0.81317  1.0000
  Fe  Fe90      1.0  0.11164  0.76152  0.90881  1.0000
  S   S181      1.0  0.12968  0.77558  0.94049  1.0000
  S   S182      1.0  0.09668  0.73666  0.84558  1.0000
  S   S183      1.0  0.09285  0.74024  0.91312  1.0000
  Fe  Fe91      1.0  0.09983  0.92065  0.62625  1.0000
  S   S184      1.0  0.12928  0.93600  0.62370  1.0000
  S   S185      1.0  0.09995  0.89492  0.62213  1.0000
  Fe  Fe92      1.0  0.06555  0.94774  0.62876  1.0000
  S   S186      1.0  0.03042  0.95879  0.62950  1.0000
  Fe  Fe93      1.0  0.10832  0.94970  0.59308  1.0000
  H   H747      1.0  0.10448  0.92021  0.54334  1.0000
  Fe  Fe94      1.0  0.11109  0.94961  0.65702  1.0000
  H   H748      1.0  0.30613  0.75784  0.52345  1.0000
  S   S187      1.0  0.07964  0.93371  0.59465  1.0000
  S   S188      1.0  0.08266  0.93344  0.66086  1.0000
  H   H749      1.0  0.16331  0.73574  0.92883  1.0000
  C   C631      1.0  0.00585  0.94810  0.62782  1.0000
  C   C632      1.0  0.00713  0.93253  0.62890  1.0000
  H   H750      1.0  0.10494  0.87991  0.54923  1.0000
  Fe  Fe95      1.0  0.11839  0.73057  0.88258  1.0000
  H   H751      1.0  0.32879  0.75641  0.54813  1.0000
  H   H752      1.0  0.30053  0.75403  0.55902  1.0000
  H   H753      1.0  0.10017  0.90267  0.52715  1.0000
  H   H754      1.0  0.18788  0.78482  0.87880  1.0000
  C   C633      1.0  0.15383  0.74247  0.71976  1.0000
  C   C634      1.0  0.11182  0.76680  0.50308  1.0000
  C   C635      1.0  0.00467  0.74508  0.87816  1.0000
  C   C636      1.0  0.12943  0.86225  0.55100  1.0000
  C   C637      1.0  0.12936  0.96616  0.75138  1.0000
  H   H755      1.0  0.18825  0.73951  0.94781  1.0000
  C   C638      1.0  0.17166  0.74917  0.52372  1.0000
  C   C639      1.0  0.15054  0.85399  0.62011  1.0000
  C   C640      1.0  0.12711  0.85228  0.61728  1.0000
  C   C641      1.0  0.11205  0.86490  0.61792  1.0000
  C   C642      1.0  0.12005  0.87946  0.62127  1.0000
  C   C643      1.0  0.14349  0.88117  0.62405  1.0000
  C   C644      1.0  0.15855  0.86854  0.62347  1.0000
  H   H756      1.0  0.12064  0.84127  0.61416  1.0000
  H   H757      1.0  0.09401  0.86336  0.61573  1.0000
  H   H758      1.0  0.15006  0.89218  0.62695  1.0000
  H   H759      1.0  0.17659  0.87007  0.62564  1.0000
  C   C645      1.0  0.12722  0.77554  0.51742  1.0000
  H   H760      1.0  0.07900  0.96162  0.76503  1.0000
  H   H761      1.0  0.02132  0.97070  0.79463  1.0000
  C   C646      1.0  0.12515  0.77784  0.97618  1.0000
  H   H762      1.0  0.15719  0.84621  0.55467  1.0000
  S   S189      1.0  0.12720  0.95527  0.69853  1.0000
  H   H763      1.0  0.17939  0.72645  0.66816  1.0000
  H   H764      1.0  0.21102  0.81962  0.93854  1.0000
  H   H765      1.0  0.12946  0.72761  0.94988  1.0000
  H   H766      1.0  0.27893  0.74232  0.71607  1.0000
  C   C647      1.0  0.12701  0.77808  0.72048  1.0000
  C   C648      1.0  0.10954  0.77192  0.73621  1.0000
  C   C649      1.0  0.11214  0.76948  0.76457  1.0000
  C   C650      1.0  0.13228  0.77324  0.77754  1.0000
  C   C651      1.0  0.14961  0.77964  0.76188  1.0000
  C   C652      1.0  0.14700  0.78209  0.73351  1.0000
  H   H767      1.0  0.09394  0.76886  0.72634  1.0000
  H   H768      1.0  0.09861  0.76464  0.77636  1.0000
  H   H769      1.0  0.16519  0.78268  0.77176  1.0000
  H   H770      1.0  0.16042  0.78709  0.72181  1.0000
  C   C653      1.0  0.29753  0.75326  0.62138  1.0000
  C   C654      1.0  0.28890  0.76801  0.61841  1.0000
  C   C655      1.0  0.26527  0.77128  0.61838  1.0000
  C   C656      1.0  0.24987  0.75979  0.62122  1.0000
  C   C657      1.0  0.25849  0.74501  0.62400  1.0000
  C   C658      1.0  0.28212  0.74176  0.62415  1.0000
  H   H771      1.0  0.30061  0.77702  0.61623  1.0000
  H   H772      1.0  0.25901  0.78270  0.61619  1.0000
  H   H773      1.0  0.24681  0.73599  0.62606  1.0000
  C   C659      1.0  0.33421  0.73323  0.51640  1.0000
  H   H774      1.0  0.16179  0.91033  0.51932  1.0000
  N   N42       1.0  0.15832  0.79977  0.87849  1.0000
  C   C660      1.0  0.16677  0.80817  0.85446  1.0000
  C   C661      1.0  0.16905  0.78459  0.87840  1.0000
  C   C662      1.0  0.13349  0.79821  0.87473  1.0000
  C   C663      1.0  0.16426  0.80735  0.90429  1.0000
  C   C664      1.0  0.18719  0.81072  0.90989  1.0000
  C   C665      1.0  0.14801  0.81083  0.92511  1.0000
  C   C666      1.0  0.19338  0.81728  0.93460  1.0000
  C   C667      1.0  0.15441  0.81731  0.94979  1.0000
  C   C668      1.0  0.17703  0.82054  0.95453  1.0000
  H   H775      1.0  0.18558  0.80841  0.85363  1.0000
  H   H776      1.0  0.12948  0.79286  0.85484  1.0000
  H   H777      1.0  0.16004  0.81992  0.85466  1.0000
  H   H778      1.0  0.13828  0.92496  0.56788  1.0000
  H   H779      1.0  0.19545  0.76667  0.67153  1.0000
  H   H780      1.0  0.13607  0.90833  0.58841  1.0000
  H   H781      1.0  0.12428  0.80922  0.87516  1.0000
  S   S190      1.0  0.37894  0.72362  0.59673  1.0000
  H   H782      1.0  0.12616  0.79090  0.89068  1.0000
  H   H783      1.0  0.20060  0.80800  0.89546  1.0000
  H   H784      1.0  0.13031  0.80820  0.92327  1.0000
  H   H785      1.0  0.18765  0.74212  0.64760  1.0000
  N   N43       1.0  0.15961  0.73288  0.97249  1.0000
  H   H786      1.0  0.33735  0.73198  0.57022  1.0000
  H   H787      1.0  0.12594  0.72742  0.98616  1.0000
  H   H788      1.0  0.16361  0.77810  0.89666  1.0000
  H   H789      1.0  0.28839  0.73035  0.62639  1.0000
  H   H790      1.0  0.18194  0.82538  0.97387  1.0000
  H   H791      1.0  0.14179  0.81947  0.96562  1.0000
  H   H792      1.0  0.12759  0.74495  0.96772  1.0000
  C   C669      1.0  0.17767  0.74037  0.71650  1.0000
  H   H793      1.0  0.03926  0.95171  0.51645  1.0000
  C   C670      1.0  0.14187  0.78480  0.99166  1.0000
  H   H794      1.0  0.27314  0.73735  0.56108  1.0000
  H   H795      1.0  0.16158  0.91189  0.56973  1.0000
  H   H796      1.0  0.22172  0.74585  0.67102  1.0000
  C   C671      1.0  0.16261  0.88376  0.54812  1.0000
  C   C672      1.0  0.25252  0.72575  0.53313  1.0000
  S   S191      1.0  0.09307  0.96454  0.62612  1.0000
  C   C673      1.0  0.05408  0.96622  0.70346  1.0000
  C   C674      1.0  0.99841  0.75311  0.80848  1.0000
  C   C675      1.0  0.06814  0.96046  0.72399  1.0000
  H   H797      1.0  0.19883  0.75659  0.54903  1.0000
  C   C676      1.0  0.00438  0.73806  0.81143  1.0000
  C   C677      1.0  0.10544  0.77320  0.98933  1.0000
  C   C678      1.0  0.14277  0.91280  0.56878  1.0000
  H   H798      1.0  0.10022  0.90413  0.56415  1.0000
  H   H799      1.0  0.14636  0.72853  0.78392  1.0000
  N   N44       1.0  0.11283  0.82788  0.68971  1.0000
  C   C679      1.0  0.13666  0.82287  0.68409  1.0000
  C   C680      1.0  0.10625  0.82167  0.71667  1.0000
  C   C681      1.0  0.09840  0.82131  0.66829  1.0000
  C   C682      1.0  0.10954  0.84434  0.68994  1.0000
  C   C683      1.0  0.08744  0.85091  0.69315  1.0000
  C   C684      1.0  0.12782  0.85428  0.68719  1.0000
  C   C685      1.0  0.08380  0.86641  0.69261  1.0000
  C   C686      1.0  0.12398  0.86975  0.68714  1.0000
  C   C687      1.0  0.10202  0.87580  0.68945  1.0000
  H   H800      1.0  0.14847  0.82667  0.70015  1.0000
  H   H801      1.0  0.13852  0.81049  0.68363  1.0000
  H   H802      1.0  0.14257  0.82700  0.66381  1.0000
  H   H803      1.0  0.11651  0.82645  0.73341  1.0000
  H   H804      1.0  0.10885  0.80929  0.71732  1.0000
  H   H805      1.0  0.08806  0.82400  0.72154  1.0000
  H   H806      1.0  0.10138  0.80900  0.66662  1.0000
  H   H807      1.0  0.07998  0.82297  0.67246  1.0000
  H   H808      1.0  0.10197  0.82628  0.64787  1.0000
  H   H809      1.0  0.07276  0.84411  0.69571  1.0000
  H   H810      1.0  0.14520  0.85044  0.68418  1.0000
  H   H811      1.0  0.06672  0.87120  0.69420  1.0000
  H   H812      1.0  0.13806  0.87713  0.68419  1.0000
  H   H813      1.0  0.09912  0.88780  0.68820  1.0000
  N   N45       1.0  0.13332  0.90475  0.54517  1.0000
  C   C688      1.0  0.10844  0.90799  0.54489  1.0000
  C   C689      1.0  0.31241  0.75159  0.54175  1.0000
  C   C690      1.0  0.14293  0.91098  0.51960  1.0000
  C   C691      1.0  0.13944  0.88862  0.54734  1.0000
  H   H814      1.0  0.14357  0.74785  0.70404  1.0000
  C   C692      1.0  0.14275  0.73806  0.74367  1.0000
  H   H815      1.0  0.19230  0.76764  0.70809  1.0000
  C   C693      1.0  0.29330  0.72951  0.52599  1.0000
  C   C694      1.0  0.15230  0.85790  0.55202  1.0000
  H   H816      1.0  0.11662  0.85385  0.55277  1.0000
  C   C695      1.0  0.17874  0.73885  0.66680  1.0000
  C   C696      1.0  0.05049  0.95577  0.53286  1.0000
  H   H817      1.0  0.18779  0.72426  0.77957  1.0000
  H   H818      1.0  0.26941  0.73490  0.76290  1.0000
  H   H819      1.0  0.06828  0.95497  0.52501  1.0000
  H   H820      1.0  0.22300  0.74762  0.70717  1.0000
  H   H821      1.0  0.16070  0.74251  0.66389  1.0000
  H   H822      1.0  0.02191  0.73471  0.81545  1.0000
  C   C697      1.0  0.18608  0.76209  0.68934  1.0000
  H   H823      1.0  0.13685  0.90487  0.50136  1.0000
  C   C698      1.0  0.19414  0.75251  0.52899  1.0000
  C   C699      1.0  0.99994  0.72984  0.87894  1.0000
  H   H824      1.0  0.35016  0.73795  0.52443  1.0000
  C   C700      1.0  0.11622  0.96867  0.52349  1.0000
  C   C701      1.0  0.14284  0.78381  0.50251  1.0000
  H   H825      1.0  0.08035  0.95151  0.71921  1.0000
  H   H826      1.0  0.00845  0.96735  0.53625  1.0000
  H   H827      1.0  0.04920  0.94780  0.55032  1.0000
  H   H828      1.0  0.15892  0.75074  0.53967  1.0000
  H   H829      1.0  0.16434  0.77819  0.85985  1.0000
  H   H830      1.0  0.16148  0.80298  0.83484  1.0000
  C   C702      1.0  0.32148  0.72755  0.56163  1.0000
  H   H831      1.0  0.09965  0.76037  0.51438  1.0000
  H   H832      1.0  0.13630  0.95517  0.75634  1.0000
  C   C703      1.0  0.21383  0.74197  0.69046  1.0000
  C   C704      1.0  0.12278  0.96934  0.72421  1.0000
  H   H833      1.0  0.09237  0.76790  0.97766  1.0000
  C   C705      1.0  0.21041  0.75090  0.50835  1.0000
  N   N46       1.0  0.18905  0.74564  0.69131  1.0000
  S   S192      1.0  0.11543  0.95325  0.54696  1.0000
  C   C706      1.0  0.16886  0.86863  0.55061  1.0000
  H   H834      1.0  0.15482  0.79056  0.51323  1.0000
  H   H835      1.0  0.17611  0.89164  0.54726  1.0000
  H   H836      1.0  0.15728  0.78831  0.98175  1.0000
  H   H837      1.0  0.05519  0.96170  0.68293  1.0000
  H   H838      1.0  0.16463  0.75265  0.94848  1.0000
  H   H839      1.0  0.05653  0.96734  0.58241  1.0000
  C   C707      1.0  0.17842  0.72930  0.76267  1.0000
  H   H840      1.0  0.18661  0.86517  0.55198  1.0000
  C   C708      1.0  0.12296  0.87736  0.54891  1.0000
  H   H841      1.0  0.16799  0.76564  0.68655  1.0000
  H   H842      1.0  0.20783  0.73152  0.73824  1.0000
  H   H843      1.0  0.13801  0.92303  0.51699  1.0000
  C   C709      1.0  0.18970  0.73356  0.73873  1.0000
  C   C710      1.0  0.13455  0.73328  0.96910  1.0000
  H   H844      1.0  0.30836  0.72893  0.57788  1.0000
  N   N47       1.0  0.04439  0.97126  0.54128  1.0000
  H   H845      1.0  0.01142  0.76136  0.81022  1.0000
  Fe  Fe96      1.0  0.34867  0.72793  0.62471  1.0000
  C   C711      1.0  0.27970  0.73061  0.72182  1.0000
  C   C712      1.0  0.27425  0.72623  0.74853  1.0000
  H   H846      1.0  0.28635  0.72624  0.80322  1.0000
  C   C713      1.0  0.06713  0.96641  0.75042  1.0000
  C   C714      1.0  0.16943  0.74053  0.94841  1.0000
  H   H847      1.0  0.12455  0.73993  0.74577  1.0000
  H   H848      1.0  0.01852  0.96487  0.57024  1.0000
  H   H849      1.0  0.06229  0.96530  0.80742  1.0000
  C   C715      1.0  0.15502  0.73162  0.76518  1.0000
  H   H850      1.0  0.21728  0.72971  0.69160  1.0000
  H   H851      1.0  0.23738  0.72732  0.54564  1.0000
  H   H852      1.0  0.20344  0.73572  0.99056  1.0000
  H   H853      1.0  0.29169  0.72345  0.68213  1.0000
  H   H854      1.0  0.22783  0.75373  0.51241  1.0000
  C   C716      1.0  0.02055  0.97177  0.55136  1.0000
  C   C717      1.0  0.16524  0.74433  0.49776  1.0000
  Fe  Fe97      1.0  0.86213  0.02978  0.37407  1.0000
  S   S193      1.0  0.84973  0.00631  0.38155  1.0000
  S   S194      1.0  0.84977  0.05226  0.39295  1.0000
  Fe  Fe98      1.0  0.90802  0.01751  0.35272  1.0000
  S   S195      1.0  0.89971  0.99348  0.35946  1.0000
  S   S196      1.0  0.93987  0.02700  0.33448  1.0000
  Fe  Fe99      1.0  0.86612  0.00024  0.34042  1.0000
  S   S197      1.0  0.84992  0.98457  0.30911  1.0000
  Fe  Fe100     1.0  0.88406  0.00081  0.39993  1.0000
  S   S198      1.0  0.89402  0.98999  0.44155  1.0000
  S   S199      1.0  0.87531  0.02407  0.33184  1.0000
  S   S200      1.0  0.89568  0.02432  0.39411  1.0000
  H   H855      1.0  0.94875  0.00915  0.38283  1.0000
  S   S201      1.0  0.64211  0.20426  0.37705  1.0000
  Fe  Fe101     1.0  0.77262  0.17000  0.35615  1.0000
  S   S202      1.0  0.80150  0.18375  0.37028  1.0000
  S   S203      1.0  0.74301  0.18504  0.34042  1.0000
  Fe  Fe102     1.0  0.80253  0.14053  0.36286  1.0000
  S   S204      1.0  0.83278  0.15308  0.37735  1.0000
  S   S205      1.0  0.80385  0.11507  0.35492  1.0000
  Fe  Fe103     1.0  0.80735  0.16641  0.40293  1.0000
  S   S206      1.0  0.80616  0.17365  0.44778  1.0000
  Fe  Fe104     1.0  0.82378  0.16930  0.34323  1.0000
  S   S207      1.0  0.84991  0.18027  0.31588  1.0000
  S   S208      1.0  0.77725  0.15306  0.39012  1.0000
  S   S209      1.0  0.79492  0.15625  0.32731  1.0000
  S   S210      1.0  0.83216  0.20523  0.12231  1.0000
  H   H856      1.0  0.88550  0.03826  0.47759  1.0000
  S   S211      1.0  0.88226  0.18940  0.12102  1.0000
  H   H857      1.0  0.94941  0.19690  0.21616  1.0000
  Fe  Fe105     1.0  0.85844  0.19980  0.09008  1.0000
  S   S212      1.0  0.85182  0.18402  0.05452  1.0000
  Fe  Fe106     1.0  0.85739  0.19671  0.15334  1.0000
  S   S213      1.0  0.84464  0.18056  0.18563  1.0000
  C   C718      1.0  0.84109  0.18670  0.02088  1.0000
  H   H858      1.0  0.60950  0.21719  0.27000  1.0000
  C   C719      1.0  0.84948  0.16978  0.47010  1.0000
  C   C720      1.0  0.82756  0.17609  0.47274  1.0000
  H   H859      1.0  0.91587  0.97704  0.48895  1.0000
  C   C721      1.0  0.68487  0.18543  0.29840  1.0000
  H   H860      1.0  0.93805  0.20248  0.05988  1.0000
  H   H861      1.0  0.85414  0.16368  0.45177  1.0000
  C   C722      1.0  0.91892  0.17322  0.22208  1.0000
  H   H862      1.0  0.83487  0.21041  0.02401  1.0000
  C   C723      1.0  0.84720  0.18089  0.27978  1.0000
  C   C724      1.0  0.85944  0.19136  0.26467  1.0000
  C   C725      1.0  0.85844  0.19171  0.23585  1.0000
  C   C726      1.0  0.84562  0.18131  0.22185  1.0000
  C   C727      1.0  0.83327  0.17092  0.23698  1.0000
  C   C728      1.0  0.83387  0.17079  0.26579  1.0000
  H   H863      1.0  0.86978  0.19922  0.27535  1.0000
  H   H864      1.0  0.86772  0.19994  0.22458  1.0000
  H   H865      1.0  0.82327  0.16284  0.22637  1.0000
  H   H866      1.0  0.82449  0.16261  0.27712  1.0000
  C   C729      1.0  0.70406  0.18753  0.28231  1.0000
  C   C730      1.0  0.79127  0.20279  0.18954  1.0000
  Fe  Fe107     1.0  0.89803  0.21190  0.12472  1.0000
  C   C731      1.0  0.67131  0.20002  0.36981  1.0000
  C   C732      1.0  0.68501  0.20982  0.35528  1.0000
  C   C733      1.0  0.70734  0.20533  0.34763  1.0000
  C   C734      1.0  0.71654  0.19118  0.35502  1.0000
  C   C735      1.0  0.70322  0.18171  0.37076  1.0000
  C   C736      1.0  0.68071  0.18606  0.37784  1.0000
  C   C737      1.0  0.89901  0.16469  0.22121  1.0000
  C   C738      1.0  0.87448  0.08961  0.32790  1.0000
  H   H867      1.0  0.70985  0.17072  0.37626  1.0000
  H   H868      1.0  0.67031  0.17837  0.38906  1.0000
  C   C739      1.0  0.75911  0.19186  0.03068  1.0000
  C   C740      1.0  0.98398  0.20459  0.12970  1.0000
  C   C741      1.0  0.83849  0.06981  0.38054  1.0000
  C   C742      1.0  0.82524  0.07106  0.35687  1.0000
  C   C743      1.0  0.81487  0.08495  0.34948  1.0000
  C   C744      1.0  0.81795  0.09791  0.36516  1.0000
  C   C745      1.0  0.83188  0.09676  0.38829  1.0000
  C   C746      1.0  0.84176  0.08280  0.39610  1.0000
  H   H869      1.0  0.82225  0.06122  0.34478  1.0000
  H   H870      1.0  0.80419  0.08562  0.33152  1.0000
  H   H871      1.0  0.83489  0.10657  0.40028  1.0000
  H   H872      1.0  0.85202  0.08205  0.41438  1.0000
  H   H873      1.0  0.84850  0.10671  0.32103  1.0000
  H   H874      1.0  0.96432  0.97743  0.28058  1.0000
  H   H875      1.0  0.71892  0.18019  0.28486  1.0000
  C   C747      1.0  0.83919  0.12728  0.48999  1.0000
  N   N48       1.0  0.85323  0.02813  0.47088  1.0000
  H   H876      1.0  0.64171  0.21879  0.32008  1.0000
  H   H877      1.0  0.90504  0.11996  0.36899  1.0000
  H   H878      1.0  0.77339  0.19924  0.18831  1.0000
  H   H879      1.0  0.95476  0.19351  0.18105  1.0000
  C   C748      1.0  0.92955  0.07169  0.32514  1.0000
  H   H880      1.0  0.93782  0.06041  0.32232  1.0000
  C   C749      1.0  0.92926  0.98069  0.03183  1.0000
  C   C750      1.0  0.96505  0.02264  0.35243  1.0000
  H   H881      1.0  0.79306  0.19496  0.29084  1.0000
  C   C751      1.0  0.96462  0.01361  0.37577  1.0000
  H   H882      1.0  0.94457  0.18101  0.25083  1.0000
  H   H883      1.0  0.84817  0.11926  0.47718  1.0000
  H   H884      1.0  0.94138  0.07807  0.33791  1.0000
  H   H885      1.0  0.98612  0.03536  0.32536  1.0000
  C   C752      1.0  0.89359  0.06025  0.32080  1.0000
  H   H886      1.0  0.85253  0.00884  0.44500  1.0000
  H   H887      1.0  0.83249  0.98957  0.08138  1.0000
  C   C753      1.0  0.79368  0.20513  0.25073  1.0000
  H   H888      1.0  0.87473  0.15188  0.24364  1.0000
  C   C754      1.0  0.81912  0.13213  0.43384  1.0000
  H   H889      1.0  0.72505  0.20048  0.03630  1.0000
  N   N49       1.0  0.92637  0.18156  0.19756  1.0000
  C   C755      1.0  0.66569  0.20731  0.27736  1.0000
  H   H890      1.0  0.92852  0.07716  0.30467  1.0000
  H   H891      1.0  0.89114  0.06455  0.29960  1.0000
  H   H892      1.0  0.91642  0.05227  0.36430  1.0000
  C   C756      1.0  0.84274  0.01947  0.44876  1.0000
  H   H893      1.0  0.91507  0.20113  0.17533  1.0000
  H   H894      1.0  0.84515  0.99992  0.17800  1.0000
  C   C757      1.0  0.78503  0.20309  0.27711  1.0000
  H   H895      1.0  0.98425  0.00341  0.40826  1.0000
  H   H896      1.0  0.89268  0.18994  0.18788  1.0000
  C   C758      1.0  0.86488  0.10402  0.33024  1.0000
  H   H897      1.0  0.95471  0.17735  0.05080  1.0000
  H   H898      1.0  0.86803  0.12597  0.34706  1.0000
  C   C759      1.0  0.70221  0.21890  0.43078  1.0000
  H   H899      1.0  0.65821  0.21880  0.44296  1.0000
  C   C760      1.0  0.84004  0.04240  0.47431  1.0000
  C   C761      1.0  0.85967  0.98652  0.12518  1.0000
  C   C762      1.0  0.95630  0.20091  0.05765  1.0000
  C   C763      1.0  0.98934  0.18463  0.05079  1.0000
  H   H900      1.0  0.84743  0.98334  0.46049  1.0000
  H   H901      1.0  0.89360  0.15499  0.28820  1.0000
  C   C764      1.0  0.94923  0.18798  0.20038  1.0000
  H   H902      1.0  0.84515  0.16332  0.01111  1.0000
  C   C765      1.0  0.85937  0.97962  0.47598  1.0000
  C   C766      1.0  0.83953  0.17420  0.00368  1.0000
  H   H903      1.0  0.86819  0.98952  0.10561  1.0000
  H   H904      1.0  0.78185  0.14594  0.45219  1.0000
  S   S214      1.0  0.93705  0.20747  0.12752  1.0000
  C   C767      1.0  0.87491  0.98628  0.26020  1.0000
  C   C768      1.0  0.90650  0.09711  0.35500  1.0000
  C   C769      1.0  0.90916  0.06390  0.36537  1.0000
  H   H905      1.0  0.84096  0.04954  0.45558  1.0000
  H   H906      1.0  0.87594  0.03901  0.44285  1.0000
  H   H907      1.0  0.69781  0.20882  0.44286  1.0000
  C   C770      1.0  0.73665  0.19448  0.02270  1.0000
  H   H908      1.0  0.90262  0.04920  0.31879  1.0000
  H   H909      1.0  0.87668  0.05810  0.33013  1.0000
  C   C771      1.0  0.86524  0.17108  0.49161  1.0000
  H   H910      1.0  0.89242  0.06340  0.37592  1.0000
  C   C772      1.0  0.81699  0.13268  0.48316  1.0000
  H   H911      1.0  0.98108  0.19282  0.13240  1.0000
  H   H912      1.0  0.81090  0.12892  0.41429  1.0000
  C   C773      1.0  0.88040  0.98171  0.23321  1.0000
  N   N50       1.0  0.90668  0.07066  0.33775  1.0000
  C   C774      1.0  0.89038  0.15793  0.24471  1.0000
  H   H913      1.0  0.77124  0.13060  0.47224  1.0000
  C   C775      1.0  0.89579  0.08574  0.34005  1.0000
  H   H914      1.0  0.68498  0.17651  0.31348  1.0000
  H   H915      1.0  0.80835  0.19836  0.24491  1.0000
  H   H916      1.0  0.71734  0.21269  0.33517  1.0000
  C   C776      1.0  0.77421  0.18436  0.01320  1.0000
  H   H917      1.0  0.92064  0.07021  0.37871  1.0000
  H   H918      1.0  0.62059  0.20244  0.29066  1.0000
  H   H919      1.0  0.71949  0.20092  0.25140  1.0000
  H   H920      1.0  0.82794  0.21241  0.21481  1.0000
  C   C777      1.0  0.86566  0.98598  0.01366  1.0000
  C   C778      1.0  0.66605  0.19524  0.29627  1.0000
  S   S215      1.0  0.87397  0.21858  0.15926  1.0000
  H   H921      1.0  0.72068  0.22060  0.43340  1.0000
  C   C779      1.0  0.82466  0.98519  0.10049  1.0000
  C   C780      1.0  0.83374  0.20070  0.01105  1.0000
  C   C781      1.0  0.80471  0.11093  0.45803  1.0000
  H   H922      1.0  0.88679  0.02174  0.45630  1.0000
  H   H923      1.0  0.93405  0.17769  0.15477  1.0000
  H   H924      1.0  0.92956  0.98445  0.05288  1.0000
  H   H925      1.0  0.79570  0.10690  0.47659  1.0000
  H   H926      1.0  0.81561  0.01183  0.12540  1.0000
  H   H927      1.0  0.84025  0.01186  0.10346  1.0000
  H   H928      1.0  0.80117  0.19362  0.19976  1.0000
  C   C782      1.0  0.96577  0.18674  0.05277  1.0000
  C   C783      1.0  0.87584  0.11490  0.34504  1.0000
  H   H929      1.0  0.76496  0.19575  0.05034  1.0000
  H   H930      1.0  0.89275  0.98783  0.22160  1.0000
  H   H931      1.0  0.77407  0.12917  0.43581  1.0000
  H   H932      1.0  0.90815  0.20136  0.21102  1.0000
  H   H933      1.0  0.83657  0.12711  0.43361  1.0000
  C   C784      1.0  0.68554  0.20911  0.26109  1.0000
  C   C785      1.0  0.85865  0.97873  0.27548  1.0000
  H   H934      1.0  0.86463  0.08169  0.31678  1.0000
  H   H935      1.0  0.82168  0.04066  0.47780  1.0000
  H   H936      1.0  0.84361  0.01337  0.13943  1.0000
  H   H937      1.0  0.86462  0.99486  0.02858  1.0000
  C   C786      1.0  0.98574  0.02833  0.34339  1.0000
  H   H938      1.0  0.82091  0.14445  0.43367  1.0000
  C   C787      1.0  0.82481  0.98613  0.15130  1.0000
  C   C788      1.0  0.92962  0.17454  0.24798  1.0000
  C   C789      1.0  0.62457  0.20948  0.27259  1.0000
  C   C790      1.0  0.87642  0.03194  0.46167  1.0000
  N   N51       1.0  0.83535  0.99125  0.12546  1.0000
  H   H939      1.0  0.65212  0.19354  0.31032  1.0000
  C   C791      1.0  0.93339  0.99064  0.01039  1.0000
  H   H940      1.0  0.80619  0.98809  0.09964  1.0000
  H   H941      1.0  0.93677  0.00204  0.01573  1.0000
  H   H942      1.0  0.79176  0.18246  0.01932  1.0000
  H   H943      1.0  0.88200  0.16594  0.48960  1.0000
  C   C792      1.0  0.78221  0.13355  0.45458  1.0000
  C   C793      1.0  0.92067  0.16785  0.27143  1.0000
  C   C794      1.0  0.97034  0.21303  0.06032  1.0000
  N   N52       1.0  0.80579  0.12746  0.45799  1.0000
  H   H944      1.0  0.92257  0.09495  0.36505  1.0000
  H   H945      1.0  0.88294  0.99582  0.26902  1.0000
  H   H946      1.0  0.62572  0.20210  0.25433  1.0000
  H   H947      1.0  0.86934  0.99147  0.14222  1.0000
  C   C795      1.0  0.98474  0.01038  0.39014  1.0000
  C   C796      1.0  0.83361  0.00779  0.12344  1.0000
  H   H948      1.0  0.82179  0.10534  0.45738  1.0000
  C   C797      1.0  0.90100  0.15966  0.26983  1.0000
  C   C798      1.0  0.89661  0.11146  0.35742  1.0000
  H   H949      1.0  0.79560  0.10680  0.43969  1.0000
  H   H950      1.0  0.90993  0.16838  0.16652  1.0000
  C   C799      1.0  0.92706  0.17181  0.17299  1.0000
  H   H951      1.0  0.92867  0.16935  0.29114  1.0000
  C   C800      1.0  0.88270  0.98119  0.47155  1.0000
  H   H952      1.0  0.84224  0.02586  0.42916  1.0000
  N   N53       1.0  0.64579  0.21780  0.27611  1.0000
  H   H953      1.0  0.88918  0.16380  0.20268  1.0000
  C   C801      1.0  0.82229  0.98722  0.20150  1.0000
  H   H954      1.0  0.93776  0.16157  0.17666  1.0000
  C   C802      1.0  0.70438  0.19931  0.26365  1.0000
  H   H955      1.0  0.82500  0.01650  0.45357  1.0000
  C   C803      1.0  0.83176  0.99198  0.17681  1.0000
  H   H956      1.0  0.82824  0.99161  0.22078  1.0000
  H   H957      1.0  0.96231  0.17919  0.20542  1.0000
  C   C804      1.0  0.76614  0.21147  0.28596  1.0000
  C   C805      1.0  0.90984  0.19403  0.19275  1.0000
  C   C806      1.0  0.89780  0.97598  0.49205  1.0000
  N   N54       1.0  0.79286  0.21721  0.20414  1.0000
  H   H958      1.0  0.69965  0.21621  0.40881  1.0000
  H   H959      1.0  0.84656  0.04888  0.49184  1.0000
  H   H960      1.0  0.67820  0.22062  0.34907  1.0000
  H   H961      1.0  0.82710  0.97285  0.09914  1.0000
  H   H962      1.0  0.92528  0.97570  0.26268  1.0000
  H   H963      1.0  0.75951  0.20980  0.30647  1.0000
  H   H964      1.0  0.86159  0.97422  0.12755  1.0000
  C   C807      1.0  0.96519  0.21463  0.12696  1.0000
  C   C808      1.0  0.80604  0.97627  0.20162  1.0000
  H   H965      1.0  0.79818  0.20345  0.16833  1.0000
  H   H966      1.0  0.68705  0.21809  0.24649  1.0000
  C   C809      1.0  0.80819  0.97494  0.15215  1.0000
  C   C810      1.0  0.72912  0.18945  0.99729  1.0000
  C   C811      1.0  0.78363  0.21564  0.23225  1.0000
  C   C812      1.0  0.75594  0.22200  0.26851  1.0000
  C   C813      1.0  0.81706  0.22128  0.20533  1.0000
  H   H967      1.0  0.79062  0.14899  0.49668  1.0000
  C   C814      1.0  0.82176  0.18389  0.49683  1.0000
  C   C815      1.0  0.85299  0.01936  0.49664  1.0000
  S   S216      1.0  0.87504  0.22220  0.09196  1.0000
  Fe  Fe108     1.0  0.85998  0.03322  0.87430  1.0000
  S   S217      1.0  0.85139  0.00929  0.86387  1.0000
  S   S218      1.0  0.83243  0.05201  0.86962  1.0000
  Fe  Fe109     1.0  0.90945  0.02403  0.88479  1.0000
  S   S219      1.0  0.90475  0.00010  0.87360  1.0000
  S   S220      1.0  0.94203  0.03316  0.90115  1.0000
  Fe  Fe110     1.0  0.88346  0.00880  0.83834  1.0000
  S   S221      1.0  0.88884  0.00332  0.79237  1.0000
  Fe  Fe111     1.0  0.87332  0.00223  0.90023  1.0000
  C   C816      1.0  0.78775  0.19352  0.65318  1.0000
  S   S222      1.0  0.89115  0.03285  0.84776  1.0000
  S   S223      1.0  0.87892  0.02602  0.91251  1.0000
  H   H968      1.0  0.95305  0.19172  0.50349  1.0000
  S   S224      1.0  0.63836  0.20218  0.88252  1.0000
  Fe  Fe112     1.0  0.76761  0.16345  0.86645  1.0000
  S   S225      1.0  0.78476  0.18524  0.86632  1.0000
  S   S226      1.0  0.72905  0.16213  0.86547  1.0000
  Fe  Fe113     1.0  0.81271  0.14514  0.86827  1.0000
  S   S227      1.0  0.83262  0.16644  0.86895  1.0000
  S   S228      1.0  0.83627  0.12394  0.86752  1.0000
  Fe  Fe114     1.0  0.80693  0.17521  0.89946  1.0000
  S   S229      1.0  0.81173  0.19205  0.93390  1.0000
  Fe  Fe115     1.0  0.80901  0.17477  0.83580  1.0000
  S   S230      1.0  0.82164  0.18990  0.80142  1.0000
  S   S231      1.0  0.78841  0.15358  0.90124  1.0000
  S   S232      1.0  0.79027  0.15331  0.83340  1.0000
  H   H969      1.0  0.81521  0.00466  0.54255  1.0000
  H   H970      1.0  0.88981  0.01508  0.50072  1.0000
  S   S233      1.0  0.89387  0.18937  0.61912  1.0000
  H   H971      1.0  0.65991  0.20054  0.82063  1.0000
  Fe  Fe116     1.0  0.87251  0.19343  0.58139  1.0000
  S   S234      1.0  0.87918  0.17948  0.54299  1.0000
  Fe  Fe117     1.0  0.86186  0.19452  0.64341  1.0000
  S   S235      1.0  0.84776  0.17889  0.67590  1.0000
  C   C817      1.0  0.85932  0.17880  0.51578  1.0000
  C   C818      1.0  0.86769  0.97835  0.96567  1.0000
  H   H972      1.0  0.88772  0.00086  0.54279  1.0000
  C   C819      1.0  0.82353  0.18962  0.96707  1.0000
  H   H973      1.0  0.89249  0.17230  0.79747  1.0000
  C   C820      1.0  0.83756  0.18534  0.51815  1.0000
  H   H974      1.0  0.89470  0.12760  0.79896  1.0000
  H   H975      1.0  0.82979  0.16591  0.96397  1.0000
  H   H976      1.0  0.73435  0.18318  0.81575  1.0000
  H   H977      1.0  0.83276  0.19132  0.53658  1.0000
  C   C821      1.0  0.82846  0.18661  0.76644  1.0000
  C   C822      1.0  0.83976  0.19767  0.75162  1.0000
  C   C823      1.0  0.84564  0.19559  0.72385  1.0000
  C   C824      1.0  0.84022  0.18238  0.71057  1.0000
  C   C825      1.0  0.82855  0.17143  0.72522  1.0000
  C   C826      1.0  0.82262  0.17353  0.75296  1.0000
  H   H978      1.0  0.84420  0.20788  0.76181  1.0000
  H   H979      1.0  0.85464  0.20411  0.71289  1.0000
  H   H980      1.0  0.82414  0.16121  0.71507  1.0000
  H   H981      1.0  0.81340  0.16509  0.76381  1.0000
  C   C827      1.0  0.88109  0.99008  0.76685  1.0000
  C   C828      1.0  0.83136  0.00750  0.53351  1.0000
  H   H982      1.0  0.95759  0.19676  0.63092  1.0000
  C   C829      1.0  0.66485  0.19238  0.87768  1.0000
  C   C830      1.0  0.68630  0.19888  0.87913  1.0000
  C   C831      1.0  0.70646  0.18999  0.87517  1.0000
  C   C832      1.0  0.70516  0.17459  0.86980  1.0000
  C   C833      1.0  0.68375  0.16833  0.86850  1.0000
  C   C834      1.0  0.66392  0.17707  0.87249  1.0000
  H   H983      1.0  0.68740  0.21062  0.88370  1.0000
  H   H984      1.0  0.72286  0.19505  0.87614  1.0000
  H   H985      1.0  0.68241  0.15651  0.86455  1.0000
  H   H986      1.0  0.64760  0.17186  0.87149  1.0000
  H   H987      1.0  0.81602  0.01926  0.50024  1.0000
  H   H988      1.0  0.95269  0.00867  0.86422  1.0000
  C   C835      1.0  0.83393  0.07200  0.86941  1.0000
  C   C836      1.0  0.85455  0.07937  0.87028  1.0000
  C   C837      1.0  0.85483  0.09517  0.86972  1.0000
  C   C838      1.0  0.83456  0.10395  0.86843  1.0000
  C   C839      1.0  0.81394  0.09658  0.86745  1.0000
  C   C840      1.0  0.81367  0.08077  0.86784  1.0000
  H   H989      1.0  0.87032  0.07289  0.87154  1.0000
  H   H990      1.0  0.87093  0.10063  0.87060  1.0000
  H   H991      1.0  0.79817  0.10306  0.86645  1.0000
  H   H992      1.0  0.79757  0.07529  0.86721  1.0000
  H   H993      1.0  0.94983  0.18021  0.57683  1.0000
  H   H994      1.0  0.73238  0.15355  0.96668  1.0000
  C   C841      1.0  0.98924  0.00665  0.86311  1.0000
  H   H995      1.0  0.86398  0.13727  0.74795  1.0000
  C   C842      1.0  0.74024  0.22069  0.81266  1.0000
  H   H996      1.0  0.77174  0.18728  0.65221  1.0000
  H   H997      1.0  0.92890  0.18278  0.51827  1.0000
  C   C843      1.0  0.89587  0.17417  0.75457  1.0000
  C   C844      1.0  0.96998  0.20528  0.62800  1.0000
  C   C845      1.0  0.72966  0.19492  0.81329  1.0000
  C   C846      1.0  0.88036  0.15474  0.72699  1.0000
  C   C847      1.0  0.74146  0.15963  0.95026  1.0000
  C   C848      1.0  0.96794  0.02522  0.88943  1.0000
  C   C849      1.0  0.96839  0.01309  0.87156  1.0000
  H   H998      1.0  0.75432  0.21165  0.63457  1.0000
  H   H999      1.0  0.81132  0.97848  0.77136  1.0000
  S   S236      1.0  0.86874  0.98216  0.92951  1.0000
  C   C850      1.0  0.82501  0.20213  0.98428  1.0000
  S   S237      1.0  0.86764  0.21926  0.64596  1.0000
  H   H1000     1.0  0.86110  0.97635  0.79317  1.0000
  C   C851      1.0  0.77084  0.21688  0.63869  1.0000
  C   C852      1.0  0.74907  0.21700  0.69099  1.0000
  H   H1001     1.0  0.96307  0.01167  0.94688  1.0000
  H   H1002     1.0  0.87099  0.12342  0.82075  1.0000
  N   N55       1.0  0.82648  0.03702  0.78715  1.0000
  C   C853      1.0  0.83024  0.04569  0.76165  1.0000
  C   C854      1.0  0.80739  0.04452  0.80225  1.0000
  C   C855      1.0  0.84725  0.03779  0.80390  1.0000
  C   C856      1.0  0.82169  0.02111  0.78216  1.0000
  C   C857      1.0  0.82532  0.01415  0.75630  1.0000
  C   C858      1.0  0.81452  0.01183  0.80397  1.0000
  C   C859      1.0  0.82133  0.99898  0.75254  1.0000
  C   C860      1.0  0.81060  0.99668  0.79998  1.0000
  C   C861      1.0  0.81387  0.99030  0.77428  1.0000
  H   H1003     1.0  0.81554  0.04493  0.74754  1.0000
  H   H1004     1.0  0.83257  0.05774  0.76603  1.0000
  H   H1005     1.0  0.84601  0.04180  0.75085  1.0000
  H   H1006     1.0  0.79099  0.04317  0.79148  1.0000
  H   H1007     1.0  0.81013  0.05667  0.80502  1.0000
  H   H1008     1.0  0.80549  0.04021  0.82349  1.0000
  H   H1009     1.0  0.84500  0.03231  0.82404  1.0000
  H   H1010     1.0  0.86203  0.03204  0.79369  1.0000
  H   H1011     1.0  0.85177  0.04952  0.80835  1.0000
  H   H1012     1.0  0.83174  0.02005  0.73878  1.0000
  H   H1013     1.0  0.81248  0.01609  0.82452  1.0000
  C   C862      1.0  0.93272  0.98605  0.98260  1.0000
  H   H1014     1.0  0.80550  0.98979  0.81709  1.0000
  H   H1015     1.0  0.95068  0.98108  0.93100  1.0000
  H   H1016     1.0  0.98946  0.99720  0.84941  1.0000
  H   H1017     1.0  0.98503  0.18067  0.55798  1.0000
  C   C863      1.0  0.71225  0.17865  0.94645  1.0000
  C   C864      1.0  0.81846  0.14878  0.52372  1.0000
  C   C865      1.0  0.86641  0.98964  0.98545  1.0000
  C   C866      1.0  0.93857  0.18978  0.57068  1.0000
  C   C867      1.0  0.88910  0.16679  0.77839  1.0000
  H   H1018     1.0  0.90407  0.18480  0.75596  1.0000
  H   H1019     1.0  0.97307  0.99553  0.96582  1.0000
  H   H1020     1.0  0.76826  0.18090  0.93160  1.0000
  H   H1021     1.0  0.81448  0.21749  0.64502  1.0000
  H   H1022     1.0  0.64215  0.21156  0.79875  1.0000
  H   H1023     1.0  0.93827  0.98582  0.78591  1.0000
  H   H1024     1.0  0.81953  0.21301  0.97675  1.0000
  Fe  Fe118     1.0  0.89865  0.21416  0.61895  1.0000
  C   C868      1.0  0.87223  0.00546  0.53377  1.0000
  H   H1025     1.0  0.74458  0.17986  0.90956  1.0000
  H   H1026     1.0  0.77612  0.19695  0.75402  1.0000
  H   H1027     1.0  0.86562  0.00120  0.97905  1.0000
  H   H1028     1.0  0.74748  0.19584  0.93133  1.0000
  S   S238      1.0  0.87851  0.21798  0.58019  1.0000
  C   C869      1.0  0.94640  0.18660  0.52258  1.0000
  N   N56       1.0  0.94645  0.19738  0.54555  1.0000
  H   H1029     1.0  0.70144  0.17330  0.96217  1.0000
  H   H1030     1.0  0.92057  0.98542  0.92724  1.0000
  C   C870      1.0  0.93732  0.99007  0.93260  1.0000
  H   H1031     1.0  0.69486  0.19040  0.80914  1.0000
  H   H1032     1.0  0.87626  0.15045  0.70693  1.0000
  N   N57       1.0  0.73681  0.17598  0.95210  1.0000
  H   H1033     1.0  0.76392  0.20216  0.81812  1.0000
  H   H1034     1.0  0.92790  0.21769  0.55619  1.0000
  C   C871      1.0  0.74629  0.20560  0.81496  1.0000
  H   H1035     1.0  0.95688  0.17637  0.52697  1.0000
  H   H1036     1.0  0.89994  0.00106  0.73512  1.0000
  C   C872      1.0  0.91857  0.00862  0.96046  1.0000
  H   H1037     1.0  0.85083  0.99546  0.56404  1.0000
  H   H1038     1.0  0.73605  0.15510  0.93013  1.0000
  H   H1039     1.0  0.70771  0.19078  0.94515  1.0000
  C   C873      1.0  0.98845  0.03095  0.89868  1.0000
  H   H1040     1.0  0.91722  0.01455  0.98033  1.0000
  H   H1041     1.0  0.86773  0.12859  0.51737  1.0000
  H   H1042     1.0  0.89619  0.17411  0.71050  1.0000
  C   C874      1.0  0.74716  0.20955  0.73862  1.0000
  H   H1043     1.0  0.73808  0.20939  0.75788  1.0000
  C   C875      1.0  0.87314  0.01371  0.50946  1.0000
  H   H1044     1.0  0.84938  0.14779  0.54693  1.0000
  C   C876      1.0  0.88928  0.99178  0.73988  1.0000
  H   H1045     1.0  0.92135  0.18526  0.56798  1.0000
  H   H1046     1.0  0.92142  0.01726  0.94451  1.0000
  C   C877      1.0  0.85138  0.97332  0.50070  1.0000
  C   C878      1.0  0.89154  0.16815  0.72895  1.0000
  H   H1047     1.0  0.66398  0.19983  0.78381  1.0000
  C   C879      1.0  0.70686  0.19927  0.80940  1.0000
  H   H1048     1.0  0.83687  0.14085  0.82013  1.0000
  H   H1049     1.0  0.68045  0.22232  0.75961  1.0000
  C   C880      1.0  0.84417  0.14672  0.80224  1.0000
  C   C881      1.0  0.95900  0.00406  0.96425  1.0000
  C   C882      1.0  0.86750  0.97791  0.77261  1.0000
  C   C883      1.0  0.87778  0.15300  0.77714  1.0000
  H   H1050     1.0  0.82474  0.99377  0.73286  1.0000
  H   H1051     1.0  0.86759  0.12299  0.78484  1.0000
  H   H1052     1.0  0.70731  0.17378  0.92647  1.0000
  C   C884      1.0  0.95226  0.97805  0.74748  1.0000
  C   C885      1.0  0.87344  0.14729  0.75064  1.0000
  C   C886      1.0  0.96972  0.20275  0.54978  1.0000
  C   C887      1.0  0.92948  0.20949  0.53913  1.0000
  C   C888      1.0  0.98783  0.19247  0.55600  1.0000
  H   H1053     1.0  0.83845  0.15865  0.80347  1.0000
  C   C889      1.0  0.80520  0.21668  0.66483  1.0000
  C   C890      1.0  0.84024  0.14331  0.52972  1.0000
  C   C891      1.0  0.87599  0.12917  0.80141  1.0000
  C   C892      1.0  0.85142  0.00236  0.54577  1.0000
  H   H1054     1.0  0.87163  0.14513  0.84602  1.0000
  H   H1055     1.0  0.78072  0.21633  0.61917  1.0000
  N   N58       1.0  0.93684  0.99690  0.96028  1.0000
  H   H1056     1.0  0.89665  0.15109  0.82857  1.0000
  H   H1057     1.0  0.87154  0.16322  0.83109  1.0000
  C   C893      1.0  0.87777  0.15150  0.82788  1.0000
  H   H1058     1.0  0.77948  0.17381  0.97478  1.0000
  H   H1059     1.0  0.83639  0.14192  0.78370  1.0000
  S   S239      1.0  0.84034  0.19619  0.60553  1.0000
  N   N59       1.0  0.86926  0.14529  0.80182  1.0000
  Fe  Fe119     1.0  0.84730  0.22069  0.60688  1.0000
  H   H1060     1.0  0.94104  0.99847  0.91644  1.0000
  C   C894      1.0  0.83082  0.17563  0.97693  1.0000
  C   C895      1.0  0.74978  0.18349  0.93026  1.0000
  H   H1061     1.0  0.89043  0.98311  0.69847  1.0000
  C   C896      1.0  0.93836  0.97711  0.77051  1.0000
  C   C897      1.0  0.70009  0.21460  0.80694  1.0000
  H   H1062     1.0  0.98815  0.04035  0.91252  1.0000
  H   H1063     1.0  0.55330  0.21351  0.97988  1.0000
  N   N60       1.0  0.78323  0.20926  0.66149  1.0000
  C   C898      1.0  0.80696  0.14368  0.50075  1.0000
  H   H1064     1.0  0.90179  0.00374  0.95627  1.0000
  C   C899      1.0  0.88401  0.98154  0.71900  1.0000
  H   H1065     1.0  0.93764  0.19768  0.58817  1.0000
  C   C900      1.0  0.76846  0.20248  0.73634  1.0000
  H   H1066     1.0  0.81082  0.15754  0.53631  1.0000
  H   H1067     1.0  0.79652  0.19687  0.71056  1.0000
  C   C901      1.0  0.85057  0.13255  0.51292  1.0000
  H   H1068     1.0  0.75983  0.15662  0.95211  1.0000
  C   C902      1.0  0.97513  0.21811  0.54826  1.0000
  H   H1069     1.0  0.96319  0.98748  0.74516  1.0000
  H   H1070     1.0  0.93389  0.21547  0.51993  1.0000
  C   C903      1.0  0.74407  0.18155  0.97912  1.0000
  C   C904      1.0  0.83205  0.01585  0.50930  1.0000
  C   C905      1.0  0.78006  0.20250  0.71133  1.0000
  C   C906      1.0  0.65999  0.20730  0.80143  1.0000
  C   C907      1.0  0.73756  0.21687  0.71609  1.0000
  C   C908      1.0  0.77066  0.20964  0.68779  1.0000
  H   H1071     1.0  0.95925  0.01110  0.98288  1.0000
  H   H1072     1.0  0.71156  0.19189  0.99235  1.0000
  H   H1073     1.0  0.80485  0.18879  0.49909  1.0000
  H   H1074     1.0  0.51791  0.22100  0.95565  1.0000
  H   H1075     1.0  0.79939  0.18742  0.66751  1.0000
  H   H1076     1.0  0.79605  0.19278  0.63271  1.0000
  C   C909      1.0  0.76692  0.17933  0.98776  1.0000
  C   C910      1.0  0.96271  0.22009  0.62320  1.0000
  H   H1077     1.0  0.81678  0.21053  0.67914  1.0000
  N   N61       1.0  0.67614  0.21969  0.80315  1.0000
  H   H1078     1.0  0.91219  0.20502  0.53608  1.0000
  Fe  Fe120     1.0  0.59351  0.44925  0.09875  1.0000
  S   S240      1.0  0.58440  0.42495  0.10367  1.0000
  H   H1079     1.0  0.61936  0.33716  0.16378  1.0000
  Fe  Fe121     1.0  0.60153  0.45312  0.16116  1.0000
  S   S241      1.0  0.59345  0.42933  0.17013  1.0000
  H   H1080     1.0  0.57081  0.33985  0.09897  1.0000
  Fe  Fe122     1.0  0.61397  0.42268  0.13284  1.0000
  S   S242      1.0  0.63726  0.40204  0.14194  1.0000
  Fe  Fe123     1.0  0.56463  0.43266  0.14073  1.0000
  S   S243      1.0  0.53160  0.42288  0.15470  1.0000
  S   S244      1.0  0.62462  0.44658  0.12562  1.0000
  Fe  Fe124     1.0  0.66624  0.31057  0.11670  1.0000
  S   S245      1.0  0.64222  0.29360  0.13384  1.0000
  S   S246      1.0  0.65376  0.33406  0.10261  1.0000
  Fe  Fe125     1.0  0.70562  0.28656  0.11110  1.0000
  S   S247      1.0  0.68404  0.26866  0.12816  1.0000
  S   S248      1.0  0.73905  0.27984  0.08992  1.0000
  Fe  Fe126     1.0  0.65640  0.27813  0.10100  1.0000
  S   S249      1.0  0.63862  0.26147  0.07378  1.0000
  Fe  Fe127     1.0  0.67222  0.28562  0.15931  1.0000
  S   S250      1.0  0.67585  0.27915  0.20445  1.0000
  S   S251      1.0  0.67842  0.29529  0.08252  1.0000
  S   S252      1.0  0.69571  0.30338  0.14367  1.0000
  Fe  Fe128     1.0  0.60840  0.25293  0.33761  1.0000
  S   S253      1.0  0.59136  0.23140  0.34771  1.0000
  S   S254      1.0  0.60220  0.26089  0.29378  1.0000
  Fe  Fe129     1.0  0.62200  0.25756  0.39797  1.0000
  S   S255      1.0  0.60518  0.23669  0.41152  1.0000
  S   S256      1.0  0.64293  0.27212  0.42589  1.0000
  H   H1081     1.0  0.54118  0.25159  0.30124  1.0000
  Fe  Fe130     1.0  0.57586  0.24372  0.38376  1.0000
  S   S257      1.0  0.53831  0.24750  0.39710  1.0000
  S   S258      1.0  0.64011  0.24723  0.36156  1.0000
  S   S259      1.0  0.59208  0.26544  0.37269  1.0000
  C   C911      1.0  0.62276  0.31266  0.49184  1.0000
  S   S260      1.0  0.82654  0.24650  0.14098  1.0000
  H   H1082     1.0  0.55056  0.27629  0.28254  1.0000
  H   H1083     1.0  0.64422  0.28739  0.03819  1.0000
  N   N62       1.0  0.57234  0.38049  0.15858  1.0000
  C   C912      1.0  0.96941  0.22981  0.12345  1.0000
  C   C913      1.0  0.60239  0.29523  0.46413  1.0000
  C   C914      1.0  0.50940  0.24354  0.38864  1.0000
  C   C915      1.0  0.59815  0.35723  0.16301  1.0000
  H   H1084     1.0  0.78107  0.30060  0.10537  1.0000
  C   C916      1.0  0.63481  0.26438  0.03809  1.0000
  C   C917      1.0  0.62773  0.25254  0.02160  1.0000
  C   C918      1.0  0.63033  0.26080  0.47658  1.0000
  C   C919      1.0  0.64457  0.27022  0.46206  1.0000
  C   C920      1.0  0.66025  0.27865  0.47662  1.0000
  H   H1085     1.0  0.56910  0.40280  0.14237  1.0000
  H   H1086     1.0  0.62439  0.24186  0.03092  1.0000
  H   H1087     1.0  0.61806  0.25434  0.46574  1.0000
  H   H1088     1.0  0.67136  0.28596  0.46556  1.0000
  H   H1089     1.0  0.57907  0.39783  0.18790  1.0000
  C   C921      1.0  0.65497  0.27415  0.22886  1.0000
  C   C922      1.0  0.63195  0.27348  0.22228  1.0000
  C   C923      1.0  0.61602  0.26950  0.24246  1.0000
  C   C924      1.0  0.62292  0.26612  0.26937  1.0000
  C   C925      1.0  0.64596  0.26667  0.27593  1.0000
  C   C926      1.0  0.66186  0.27067  0.25576  1.0000
  H   H1090     1.0  0.62642  0.27611  0.20168  1.0000
  H   H1091     1.0  0.59825  0.26906  0.23715  1.0000
  H   H1092     1.0  0.65151  0.26416  0.29656  1.0000
  H   H1093     1.0  0.67963  0.27122  0.26107  1.0000
  C   C927      1.0  0.76201  0.26931  0.10469  1.0000
  C   C928      1.0  0.77787  0.26193  0.08743  1.0000
  C   C929      1.0  0.79710  0.25422  0.09823  1.0000
  C   C930      1.0  0.80119  0.25435  0.12643  1.0000
  C   C931      1.0  0.78535  0.26179  0.14366  1.0000
  C   C932      1.0  0.76564  0.26895  0.13296  1.0000
  H   H1094     1.0  0.77548  0.26237  0.06549  1.0000
  H   H1095     1.0  0.80932  0.24880  0.08466  1.0000
  H   H1096     1.0  0.78854  0.26224  0.16541  1.0000
  H   H1097     1.0  0.75377  0.27474  0.14647  1.0000
  C   C933      1.0  0.64057  0.38302  0.13105  1.0000
  C   C934      1.0  0.63264  0.37802  0.10582  1.0000
  C   C935      1.0  0.63672  0.36304  0.09768  1.0000
  C   C936      1.0  0.64843  0.35271  0.11473  1.0000
  C   C937      1.0  0.65591  0.35762  0.14025  1.0000
  C   C938      1.0  0.65223  0.37268  0.14815  1.0000
  H   H1098     1.0  0.62387  0.38578  0.09222  1.0000
  H   H1099     1.0  0.63080  0.35943  0.07791  1.0000
  H   H1100     1.0  0.66466  0.34987  0.15387  1.0000
  H   H1101     1.0  0.65847  0.37636  0.16772  1.0000
  C   C939      1.0  0.50739  0.42895  0.13642  1.0000
  H   H1102     1.0  0.53086  0.25011  0.33570  1.0000
  C   C940      1.0  0.50930  0.43885  0.11446  1.0000
  S   S261      1.0  0.61281  0.47083  0.19202  1.0000
  H   H1103     1.0  0.52580  0.44273  0.10838  1.0000
  C   C941      1.0  0.59777  0.47036  0.02783  1.0000
  C   C942      1.0  0.50366  0.23296  0.36897  1.0000
  N   N63       1.0  0.68815  0.23209  0.43937  1.0000
  H   H1104     1.0  0.96285  0.22398  0.06469  1.0000
  Fe  Fe131     1.0  0.84960  0.22700  0.12646  1.0000
  H   H1105     1.0  0.52140  0.27230  0.36252  1.0000
  C   C943      1.0  0.59571  0.33695  0.13060  1.0000
  S   S262      1.0  0.57110  0.45690  0.13413  1.0000
  H   H1106     1.0  0.55692  0.36423  0.11523  1.0000
  H   H1107     1.0  0.70534  0.23398  0.08077  1.0000
  H   H1108     1.0  0.72791  0.23977  0.46419  1.0000
  H   H1109     1.0  0.58172  0.27985  0.48595  1.0000
  H   H1110     1.0  0.75156  0.35549  0.09543  1.0000
  H   H1111     1.0  0.51694  0.22637  0.35901  1.0000
  H   H1112     1.0  0.54806  0.28017  0.35638  1.0000
  C   C944      1.0  0.58047  0.36550  0.14949  1.0000
  H   H1113     1.0  0.56473  0.28155  0.31277  1.0000
  C   C945      1.0  0.67450  0.23403  0.48888  1.0000
  H   H1114     1.0  0.56442  0.46589  0.49134  1.0000
  C   C946      1.0  0.61420  0.46418  0.48884  1.0000
  C   C947      1.0  0.50250  0.27878  0.28238  1.0000
  N   N64       1.0  0.53150  0.27262  0.31974  1.0000
  C   C948      1.0  0.54819  0.37994  0.16711  1.0000
  H   H1115     1.0  0.62964  0.23444  0.30192  1.0000
  Fe  Fe132     1.0  0.62226  0.22657  0.37409  1.0000
  H   H1116     1.0  0.71580  0.26853  0.04134  1.0000
  C   C949      1.0  0.71373  0.23903  0.47817  1.0000
  C   C950      1.0  0.60544  0.34313  0.15369  1.0000
  N   N65       1.0  0.72592  0.33904  0.09911  1.0000
  C   C951      1.0  0.71051  0.34853  0.11633  1.0000
  H   H1117     1.0  0.78030  0.22885  0.05270  1.0000
  H   H1118     1.0  0.68530  0.24938  0.07970  1.0000
  C   C952      1.0  0.74094  0.32876  0.11516  1.0000
  C   C953      1.0  0.75606  0.31857  0.10160  1.0000
  C   C954      1.0  0.50240  0.46032  0.18901  1.0000
  C   C955      1.0  0.77018  0.30861  0.11622  1.0000
  H   H1119     1.0  0.61891  0.45490  0.47565  1.0000
  C   C956      1.0  0.76970  0.30847  0.14469  1.0000
  H   H1120     1.0  0.72005  0.35605  0.12988  1.0000
  H   H1121     1.0  0.69897  0.35584  0.10370  1.0000
  H   H1122     1.0  0.69919  0.34156  0.12907  1.0000
  H   H1123     1.0  0.58392  0.37929  0.20047  1.0000
  S   S263      1.0  0.58659  0.46315  0.05936  1.0000
  H   H1124     1.0  0.54594  0.37169  0.18389  1.0000
  H   H1125     1.0  0.55855  0.25677  0.32954  1.0000
  C   C957      1.0  0.69194  0.23504  0.46880  1.0000
  C   C958      1.0  0.66414  0.22909  0.43268  1.0000
  H   H1126     1.0  0.74493  0.23907  0.07115  1.0000
  H   H1127     1.0  0.63473  0.32154  0.49239  1.0000
  C   C959      1.0  0.57821  0.34468  0.11706  1.0000
  H   H1128     1.0  0.95530  0.23773  0.12135  1.0000
  H   H1129     1.0  0.78036  0.30049  0.15586  1.0000
  N   N66       1.0  0.70448  0.24594  0.04234  1.0000
  H   H1130     1.0  0.54161  0.29317  0.30070  1.0000
  H   H1131     1.0  0.75579  0.23250  0.22964  1.0000
  C   C960      1.0  0.72652  0.23979  0.03205  1.0000
  H   H1132     1.0  0.68577  0.25558  0.43026  1.0000
  H   H1133     1.0  0.51477  0.28420  0.26960  1.0000
  H   H1134     1.0  0.62535  0.31112  0.44783  1.0000
  H   H1135     1.0  0.78200  0.24007  0.19674  1.0000
  H   H1136     1.0  0.71453  0.25307  0.08264  1.0000
  H   H1137     1.0  0.59880  0.29047  0.44427  1.0000
  H   H1138     1.0  0.52247  0.29053  0.34736  1.0000
  C   C961      1.0  0.76602  0.23094  0.03908  1.0000
  C   C962      1.0  0.50828  0.27241  0.30824  1.0000
  H   H1139     1.0  0.68251  0.23951  0.00900  1.0000
  C   C963      1.0  0.61740  0.30687  0.46621  1.0000
  H   H1140     1.0  0.70137  0.32231  0.09262  1.0000
  H   H1141     1.0  0.75053  0.34285  0.06707  1.0000
  C   C964      1.0  0.64693  0.22881  0.25333  1.0000
  H   H1142     1.0  0.71325  0.24715  0.42356  1.0000
  C   C965      1.0  0.70248  0.24548  0.07266  1.0000
  H   H1143     1.0  0.72915  0.35728  0.07056  1.0000
  C   C966      1.0  0.57053  0.35868  0.12643  1.0000
  C   C967      1.0  0.74110  0.32848  0.14430  1.0000
  H   H1144     1.0  0.69901  0.33761  0.06926  1.0000
  H   H1145     1.0  0.60211  0.32628  0.12291  1.0000
  H   H1146     1.0  0.78445  0.22347  0.00331  1.0000
  C   C968      1.0  0.58536  0.38643  0.18194  1.0000
  C   C969      1.0  0.54762  0.28135  0.30309  1.0000
  H   H1147     1.0  0.74136  0.22858  0.27568  1.0000
  H   H1148     1.0  0.63281  0.46431  0.03530  1.0000
  C   C970      1.0  0.54087  0.25711  0.32161  1.0000
  H   H1149     1.0  0.75477  0.31814  0.18089  1.0000
  C   C971      1.0  0.63897  0.27815  0.02580  1.0000
  C   C972      1.0  0.53077  0.27922  0.34759  1.0000
  H   H1150     1.0  0.75679  0.31795  0.07954  1.0000
  C   C973      1.0  0.73992  0.34909  0.08231  1.0000
  C   C974      1.0  0.70169  0.26173  0.03354  1.0000
  H   H1151     1.0  0.73017  0.33571  0.15651  1.0000
  H   H1152     1.0  0.65988  0.23255  0.30573  1.0000
  C   C975      1.0  0.64419  0.22624  0.30208  1.0000
  H   H1153     1.0  0.49528  0.46280  0.29784  1.0000
  H   H1154     1.0  0.68826  0.22517  0.03435  1.0000
  H   H1155     1.0  0.60366  0.38750  0.17656  1.0000
  H   H1156     1.0  0.60706  0.36153  0.18041  1.0000
  H   H1157     1.0  0.59187  0.39166  0.12788  1.0000
  H   H1158     1.0  0.54164  0.39105  0.17448  1.0000
  H   H1159     1.0  0.72134  0.32383  0.06514  1.0000
  H   H1160     1.0  0.63131  0.23613  0.25232  1.0000
  C   C976      1.0  0.57415  0.39132  0.13573  1.0000
  C   C977      1.0  0.69475  0.24522  0.42285  1.0000
  H   H1161     1.0  0.49563  0.45061  0.46879  1.0000
  C   C978      1.0  0.71144  0.33034  0.08066  1.0000
  C   C979      1.0  0.75525  0.31841  0.15870  1.0000
  H   H1162     1.0  0.53695  0.37685  0.14996  1.0000
  H   H1163     1.0  0.81917  0.23172  0.21724  1.0000
  H   H1164     1.0  0.66897  0.24054  0.04123  1.0000
  H   H1165     1.0  0.56294  0.38881  0.11825  1.0000
  C   C980      1.0  0.62097  0.46973  0.02132  1.0000
  C   C981      1.0  0.74543  0.23677  0.04947  1.0000
  C   C982      1.0  0.76846  0.22803  0.01123  1.0000
  H   H1166     1.0  0.51494  0.45282  0.17950  1.0000
  C   C983      1.0  0.59283  0.28924  0.48767  1.0000
  C   C984      1.0  0.68540  0.23738  0.03116  1.0000
  H   H1167     1.0  0.49377  0.26015  0.34241  1.0000
  H   H1168     1.0  0.52538  0.46762  0.21994  1.0000
  H   H1169     1.0  0.78830  0.22967  0.16651  1.0000
  C   C985      1.0  0.78076  0.22880  0.18743  1.0000
  H   H1170     1.0  0.68549  0.26689  0.04138  1.0000
  H   H1171     1.0  0.70146  0.26291  0.01088  1.0000
  H   H1172     1.0  0.57309  0.46230  0.22499  1.0000
  H   H1173     1.0  0.66121  0.23654  0.25594  1.0000
  H   H1174     1.0  0.66179  0.22724  0.41037  1.0000
  H   H1175     1.0  0.69039  0.24394  0.40083  1.0000
  H   H1176     1.0  0.65267  0.23870  0.43837  1.0000
  H   H1177     1.0  0.65736  0.23113  0.48388  1.0000
  C   C986      1.0  0.50826  0.46859  0.21185  1.0000
  H   H1178     1.0  0.51677  0.46529  0.33743  1.0000
  C   C987      1.0  0.72984  0.23708  0.00366  1.0000
  C   C988      1.0  0.58262  0.47021  0.23661  1.0000
  H   H1179     1.0  0.49563  0.25996  0.41682  1.0000
  H   H1180     1.0  0.55952  0.47036  0.27104  1.0000
  H   H1181     1.0  0.64867  0.22318  0.23313  1.0000
  C   C989      1.0  0.76445  0.22412  0.24200  1.0000
  H   H1182     1.0  0.76258  0.22623  0.18455  1.0000
  C   C990      1.0  0.63579  0.28010  0.99746  1.0000
  H   H1183     1.0  0.82428  0.22316  0.18452  1.0000
  Fe  Fe133     1.0  0.60088  0.45139  0.59994  1.0000
  S   S264      1.0  0.59468  0.42781  0.58681  1.0000
  C   C991      1.0  0.59081  0.45977  0.76147  1.0000
  Fe  Fe134     1.0  0.59305  0.44436  0.66185  1.0000
  S   S265      1.0  0.58550  0.42036  0.65205  1.0000
  H   H1184     1.0  0.65111  0.23343  0.82400  1.0000
  Fe  Fe135     1.0  0.61532  0.42034  0.62354  1.0000
  S   S266      1.0  0.64328  0.40183  0.62610  1.0000
  Fe  Fe136     1.0  0.56536  0.42936  0.61647  1.0000
  S   S267      1.0  0.53249  0.41873  0.60458  1.0000
  S   S268      1.0  0.62420  0.44403  0.63474  1.0000
  Fe  Fe137     1.0  0.66530  0.30883  0.62228  1.0000
  S   S269      1.0  0.64129  0.28988  0.61952  1.0000
  S   S270      1.0  0.64220  0.33010  0.61995  1.0000
  Fe  Fe138     1.0  0.70534  0.28587  0.62803  1.0000
  S   S271      1.0  0.68303  0.26600  0.62540  1.0000
  S   S272      1.0  0.74282  0.28226  0.63958  1.0000
  Fe  Fe139     1.0  0.66589  0.27866  0.59079  1.0000
  S   S273      1.0  0.64813  0.26651  0.55617  1.0000
  Fe  Fe140     1.0  0.66009  0.27894  0.65421  1.0000
  S   S274      1.0  0.63732  0.26849  0.68640  1.0000
  S   S275      1.0  0.68952  0.29800  0.59140  1.0000
  S   S276      1.0  0.68288  0.29833  0.65893  1.0000
  Fe  Fe141     1.0  0.62641  0.25449  0.84781  1.0000
  H   H1185     1.0  0.66966  0.22286  0.84611  1.0000
  S   S277      1.0  0.64899  0.26557  0.81595  1.0000
  Fe  Fe142     1.0  0.61757  0.25577  0.91041  1.0000
  S   S278      1.0  0.59626  0.23533  0.90987  1.0000
  S   S279      1.0  0.62419  0.27173  0.94561  1.0000
  H   H1186     1.0  0.51156  0.24629  0.93966  1.0000
  Fe  Fe143     1.0  0.57978  0.24527  0.87198  1.0000
  S   S280      1.0  0.54169  0.25028  0.86294  1.0000
  S   S281      1.0  0.64569  0.24577  0.88456  1.0000
  S   S282      1.0  0.60014  0.26626  0.87388  1.0000
  H   H1187     1.0  0.59104  0.46766  0.80342  1.0000
  H   H1188     1.0  0.83443  0.28712  0.63218  1.0000
  H   H1189     1.0  0.70768  0.37226  0.72720  1.0000
  H   H1190     1.0  0.66270  0.39839  0.67694  1.0000
  H   H1191     1.0  0.55993  0.26519  0.90761  1.0000
  H   H1192     1.0  0.52437  0.22529  0.89609  1.0000
  C   C992      1.0  0.51001  0.23171  0.88811  1.0000
  C   C993      1.0  0.51378  0.24404  0.87120  1.0000
  C   C994      1.0  0.60750  0.30613  0.56662  1.0000
  C   C995      1.0  0.52729  0.24388  0.95030  1.0000
  C   C996      1.0  0.64718  0.26844  0.51995  1.0000
  H   H1193     1.0  0.58279  0.23206  0.98799  1.0000
  C   C997      1.0  0.70002  0.24148  0.52475  1.0000
  C   C998      1.0  0.62881  0.26829  0.98094  1.0000
  H   H1194     1.0  0.57681  0.27289  0.93409  1.0000
  H   H1195     1.0  0.64898  0.29875  0.54798  1.0000
  H   H1196     1.0  0.62038  0.25271  0.51637  1.0000
  H   H1197     1.0  0.83084  0.26993  0.59316  1.0000
  H   H1198     1.0  0.65381  0.43045  0.75038  1.0000
  H   H1199     1.0  0.49729  0.26165  0.84777  1.0000
  C   C999      1.0  0.64144  0.26729  0.72225  1.0000
  C   C1000     1.0  0.66015  0.27346  0.73504  1.0000
  C   C1001     1.0  0.66215  0.27283  0.76376  1.0000
  C   C1002     1.0  0.64556  0.26602  0.77995  1.0000
  C   C1003     1.0  0.62697  0.25974  0.76714  1.0000
  C   C1004     1.0  0.62494  0.26041  0.73843  1.0000
  H   H1200     1.0  0.67297  0.27879  0.72283  1.0000
  H   H1201     1.0  0.67661  0.27771  0.77352  1.0000
  H   H1202     1.0  0.61406  0.25449  0.77935  1.0000
  H   H1203     1.0  0.61037  0.25564  0.72871  1.0000
  C   C1005     1.0  0.76222  0.26809  0.62751  1.0000
  C   C1006     1.0  0.78228  0.26488  0.64232  1.0000
  C   C1007     1.0  0.79874  0.25436  0.63261  1.0000
  C   C1008     1.0  0.79557  0.24722  0.60754  1.0000
  C   C1009     1.0  0.77543  0.25031  0.59293  1.0000
  C   C1010     1.0  0.75873  0.26053  0.60296  1.0000
  H   H1204     1.0  0.78518  0.27070  0.66128  1.0000
  H   H1205     1.0  0.81417  0.25219  0.64404  1.0000
  H   H1206     1.0  0.77280  0.24488  0.57350  1.0000
  H   H1207     1.0  0.74351  0.26294  0.59125  1.0000
  C   C1011     1.0  0.64253  0.38189  0.62416  1.0000
  C   C1012     1.0  0.62227  0.37429  0.62129  1.0000
  C   C1013     1.0  0.62261  0.35851  0.62001  1.0000
  C   C1014     1.0  0.64312  0.35004  0.62166  1.0000
  C   C1015     1.0  0.66338  0.35763  0.62473  1.0000
  C   C1016     1.0  0.66304  0.37342  0.62599  1.0000
  H   H1208     1.0  0.60633  0.38056  0.61990  1.0000
  H   H1209     1.0  0.60678  0.35283  0.61776  1.0000
  H   H1210     1.0  0.67932  0.35136  0.62596  1.0000
  H   H1211     1.0  0.67885  0.37913  0.62808  1.0000
  C   C1017     1.0  0.50649  0.42853  0.60962  1.0000
  H   H1212     1.0  0.65584  0.23202  0.77349  1.0000
  N   N67       1.0  0.54129  0.27035  0.94421  1.0000
  H   H1213     1.0  0.52141  0.44973  0.61723  1.0000
  H   H1214     1.0  0.51788  0.28522  0.92259  1.0000
  C   C1018     1.0  0.62505  0.25441  0.99309  1.0000
  H   H1215     1.0  0.62397  0.33576  0.52894  1.0000
  C   C1019     1.0  0.66165  0.27773  0.50541  1.0000
  H   H1216     1.0  0.61594  0.45081  0.52593  1.0000
  S   S283      1.0  0.60530  0.23418  0.84303  1.0000
  C   C1020     1.0  0.55975  0.27346  0.92451  1.0000
  H   H1217     1.0  0.62473  0.40493  0.68616  1.0000
  C   C1021     1.0  0.55063  0.22495  0.97308  1.0000
  N   N68       1.0  0.90535  0.26563  0.65732  1.0000
  C   C1022     1.0  0.92619  0.26640  0.64020  1.0000
  C   C1023     1.0  0.90671  0.27739  0.67857  1.0000
  C   C1024     1.0  0.90535  0.25099  0.67157  1.0000
  C   C1025     1.0  0.88490  0.26716  0.63985  1.0000
  C   C1026     1.0  0.88198  0.25735  0.61743  1.0000
  C   C1027     1.0  0.86715  0.27798  0.64478  1.0000
  C   C1028     1.0  0.84587  0.26929  0.60595  1.0000
  C   C1029     1.0  0.84796  0.27894  0.62800  1.0000
  C   C1030     1.0  0.66888  0.22918  0.82653  1.0000
  H   H1218     1.0  0.92633  0.27698  0.62818  1.0000
  H   H1219     1.0  0.94192  0.26568  0.65278  1.0000
  H   H1220     1.0  0.92789  0.25705  0.62543  1.0000
  H   H1221     1.0  0.90672  0.28874  0.66919  1.0000
  H   H1222     1.0  0.92257  0.27612  0.69082  1.0000
  H   H1223     1.0  0.89240  0.27685  0.69347  1.0000
  H   H1224     1.0  0.90552  0.24152  0.65701  1.0000
  H   H1225     1.0  0.92062  0.24924  0.68472  1.0000
  H   H1226     1.0  0.88994  0.24992  0.68462  1.0000
  H   H1227     1.0  0.89441  0.24858  0.61278  1.0000
  H   H1228     1.0  0.86756  0.28579  0.66151  1.0000
  C   C1031     1.0  0.59630  0.46267  0.73385  1.0000
  C   C1032     1.0  0.54400  0.25479  0.95429  1.0000
  H   H1229     1.0  0.71364  0.23702  0.80715  1.0000
  C   C1033     1.0  0.61382  0.32937  0.54390  1.0000
  H   H1230     1.0  0.76776  0.22898  0.64296  1.0000
  H   H1231     1.0  0.57766  0.25770  0.97176  1.0000
  S   S284      1.0  0.57023  0.45324  0.62805  1.0000
  C   C1034     1.0  0.63159  0.25998  0.50534  1.0000
  H   H1232     1.0  0.71660  0.23974  0.98903  1.0000
  H   H1233     1.0  0.66494  0.23676  0.53130  1.0000
  H   H1234     1.0  0.69124  0.37839  0.68179  1.0000
  H   H1235     1.0  0.61742  0.33427  0.56436  1.0000
  H   H1236     1.0  0.61209  0.29399  0.56839  1.0000
  C   C1035     1.0  0.75044  0.23114  0.99354  1.0000
  H   H1237     1.0  0.61219  0.31127  0.58647  1.0000
  H   H1238     1.0  0.86076  0.25085  0.58380  1.0000
  H   H1239     1.0  0.65457  0.31624  0.53181  1.0000
  H   H1240     1.0  0.63147  0.41751  0.75821  1.0000
  H   H1241     1.0  0.53989  0.29266  0.96076  1.0000
  C   C1036     1.0  0.59522  0.47019  0.78237  1.0000
  C   C1037     1.0  0.56406  0.25009  0.96832  1.0000
  H   H1242     1.0  0.67404  0.28408  0.51625  1.0000
  C   C1038     1.0  0.61250  0.46180  0.51740  1.0000
  H   H1243     1.0  0.66680  0.40665  0.76441  1.0000
  H   H1244     1.0  0.75262  0.22910  0.97179  1.0000
  H   H1245     1.0  0.61978  0.24522  0.98057  1.0000
  H   H1246     1.0  0.52981  0.27837  0.98345  1.0000
  H   H1247     1.0  0.64941  0.31557  0.56774  1.0000
  C   C1039     1.0  0.64416  0.31084  0.54779  1.0000
  H   H1248     1.0  0.97421  0.24247  0.61681  1.0000
  H   H1249     1.0  0.49964  0.43333  0.55058  1.0000
  H   H1250     1.0  0.63866  0.29089  0.98826  1.0000
  H   H1251     1.0  0.59077  0.28929  0.53079  1.0000
  C   C1040     1.0  0.67389  0.22867  0.77764  1.0000
  S   S285      1.0  0.59039  0.44889  0.70851  1.0000
  C   C1041     1.0  0.54270  0.28087  0.96748  1.0000
  H   H1252     1.0  0.58875  0.30753  0.56472  1.0000
  H   H1253     1.0  0.61724  0.40095  0.72110  1.0000
  H   H1254     1.0  0.70285  0.24430  0.54601  1.0000
  C   C1042     1.0  0.51939  0.27347  0.92999  1.0000
  C   C1043     1.0  0.86280  0.25851  0.60072  1.0000
  C   C1044     1.0  0.68574  0.38465  0.69973  1.0000
  C   C1045     1.0  0.68789  0.38930  0.74821  1.0000
  C   C1046     1.0  0.67864  0.23719  0.51640  1.0000
  C   C1047     1.0  0.97941  0.23096  0.62042  1.0000
  C   C1048     1.0  0.69497  0.38120  0.72524  1.0000
  S   S286      1.0  0.81635  0.23476  0.59291  1.0000
  H   H1255     1.0  0.62553  0.43396  0.73881  1.0000
  C   C1049     1.0  0.50016  0.44181  0.50936  1.0000
  H   H1256     1.0  0.51781  0.26635  0.91146  1.0000
  N   N69       1.0  0.61944  0.31311  0.54322  1.0000
  C   C1050     1.0  0.53071  0.22919  0.95950  1.0000
  C   C1051     1.0  0.55209  0.46746  0.50755  1.0000
  H   H1257     1.0  0.55781  0.28475  0.91512  1.0000
  N   N70       1.0  0.61097  0.31409  0.70312  1.0000
  C   C1052     1.0  0.61524  0.30589  0.67725  1.0000
  C   C1053     1.0  0.62360  0.30631  0.72553  1.0000
  C   C1054     1.0  0.58637  0.31326  0.70954  1.0000
  C   C1055     1.0  0.61886  0.32955  0.69988  1.0000
  C   C1056     1.0  0.60375  0.34225  0.69943  1.0000
  C   C1057     1.0  0.64224  0.33217  0.69541  1.0000
  C   C1058     1.0  0.61170  0.35659  0.69465  1.0000
  C   C1059     1.0  0.65000  0.34656  0.69086  1.0000
  C   C1060     1.0  0.63475  0.35873  0.69034  1.0000
  H   H1258     1.0  0.63367  0.30447  0.67279  1.0000
  H   H1259     1.0  0.60840  0.29443  0.67794  1.0000
  H   H1260     1.0  0.60749  0.31191  0.65945  1.0000
  H   H1261     1.0  0.64192  0.30447  0.72071  1.0000
  H   H1262     1.0  0.61708  0.29494  0.72944  1.0000
  H   H1263     1.0  0.62224  0.31267  0.74501  1.0000
  H   H1264     1.0  0.57570  0.31776  0.69248  1.0000
  H   H1265     1.0  0.58124  0.30149  0.71264  1.0000
  H   H1266     1.0  0.58196  0.31937  0.72873  1.0000
  H   H1267     1.0  0.58565  0.34139  0.70211  1.0000
  H   H1268     1.0  0.65460  0.32303  0.69435  1.0000
  H   H1269     1.0  0.59984  0.36607  0.69353  1.0000
  H   H1270     1.0  0.66781  0.34819  0.68652  1.0000
  H   H1271     1.0  0.64070  0.36978  0.68565  1.0000
  H   H1272     1.0  0.67926  0.23925  0.82881  1.0000
  H   H1273     1.0  0.58310  0.44934  0.76677  1.0000
  C   C1061     1.0  0.53974  0.45926  0.55237  1.0000
  N   N71       1.0  0.64400  0.41661  0.71658  1.0000
  C   C1062     1.0  0.65134  0.42768  0.69592  1.0000
  C   C1063     1.0  0.62278  0.40989  0.70695  1.0000
  C   C1064     1.0  0.63861  0.42491  0.74222  1.0000
  C   C1065     1.0  0.66176  0.40470  0.71999  1.0000
  C   C1066     1.0  0.66940  0.39619  0.69712  1.0000
  C   C1067     1.0  0.67151  0.40088  0.74578  1.0000
  H   H1274     1.0  0.50460  0.27161  0.94369  1.0000
  H   H1275     1.0  0.59554  0.33162  0.53935  1.0000
  S   S287      1.0  0.93321  0.22575  0.62049  1.0000
  H   H1276     1.0  0.65303  0.42284  0.67503  1.0000
  H   H1277     1.0  0.63878  0.43720  0.69400  1.0000
  H   H1278     1.0  0.66797  0.43237  0.70144  1.0000
  H   H1279     1.0  0.60861  0.41838  0.70556  1.0000
  C   C1068     1.0  0.55441  0.45785  0.53008  1.0000
  H   H1280     1.0  0.68302  0.23934  0.77878  1.0000
  C   C1069     1.0  0.59824  0.29483  0.51345  1.0000
  H   H1281     1.0  0.54181  0.45182  0.56983  1.0000
  H   H1282     1.0  0.73428  0.24556  0.51234  1.0000
  H   H1283     1.0  0.69515  0.38658  0.76804  1.0000
  C   C1070     1.0  0.71760  0.24228  0.50571  1.0000
  C   C1071     1.0  0.50580  0.44382  0.61518  1.0000
  C   C1072     1.0  0.61330  0.30685  0.51631  1.0000
  Fe  Fe144     1.0  0.62362  0.22603  0.88108  1.0000
  H   H1284     1.0  0.80254  0.22825  0.67272  1.0000
  H   H1285     1.0  0.75323  0.22897  0.81416  1.0000
  H   H1286     1.0  0.56805  0.44943  0.53061  1.0000
  H   H1287     1.0  0.55968  0.28033  0.97741  1.0000
  H   H1288     1.0  0.51846  0.44067  0.50753  1.0000
  C   C1073     1.0  0.56722  0.23540  0.97761  1.0000
  C   C1074     1.0  0.49471  0.25212  0.86094  1.0000
  C   C1075     1.0  0.52271  0.47038  0.55235  1.0000
  C   C1076     1.0  0.71753  0.22517  0.80862  1.0000
  S   S288      1.0  0.60552  0.47161  0.57127  1.0000
  H   H1289     1.0  0.96253  0.22681  0.54425  1.0000
  H   H1290     1.0  0.74067  0.22297  0.67447  1.0000
  H   H1291     1.0  0.51151  0.47152  0.56996  1.0000
  H   H1292     1.0  0.72110  0.22254  0.71804  1.0000
  Fe  Fe145     1.0  0.69907  0.66194  0.38013  1.0000
  S   S289      1.0  0.67744  0.68287  0.38128  1.0000
  S   S290      1.0  0.73796  0.66295  0.38101  1.0000
  Fe  Fe146     1.0  0.65746  0.64139  0.38214  1.0000
  S   S291      1.0  0.63383  0.66171  0.38468  1.0000
  S   S292      1.0  0.63559  0.62033  0.37839  1.0000
  Fe  Fe147     1.0  0.65493  0.67157  0.35121  1.0000
  S   S293      1.0  0.63435  0.68495  0.31946  1.0000
  Fe  Fe148     1.0  0.65811  0.67129  0.41462  1.0000
  S   S294      1.0  0.64852  0.68713  0.44963  1.0000
  S   S295      1.0  0.67793  0.65114  0.34731  1.0000
  S   S296      1.0  0.68057  0.65053  0.41489  1.0000
  S   S297      1.0  0.63823  0.70547  0.12294  1.0000
  Fe  Fe149     1.0  0.57179  0.70733  0.12519  1.0000
  S   S298      1.0  0.59305  0.68576  0.12560  1.0000
  H   H1293     1.0  0.62214  0.49915  0.16638  1.0000
  Fe  Fe150     1.0  0.61544  0.69695  0.15599  1.0000
  S   S299      1.0  0.63510  0.68393  0.18895  1.0000
  Fe  Fe151     1.0  0.61423  0.69600  0.09247  1.0000
  S   S300      1.0  0.63367  0.68260  0.05977  1.0000
  C   C1077     1.0  0.60418  0.49029  0.49469  1.0000
  Fe  Fe152     1.0  0.60592  0.53001  0.38371  1.0000
  S   S301      1.0  0.61920  0.50655  0.37336  1.0000
  S   S302      1.0  0.63282  0.54834  0.38537  1.0000
  Fe  Fe153     1.0  0.55889  0.51845  0.39665  1.0000
  S   S303      1.0  0.56920  0.49489  0.38703  1.0000
  S   S304      1.0  0.52445  0.52029  0.41683  1.0000
  Fe  Fe154     1.0  0.60042  0.49919  0.41135  1.0000
  H   H1294     1.0  0.60122  0.50135  0.48626  1.0000
  Fe  Fe155     1.0  0.58659  0.50403  0.34962  1.0000
  S   S305      1.0  0.57613  0.49061  0.31142  1.0000
  S   S306      1.0  0.58919  0.52243  0.42294  1.0000
  S   S307      1.0  0.57414  0.52779  0.35803  1.0000
  H   H1295     1.0  0.72876  0.69519  0.37311  1.0000
  C   C1078     1.0  0.58662  0.68054  0.46024  1.0000
  C   C1079     1.0  0.77876  0.71134  0.48400  1.0000
  H   H1296     1.0  0.65250  0.48980  0.11702  1.0000
  C   C1080     1.0  0.49302  0.70999  0.05315  1.0000
  H   H1297     1.0  0.63532  0.47885  0.13944  1.0000
  H   H1298     1.0  0.68900  0.49834  0.42396  1.0000
  C   C1081     1.0  0.58712  0.48506  0.27855  1.0000
  C   C1082     1.0  0.60713  0.49064  0.26747  1.0000
  C   C1083     1.0  0.61469  0.48613  0.24112  1.0000
  C   C1084     1.0  0.60258  0.47585  0.22549  1.0000
  H   H1299     1.0  0.63836  0.52447  0.42357  1.0000
  H   H1300     1.0  0.61673  0.49850  0.27911  1.0000
  N   N72       1.0  0.50554  0.48807  0.32951  1.0000
  C   C1085     1.0  0.50429  0.53098  0.36974  1.0000
  C   C1086     1.0  0.57494  0.47484  0.26282  1.0000
  C   C1087     1.0  0.69006  0.51732  0.48827  1.0000
  H   H1301     1.0  0.52117  0.53355  0.36272  1.0000
  H   H1302     1.0  0.50626  0.71073  0.06849  1.0000
  C   C1088     1.0  0.77711  0.70471  0.45838  1.0000
  C   C1089     1.0  0.50011  0.49089  0.35876  1.0000
  N   N73       1.0  0.79872  0.71823  0.29212  1.0000
  C   C1090     1.0  0.61103  0.64089  0.25214  1.0000
  C   C1091     1.0  0.63533  0.60029  0.38072  1.0000
  C   C1092     1.0  0.65495  0.59143  0.38537  1.0000
  C   C1093     1.0  0.65378  0.57566  0.38669  1.0000
  C   C1094     1.0  0.63302  0.56840  0.38350  1.0000
  C   C1095     1.0  0.61339  0.57727  0.37889  1.0000
  C   C1096     1.0  0.61458  0.59303  0.37745  1.0000
  H   H1303     1.0  0.67107  0.59671  0.38787  1.0000
  H   H1304     1.0  0.66914  0.56903  0.39017  1.0000
  H   H1305     1.0  0.59727  0.57198  0.37640  1.0000
  H   H1306     1.0  0.59922  0.59966  0.37393  1.0000
  C   C1097     1.0  0.63575  0.68507  0.28316  1.0000
  C   C1098     1.0  0.62085  0.69470  0.26852  1.0000
  C   C1099     1.0  0.62063  0.69474  0.23965  1.0000
  C   C1100     1.0  0.63530  0.68505  0.22517  1.0000
  C   C1101     1.0  0.65049  0.67563  0.23980  1.0000
  C   C1102     1.0  0.65082  0.67568  0.26863  1.0000
  H   H1307     1.0  0.60913  0.70201  0.27961  1.0000
  H   H1308     1.0  0.60878  0.70197  0.22866  1.0000
  H   H1309     1.0  0.66195  0.66814  0.22874  1.0000
  H   H1310     1.0  0.66266  0.66840  0.27953  1.0000
  H   H1311     1.0  0.67819  0.53817  0.44716  1.0000
  C   C1103     1.0  0.63504  0.48576  0.12040  1.0000
  H   H1312     1.0  0.53930  0.51291  0.47612  1.0000
  C   C1104     1.0  0.63288  0.68235  0.02343  1.0000
  H   H1313     1.0  0.77790  0.70317  0.26975  1.0000
  H   H1314     1.0  0.64829  0.71475  0.18270  1.0000
  H   H1315     1.0  0.55672  0.71079  0.48317  1.0000
  H   H1316     1.0  0.66141  0.66677  0.02093  1.0000
  H   H1317     1.0  0.60446  0.69779  0.01879  1.0000
  H   H1318     1.0  0.68823  0.70959  0.06190  1.0000
  C   C1105     1.0  0.75569  0.67874  0.37899  1.0000
  C   C1106     1.0  0.77935  0.67660  0.38184  1.0000
  C   C1107     1.0  0.79400  0.68882  0.38156  1.0000
  C   C1108     1.0  0.78512  0.70339  0.37863  1.0000
  C   C1109     1.0  0.76148  0.70553  0.37560  1.0000
  C   C1110     1.0  0.74687  0.69331  0.37558  1.0000
  H   H1319     1.0  0.78643  0.66540  0.38444  1.0000
  H   H1320     1.0  0.81212  0.68694  0.38385  1.0000
  C   C1111     1.0  0.60992  0.47839  0.47723  1.0000
  C   C1112     1.0  0.75910  0.69542  0.45267  1.0000
  H   H1321     1.0  0.61171  0.48976  0.06935  1.0000
  H   H1322     1.0  0.69280  0.71000  0.02503  1.0000
  S   S308      1.0  0.59354  0.71798  0.15774  1.0000
  S   S309      1.0  0.53293  0.70303  0.12581  1.0000
  C   C1113     1.0  0.67445  0.50987  0.47131  1.0000
  N   N74       1.0  0.72337  0.68244  0.46580  1.0000
  H   H1323     1.0  0.67597  0.53184  0.41298  1.0000
  H   H1324     1.0  0.57271  0.70028  0.44094  1.0000
  C   C1114     1.0  0.59520  0.49234  0.12500  1.0000
  H   H1325     1.0  0.96997  0.70709  0.39202  1.0000
  C   C1115     1.0  0.64378  0.52004  0.44389  1.0000
  H   H1326     1.0  0.72094  0.68880  0.42308  1.0000
  H   H1327     1.0  0.64044  0.51109  0.14790  1.0000
  H   H1328     1.0  0.56475  0.48563  0.46323  1.0000
  C   C1116     1.0  0.49839  0.70475  0.02706  1.0000
  C   C1117     1.0  0.50852  0.49134  0.47491  1.0000
  H   H1329     1.0  0.57460  0.67759  0.25037  1.0000
  C   C1118     1.0  0.58438  0.66715  0.25094  1.0000
  C   C1119     1.0  0.61709  0.69089  0.00829  1.0000
  H   H1330     1.0  0.59410  0.67613  0.44151  1.0000
  H   H1331     1.0  0.69973  0.52539  0.43309  1.0000
  C   C1120     1.0  0.58280  0.47757  0.00920  1.0000
  H   H1332     1.0  0.56484  0.47822  0.01391  1.0000
  C   C1121     1.0  0.77615  0.71256  0.28454  1.0000
  H   H1333     1.0  0.51554  0.49354  0.37075  1.0000
  C   C1122     1.0  0.54622  0.48532  0.45929  1.0000
  C   C1123     1.0  0.54026  0.50447  0.49298  1.0000
  H   H1334     1.0  0.65955  0.49380  0.42662  1.0000
  H   H1335     1.0  0.49741  0.49683  0.49053  1.0000
  H   H1336     1.0  0.61259  0.50480  0.02784  1.0000
  S   S310      1.0  0.80255  0.71933  0.37823  1.0000
  C   C1124     1.0  0.73297  0.66743  0.45867  1.0000
  H   H1337     1.0  0.66799  0.50713  0.40202  1.0000
  H   H1338     1.0  0.76684  0.70830  0.30276  1.0000
  H   H1339     1.0  0.64910  0.72049  0.23319  1.0000
  H   H1340     1.0  0.54211  0.47397  0.45209  1.0000
  H   H1341     1.0  0.62173  0.63089  0.25153  1.0000
  C   C1125     1.0  0.59260  0.66098  0.22660  1.0000
  S   S311      1.0  0.61294  0.48078  0.44105  1.0000
  C   C1126     1.0  0.97357  0.71856  0.38705  1.0000
  C   C1127     1.0  0.50399  0.70964  0.13042  1.0000
  N   N75       1.0  0.60964  0.63964  0.30360  1.0000
  C   C1128     1.0  0.63464  0.63965  0.30652  1.0000
  C   C1129     1.0  0.59966  0.64716  0.32811  1.0000
  C   C1130     1.0  0.60226  0.62395  0.30399  1.0000
  C   C1131     1.0  0.60315  0.64695  0.27741  1.0000
  C   C1132     1.0  0.58966  0.66038  0.27606  1.0000
  H   H1342     1.0  0.64075  0.65128  0.30660  1.0000
  H   H1343     1.0  0.64021  0.63418  0.32595  1.0000
  H   H1344     1.0  0.64368  0.63357  0.28978  1.0000
  H   H1345     1.0  0.60564  0.65879  0.33011  1.0000
  H   H1346     1.0  0.60476  0.64130  0.34741  1.0000
  H   H1347     1.0  0.58079  0.64743  0.32754  1.0000
  H   H1348     1.0  0.61095  0.61701  0.28810  1.0000
  H   H1349     1.0  0.60627  0.61838  0.32397  1.0000
  H   H1350     1.0  0.58363  0.62340  0.30068  1.0000
  H   H1351     1.0  0.58353  0.66614  0.29412  1.0000
  H   H1352     1.0  0.64491  0.71614  0.00985  1.0000
  C   C1133     1.0  0.58941  0.67270  0.48470  1.0000
  H   H1353     1.0  0.53143  0.50462  0.32875  1.0000
  H   H1354     1.0  0.63251  0.51068  0.44895  1.0000
  N   N76       1.0  0.61826  0.49841  0.12240  1.0000
  C   C1134     1.0  0.52314  0.47584  0.32865  1.0000
  C   C1135     1.0  0.71047  0.68843  0.44199  1.0000
  C   C1136     1.0  0.62304  0.50659  0.14806  1.0000
  C   C1137     1.0  0.61940  0.50777  0.09741  1.0000
  C   C1138     1.0  0.61542  0.50144  0.07136  1.0000
  C   C1139     1.0  0.62403  0.52326  0.09801  1.0000
  C   C1140     1.0  0.61588  0.51000  0.04742  1.0000
  C   C1141     1.0  0.62445  0.53176  0.07391  1.0000
  C   C1142     1.0  0.62033  0.52515  0.04870  1.0000
  H   H1355     1.0  0.49671  0.48443  0.24212  1.0000
  H   H1356     1.0  0.69590  0.68133  0.43705  1.0000
  H   H1357     1.0  0.53842  0.47867  0.34076  1.0000
  H   H1358     1.0  0.63015  0.49059  0.23289  1.0000
  H   H1359     1.0  0.69311  0.67285  0.48268  1.0000
  H   H1360     1.0  0.69871  0.52714  0.48158  1.0000
  H   H1361     1.0  0.62045  0.53177  0.03012  1.0000
  H   H1362     1.0  0.67791  0.71797  0.18009  1.0000
  H   H1363     1.0  0.62727  0.52909  0.11682  1.0000
  H   H1364     1.0  0.59117  0.48466  0.10795  1.0000
  H   H1365     1.0  0.58194  0.50144  0.12514  1.0000
  H   H1366     1.0  0.52944  0.47380  0.30745  1.0000
  C   C1143     1.0  0.70685  0.68050  0.48853  1.0000
  C   C1144     1.0  0.50120  0.52479  0.39573  1.0000
  H   H1367     1.0  0.54323  0.49317  0.44186  1.0000
  C   C1145     1.0  0.60591  0.64789  0.22719  1.0000
  C   C1146     1.0  0.81090  0.70613  0.30757  1.0000
  H   H1368     1.0  0.63928  0.71535  0.06136  1.0000
  C   C1147     1.0  0.57471  0.69419  0.46003  1.0000
  H   H1369     1.0  0.62788  0.54357  0.07483  1.0000
  H   H1370     1.0  0.63119  0.47803  0.10340  1.0000
  H   H1371     1.0  0.66861  0.70144  0.03928  1.0000
  C   C1148     1.0  0.56580  0.70016  0.48437  1.0000
  C   C1149     1.0  0.64552  0.66974  0.49678  1.0000
  H   H1372     1.0  0.59894  0.66216  0.48479  1.0000
  H   H1373     1.0  0.58926  0.66661  0.20726  1.0000
  H   H1374     1.0  0.74380  0.66762  0.43997  1.0000
  H   H1375     1.0  0.75873  0.69042  0.43261  1.0000
  C   C1150     1.0  0.68121  0.52819  0.43398  1.0000
  H   H1376     1.0  0.59333  0.48581  0.14428  1.0000
  H   H1377     1.0  0.64036  0.52904  0.45915  1.0000
  H   H1378     1.0  0.61276  0.64339  0.20819  1.0000
  H   H1379     1.0  0.80011  0.70135  0.32396  1.0000
  C   C1151     1.0  0.67135  0.50311  0.42329  1.0000
  H   H1380     1.0  0.61037  0.51584  0.15167  1.0000
  H   H1381     1.0  0.63596  0.70725  0.49269  1.0000
  H   H1382     1.0  0.74355  0.66272  0.47561  1.0000
  H   H1383     1.0  0.79279  0.71852  0.48835  1.0000
  H   H1384     1.0  0.81644  0.69684  0.29379  1.0000
  N   N77       1.0  0.66805  0.51528  0.44363  1.0000
  C   C1152     1.0  0.74203  0.69253  0.47242  1.0000
  H   H1385     1.0  0.79094  0.69670  0.01003  1.0000
  H   H1386     1.0  0.75437  0.71673  0.37320  1.0000
  H   H1387     1.0  0.71940  0.65941  0.45420  1.0000
  H   H1388     1.0  0.50399  0.51152  0.31865  1.0000
  C   C1153     1.0  0.64357  0.68396  0.48497  1.0000
  H   H1389     1.0  0.69806  0.69126  0.49408  1.0000
  H   H1390     1.0  0.65205  0.49094  0.47100  1.0000
  H   H1391     1.0  0.70340  0.69987  0.44603  1.0000
  N   N78       1.0  0.53257  0.48972  0.48380  1.0000
  C   C1154     1.0  0.64912  0.67341  0.00941  1.0000
  H   H1392     1.0  0.50145  0.48031  0.47000  1.0000
  C   C1155     1.0  0.67989  0.71111  0.04163  1.0000
  H   H1393     1.0  0.50672  0.49856  0.45633  1.0000
  H   H1394     1.0  0.78987  0.70674  0.44278  1.0000
  C   C1156     1.0  0.66412  0.49712  0.48259  1.0000
  H   H1395     1.0  0.65015  0.66021  0.48420  1.0000
  S   S312      1.0  0.59218  0.71692  0.08995  1.0000
  H   H1396     1.0  0.51580  0.70150  0.02209  1.0000
  C   C1157     1.0  0.51570  0.50160  0.31767  1.0000
  H   H1397     1.0  0.52058  0.49985  0.29585  1.0000
  H   H1398     1.0  0.82609  0.71010  0.31847  1.0000
  H   H1399     1.0  0.49211  0.48108  0.36839  1.0000
  H   H1400     1.0  0.76492  0.72152  0.27567  1.0000
  C   C1158     1.0  0.49210  0.47805  0.22426  1.0000
  Fe  Fe156     1.0  0.70802  0.66076  0.89036  1.0000
  S   S313      1.0  0.68361  0.67891  0.87677  1.0000
  S   S314      1.0  0.74508  0.66504  0.90176  1.0000
  Fe  Fe157     1.0  0.67219  0.63575  0.88161  1.0000
  S   S315      1.0  0.64578  0.65281  0.86755  1.0000
  S   S316      1.0  0.66955  0.61004  0.87763  1.0000
  Fe  Fe158     1.0  0.67369  0.66332  0.84311  1.0000
  S   S317      1.0  0.67741  0.66882  0.79758  1.0000
  Fe  Fe159     1.0  0.65811  0.66686  0.90278  1.0000
  S   S318      1.0  0.63329  0.68073  0.92902  1.0000
  S   S319      1.0  0.69963  0.64569  0.85539  1.0000
  S   S320      1.0  0.68308  0.64928  0.91824  1.0000
  S   S321      1.0  0.63762  0.70109  0.64322  1.0000
  C   C1159     1.0  0.60638  0.47620  0.72751  1.0000
  S   S322      1.0  0.58542  0.69084  0.63286  1.0000
  H   H1401     1.0  0.56470  0.50935  0.78147  1.0000
  Fe  Fe160     1.0  0.60578  0.69936  0.66821  1.0000
  S   S323      1.0  0.60189  0.69067  0.71204  1.0000
  Fe  Fe161     1.0  0.61639  0.69496  0.60693  1.0000
  S   S324      1.0  0.62828  0.67700  0.57661  1.0000
  H   H1402     1.0  0.65548  0.53661  0.99255  1.0000
  Fe  Fe162     1.0  0.59519  0.53165  0.88210  1.0000
  S   S325      1.0  0.62356  0.51453  0.87662  1.0000
  S   S326      1.0  0.59779  0.55722  0.88751  1.0000
  Fe  Fe163     1.0  0.55989  0.50675  0.88350  1.0000
  S   S327      1.0  0.58637  0.48837  0.87843  1.0000
  S   S328      1.0  0.52479  0.49756  0.88835  1.0000
  Fe  Fe164     1.0  0.60592  0.50118  0.90979  1.0000
  S   S329      1.0  0.62510  0.49162  0.94743  1.0000
  Fe  Fe165     1.0  0.60085  0.50324  0.84593  1.0000
  S   S330      1.0  0.61105  0.49760  0.80129  1.0000
  S   S331      1.0  0.57857  0.51875  0.91636  1.0000
  S   S332      1.0  0.57332  0.52117  0.84985  1.0000
  H   H1403     1.0  0.73421  0.69505  0.88071  1.0000
  C   C1160     1.0  0.68573  0.57296  0.94449  1.0000
  C   C1161     1.0  0.78961  0.71561  0.98257  1.0000
  C   C1162     1.0  0.60283  0.48796  0.52328  1.0000
  H   H1404     1.0  0.53462  0.47489  0.77105  1.0000
  H   H1405     1.0  0.59872  0.49729  0.53659  1.0000
  H   H1406     1.0  0.53988  0.51615  0.76395  1.0000
  C   C1163     1.0  0.60524  0.48377  0.77599  1.0000
  H   H1407     1.0  0.67384  0.59589  0.94201  1.0000
  H   H1408     1.0  0.61735  0.63535  0.82985  1.0000
  H   H1409     1.0  0.56487  0.71987  0.55853  1.0000
  H   H1410     1.0  0.60483  0.65486  0.71129  1.0000
  H   H1411     1.0  0.55819  0.50371  0.50013  1.0000
  C   C1164     1.0  0.50960  0.49864  0.79318  1.0000
  C   C1165     1.0  0.65032  0.72132  0.70560  1.0000
  H   H1412     1.0  0.73192  0.69811  0.51462  1.0000
  C   C1166     1.0  0.62127  0.62376  0.82278  1.0000
  H   H1413     1.0  0.51778  0.52711  0.86433  1.0000
  H   H1414     1.0  0.64692  0.47562  0.99207  1.0000
  N   N79       1.0  0.53451  0.49686  0.78954  1.0000
  H   H1415     1.0  0.65468  0.60648  0.77518  1.0000
  H   H1416     1.0  0.53924  0.47908  0.81952  1.0000
  C   C1167     1.0  0.74536  0.70307  0.77022  1.0000
  C   C1168     1.0  0.64905  0.59563  0.87983  1.0000
  C   C1169     1.0  0.62639  0.59845  0.88752  1.0000
  C   C1170     1.0  0.61105  0.58662  0.88938  1.0000
  C   C1171     1.0  0.61795  0.57174  0.88358  1.0000
  C   C1172     1.0  0.64055  0.56894  0.87560  1.0000
  C   C1173     1.0  0.65591  0.58077  0.87378  1.0000
  H   H1417     1.0  0.62074  0.60973  0.89246  1.0000
  H   H1418     1.0  0.59368  0.58900  0.89565  1.0000
  H   H1419     1.0  0.64625  0.55765  0.87093  1.0000
  H   H1420     1.0  0.67334  0.57836  0.86785  1.0000
  C   C1174     1.0  0.65587  0.67427  0.77405  1.0000
  C   C1175     1.0  0.66168  0.67594  0.74628  1.0000
  C   C1176     1.0  0.64533  0.68076  0.72694  1.0000
  C   C1177     1.0  0.62305  0.68416  0.73529  1.0000
  C   C1178     1.0  0.61720  0.68234  0.76303  1.0000
  C   C1179     1.0  0.63350  0.67740  0.78234  1.0000
  H   H1421     1.0  0.67892  0.67349  0.73964  1.0000
  H   H1422     1.0  0.64997  0.68184  0.70559  1.0000
  H   H1423     1.0  0.59996  0.68484  0.76964  1.0000
  H   H1424     1.0  0.62880  0.67618  0.80364  1.0000
  C   C1180     1.0  0.63361  0.68125  0.96539  1.0000
  C   C1181     1.0  0.76219  0.71436  0.94589  1.0000
  C   C1182     1.0  0.64100  0.66782  0.52494  1.0000
  C   C1183     1.0  0.63462  0.68006  0.54154  1.0000
  C   C1184     1.0  0.63305  0.69429  0.52978  1.0000
  C   C1185     1.0  0.61747  0.69032  0.97940  1.0000
  H   H1425     1.0  0.66202  0.66584  0.97017  1.0000
  H   H1426     1.0  0.64226  0.65676  0.53388  1.0000
  H   H1427     1.0  0.62845  0.70382  0.54236  1.0000
  H   H1428     1.0  0.60506  0.69683  0.96782  1.0000
  C   C1186     1.0  0.76183  0.68084  0.89455  1.0000
  C   C1187     1.0  0.78540  0.68000  0.89934  1.0000
  C   C1188     1.0  0.79948  0.69190  0.89206  1.0000
  C   C1189     1.0  0.79018  0.70470  0.87941  1.0000
  C   C1190     1.0  0.76653  0.70567  0.87525  1.0000
  C   C1191     1.0  0.75239  0.69400  0.88338  1.0000
  H   H1429     1.0  0.79290  0.66996  0.90828  1.0000
  H   H1430     1.0  0.81761  0.69092  0.89537  1.0000
  C   C1192     1.0  0.65910  0.53043  0.92416  1.0000
  N   N80       1.0  0.74694  0.68086  0.80204  1.0000
  C   C1193     1.0  0.74009  0.67084  0.77954  1.0000
  C   C1194     1.0  0.76287  0.67207  0.81981  1.0000
  C   C1195     1.0  0.72655  0.68501  0.81842  1.0000
  C   C1196     1.0  0.75676  0.69470  0.79107  1.0000
  C   C1197     1.0  0.77671  0.70091  0.80208  1.0000
  H   H1431     1.0  0.57888  0.48924  0.97042  1.0000
  C   C1198     1.0  0.52040  0.48019  0.53009  1.0000
  H   H1432     1.0  0.70344  0.57577  0.94256  1.0000
  H   H1433     1.0  0.68747  0.49601  0.54608  1.0000
  H   H1434     1.0  0.73417  0.65995  0.78756  1.0000
  H   H1435     1.0  0.72545  0.67544  0.76761  1.0000
  H   H1436     1.0  0.75447  0.66853  0.76518  1.0000
  H   H1437     1.0  0.77899  0.66914  0.80886  1.0000
  H   H1438     1.0  0.75541  0.66148  0.82713  1.0000
  H   H1439     1.0  0.76705  0.67816  0.83876  1.0000
  H   H1440     1.0  0.73049  0.69343  0.83412  1.0000
  H   H1441     1.0  0.71276  0.68993  0.80551  1.0000
  H   H1442     1.0  0.71949  0.67516  0.82909  1.0000
  H   H1443     1.0  0.78616  0.69577  0.81870  1.0000
  C   C1199     1.0  0.78501  0.71435  0.79211  1.0000
  H   H1444     1.0  0.65578  0.51886  0.97522  1.0000
  C   C1200     1.0  0.62895  0.47620  0.99670  1.0000
  C   C1201     1.0  0.54591  0.51108  0.78353  1.0000
  H   H1445     1.0  0.61871  0.49700  0.74311  1.0000
  C   C1202     1.0  0.64018  0.63284  0.75012  1.0000
  C   C1203     1.0  0.61393  0.48324  0.97793  1.0000
  H   H1446     1.0  0.67790  0.53036  0.92258  1.0000
  N   N81       1.0  0.63668  0.62358  0.79861  1.0000
  Fe  Fe166     1.0  0.57549  0.71481  0.62432  1.0000
  H   H1447     1.0  0.76367  0.71398  0.52383  1.0000
  H   H1448     1.0  0.52821  0.70620  0.55381  1.0000
  C   C1204     1.0  0.75554  0.70047  0.95572  1.0000
  C   C1205     1.0  0.63992  0.56596  0.94803  1.0000
  H   H1449     1.0  0.66541  0.62494  0.82574  1.0000
  C   C1206     1.0  0.62556  0.53586  0.95054  1.0000
  C   C1207     1.0  0.63206  0.64098  0.72754  1.0000
  H   H1450     1.0  0.65222  0.53599  0.90537  1.0000
  H   H1451     1.0  0.75909  0.71554  0.86563  1.0000
  C   C1208     1.0  0.53486  0.47893  0.50679  1.0000
  H   H1452     1.0  0.64800  0.60120  0.80944  1.0000
  C   C1209     1.0  0.58097  0.67868  0.50925  1.0000
  C   C1210     1.0  0.64952  0.67286  0.98059  1.0000
  C   C1211     1.0  0.77384  0.72199  0.77101  1.0000
  H   H1453     1.0  0.50429  0.47507  0.80174  1.0000
  C   C1212     1.0  0.66874  0.49225  0.50924  1.0000
  C   C1213     1.0  0.53525  0.70128  0.53447  1.0000
  H   H1454     1.0  0.62913  0.61779  0.84058  1.0000
  H   H1455     1.0  0.58133  0.65329  0.75297  1.0000
  C   C1214     1.0  0.63745  0.69621  0.50164  1.0000
  H   H1456     1.0  0.76094  0.68322  0.98584  1.0000
  H   H1457     1.0  0.59454  0.63923  0.79261  1.0000
  H   H1458     1.0  0.55799  0.48591  0.76148  1.0000
  H   H1459     1.0  0.97393  0.71328  0.87996  1.0000
  C   C1215     1.0  0.75399  0.71640  0.76016  1.0000
  C   C1216     1.0  0.60557  0.63925  0.77494  1.0000
  H   H1460     1.0  0.64243  0.64195  0.70926  1.0000
  S   S333      1.0  0.53913  0.72051  0.60824  1.0000
  H   H1461     1.0  0.65421  0.51849  0.92378  1.0000
  C   C1217     1.0  0.59763  0.64733  0.75218  1.0000
  H   H1462     1.0  0.51839  0.71137  0.66094  1.0000
  C   C1218     1.0  0.50170  0.52042  0.93897  1.0000
  H   H1463     1.0  0.62189  0.56413  0.94830  1.0000
  H   H1464     1.0  0.67160  0.62958  0.79112  1.0000
  C   C1219     1.0  0.53954  0.48651  0.76649  1.0000
  H   H1465     1.0  0.65531  0.64245  0.81159  1.0000
  C   C1220     1.0  0.64153  0.60773  0.79142  1.0000
  C   C1221     1.0  0.65646  0.55405  0.94807  1.0000
  C   C1222     1.0  0.65816  0.63039  0.80708  1.0000
  C   C1223     1.0  0.67959  0.55803  0.94649  1.0000
  H   H1466     1.0  0.65687  0.62759  0.74841  1.0000
  H   H1467     1.0  0.67386  0.70324  0.80063  1.0000
  N   N82       1.0  0.56036  0.69964  0.53548  1.0000
  C   C1224     1.0  0.66081  0.53075  0.97343  1.0000
  H   H1468     1.0  0.64942  0.70957  0.71254  1.0000
  C   C1225     1.0  0.59073  0.48386  0.98443  1.0000
  H   H1469     1.0  0.52935  0.70877  0.51761  1.0000
  C   C1226     1.0  0.49642  0.48606  0.79947  1.0000
  H   H1470     1.0  0.51997  0.50195  0.95755  1.0000
  H   H1471     1.0  0.61083  0.47866  0.70649  1.0000
  H   H1472     1.0  0.58502  0.68961  0.56294  1.0000
  H   H1473     1.0  0.64714  0.70817  0.76378  1.0000
  H   H1474     1.0  0.70533  0.72042  0.80914  1.0000
  H   H1475     1.0  0.62593  0.60232  0.78407  1.0000
  H   H1476     1.0  0.60511  0.61813  0.81839  1.0000
  C   C1227     1.0  0.56901  0.69272  0.50985  1.0000
  H   H1477     1.0  0.61782  0.54110  0.96906  1.0000
  H   H1478     1.0  0.55891  0.67959  0.56009  1.0000
  S   S334      1.0  0.80711  0.71935  0.86659  1.0000
  C   C1228     1.0  0.54476  0.49056  0.81493  1.0000
  C   C1229     1.0  0.76590  0.69413  0.97871  1.0000
  H   H1479     1.0  0.53052  0.49022  0.74757  1.0000
  H   H1480     1.0  0.72952  0.69949  0.76175  1.0000
  C   C1230     1.0  0.67567  0.71315  0.78804  1.0000
  C   C1231     1.0  0.66016  0.71619  0.76703  1.0000
  C   C1232     1.0  0.56998  0.71466  0.53868  1.0000
  C   C1233     1.0  0.50049  0.50725  0.87609  1.0000
  C   C1234     1.0  0.61085  0.64823  0.72858  1.0000
  C   C1235     1.0  0.62726  0.63179  0.77463  1.0000
  H   H1481     1.0  0.61677  0.54048  0.93210  1.0000
  H   H1482     1.0  0.62157  0.52379  0.95138  1.0000
  C   C1236     1.0  0.68404  0.49980  0.52536  1.0000
  C   C1237     1.0  0.50162  0.52173  0.86558  1.0000
  N   N83       1.0  0.65041  0.53812  0.94908  1.0000
  H   H1483     1.0  0.52737  0.69027  0.53156  1.0000
  C   C1238     1.0  0.64631  0.58085  0.94644  1.0000
  C   C1239     1.0  0.56630  0.69086  0.56041  1.0000
  C   C1240     1.0  0.49226  0.72086  0.60132  1.0000
  H   H1484     1.0  0.55966  0.69636  0.57932  1.0000
  C   C1241     1.0  0.61085  0.48661  0.74841  1.0000
  H   H1485     1.0  0.75372  0.71845  0.92770  1.0000
  H   H1486     1.0  0.61797  0.71786  0.74187  1.0000
  C   C1242     1.0  0.78281  0.70172  0.99222  1.0000
  C   C1243     1.0  0.76225  0.70882  0.50388  1.0000
  H   H1487     1.0  0.67966  0.53053  0.97257  1.0000
  H   H1488     1.0  0.54322  0.51929  0.80038  1.0000
  H   H1489     1.0  0.58887  0.71399  0.53794  1.0000
  H   H1490     1.0  0.63343  0.58975  0.94575  1.0000
  H   H1491     1.0  0.66016  0.48264  0.51749  1.0000
  H   H1492     1.0  0.69310  0.54962  0.94622  1.0000
  C   C1244     1.0  0.51033  0.71798  0.61968  1.0000
  H   H1493     1.0  0.54004  0.49758  0.83292  1.0000
  H   H1494     1.0  0.58463  0.67224  0.52753  1.0000
  H   H1495     1.0  0.50750  0.48897  0.53161  1.0000
  C   C1245     1.0  0.66911  0.58434  0.94437  1.0000
  C   C1246     1.0  0.50489  0.71356  0.64640  1.0000
  H   H1496     1.0  0.51663  0.52439  0.92846  1.0000
  H   H1497     1.0  0.56364  0.48992  0.81375  1.0000
  H   H1498     1.0  0.70661  0.51812  0.52755  1.0000
  C   C1247     1.0  0.49773  0.51265  0.79076  1.0000
  S   S335      1.0  0.60602  0.71864  0.59653  1.0000
  C   C1248     1.0  0.50361  0.50770  0.95534  1.0000
  H   H1499     1.0  0.50623  0.52290  0.78642  1.0000
  C   C1249     1.0  0.69475  0.51226  0.51486  1.0000
  H   H1500     1.0  0.52982  0.50896  0.51025  1.0000
  C   C1250     1.0  0.60685  0.47370  0.53489  1.0000
  H   H1501     1.0  0.71510  0.67553  0.50702  1.0000
  H   H1502     1.0  0.80017  0.71891  0.80105  1.0000
  H   H1503     1.0  0.74261  0.69438  0.94506  1.0000
  H   H1504     1.0  0.74522  0.72249  0.74393  1.0000
  H   H1505     1.0  0.80306  0.72096  0.99348  1.0000
  C   C1251     1.0  0.77963  0.72232  0.95896  1.0000
  C   C1252     1.0  0.74406  0.69960  0.49830  1.0000
  C   C1253     1.0  0.81729  0.77799  0.01666  1.0000
  S   S336      1.0  0.63088  0.74891  0.11967  1.0000
  C   C1254     1.0  0.93914  0.96933  0.25314  1.0000
  N   N84       1.0  0.85068  0.81474  0.05055  1.0000
  Fe  Fe167     1.0  0.75768  0.78876  0.11684  1.0000
  S   S337      1.0  0.77738  0.76750  0.12457  1.0000
  S   S338      1.0  0.71929  0.78886  0.10943  1.0000
  Fe  Fe168     1.0  0.80016  0.80840  0.12384  1.0000
  S   S339      1.0  0.82200  0.78769  0.13254  1.0000
  S   S340      1.0  0.82233  0.82937  0.12490  1.0000
  Fe  Fe169     1.0  0.80396  0.77732  0.09702  1.0000
  S   S341      1.0  0.82361  0.76279  0.06601  1.0000
  Fe  Fe170     1.0  0.79345  0.77995  0.15913  1.0000
  S   S342      1.0  0.79157  0.77012  0.20231  1.0000
  S   S343      1.0  0.78342  0.79812  0.08702  1.0000
  S   S344      1.0  0.77250  0.80107  0.15264  1.0000
  C   C1255     1.0  0.79120  0.75725  0.45465  1.0000
  S   S345      1.0  0.83222  0.75403  0.37086  1.0000
  Fe  Fe171     1.0  0.89092  0.73340  0.37886  1.0000
  S   S346      1.0  0.88681  0.75812  0.37297  1.0000
  C   C1256     1.0  0.71814  0.75036  0.04990  1.0000
  Fe  Fe172     1.0  0.85833  0.75668  0.40372  1.0000
  S   S347      1.0  0.85400  0.77395  0.43760  1.0000
  Fe  Fe173     1.0  0.86099  0.75281  0.34072  1.0000
  S   S348      1.0  0.86401  0.76416  0.29886  1.0000
  C   C1257     1.0  0.94914  0.75834  0.45720  1.0000
  H   H1506     1.0  0.83564  0.96048  0.27479  1.0000
  Fe  Fe174     1.0  0.85317  0.91934  0.12162  1.0000
  S   S349      1.0  0.84301  0.94411  0.12332  1.0000
  S   S350      1.0  0.82562  0.90141  0.12349  1.0000
  Fe  Fe175     1.0  0.90294  0.92627  0.11814  1.0000
  S   S351      1.0  0.93821  0.91560  0.11965  1.0000
  Fe  Fe176     1.0  0.87170  0.94663  0.15341  1.0000
  H   H1507     1.0  0.92680  0.95911  0.17449  1.0000
  Fe  Fe177     1.0  0.86855  0.94735  0.08914  1.0000
  H   H1508     1.0  0.81875  0.82306  0.06730  1.0000
  S   S352      1.0  0.88003  0.92188  0.15403  1.0000
  S   S353      1.0  0.87679  0.92257  0.08550  1.0000
  C   C1258     1.0  0.96158  0.92684  0.11253  1.0000
  C   C1259     1.0  0.95843  0.94129  0.10209  1.0000
  H   H1509     1.0  0.81630  0.81080  0.03853  1.0000
  H   H1510     1.0  0.94165  0.94537  0.09649  1.0000
  H   H1511     1.0  0.91063  0.76739  0.43340  1.0000
  H   H1512     1.0  0.62223  0.73226  0.20464  1.0000
  H   H1513     1.0  0.73572  0.74226  0.48551  1.0000
  H   H1514     1.0  0.65835  0.72833  0.15870  1.0000
  H   H1515     1.0  0.93722  0.94461  0.15241  1.0000
  H   H1516     1.0  0.73629  0.74929  0.05341  1.0000
  S   S354      1.0  0.86485  0.96724  0.05886  1.0000
  H   H1517     1.0  0.78674  0.96136  0.17726  1.0000
  C   C1260     1.0  0.82269  0.84943  0.12429  1.0000
  C   C1261     1.0  0.84377  0.85650  0.12470  1.0000
  C   C1262     1.0  0.84507  0.87227  0.12431  1.0000
  C   C1263     1.0  0.82525  0.88133  0.12366  1.0000
  C   C1264     1.0  0.80418  0.87423  0.12341  1.0000
  C   C1265     1.0  0.80287  0.85846  0.12366  1.0000
  H   H1518     1.0  0.85929  0.84976  0.12532  1.0000
  H   H1519     1.0  0.86142  0.87745  0.12458  1.0000
  H   H1520     1.0  0.78869  0.88102  0.12291  1.0000
  H   H1521     1.0  0.78649  0.85333  0.12333  1.0000
  C   C1266     1.0  0.82724  0.76571  0.03025  1.0000
  C   C1267     1.0  0.64951  0.72560  0.06196  1.0000
  H   H1522     1.0  0.94048  0.73124  0.43960  1.0000
  C   C1268     1.0  0.84730  0.76979  0.47219  1.0000
  H   H1523     1.0  0.84119  0.79329  0.06648  1.0000
  C   C1269     1.0  0.84084  0.75547  0.01516  1.0000
  H   H1524     1.0  0.80649  0.78579  0.02787  1.0000
  H   H1525     1.0  0.85203  0.74597  0.46862  1.0000
  C   C1270     1.0  0.91558  0.75597  0.48570  1.0000
  H   H1526     1.0  0.84865  0.74594  0.02548  1.0000
  C   C1271     1.0  0.81205  0.76892  0.22883  1.0000
  C   C1272     1.0  0.80489  0.76513  0.25540  1.0000
  C   C1273     1.0  0.82053  0.76374  0.27708  1.0000
  C   C1274     1.0  0.84357  0.76602  0.27237  1.0000
  C   C1275     1.0  0.85072  0.77001  0.24586  1.0000
  C   C1276     1.0  0.83507  0.77137  0.22413  1.0000
  H   H1527     1.0  0.78710  0.76327  0.25923  1.0000
  H   H1528     1.0  0.81481  0.76104  0.29748  1.0000
  H   H1529     1.0  0.86853  0.77183  0.24206  1.0000
  H   H1530     1.0  0.84086  0.77415  0.20376  1.0000
  C   C1277     1.0  0.96054  0.74360  0.37597  1.0000
  H   H1531     1.0  0.84358  0.72598  0.29136  1.0000
  H   H1532     1.0  0.86263  0.83726  0.04644  1.0000
  H   H1533     1.0  0.94691  0.75169  0.37218  1.0000
  H   H1534     1.0  0.51130  0.73280  0.13590  1.0000
  C   C1278     1.0  0.65688  0.75866  0.11682  1.0000
  C   C1279     1.0  0.67882  0.75199  0.11869  1.0000
  C   C1280     1.0  0.69843  0.76091  0.11695  1.0000
  C   C1281     1.0  0.69615  0.77648  0.11293  1.0000
  C   C1282     1.0  0.67424  0.78286  0.11075  1.0000
  C   C1283     1.0  0.65496  0.77412  0.11286  1.0000
  H   H1535     1.0  0.94711  0.77068  0.45552  1.0000
  H   H1536     1.0  0.71521  0.75576  0.11851  1.0000
  H   H1537     1.0  0.67211  0.79477  0.10750  1.0000
  H   H1538     1.0  0.63829  0.77948  0.11132  1.0000
  C   C1284     1.0  0.98348  0.74796  0.37438  1.0000
  S   S355      1.0  0.89653  0.95089  0.11933  1.0000
  C   C1285     1.0  0.67126  0.75339  0.04265  1.0000
  C   C1286     1.0  0.85991  0.80949  0.02390  1.0000
  H   H1539     1.0  0.97450  0.96175  0.09100  1.0000
  C   C1287     1.0  0.91261  0.75512  0.43636  1.0000
  C   C1288     1.0  0.70812  0.76882  0.18334  1.0000
  H   H1540     1.0  0.84123  0.79292  0.48263  1.0000
  S   S356      1.0  0.87772  0.96439  0.18668  1.0000
  N   N85       1.0  0.65833  0.73551  0.20051  1.0000
  H   H1541     1.0  0.80854  0.73223  0.20003  1.0000
  C   C1289     1.0  0.93162  0.73458  0.45893  1.0000
  H   H1542     1.0  0.97255  0.92474  0.20409  1.0000
  N   N86       1.0  0.81950  0.82439  0.21069  1.0000
  C   C1290     1.0  0.79688  0.82950  0.20049  1.0000
  C   C1291     1.0  0.83655  0.83540  0.20225  1.0000
  C   C1292     1.0  0.82551  0.81006  0.19684  1.0000
  C   C1293     1.0  0.81896  0.82317  0.24095  1.0000
  C   C1294     1.0  0.81389  0.83596  0.25721  1.0000
  C   C1295     1.0  0.82358  0.80954  0.25514  1.0000
  C   C1296     1.0  0.81370  0.83514  0.28583  1.0000
  C   C1297     1.0  0.82344  0.80884  0.28372  1.0000
  C   C1298     1.0  0.81854  0.82162  0.29905  1.0000
  H   H1543     1.0  0.79661  0.83024  0.17769  1.0000
  H   H1544     1.0  0.78351  0.82165  0.20685  1.0000
  H   H1545     1.0  0.79178  0.84079  0.20804  1.0000
  H   H1546     1.0  0.83196  0.84691  0.20908  1.0000
  H   H1547     1.0  0.83824  0.83607  0.17955  1.0000
  H   H1548     1.0  0.85361  0.83235  0.21066  1.0000
  H   H1549     1.0  0.81278  0.80139  0.20120  1.0000
  H   H1550     1.0  0.82605  0.81142  0.17421  1.0000
  H   H1551     1.0  0.84262  0.80567  0.20301  1.0000
  H   H1552     1.0  0.81012  0.84670  0.24789  1.0000
  H   H1553     1.0  0.82741  0.79920  0.24471  1.0000
  H   H1554     1.0  0.80987  0.84507  0.29783  1.0000
  H   H1555     1.0  0.82728  0.79829  0.29400  1.0000
  H   H1556     1.0  0.81852  0.82100  0.32122  1.0000
  N   N87       1.0  0.94734  0.94189  0.19432  1.0000
  H   H1557     1.0  0.84442  0.80731  0.09190  1.0000
  C   C1299     1.0  0.97889  0.96222  0.25078  1.0000
  Fe  Fe178     1.0  0.83824  0.72923  0.37693  1.0000
  C   C1300     1.0  0.95241  0.95152  0.21796  1.0000
  C   C1301     1.0  0.92760  0.93245  0.20045  1.0000
  H   H1558     1.0  0.98616  0.91033  0.12691  1.0000
  H   H1559     1.0  0.67621  0.77704  0.04650  1.0000
  H   H1560     1.0  0.96032  0.75581  0.47505  1.0000
  C   C1302     1.0  0.93484  0.96019  0.23074  1.0000
  C   C1303     1.0  0.81240  0.72293  0.26826  1.0000
  H   H1561     1.0  0.98933  0.94730  0.21937  1.0000
  H   H1562     1.0  0.85277  0.83048  0.00230  1.0000
  H   H1563     1.0  0.72069  0.77699  0.17817  1.0000
  H   H1564     1.0  0.65752  0.72620  0.08250  1.0000
  H   H1565     1.0  0.92481  0.92415  0.18393  1.0000
  C   C1304     1.0  0.96662  0.93167  0.18645  1.0000
  H   H1566     1.0  0.84899  0.73747  0.20701  1.0000
  H   H1567     1.0  0.86748  0.94815  0.00942  1.0000
  C   C1305     1.0  0.84151  0.78154  0.49015  1.0000
  C   C1306     1.0  0.66873  0.76195  0.18677  1.0000
  H   H1568     1.0  0.84593  0.95218  0.22763  1.0000
  H   H1569     1.0  0.82462  0.82975  0.03388  1.0000
  H   H1570     1.0  0.78535  0.72331  0.23734  1.0000
  H   H1571     1.0  0.73296  0.75156  0.19235  1.0000
  C   C1307     1.0  0.98359  0.92155  0.11901  1.0000
  C   C1308     1.0  0.83555  0.72644  0.27156  1.0000
  C   C1309     1.0  0.82660  0.81979  0.04734  1.0000
  H   H1572     1.0  0.78373  0.72851  0.32802  1.0000
  C   C1310     1.0  0.94166  0.95146  0.17041  1.0000
  H   H1573     1.0  0.98712  0.75942  0.36947  1.0000
  H   H1574     1.0  0.80660  0.76140  0.44544  1.0000
  C   C1311     1.0  0.84865  0.73132  0.24957  1.0000
  H   H1575     1.0  0.91980  0.75053  0.41690  1.0000
  C   C1312     1.0  0.71496  0.75443  0.19116  1.0000
  C   C1313     1.0  0.79904  0.97012  0.17702  1.0000
  C   C1314     1.0  0.75873  0.74162  0.45220  1.0000
  H   H1576     1.0  0.65312  0.75515  0.04051  1.0000
  H   H1577     1.0  0.79414  0.77073  0.49006  1.0000
  H   H1578     1.0  0.63718  0.73520  0.06049  1.0000
  C   C1315     1.0  0.68129  0.73877  0.04301  1.0000
  H   H1579     1.0  0.86914  0.79908  0.07656  1.0000
  H   H1580     1.0  0.94288  0.73064  0.47587  1.0000
  C   C1316     1.0  0.79492  0.73123  0.31039  1.0000
  H   H1581     1.0  0.67990  0.78365  0.17418  1.0000
  H   H1582     1.0  0.62959  0.74534  0.17891  1.0000
  C   C1317     1.0  0.67511  0.74717  0.19501  1.0000
  H   H1583     1.0  0.81110  0.73517  0.31915  1.0000
  H   H1584     1.0  0.79928  0.97231  0.22090  1.0000
  H   H1585     1.0  0.92062  0.95830  0.04292  1.0000
  C   C1318     1.0  0.92432  0.96592  0.02629  1.0000
  H   H1586     1.0  0.91759  0.96005  0.22336  1.0000
  C   C1319     1.0  0.68508  0.77257  0.18122  1.0000
  H   H1587     1.0  0.93008  0.92619  0.21996  1.0000
  Fe  Fe179     1.0  0.61552  0.72575  0.12251  1.0000
  C   C1320     1.0  0.85145  0.80305  0.07219  1.0000
  C   C1321     1.0  0.70771  0.76451  0.04947  1.0000
  C   C1322     1.0  0.78394  0.76248  0.48027  1.0000
  C   C1323     1.0  0.76391  0.75726  0.49289  1.0000
  H   H1588     1.0  0.70492  0.73262  0.20219  1.0000
  H   H1589     1.0  0.91296  0.77949  0.47390  1.0000
  C   C1324     1.0  0.85953  0.81917  0.00081  1.0000
  H   H1590     1.0  0.67872  0.72253  0.22943  1.0000
  C   C1325     1.0  0.68432  0.76602  0.04587  1.0000
  C   C1326     1.0  0.75133  0.74673  0.47789  1.0000
  H   H1591     1.0  0.96171  0.92375  0.17016  1.0000
  H   H1592     1.0  0.63126  0.75034  0.21473  1.0000
  C   C1327     1.0  0.86390  0.82747  0.06042  1.0000
  H   H1593     1.0  0.68075  0.74007  0.12165  1.0000
  C   C1328     1.0  0.95535  0.72880  0.38230  1.0000
  C   C1329     1.0  0.84829  0.96641  0.26333  1.0000
  H   H1594     1.0  0.91558  0.72831  0.45937  1.0000
  C   C1330     1.0  0.69876  0.74371  0.19685  1.0000
  H   H1595     1.0  0.78453  0.74268  0.42091  1.0000
  H   H1596     1.0  0.65127  0.76552  0.18363  1.0000
  C   C1331     1.0  0.85412  0.96165  0.23652  1.0000
  H   H1597     1.0  0.88222  0.82426  0.06250  1.0000
  H   H1598     1.0  0.95842  0.75454  0.43837  1.0000
  S   S357      1.0  0.86623  0.72792  0.34492  1.0000
  H   H1599     1.0  0.95620  0.95843  0.16433  1.0000
  S   S358      1.0  0.86324  0.73214  0.41139  1.0000
  H   H1600     1.0  0.89522  0.75083  0.43897  1.0000
  N   N88       1.0  0.92705  0.75097  0.46014  1.0000
  C   C1332     1.0  0.86725  0.95972  0.00299  1.0000
  H   H1601     1.0  0.91133  0.93904  0.20190  1.0000
  C   C1333     1.0  0.49807  0.72471  0.13486  1.0000
  H   H1602     1.0  0.78678  0.74081  0.29922  1.0000
  N   N89       1.0  0.66695  0.72558  0.03999  1.0000
  C   C1334     1.0  0.83899  0.73317  0.22378  1.0000
  H   H1603     1.0  0.74903  0.73352  0.44114  1.0000
  H   H1604     1.0  0.98114  0.93783  0.17773  1.0000
  C   C1335     1.0  0.90952  0.77128  0.48951  1.0000
  C   C1336     1.0  0.77872  0.74677  0.44072  1.0000
  C   C1337     1.0  0.84761  0.75513  0.48215  1.0000
  H   H1605     1.0  0.71765  0.77434  0.05286  1.0000
  C   C1338     1.0  0.97706  0.95054  0.09893  1.0000
  C   C1339     1.0  0.70524  0.73762  0.04669  1.0000
  H   H1606     1.0  0.66173  0.73749  0.24419  1.0000
  H   H1607     1.0  0.85769  0.83148  0.08078  1.0000
  H   H1608     1.0  0.71440  0.72703  0.04760  1.0000
  C   C1340     1.0  0.81619  0.73016  0.21990  1.0000
  C   C1341     1.0  0.80298  0.72510  0.24172  1.0000
  C   C1342     1.0  0.86940  0.79485  0.01993  1.0000
  H   H1609     1.0  0.80231  0.96948  0.13396  1.0000
  C   C1343     1.0  0.63436  0.74120  0.19971  1.0000
  C   C1344     1.0  0.97476  0.95305  0.22832  1.0000
  C   C1345     1.0  0.92343  0.96105  0.99930  1.0000
  C   C1346     1.0  0.65533  0.72616  0.01310  1.0000
  H   H1610     1.0  0.86614  0.73433  0.25288  1.0000
  H   H1611     1.0  0.87015  0.78655  0.03601  1.0000
  H   H1612     1.0  0.64352  0.73601  0.01117  1.0000
  C   C1347     1.0  0.66220  0.72878  0.22799  1.0000
  C   C1348     1.0  0.86611  0.97101  0.02274  1.0000
  C   C1349     1.0  0.66089  0.72364  0.17963  1.0000
  C   C1350     1.0  0.96111  0.97031  0.26321  1.0000
  H   H1613     1.0  0.81449  0.91014  0.49437  1.0000
  C   C1351     1.0  0.87012  0.96935  0.22112  1.0000
  S   S359      1.0  0.92666  0.72254  0.38539  1.0000
  H   H1614     1.0  0.86880  0.95450  0.95981  1.0000
  S   S360      1.0  0.65237  0.74203  0.64594  1.0000
  C   C1352     1.0  0.92725  0.76134  0.82483  1.0000
  H   H1615     1.0  0.80007  0.80117  0.72851  1.0000
  Fe  Fe180     1.0  0.76641  0.78631  0.61009  1.0000
  S   S361      1.0  0.78783  0.76615  0.62059  1.0000
  S   S362      1.0  0.73068  0.78179  0.59394  1.0000
  Fe  Fe181     1.0  0.80713  0.80747  0.61759  1.0000
  S   S363      1.0  0.83059  0.78779  0.62838  1.0000
  S   S364      1.0  0.82684  0.82951  0.61825  1.0000
  Fe  Fe182     1.0  0.81429  0.77601  0.59321  1.0000
  S   S365      1.0  0.83166  0.76001  0.56285  1.0000
  Fe  Fe183     1.0  0.80190  0.77989  0.65471  1.0000
  S   S366      1.0  0.80078  0.77012  0.69809  1.0000
  S   S367      1.0  0.79243  0.79578  0.58088  1.0000
  S   S368      1.0  0.77895  0.79992  0.64568  1.0000
  H   H1616     1.0  0.90228  0.93559  0.71472  1.0000
  S   S369      1.0  0.83209  0.75521  0.86977  1.0000
  Fe  Fe184     1.0  0.89289  0.73815  0.87938  1.0000
  S   S370      1.0  0.88510  0.76283  0.87747  1.0000
  C   C1353     1.0  0.86648  0.96829  0.52133  1.0000
  Fe  Fe185     1.0  0.85545  0.75812  0.90540  1.0000
  S   S371      1.0  0.84059  0.77377  0.93830  1.0000
  Fe  Fe186     1.0  0.86220  0.75730  0.84217  1.0000
  S   S372      1.0  0.86619  0.77020  0.80200  1.0000
  C   C1354     1.0  0.80911  0.91582  0.51368  1.0000
  H   H1617     1.0  0.89019  0.88245  0.53700  1.0000
  Fe  Fe187     1.0  0.85706  0.91944  0.62124  1.0000
  S   S373      1.0  0.84318  0.94320  0.62340  1.0000
  S   S374      1.0  0.82998  0.90134  0.61893  1.0000
  Fe  Fe188     1.0  0.90564  0.93095  0.62162  1.0000
  S   S375      1.0  0.94129  0.92093  0.62471  1.0000
  Fe  Fe189     1.0  0.86986  0.94780  0.65519  1.0000
  H   H1618     1.0  0.80187  0.79233  0.77559  1.0000
  Fe  Fe190     1.0  0.86922  0.94881  0.59097  1.0000
  H   H1619     1.0  0.85261  0.82389  0.79419  1.0000
  S   S376      1.0  0.88189  0.92369  0.65488  1.0000
  S   S377      1.0  0.88187  0.92487  0.58766  1.0000
  C   C1355     1.0  0.96586  0.93168  0.62527  1.0000
  C   C1356     1.0  0.96460  0.94727  0.62401  1.0000
  H   H1620     1.0  0.93764  0.75512  0.75739  1.0000
  H   H1621     1.0  0.94831  0.95301  0.62179  1.0000
  H   H1622     1.0  0.92536  0.92530  0.73149  1.0000
  H   H1623     1.0  0.92557  0.96649  0.95731  1.0000
  H   H1624     1.0  0.80682  0.91677  0.56851  1.0000
  H   H1625     1.0  0.93847  0.77088  0.82816  1.0000
  H   H1626     1.0  0.80159  0.92698  0.50820  1.0000
  H   H1627     1.0  0.76960  0.76460  0.56114  1.0000
  H   H1628     1.0  0.95806  0.92827  0.68530  1.0000
  S   S378      1.0  0.86420  0.73362  0.90972  1.0000
  C   C1357     1.0  0.82721  0.84952  0.61891  1.0000
  C   C1358     1.0  0.84826  0.85658  0.62003  1.0000
  C   C1359     1.0  0.84952  0.87234  0.62053  1.0000
  C   C1360     1.0  0.82967  0.88134  0.61981  1.0000
  C   C1361     1.0  0.80862  0.87426  0.61887  1.0000
  C   C1362     1.0  0.80736  0.85851  0.61850  1.0000
  H   H1629     1.0  0.86378  0.84981  0.62033  1.0000
  H   H1630     1.0  0.86585  0.87752  0.62108  1.0000
  H   H1631     1.0  0.79312  0.88104  0.61830  1.0000
  H   H1632     1.0  0.79102  0.85335  0.61766  1.0000
  C   C1363     1.0  0.83688  0.76408  0.52786  1.0000
  C   C1364     1.0  0.84251  0.75231  0.50987  1.0000
  H   H1633     1.0  0.49602  0.72440  0.58066  1.0000
  C   C1365     1.0  0.83529  0.77009  0.97349  1.0000
  C   C1366     1.0  0.86800  0.96338  0.97476  1.0000
  C   C1367     1.0  0.83619  0.77872  0.51781  1.0000
  H   H1634     1.0  0.84318  0.74096  0.51750  1.0000
  H   H1635     1.0  0.81410  0.78995  0.97833  1.0000
  S   S379      1.0  0.86223  0.95630  0.69912  1.0000
  H   H1636     1.0  0.83203  0.78789  0.53146  1.0000
  C   C1368     1.0  0.82013  0.76925  0.72594  1.0000
  C   C1369     1.0  0.81304  0.76283  0.75077  1.0000
  C   C1370     1.0  0.82719  0.76261  0.77400  1.0000
  C   C1371     1.0  0.84851  0.76903  0.77276  1.0000
  C   C1372     1.0  0.85577  0.77524  0.74782  1.0000
  C   C1373     1.0  0.84180  0.77517  0.72443  1.0000
  H   H1637     1.0  0.79633  0.75822  0.75214  1.0000
  H   H1638     1.0  0.82136  0.75782  0.79303  1.0000
  H   H1639     1.0  0.87226  0.78018  0.74661  1.0000
  H   H1640     1.0  0.84775  0.77974  0.70533  1.0000
  C   C1374     1.0  0.96339  0.75068  0.88066  1.0000
  C   C1375     1.0  0.95860  0.73543  0.88045  1.0000
  C   C1376     1.0  0.95816  0.74705  0.80402  1.0000
  H   H1641     1.0  0.94963  0.75889  0.88213  1.0000
  H   H1642     1.0  0.82848  0.80314  0.80844  1.0000
  C   C1377     1.0  0.67521  0.75158  0.62997  1.0000
  C   C1378     1.0  0.69355  0.75596  0.64623  1.0000
  C   C1379     1.0  0.71107  0.76467  0.63530  1.0000
  C   C1380     1.0  0.71019  0.76953  0.60806  1.0000
  C   C1381     1.0  0.69194  0.76507  0.59171  1.0000
  C   C1382     1.0  0.67473  0.75600  0.60244  1.0000
  H   H1643     1.0  0.69414  0.75274  0.66755  1.0000
  H   H1644     1.0  0.72486  0.76803  0.64823  1.0000
  H   H1645     1.0  0.69082  0.76888  0.57073  1.0000
  H   H1646     1.0  0.66061  0.75298  0.58975  1.0000
  N   N90       1.0  0.93415  0.75215  0.80088  1.0000
  S   S380      1.0  0.89490  0.95532  0.62301  1.0000
  C   C1383     1.0  0.77552  0.74241  0.92396  1.0000
  H   H1647     1.0  0.82316  0.73203  0.95861  1.0000
  C   C1384     1.0  0.84443  0.92778  0.52014  1.0000
  H   H1648     1.0  0.86573  0.86233  0.55363  1.0000
  C   C1385     1.0  0.92744  0.95152  0.68160  1.0000
  Fe  Fe191     1.0  0.84131  0.73070  0.87304  1.0000
  S   S381      1.0  0.85511  0.96145  0.55297  1.0000
  H   H1649     1.0  0.81315  0.93512  0.55619  1.0000
  C   C1386     1.0  0.98456  0.95546  0.62545  1.0000
  C   C1387     1.0  0.92385  0.96523  0.77331  1.0000
  H   H1650     1.0  0.96617  0.93216  0.71999  1.0000
  C   C1388     1.0  0.91807  0.73974  0.79895  1.0000
  H   H1651     1.0  0.94068  0.77195  0.77687  1.0000
  H   H1652     1.0  0.89323  0.78795  0.51528  1.0000
  H   H1653     1.0  0.76453  0.78594  0.51040  1.0000
  C   C1389     1.0  0.69571  0.73537  0.77633  1.0000
  H   H1654     1.0  0.92753  0.75448  0.84381  1.0000
  H   H1655     1.0  0.61764  0.73636  0.75632  1.0000
  H   H1656     1.0  0.79061  0.75947  0.96231  1.0000
  C   C1390     1.0  0.92282  0.95435  0.75293  1.0000
  C   C1391     1.0  0.82021  0.92353  0.55881  1.0000
  H   H1657     1.0  0.74406  0.78397  0.53710  1.0000
  C   C1392     1.0  0.78558  0.74832  0.97006  1.0000
  H   H1658     1.0  0.85563  0.74978  0.97574  1.0000
  H   H1659     1.0  0.83415  0.92403  0.57396  1.0000
  C   C1393     1.0  0.98716  0.92435  0.62775  1.0000
  H   H1660     1.0  0.90971  0.76608  0.82263  1.0000
  C   C1394     1.0  0.68018  0.73854  0.75533  1.0000
  H   H1661     1.0  0.91260  0.96482  0.79093  1.0000
  N   N91       1.0  0.93574  0.94391  0.70673  1.0000
  C   C1395     1.0  0.92028  0.93148  0.71260  1.0000
  C   C1396     1.0  0.83913  0.90211  0.53788  1.0000
  H   H1662     1.0  0.92589  0.94348  0.66448  1.0000
  C   C1397     1.0  0.93681  0.95495  0.72917  1.0000
  C   C1398     1.0  0.95865  0.93720  0.70114  1.0000
  H   H1663     1.0  0.68312  0.74839  0.74317  1.0000
  H   H1664     1.0  0.88205  0.79604  0.95198  1.0000
  C   C1399     1.0  0.87019  0.96946  0.72469  1.0000
  H   H1665     1.0  0.81880  0.74532  0.93185  1.0000
  C   C1400     1.0  0.81214  0.73488  0.94083  1.0000
  C   C1401     1.0  0.75002  0.77917  0.51720  1.0000
  H   H1666     1.0  0.91323  0.76470  0.77218  1.0000
  H   H1667     1.0  0.90023  0.74399  0.79619  1.0000
  C   C1402     1.0  0.89829  0.77627  0.51318  1.0000
  H   H1668     1.0  0.83593  0.93883  0.51592  1.0000
  H   H1669     1.0  0.78228  0.75322  0.91665  1.0000
  C   C1403     1.0  0.87210  0.88463  0.53955  1.0000
  C   C1404     1.0  0.62148  0.72976  0.73754  1.0000
  H   H1670     1.0  0.66218  0.74926  0.70535  1.0000
  H   H1671     1.0  0.78255  0.74998  0.54072  1.0000
  H   H1672     1.0  0.75713  0.74436  0.92829  1.0000
  C   C1405     1.0  0.77527  0.76158  0.54002  1.0000
  N   N92       1.0  0.82859  0.91707  0.53263  1.0000
  C   C1406     1.0  0.97717  0.72510  0.87986  1.0000
  H   H1673     1.0  0.77757  0.73458  0.90641  1.0000
  H   H1674     1.0  0.66756  0.72292  0.69684  1.0000
  C   C1407     1.0  0.73672  0.75532  0.53162  1.0000
  H   H1675     1.0  0.96237  0.96848  0.70936  1.0000
  C   C1408     1.0  0.96485  0.73176  0.80732  1.0000
  H   H1676     1.0  0.74044  0.74315  0.53397  1.0000
  H   H1677     1.0  0.73216  0.75958  0.55240  1.0000
  N   N93       1.0  0.78787  0.73673  0.94852  1.0000
  N   N94       1.0  0.64516  0.73198  0.72797  1.0000
  H   H1678     1.0  0.87442  0.90716  0.52730  1.0000
  H   H1679     1.0  0.80798  0.89209  0.55259  1.0000
  C   C1409     1.0  0.86753  0.81437  0.97523  1.0000
  H   H1680     1.0  0.72118  0.75716  0.51904  1.0000
  C   C1410     1.0  0.86273  0.89886  0.53403  1.0000
  C   C1411     1.0  0.64596  0.74733  0.71643  1.0000
  N   N95       1.0  0.82501  0.82302  0.70400  1.0000
  C   C1412     1.0  0.83341  0.81022  0.68732  1.0000
  C   C1413     1.0  0.80159  0.82726  0.69521  1.0000
  C   C1414     1.0  0.83957  0.83588  0.69781  1.0000
  C   C1415     1.0  0.82514  0.81849  0.73319  1.0000
  C   C1416     1.0  0.83993  0.82470  0.75278  1.0000
  C   C1417     1.0  0.81121  0.80681  0.74238  1.0000
  C   C1418     1.0  0.84089  0.81927  0.77967  1.0000
  C   C1419     1.0  0.81220  0.80156  0.76932  1.0000
  C   C1420     1.0  0.82719  0.80764  0.78785  1.0000
  H   H1681     1.0  0.82192  0.80060  0.68844  1.0000
  H   H1682     1.0  0.83489  0.81326  0.66536  1.0000
  H   H1683     1.0  0.85052  0.80621  0.69418  1.0000
  H   H1684     1.0  0.78986  0.81781  0.69647  1.0000
  H   H1685     1.0  0.80118  0.83104  0.67340  1.0000
  H   H1686     1.0  0.79433  0.83650  0.70798  1.0000
  H   H1687     1.0  0.85781  0.83313  0.70175  1.0000
  H   H1688     1.0  0.83857  0.83915  0.67577  1.0000
  H   H1689     1.0  0.83421  0.84593  0.70979  1.0000
  H   H1690     1.0  0.85123  0.83356  0.74776  1.0000
  H   H1691     1.0  0.92038  0.92318  0.69564  1.0000
  C   C1421     1.0  0.88982  0.96950  0.51663  1.0000
  C   C1422     1.0  0.89283  0.76621  0.53377  1.0000
  H   H1692     1.0  0.88357  0.77004  0.55180  1.0000
  C   C1423     1.0  0.90969  0.74597  0.50711  1.0000
  C   C1424     1.0  0.87644  0.79991  0.97198  1.0000
  C   C1425     1.0  0.85838  0.87326  0.54886  1.0000
  H   H1693     1.0  0.98823  0.91228  0.62873  1.0000
  C   C1426     1.0  0.93141  0.76137  0.77573  1.0000
  H   H1694     1.0  0.82478  0.86732  0.56089  1.0000
  H   H1695     1.0  0.64343  0.75594  0.73258  1.0000
  H   H1696     1.0  0.91809  0.73289  0.81806  1.0000
  C   C1427     1.0  0.82576  0.89030  0.54778  1.0000
  S   S382      1.0  0.93003  0.72860  0.88029  1.0000
  H   H1697     1.0  0.85130  0.95849  0.75643  1.0000
  H   H1698     1.0  0.91042  0.94586  0.75597  1.0000
  H   H1699     1.0  0.63802  0.72274  0.68860  1.0000
  H   H1700     1.0  0.60876  0.73312  0.72167  1.0000
  N   N96       1.0  0.75648  0.76311  0.51993  1.0000
  H   H1701     1.0  0.93901  0.96027  0.67436  1.0000
  C   C1428     1.0  0.89848  0.75111  0.53074  1.0000
  H   H1702     1.0  0.90174  0.96574  0.53215  1.0000
  H   H1703     1.0  0.78939  0.76913  0.53541  1.0000
  H   H1704     1.0  0.66782  0.72661  0.99599  1.0000
  H   H1705     1.0  0.73609  0.78092  0.50211  1.0000
  H   H1706     1.0  0.91321  0.73410  0.50598  1.0000
  H   H1707     1.0  0.76777  0.74943  0.97761  1.0000
  C   C1429     1.0  0.86200  0.96776  0.75166  1.0000
  C   C1430     1.0  0.97569  0.75759  0.80472  1.0000
  C   C1431     1.0  0.83526  0.87608  0.55282  1.0000
  S   S383      1.0  0.87057  0.73275  0.84316  1.0000
  H   H1708     1.0  0.97067  0.94544  0.69291  1.0000
  H   H1709     1.0  0.89361  0.74331  0.54659  1.0000
  H   H1710     1.0  0.91042  0.95696  0.68505  1.0000
  C   C1432     1.0  0.82148  0.78023  0.98851  1.0000
  C   C1433     1.0  0.84478  0.75759  0.98692  1.0000
  H   H1711     1.0  0.63258  0.74938  0.70064  1.0000
  H   H1712     1.0  0.85871  0.93022  0.53412  1.0000
  H   H1713     1.0  0.97189  0.76942  0.80325  1.0000
  Fe  Fe192     1.0  0.62575  0.72477  0.63436  1.0000
  H   H1714     1.0  0.78052  0.73234  0.76321  1.0000
  H   H1715     1.0  0.92218  0.73235  0.78127  1.0000
  H   H1716     1.0  0.86658  0.82181  0.95770  1.0000
  H   H1717     1.0  0.70966  0.74274  0.77987  1.0000
  C   C1434     1.0  0.98611  0.75542  0.87914  1.0000
  H   H1718     1.0  0.79506  0.90942  0.52276  1.0000
  C   C1435     1.0  0.95161  0.96713  0.72711  1.0000
  H   H1719     1.0  0.79666  0.74590  0.98800  1.0000
  H   H1720     1.0  0.98350  0.96752  0.62450  1.0000
  C   C1436     1.0  0.92736  0.97093  0.97767  1.0000
  H   H1721     1.0  0.56414  0.72265  0.52261  1.0000
  H   H1722     1.0  0.98938  0.76723  0.87887  1.0000
  H   H1723     1.0  0.91894  0.94964  0.99511  1.0000
  S   S384      1.0  0.59429  0.72326  0.66110  1.0000
  C   C1437     1.0  0.98767  0.72741  0.81079  1.0000
  H   H1724     1.0  0.81466  0.72585  0.92538  1.0000
  H   H1725     1.0  0.85150  0.92360  0.50037  1.0000
  C   C1438     1.0  0.66160  0.72915  0.75039  1.0000
  C   C1439     1.0  0.69336  0.72276  0.79278  1.0000
  C   C1440     1.0  0.87762  0.79026  0.99433  1.0000
  H   H1726     1.0  0.88420  0.77892  0.99152  1.0000
  H   H1727     1.0  0.83330  0.97251  0.50400  1.0000
  H   H1728     1.0  0.95277  0.72295  0.80819  1.0000
