data_image0
_chemical_formula_structural       SHS2HSHFeCFeS2HCHCH2FeS2CH3CSFeS2CHNCHC6H5C2H2CHCHC2H5C3HC2H6NC6HSH2C3HCHCFeH2C2H4C2HSCH3CSNH2CFeHCH4CHFeH2CH4CNH2C2HC2FeH3SCHCHC3NCHSFeC2FeS2HSH2SHFeS2C6H5C2H2C4H3CHCNC2NCHCH2C2HCH5CH4C2HC3HCH4CNHCHSFeCSCFeCHSHSHCH2CH3SCH3CH3C4H5C5HCH3SHFeS2FeS2FeSFeS3HSCHSHC4HCHC2HC6H4C6H6C7H4NC9H14C3FeHFeH2C2SC2H4CH3CH3SCHSH2C2HNH4C3H2CH2CHNHNH3CHCHCH4C2H2C2H2FeH2C2SHC2H2S2H2CFeC2H3CFeS2H4FeSHSHC2FeSFeS2FeS2FeSFeS3FeSC6H4C6H5SH3CSHC6H4NC3H4CNCH3CSCNCNC6H9C3FeHCH2C2H4CHCSCH2CHFeNC6HCH8C5HCH2NFeH3C2HCHSCH2C2H6CHCHCHC2HCHC2SHCSHS2HSFeS2C2H2CHFeS2FeS2CH2FeCH2C6H4NC3H2CH4CFeCH3FeNC4H9CH3CH2C4SC3SCHCHSC2HC3H2CH3CSHCH2CHSHC3Fe2SH3C3HFeH2CHC5HCFeS2C4HCH6FeS2CSFeHC2FeS2C6H4CH2FeHCH2CHSHCHSH2NC2SHC4H4SCHCHCHFeHCSHNS2HCHFeC2HCHCH3NH4CH2CSH2C5H3C2HCH3CHCH5CH3CH2NHC2H2C2HC2SFeC5H5C4HSCHCSCFeHFe2SHFeHCS2CS2H2C6H4SHNHSCHSHCSCFeCHFe2HSH4C2HCNC5H10C2H4C2FeNC7H6FeH6C3HCHCSCHSHCHCHSC3SHCH2C6HCSC3SH3C2HFeS2H6FeS2C6H6CH5C3FeC2H5C3H2C6NC9H12C2HSH2CH2CH3SCH5NHC3HCH2NSFeC2FeHNCH3CHC6H2FeSHCHCS2CH3CSH2FeS2FeS2FeSFeS3FeSHFeSHSHC3H2C6H4C6H5CH7C6H3NC2H7SHCH3SH2CHCH2SC3H2CH2NC9HCH2CH8CHC3HCSH2NC2HCHNC2H2CH2CHCHC4HFeH2C2HCH2C3H7C3H2CHFeCSCHSCSCFeS2FeS2FeSFeS3H2FeSHCFeSC6H4C6H4C2SH2CHC3H2C4H2C6H4CNC9H13FeSCH2CHFeCSHCHC3SH2SHCH3FeHSHSHSFeCNC5HFeHCH3SH6CH3CNHCFeCH3C3H2CH4CH4SHSC2HC3H2C2HSH2FeSFeSC2H4CFeS2H2FeH2C6H10C3H2CHCNH2C4H2C2H4CH2CHCH2N2C3HCHSC2NCHCH3C3SHSHC2H3SH3CSCNH7CH3C2HNFeCH3CSCHCH2SHCH4C3H2NSH3CFeHCSH2SH2FeSHSHCH2FeHC2HS2FeS2C6H6FeH3CFeCHCHSC2HCH2CNHC2H5CHC3HC3SCHC2HCHCH2SH2C3HCHCSC3H3NHCH3CH4C2H2C2SH2C2HFeC2HCSHCNC2HSHCH3
_chemical_formula_sum              "S192 H864 Fe96 C720 N48"
_cell_length_a       55.5358
_cell_length_b       55.6566
_cell_length_c       33.7758
_cell_angle_alpha    90.884
_cell_angle_beta     87.7714
_cell_angle_gamma    88.9549

_space_group_name_H-M_alt    "P 1"
_space_group_IT_number       1

loop_
  _space_group_symop_operation_xyz
  'x, y, z'

loop_
  _atom_site_type_symbol
  _atom_site_label
  _atom_site_symmetry_multiplicity
  _atom_site_fract_x
  _atom_site_fract_y
  _atom_site_fract_z
  _atom_site_occupancy
  S   S1        1.0  0.47316  0.15115  0.21819  1.0000
  H   H1        1.0  0.04612  0.27387  0.23852  1.0000
  S   S2        1.0  0.01682  0.31177  0.12549  1.0000
  S   S3        1.0  0.33936  0.01186  0.21901  1.0000
  H   H2        1.0  0.30308  0.02371  0.02358  1.0000
  S   S4        1.0  0.18942  0.01685  0.45012  1.0000
  H   H3        1.0  0.40019  0.18811  0.26146  1.0000
  Fe  Fe1       1.0  0.14970  0.02112  0.46719  1.0000
  C   C1        1.0  0.47369  0.26578  0.12436  1.0000
  Fe  Fe2       1.0  0.01153  0.14178  0.44807  1.0000
  S   S5        1.0  0.03270  0.10709  0.42957  1.0000
  S   S6        1.0  0.02083  0.18079  0.45774  1.0000
  H   H4        1.0  0.04962  0.28677  0.28657  1.0000
  C   C2        1.0  0.20478  0.05641  0.24467  1.0000
  H   H5        1.0  0.02993  0.30082  0.25171  1.0000
  C   C3        1.0  0.36752  0.02929  0.04514  1.0000
  H   H6        1.0  0.36625  0.16813  0.23557  1.0000
  H   H7        1.0  0.12068  0.05793  0.30245  1.0000
  Fe  Fe3       1.0  0.45540  0.13900  0.27503  1.0000
  S   S7        1.0  0.42000  0.11953  0.28112  1.0000
  S   S8        1.0  0.45778  0.17501  0.30591  1.0000
  C   C4        1.0  0.44803  0.14854  0.10881  1.0000
  H   H8        1.0  0.20905  0.09397  0.25691  1.0000
  H   H9        1.0  0.46105  0.14138  0.08678  1.0000
  H   H10       1.0  0.13176  0.08112  0.38354  1.0000
  C   C5        1.0  0.09024  0.29098  0.24188  1.0000
  S   S9        1.0  0.27270  0.02854  0.23497  1.0000
  Fe  Fe4       1.0  0.35303  0.02483  0.16013  1.0000
  S   S10       1.0  0.38451  0.04917  0.14690  1.0000
  S   S11       1.0  0.31609  0.02859  0.13557  1.0000
  C   C6        1.0  0.44008  0.03949  0.25544  1.0000
  H   H11       1.0  0.37343  0.20681  0.20994  1.0000
  N   N1        1.0  0.38619  0.01711  0.01882  1.0000
  C   C7        1.0  0.47489  0.17884  0.44704  1.0000
  H   H12       1.0  0.46462  0.18528  0.42265  1.0000
  C   C8        1.0  0.41084  0.09958  0.24387  1.0000
  C   C9        1.0  0.38877  0.08793  0.24916  1.0000
  C   C10       1.0  0.38060  0.07228  0.21975  1.0000
  C   C11       1.0  0.39448  0.06821  0.18482  1.0000
  C   C12       1.0  0.41662  0.07975  0.17959  1.0000
  C   C13       1.0  0.42479  0.09542  0.20903  1.0000
  H   H13       1.0  0.37787  0.09113  0.27606  1.0000
  H   H14       1.0  0.36342  0.06362  0.22393  1.0000
  H   H15       1.0  0.42752  0.07652  0.15274  1.0000
  H   H16       1.0  0.44186  0.10426  0.20473  1.0000
  H   H17       1.0  0.34911  0.02354  0.03805  1.0000
  C   C14       1.0  0.08888  0.05932  0.44012  1.0000
  C   C15       1.0  0.06064  0.09398  0.44358  1.0000
  H   H18       1.0  0.39889  0.13111  0.16187  1.0000
  H   H19       1.0  0.45029  0.19419  0.49218  1.0000
  C   C16       1.0  0.06366  0.31014  0.19664  1.0000
  H   H20       1.0  0.46517  0.18274  0.11332  1.0000
  C   C17       1.0  0.41197  0.18164  0.23595  1.0000
  H   H21       1.0  0.09321  0.04118  0.42998  1.0000
  C   C18       1.0  0.24411  0.02510  0.30344  1.0000
  C   C19       1.0  0.22649  0.01462  0.32874  1.0000
  H   H22       1.0  0.25090  0.04264  0.31081  1.0000
  H   H23       1.0  0.21998  0.02406  0.35536  1.0000
  H   H24       1.0  0.16372  0.02360  0.36161  1.0000
  H   H25       1.0  0.00232  0.21774  0.23819  1.0000
  H   H26       1.0  0.42346  0.04695  0.26842  1.0000
  C   C20       1.0  0.49242  0.22091  0.14654  1.0000
  C   C21       1.0  0.46682  0.18391  0.48661  1.0000
  C   C22       1.0  0.06678  0.07038  0.43050  1.0000
  H   H27       1.0  0.16653  0.01952  0.29311  1.0000
  C   C23       1.0  0.47692  0.23365  0.17333  1.0000
  C   C24       1.0  0.41472  0.16688  0.16821  1.0000
  H   H28       1.0  0.40033  0.21394  0.18276  1.0000
  H   H29       1.0  0.11366  0.04867  0.35235  1.0000
  H   H30       1.0  0.16164  0.08994  0.37151  1.0000
  H   H31       1.0  0.05428  0.06058  0.41287  1.0000
  H   H32       1.0  0.99879  0.20185  0.30657  1.0000
  H   H33       1.0  0.17811  0.09615  0.30971  1.0000
  N   N2        1.0  0.15088  0.05784  0.34047  1.0000
  C   C25       1.0  0.16050  0.04252  0.37182  1.0000
  C   C26       1.0  0.14544  0.08199  0.35846  1.0000
  C   C27       1.0  0.12774  0.04781  0.32784  1.0000
  C   C28       1.0  0.16864  0.05801  0.30660  1.0000
  C   C29       1.0  0.17471  0.03638  0.28530  1.0000
  C   C30       1.0  0.18131  0.07893  0.29515  1.0000
  H   H34       1.0  0.40263  0.01363  0.29182  1.0000
  S   S12       1.0  0.13406  0.05944  0.47394  1.0000
  H   H35       1.0  0.39230  0.02507  0.24532  1.0000
  H   H36       1.0  0.17796  0.04938  0.38201  1.0000
  C   C31       1.0  0.10531  0.07187  0.46264  1.0000
  C   C32       1.0  0.45033  0.17180  0.12374  1.0000
  C   C33       1.0  0.46758  0.25611  0.16187  1.0000
  H   H37       1.0  0.09444  0.28799  0.27342  1.0000
  C   C34       1.0  0.43399  0.18088  0.15299  1.0000
  H   H38       1.0  0.21919  0.05551  0.22198  1.0000
  C   C35       1.0  0.37847  0.16018  0.21174  1.0000
  Fe  Fe5       1.0  0.49302  0.16100  0.32788  1.0000
  H   H39       1.0  0.42759  0.11616  0.11142  1.0000
  H   H40       1.0  0.37762  0.19693  0.15900  1.0000
  C   C36       1.0  0.41272  0.14329  0.15198  1.0000
  C   C37       1.0  0.42921  0.13437  0.12276  1.0000
  H   H41       1.0  0.07922  0.31857  0.18091  1.0000
  H   H42       1.0  0.41224  0.02252  0.06374  1.0000
  H   H43       1.0  0.14783  0.04205  0.39808  1.0000
  H   H44       1.0  0.43700  0.19881  0.16436  1.0000
  C   C38       1.0  0.19916  0.07799  0.26467  1.0000
  C   C39       1.0  0.25266  0.01334  0.26824  1.0000
  H   H45       1.0  0.38577  0.14317  0.22399  1.0000
  S   S13       1.0  0.46833  0.22224  0.22100  1.0000
  C   C40       1.0  0.19238  0.03573  0.25467  1.0000
  H   H46       1.0  0.08855  0.27304  0.22724  1.0000
  H   H47       1.0  0.42517  0.01549  0.01542  1.0000
  H   H48       1.0  0.24055  0.99613  0.44670  1.0000
  C   C41       1.0  0.07703  0.10642  0.46629  1.0000
  S   S14       1.0  0.48939  0.12420  0.29992  1.0000
  N   N3        1.0  0.39815  0.17672  0.20015  1.0000
  H   H49       1.0  0.36847  0.04920  0.04361  1.0000
  H   H50       1.0  0.46646  0.28312  0.11626  1.0000
  C   C42       1.0  0.38688  0.19955  0.18734  1.0000
  Fe  Fe6       1.0  0.49098  0.29794  0.01240  1.0000
  H   H51       1.0  0.36717  0.15574  0.18623  1.0000
  C   C43       1.0  0.99658  0.22091  0.30172  1.0000
  H   H52       1.0  0.48740  0.21833  0.01309  1.0000
  H   H53       1.0  0.42584  0.19551  0.23094  1.0000
  H   H54       1.0  0.05980  0.29326  0.18007  1.0000
  H   H55       1.0  0.42149  0.16509  0.24539  1.0000
  C   C44       1.0  0.99860  0.23001  0.26292  1.0000
  H   H56       1.0  0.25879  0.00621  0.40513  1.0000
  Fe  Fe7       1.0  0.30254  0.01203  0.19339  1.0000
  H   H57       1.0  0.45565  0.26622  0.18228  1.0000
  H   H58       1.0  0.04802  0.32260  0.19363  1.0000
  C   C45       1.0  0.04755  0.29131  0.25489  1.0000
  H   H59       1.0  0.12949  0.02855  0.31881  1.0000
  H   H60       1.0  0.19723  0.01884  0.23968  1.0000
  H   H61       1.0  0.13801  0.09456  0.33650  1.0000
  H   H62       1.0  0.36976  0.02487  0.07676  1.0000
  C   C46       1.0  0.09926  0.09549  0.47546  1.0000
  N   N4        1.0  0.06789  0.30575  0.23902  1.0000
  H   H63       1.0  0.41131  0.00996  0.18172  1.0000
  H   H64       1.0  0.10611  0.29955  0.22729  1.0000
  C   C47       1.0  0.44201  0.01570  0.23936  1.0000
  C   C48       1.0  0.39936  0.00890  0.26039  1.0000
  H   H65       1.0  0.46339  0.12778  0.47425  1.0000
  C   C49       1.0  0.41002  0.02527  0.03142  1.0000
  C   C50       1.0  0.48926  0.25307  0.09762  1.0000
  Fe  Fe8       1.0  0.47820  0.18635  0.24990  1.0000
  H   H66       1.0  0.41219  0.04480  0.02586  1.0000
  H   H67       1.0  0.38450  0.99566  0.26079  1.0000
  H   H68       1.0  0.07268  0.12457  0.47650  1.0000
  S   S15       1.0  0.99877  0.26513  0.20617  1.0000
  C   C51       1.0  0.45987  0.05472  0.25475  1.0000
  H   H69       1.0  0.45795  0.07283  0.26709  1.0000
  C   C52       1.0  0.30870  0.01305  0.99768  1.0000
  H   H70       1.0  0.11181  0.10543  0.49280  1.0000
  C   C53       1.0  0.48197  0.04693  0.23783  1.0000
  C   C54       1.0  0.48444  0.02382  0.22162  1.0000
  C   C55       1.0  0.46479  0.00840  0.22221  1.0000
  N   N5        1.0  0.42151  0.99900  0.23954  1.0000
  C   C56       1.0  0.99575  0.25476  0.25582  1.0000
  H   H71       1.0  0.03987  0.32631  0.30302  1.0000
  S   S16       1.0  0.00007  0.31747  0.77875  1.0000
  Fe  Fe9       1.0  0.48148  0.16699  0.62616  1.0000
  C   C57       1.0  0.38920  0.12717  0.56473  1.0000
  C   C58       1.0  0.46656  0.25416  0.80905  1.0000
  Fe  Fe10      1.0  0.46103  0.13954  0.69782  1.0000
  S   S17       1.0  0.46164  0.17883  0.68318  1.0000
  S   S18       1.0  0.42606  0.12709  0.72688  1.0000
  H   H72       1.0  0.48627  0.22088  0.63714  1.0000
  S   S19       1.0  0.46951  0.18373  0.56827  1.0000
  H   H73       1.0  0.47477  0.25287  0.97793  1.0000
  H   H74       1.0  0.46929  0.19794  0.98579  1.0000
  S   S20       1.0  0.47799  0.12771  0.63909  1.0000
  H   H75       1.0  0.46665  0.24278  0.66102  1.0000
  Fe  Fe11      1.0  0.35220  0.00792  0.73940  1.0000
  S   S21       1.0  0.38382  0.02274  0.70330  1.0000
  S   S22       1.0  0.31631  0.02418  0.75993  1.0000
  C   C59       1.0  0.39583  0.05143  0.71188  1.0000
  C   C60       1.0  0.41792  0.05727  0.69304  1.0000
  C   C61       1.0  0.42788  0.08009  0.69856  1.0000
  C   C62       1.0  0.41544  0.09747  0.72214  1.0000
  C   C63       1.0  0.39341  0.09160  0.74109  1.0000
  C   C64       1.0  0.38371  0.06860  0.73627  1.0000
  H   H76       1.0  0.42742  0.04403  0.67422  1.0000
  H   H77       1.0  0.44499  0.08432  0.68416  1.0000
  H   H78       1.0  0.38370  0.10496  0.75938  1.0000
  H   H79       1.0  0.36666  0.06429  0.75082  1.0000
  H   H80       1.0  0.23893  0.05566  0.85315  1.0000
  C   C65       1.0  0.47160  0.20860  0.88531  1.0000
  C   C66       1.0  0.45816  0.11903  0.50168  1.0000
  H   H81       1.0  0.01162  0.26888  0.65931  1.0000
  H   H82       1.0  0.02672  0.24112  0.60511  1.0000
  C   C67       1.0  0.43197  0.11766  0.56196  1.0000
  C   C68       1.0  0.38361  0.02218  0.97624  1.0000
  C   C69       1.0  0.47301  0.24125  0.95112  1.0000
  C   C70       1.0  0.99950  0.25636  0.64607  1.0000
  H   H83       1.0  0.45421  0.23469  0.95235  1.0000
  H   H84       1.0  0.39021  0.13807  0.53744  1.0000
  H   H85       1.0  0.34975  0.05445  0.91175  1.0000
  C   C71       1.0  0.03483  0.32237  0.96775  1.0000
  H   H86       1.0  0.48577  0.22462  0.69032  1.0000
  C   C72       1.0  0.39662  0.01455  0.90665  1.0000
  N   N6        1.0  0.49102  0.22115  0.94949  1.0000
  C   C73       1.0  0.48044  0.26501  0.83818  1.0000
  C   C74       1.0  0.43888  0.12830  0.52539  1.0000
  N   N7        1.0  0.41172  0.12815  0.58682  1.0000
  C   C75       1.0  0.40747  0.11552  0.62480  1.0000
  H   H87       1.0  0.46227  0.30844  0.74080  1.0000
  C   C76       1.0  0.41667  0.15360  0.59684  1.0000
  H   H88       1.0  0.43343  0.01595  0.73965  1.0000
  H   H89       1.0  0.39262  0.12406  0.64352  1.0000
  C   C77       1.0  0.47101  0.00578  0.73653  1.0000
  C   C78       1.0  0.30719  0.02282  0.95944  1.0000
  H   H90       1.0  0.40234  0.16183  0.61692  1.0000
  C   C79       1.0  0.24385  0.03980  0.87106  1.0000
  H   H91       1.0  0.25594  0.00349  0.79104  1.0000
  H   H92       1.0  0.47665  0.02208  0.75122  1.0000
  H   H93       1.0  0.48696  0.16318  0.82001  1.0000
  H   H94       1.0  0.44811  0.26018  0.80589  1.0000
  H   H95       1.0  0.45841  0.22313  0.88721  1.0000
  C   C80       1.0  0.37888  0.03036  0.89406  1.0000
  H   H96       1.0  0.21443  0.99912  0.81589  1.0000
  H   H97       1.0  0.20183  0.99739  0.60742  1.0000
  H   H98       1.0  0.03483  0.31447  0.84594  1.0000
  H   H99       1.0  0.21040  0.03088  0.82058  1.0000
  C   C81       1.0  0.24915  0.99540  0.87064  1.0000
  C   C82       1.0  0.48005  0.17601  0.51890  1.0000
  H   H100      1.0  0.03144  0.30507  0.98108  1.0000
  C   C83       1.0  0.44671  0.00234  0.72990  1.0000
  C   C84       1.0  0.36383  0.04252  0.92186  1.0000
  C   C85       1.0  0.47121  0.09903  0.51369  1.0000
  H   H101      1.0  0.43398  0.15505  0.61213  1.0000
  C   C86       1.0  0.36599  0.03853  0.96237  1.0000
  H   H102      1.0  0.27692  0.01969  0.81952  1.0000
  H   H103      1.0  0.06675  0.31515  0.85526  1.0000
  H   H104      1.0  0.37340  0.13417  0.58302  1.0000
  H   H105      1.0  0.44146  0.08743  0.60005  1.0000
  C   C87       1.0  0.05129  0.32557  0.84382  1.0000
  N   N8        1.0  0.24200  0.01691  0.84822  1.0000
  H   H106      1.0  0.47510  0.07247  0.55856  1.0000
  C   C88       1.0  0.47638  0.23579  0.78365  1.0000
  H   H107      1.0  0.46546  0.22780  0.76134  1.0000
  S   S23       1.0  0.00497  0.20386  0.55996  1.0000
  Fe  Fe12      1.0  0.48054  0.30733  0.92458  1.0000
  C   C89       1.0  0.48492  0.23441  0.66191  1.0000
  S   S24       1.0  0.31180  0.02248  0.87771  1.0000
  C   C90       1.0  0.48134  0.28301  0.70148  1.0000
  Fe  Fe13      1.0  0.32162  0.00446  0.81736  1.0000
  C   C91       1.0  0.25573  0.99655  0.91092  1.0000
  H   H108      1.0  0.42372  0.11611  0.64296  1.0000
  S   S25       1.0  0.46730  0.28874  0.86832  1.0000
  H   H109      1.0  0.45710  0.19621  0.83045  1.0000
  S   S26       1.0  0.15271  0.99612  0.51878  1.0000
  H   H110      1.0  0.46629  0.28211  0.68224  1.0000
  C   C92       1.0  0.44528  0.09684  0.57285  1.0000
  H   H111      1.0  0.23160  0.04022  0.89794  1.0000
  H   H112      1.0  0.20439  0.01217  0.86281  1.0000
  C   C93       1.0  0.31423  0.00924  0.92524  1.0000
  H   H113      1.0  0.42977  0.14421  0.51513  1.0000
  H   H114      1.0  0.40248  0.09643  0.62013  1.0000
  H   H115      1.0  0.30056  0.04106  0.95635  1.0000
  S   S27       1.0  0.45682  0.30567  0.98041  1.0000
  C   C94       1.0  0.47064  0.19324  0.85225  1.0000
  H   H116      1.0  0.38535  0.10834  0.55564  1.0000
  H   H117      1.0  0.35320  0.04805  0.98202  1.0000
  H   H118      1.0  0.21656  0.99974  0.67596  1.0000
  C   C95       1.0  0.48749  0.17459  0.84630  1.0000
  H   H119      1.0  0.48364  0.27492  0.62070  1.0000
  H   H120      1.0  0.41815  0.16513  0.57032  1.0000
  H   H121      1.0  0.25346  0.03527  0.79479  1.0000
  C   C96       1.0  0.48945  0.20538  0.91396  1.0000
  C   C97       1.0  0.21669  0.01467  0.83642  1.0000
  C   C98       1.0  0.46473  0.08790  0.54910  1.0000
  C   C99       1.0  0.00802  0.24056  0.61527  1.0000
  H   H122      1.0  0.47542  0.25322  0.92526  1.0000
  H   H123      1.0  0.25653  0.01327  0.92738  1.0000
  H   H124      1.0  0.26269  0.04263  0.88023  1.0000
  H   H125      1.0  0.37655  0.03302  0.86267  1.0000
  H   H126      1.0  0.03982  0.30719  0.91032  1.0000
  C   C100      1.0  0.39915  0.01063  0.94711  1.0000
  C   C101      1.0  0.48707  0.20683  0.98577  1.0000
  C   C102      1.0  0.47886  0.29823  0.73480  1.0000
  C   C103      1.0  0.25768  0.01889  0.81190  1.0000
  C   C104      1.0  0.03958  0.32393  0.92689  1.0000
  H   H127      1.0  0.40823  0.00508  0.88482  1.0000
  C   C105      1.0  0.22905  0.99501  0.65161  1.0000
  H   H128      1.0  0.41319  0.99822  0.95536  1.0000
  H   H129      1.0  0.49513  0.31112  0.78768  1.0000
  H   H130      1.0  0.48653  0.09232  0.49566  1.0000
  S   S28       1.0  0.28729  0.50391  0.07747  1.0000
  H   H131      1.0  0.13987  0.52316  0.08966  1.0000
  Fe  Fe14      1.0  0.17187  0.47736  0.22753  1.0000
  S   S29       1.0  0.13452  0.48529  0.20660  1.0000
  S   S30       1.0  0.19855  0.46140  0.17970  1.0000
  Fe  Fe15      1.0  0.15737  0.49355  0.31431  1.0000
  S   S31       1.0  0.11967  0.50339  0.29798  1.0000
  S   S32       1.0  0.17145  0.50218  0.37618  1.0000
  Fe  Fe16      1.0  0.12102  0.46846  0.26304  1.0000
  S   S33       1.0  0.08799  0.44528  0.27138  1.0000
  Fe  Fe17      1.0  0.13629  0.51921  0.24292  1.0000
  S   S34       1.0  0.12778  0.55561  0.21690  1.0000
  S   S35       1.0  0.15809  0.45763  0.28206  1.0000
  S   S36       1.0  0.17432  0.51228  0.26124  1.0000
  H   H132      1.0  0.06793  0.63684  0.21891  1.0000
  S   S37       1.0  0.05514  0.36601  0.14848  1.0000
  C   C106      1.0  0.37210  0.36859  0.06510  1.0000
  H   H133      1.0  0.19888  0.48625  0.00798  1.0000
  S   S38       1.0  0.02035  0.58252  0.17428  1.0000
  H   H134      1.0  0.29470  0.44544  0.11788  1.0000
  C   C107      1.0  0.16123  0.49465  0.42534  1.0000
  C   C108      1.0  0.14416  0.47690  0.43281  1.0000
  C   C109      1.0  0.21227  0.53791  0.08163  1.0000
  C   C110      1.0  0.07660  0.37392  0.29933  1.0000
  H   H135      1.0  0.37955  0.37743  0.12532  1.0000
  C   C111      1.0  0.17232  0.50534  0.45788  1.0000
  H   H136      1.0  0.13531  0.46854  0.40832  1.0000
  C   C112      1.0  0.20244  0.50081  0.02852  1.0000
  C   C113      1.0  0.30970  0.43175  0.11691  1.0000
  H   H137      1.0  0.18561  0.51903  0.45265  1.0000
  C   C114      1.0  0.07828  0.42495  0.23485  1.0000
  C   C115      1.0  0.05559  0.41439  0.24008  1.0000
  C   C116      1.0  0.04809  0.39655  0.21350  1.0000
  C   C117      1.0  0.06323  0.38924  0.18135  1.0000
  C   C118      1.0  0.08570  0.40014  0.17566  1.0000
  C   C119      1.0  0.09319  0.41800  0.20222  1.0000
  H   H138      1.0  0.04400  0.41964  0.26534  1.0000
  H   H139      1.0  0.03086  0.38813  0.21836  1.0000
  H   H140      1.0  0.09747  0.39459  0.15078  1.0000
  H   H141      1.0  0.11069  0.42600  0.19794  1.0000
  C   C120      1.0  0.09819  0.56231  0.20262  1.0000
  C   C121      1.0  0.07972  0.54580  0.20788  1.0000
  C   C122      1.0  0.05603  0.55213  0.19827  1.0000
  C   C123      1.0  0.05070  0.57484  0.18292  1.0000
  C   C124      1.0  0.06938  0.59095  0.17602  1.0000
  C   C125      1.0  0.09301  0.58478  0.18624  1.0000
  H   H142      1.0  0.08354  0.52838  0.22024  1.0000
  H   H143      1.0  0.04172  0.53948  0.20333  1.0000
  H   H144      1.0  0.06558  0.60816  0.16301  1.0000
  H   H145      1.0  0.10730  0.59752  0.18171  1.0000
  H   H146      1.0  0.03980  0.59148  0.27105  1.0000
  H   H147      1.0  0.06239  0.55566  0.28936  1.0000
  C   C126      1.0  0.14920  0.52059  0.11787  1.0000
  C   C127      1.0  0.26153  0.49268  0.10389  1.0000
  C   C128      1.0  0.24869  0.47299  0.09027  1.0000
  C   C129      1.0  0.22935  0.46385  0.11361  1.0000
  C   C130      1.0  0.22215  0.47460  0.15033  1.0000
  C   C131      1.0  0.23462  0.49468  0.16340  1.0000
  C   C132      1.0  0.25430  0.50345  0.14055  1.0000
  H   H148      1.0  0.25371  0.46476  0.06188  1.0000
  H   H149      1.0  0.21980  0.44839  0.10302  1.0000
  H   H150      1.0  0.22947  0.50320  0.19153  1.0000
  H   H151      1.0  0.26408  0.51868  0.15141  1.0000
  N   N9        1.0  0.20781  0.43683  0.38235  1.0000
  C   C133      1.0  0.21291  0.45266  0.41677  1.0000
  C   C134      1.0  0.18137  0.43373  0.38162  1.0000
  C   C135      1.0  0.21953  0.41315  0.38929  1.0000
  C   C136      1.0  0.21644  0.44650  0.34380  1.0000
  C   C137      1.0  0.21494  0.43247  0.30850  1.0000
  C   C138      1.0  0.22523  0.47022  0.33964  1.0000
  C   C139      1.0  0.22235  0.44140  0.27163  1.0000
  C   C140      1.0  0.23257  0.47895  0.30258  1.0000
  C   C141      1.0  0.23128  0.46453  0.26874  1.0000
  H   H152      1.0  0.20340  0.47029  0.41520  1.0000
  H   H153      1.0  0.20651  0.44490  0.44543  1.0000
  H   H154      1.0  0.23254  0.45593  0.41865  1.0000
  H   H155      1.0  0.17221  0.45082  0.37352  1.0000
  H   H156      1.0  0.17355  0.42837  0.41097  1.0000
  H   H157      1.0  0.17627  0.42000  0.35939  1.0000
  H   H158      1.0  0.23952  0.41452  0.38731  1.0000
  H   H159      1.0  0.21439  0.40616  0.41913  1.0000
  H   H160      1.0  0.21434  0.39912  0.36769  1.0000
  H   H161      1.0  0.20731  0.41477  0.30890  1.0000
  H   H162      1.0  0.22598  0.48271  0.36433  1.0000
  H   H163      1.0  0.22049  0.43068  0.24483  1.0000
  H   H164      1.0  0.23877  0.49725  0.29998  1.0000
  H   H165      1.0  0.23664  0.47144  0.24000  1.0000
  C   C142      1.0  0.05487  0.33682  0.29237  1.0000
  C   C143      1.0  0.22908  0.53130  0.05133  1.0000
  C   C144      1.0  0.05795  0.35899  0.31147  1.0000
  Fe  Fe18      1.0  0.01846  0.34881  0.15263  1.0000
  H   H166      1.0  0.01802  0.65584  0.29195  1.0000
  Fe  Fe19      1.0  0.00605  0.61922  0.15716  1.0000
  H   H167      1.0  0.30933  0.45779  0.05294  1.0000
  H   H168      1.0  0.12094  0.59866  0.32551  1.0000
  C   C145      1.0  0.18548  0.50722  0.05879  1.0000
  C   C146      1.0  0.13893  0.46948  0.47203  1.0000
  S   S39       1.0  0.43960  0.37495  0.01379  1.0000
  C   C147      1.0  0.18982  0.52622  0.08616  1.0000
  C   C148      1.0  0.18278  0.52990  0.15724  1.0000
  H   H169      1.0  0.18187  0.57137  0.11965  1.0000
  H   H170      1.0  0.18621  0.51046  0.16200  1.0000
  H   H171      1.0  0.20008  0.53928  0.16049  1.0000
  H   H172      1.0  0.17050  0.53647  0.18199  1.0000
  C   C149      1.0  0.16615  0.55980  0.11474  1.0000
  H   H173      1.0  0.13635  0.52690  0.14225  1.0000
  H   H174      1.0  0.09902  0.63516  0.30983  1.0000
  H   H175      1.0  0.41174  0.41655  0.03955  1.0000
  C   C150      1.0  0.34906  0.39797  0.10533  1.0000
  H   H176      1.0  0.15195  0.56578  0.13728  1.0000
  H   H177      1.0  0.34706  0.40707  0.13373  1.0000
  H   H178      1.0  0.28668  0.39642  0.07587  1.0000
  S   S40       1.0  0.49467  0.66014  0.00282  1.0000
  C   C151      1.0  0.09219  0.36684  0.26788  1.0000
  H   H179      1.0  0.01710  0.62406  0.28782  1.0000
  S   S41       1.0  0.02455  0.65360  0.14138  1.0000
  H   H180      1.0  0.15934  0.56378  0.08494  1.0000
  H   H181      1.0  0.10129  0.34056  0.22333  1.0000
  C   C152      1.0  0.06989  0.57325  0.29440  1.0000
  C   C153      1.0  0.33399  0.40330  0.07337  1.0000
  H   H182      1.0  0.04080  0.65469  0.22450  1.0000
  N   N10       1.0  0.17219  0.53384  0.11823  1.0000
  H   H183      1.0  0.37656  0.43808  0.01237  1.0000
  H   H184      1.0  0.15220  0.50100  0.12256  1.0000
  H   H185      1.0  0.12610  0.45538  0.47715  1.0000
  H   H186      1.0  0.29320  0.40949  0.02828  1.0000
  C   C154      1.0  0.36784  0.38088  0.10100  1.0000
  C   C155      1.0  0.29205  0.41323  0.06074  1.0000
  C   C156      1.0  0.35753  0.37323  0.03341  1.0000
  H   H187      1.0  0.36140  0.36417  0.00512  1.0000
  H   H188      1.0  0.02960  0.63774  0.33087  1.0000
  C   C157      1.0  0.08920  0.34482  0.24839  1.0000
  H   H189      1.0  0.34020  0.45003  0.06157  1.0000
  H   H190      1.0  0.32539  0.44123  0.12890  1.0000
  C   C158      1.0  0.10288  0.59750  0.31458  1.0000
  H   H191      1.0  0.39718  0.59815  0.03392  1.0000
  N   N11       1.0  0.05269  0.63881  0.27833  1.0000
  H   H192      1.0  0.21718  0.55207  0.10183  1.0000
  N   N12       1.0  0.31498  0.42236  0.07597  1.0000
  H   H193      1.0  0.00352  0.42399  0.19518  1.0000
  H   H194      1.0  0.32580  0.43746  0.01971  1.0000
  H   H195      1.0  0.48258  0.60889  0.02510  1.0000
  C   C159      1.0  0.05702  0.59394  0.28432  1.0000
  H   H196      1.0  0.10310  0.55885  0.31557  1.0000
  C   C160      1.0  0.40453  0.41046  0.01191  1.0000
  H   H197      1.0  0.02916  0.34169  0.02302  1.0000
  C   C161      1.0  0.06657  0.61720  0.28982  1.0000
  H   H198      1.0  0.38719  0.35597  0.06139  1.0000
  H   H199      1.0  0.04556  0.36484  0.33543  1.0000
  H   H200      1.0  0.07856  0.39141  0.31340  1.0000
  H   H201      1.0  0.16922  0.49690  0.06023  1.0000
  C   C162      1.0  0.22414  0.51288  0.02470  1.0000
  C   C163      1.0  0.09002  0.61839  0.30525  1.0000
  H   H202      1.0  0.32922  0.39441  0.01083  1.0000
  H   H203      1.0  0.10612  0.37894  0.25766  1.0000
  C   C164      1.0  0.32288  0.44277  0.05146  1.0000
  C   C165      1.0  0.09284  0.57501  0.30916  1.0000
  H   H204      1.0  0.03922  0.62274  0.22506  1.0000
  H   H205      1.0  0.30427  0.41711  0.13726  1.0000
  Fe  Fe20      1.0  0.30190  0.49806  0.01343  1.0000
  H   H206      1.0  0.37193  0.56526  0.00856  1.0000
  H   H207      1.0  0.01215  0.46667  0.18306  1.0000
  C   C166      1.0  0.33895  0.39049  0.03717  1.0000
  C   C167      1.0  0.02834  0.63905  0.29817  1.0000
  S   S42       1.0  0.34197  0.49217  0.00014  1.0000
  H   H208      1.0  0.24636  0.54011  0.04895  1.0000
  C   C168      1.0  0.05003  0.63820  0.23488  1.0000
  C   C169      1.0  0.39885  0.59289  0.00294  1.0000
  H   H209      1.0  0.27697  0.42659  0.06531  1.0000
  H   H210      1.0  0.47365  0.55518  0.02398  1.0000
  S   S43       1.0  0.43329  0.62809  0.99790  1.0000
  S   S44       1.0  0.99779  0.33843  0.20810  1.0000
  H   H211      1.0  0.23735  0.50771  0.00143  1.0000
  H   H212      1.0  0.45646  0.57680  0.99844  1.0000
  C   C170      1.0  0.07054  0.32902  0.26017  1.0000
  Fe  Fe21      1.0  0.99618  0.65746  0.09513  1.0000
  C   C171      1.0  0.38455  0.42271  0.99656  1.0000
  C   C172      1.0  0.47293  0.56500  0.99568  1.0000
  H   H213      1.0  0.03422  0.55203  0.82563  1.0000
  H   H214      1.0  0.41342  0.36686  0.94100  1.0000
  H   H215      1.0  0.07694  0.39052  0.63959  1.0000
  C   C173      1.0  0.39767  0.46103  0.87826  1.0000
  Fe  Fe22      1.0  0.33819  0.51925  0.95173  1.0000
  S   S45       1.0  0.32823  0.49146  0.90584  1.0000
  S   S46       1.0  0.36901  0.54327  0.92868  1.0000
  H   H216      1.0  0.02953  0.36409  0.81597  1.0000
  H   H217      1.0  0.05223  0.61246  0.78451  1.0000
  H   H218      1.0  0.38009  0.46915  0.87009  1.0000
  H   H219      1.0  0.09040  0.51515  0.75868  1.0000
  Fe  Fe23      1.0  0.28940  0.49750  0.92568  1.0000
  S   S47       1.0  0.25514  0.50434  0.89082  1.0000
  H   H220      1.0  0.42016  0.43411  0.93771  1.0000
  S   S48       1.0  0.29900  0.52735  0.96825  1.0000
  H   H221      1.0  0.47415  0.60559  0.95637  1.0000
  C   C174      1.0  0.07432  0.59912  0.87381  1.0000
  C   C175      1.0  0.20594  0.58172  0.73977  1.0000
  Fe  Fe24      1.0  0.01483  0.34798  0.74232  1.0000
  S   S49       1.0  0.05451  0.35740  0.73979  1.0000
  Fe  Fe25      1.0  0.14533  0.52572  0.67620  1.0000
  S   S50       1.0  0.17698  0.50657  0.64507  1.0000
  S   S51       1.0  0.14809  0.56600  0.68253  1.0000
  Fe  Fe26      1.0  0.12026  0.47905  0.69521  1.0000
  S   S52       1.0  0.15015  0.45660  0.66631  1.0000
  S   S53       1.0  0.08416  0.46671  0.72035  1.0000
  Fe  Fe27      1.0  0.17518  0.48183  0.69756  1.0000
  S   S54       1.0  0.21013  0.47018  0.72714  1.0000
  Fe  Fe28      1.0  0.14930  0.48343  0.61648  1.0000
  S   S55       1.0  0.14392  0.46871  0.55313  1.0000
  S   S56       1.0  0.14502  0.50233  0.72977  1.0000
  S   S57       1.0  0.11800  0.50461  0.64449  1.0000
  Fe  Fe29      1.0  0.02819  0.64457  0.73107  1.0000
  S   S58       1.0  0.06869  0.64658  0.72530  1.0000
  C   C176      1.0  0.12453  0.58690  0.69438  1.0000
  C   C177      1.0  0.10000  0.58106  0.69592  1.0000
  C   C178      1.0  0.08226  0.59905  0.70549  1.0000
  C   C179      1.0  0.08921  0.62276  0.71326  1.0000
  C   C180      1.0  0.11367  0.62825  0.71191  1.0000
  C   C181      1.0  0.13114  0.61052  0.70246  1.0000
  H   H222      1.0  0.09473  0.56283  0.68950  1.0000
  H   H223      1.0  0.06336  0.59464  0.70646  1.0000
  H   H224      1.0  0.11919  0.64646  0.71787  1.0000
  H   H225      1.0  0.14997  0.61523  0.70114  1.0000
  C   C182      1.0  0.07658  0.43614  0.72511  1.0000
  C   C183      1.0  0.05222  0.43032  0.73058  1.0000
  C   C184      1.0  0.04533  0.40631  0.73496  1.0000
  C   C185      1.0  0.06274  0.38783  0.73435  1.0000
  C   C186      1.0  0.08716  0.39363  0.72898  1.0000
  C   C187      1.0  0.09408  0.41770  0.72423  1.0000
  H   H226      1.0  0.03858  0.44446  0.73127  1.0000
  H   H227      1.0  0.02652  0.40217  0.73851  1.0000
  H   H228      1.0  0.10078  0.37947  0.72847  1.0000
  H   H229      1.0  0.11295  0.42201  0.72047  1.0000
  H   H230      1.0  0.99766  0.42437  0.60406  1.0000
  S   S59       1.0  0.29062  0.46874  0.97201  1.0000
  H   H231      1.0  0.04937  0.51657  0.78915  1.0000
  H   H232      1.0  0.37798  0.38810  0.91410  1.0000
  H   H233      1.0  0.08011  0.62047  0.80490  1.0000
  C   C188      1.0  0.15014  0.48008  0.50456  1.0000
  S   S60       1.0  0.00425  0.65248  0.68092  1.0000
  H   H234      1.0  0.09352  0.60174  0.86465  1.0000
  C   C189      1.0  0.24253  0.49288  0.84650  1.0000
  C   C190      1.0  0.25527  0.47742  0.81973  1.0000
  C   C191      1.0  0.24487  0.47017  0.78392  1.0000
  C   C192      1.0  0.22154  0.47803  0.77447  1.0000
  C   C193      1.0  0.20841  0.49253  0.80216  1.0000
  C   C194      1.0  0.21896  0.50017  0.83751  1.0000
  H   H235      1.0  0.27333  0.47147  0.82617  1.0000
  H   H236      1.0  0.25515  0.45869  0.76310  1.0000
  H   H237      1.0  0.19013  0.49795  0.79629  1.0000
  H   H238      1.0  0.20875  0.51181  0.85816  1.0000
  N   N13       1.0  0.49491  0.57915  0.98734  1.0000
  C   C195      1.0  0.41711  0.59788  0.93765  1.0000
  C   C196      1.0  0.40286  0.57902  0.92340  1.0000
  C   C197      1.0  0.38631  0.56711  0.94865  1.0000
  H   H239      1.0  0.02785  0.61147  0.87054  1.0000
  H   H240      1.0  0.08470  0.41167  0.53979  1.0000
  H   H241      1.0  0.42948  0.60695  0.91767  1.0000
  H   H242      1.0  0.40446  0.57384  0.89241  1.0000
  C   C198      1.0  0.05243  0.55254  0.81336  1.0000
  N   N14       1.0  0.05900  0.59515  0.83941  1.0000
  C   C199      1.0  0.03355  0.59444  0.85474  1.0000
  H   H243      1.0  0.02084  0.59215  0.83033  1.0000
  H   H244      1.0  0.05265  0.63271  0.82634  1.0000
  H   H245      1.0  0.40726  0.49441  0.96108  1.0000
  C   C200      1.0  0.06955  0.36334  0.85704  1.0000
  S   S61       1.0  0.48626  0.34743  0.93044  1.0000
  C   C201      1.0  0.03340  0.34305  0.99150  1.0000
  N   N15       1.0  0.21530  0.55692  0.73120  1.0000
  C   C202      1.0  0.19664  0.53997  0.74481  1.0000
  N   N16       1.0  0.04770  0.34897  0.86529  1.0000
  C   C203      1.0  0.23789  0.55111  0.75124  1.0000
  C   C204      1.0  0.24672  0.56572  0.78226  1.0000
  C   C205      1.0  0.25071  0.52928  0.74223  1.0000
  C   C206      1.0  0.26708  0.55875  0.80270  1.0000
  C   C207      1.0  0.27129  0.52275  0.76236  1.0000
  C   C208      1.0  0.27929  0.53730  0.79284  1.0000
  H   H246      1.0  0.20123  0.52120  0.73523  1.0000
  H   H247      1.0  0.17884  0.54430  0.73268  1.0000
  H   H248      1.0  0.19438  0.54028  0.77770  1.0000
  H   H249      1.0  0.03510  0.38151  0.99307  1.0000
  H   H250      1.0  0.20007  0.58421  0.77146  1.0000
  H   H251      1.0  0.23790  0.58231  0.79203  1.0000
  H   H252      1.0  0.27314  0.56972  0.82707  1.0000
  H   H253      1.0  0.29458  0.53159  0.80964  1.0000
  H   H254      1.0  0.03415  0.44455  0.58045  1.0000
  C   C209      1.0  0.01525  0.41715  0.61105  1.0000
  C   C210      1.0  0.40554  0.38243  0.95653  1.0000
  C   C211      1.0  0.08374  0.43077  0.55006  1.0000
  Fe  Fe30      1.0  0.45985  0.65526  0.97090  1.0000
  H   H255      1.0  0.45840  0.49550  0.89043  1.0000
  C   C212      1.0  0.04322  0.34651  0.90858  1.0000
  H   H256      1.0  0.00050  0.38753  0.64350  1.0000
  H   H257      1.0  0.24435  0.51648  0.72078  1.0000
  C   C213      1.0  0.38447  0.57417  0.98863  1.0000
  C   C214      1.0  0.08408  0.53108  0.77521  1.0000
  H   H258      1.0  0.42362  0.49865  0.85341  1.0000
  H   H259      1.0  0.06835  0.61543  0.89138  1.0000
  H   H260      1.0  0.04314  0.38505  0.92179  1.0000
  H   H261      1.0  0.10036  0.43970  0.53853  1.0000
  C   C215      1.0  0.06111  0.61606  0.81286  1.0000
  H   H262      1.0  0.06727  0.38233  0.86726  1.0000
  C   C216      1.0  0.45827  0.43296  0.93918  1.0000
  S   S62       1.0  0.47818  0.65224  0.91071  1.0000
  C   C217      1.0  0.06088  0.53197  0.79241  1.0000
  H   H263      1.0  0.02308  0.37948  0.86205  1.0000
  H   H264      1.0  0.07406  0.36419  0.82457  1.0000
  C   C218      1.0  0.06722  0.57298  0.81760  1.0000
  H   H265      1.0  0.06832  0.43961  0.53568  1.0000
  Fe  Fe31      1.0  0.33040  0.46495  0.95535  1.0000
  N   N17       1.0  0.08140  0.43252  0.59388  1.0000
  C   C219      1.0  0.07977  0.45830  0.60577  1.0000
  C   C220      1.0  0.10395  0.42252  0.60996  1.0000
  C   C221      1.0  0.05944  0.41995  0.60787  1.0000
  C   C222      1.0  0.03624  0.42868  0.59809  1.0000
  C   C223      1.0  0.06028  0.39854  0.63032  1.0000
  C   C224      1.0  0.49047  0.59380  0.95187  1.0000
  H   H266      1.0  0.40807  0.45599  0.85046  1.0000
  C   C225      1.0  0.43628  0.44379  0.93019  1.0000
  H   H267      1.0  0.07687  0.46043  0.63843  1.0000
  H   H268      1.0  0.09655  0.46785  0.59704  1.0000
  H   H269      1.0  0.06502  0.46821  0.59155  1.0000
  H   H270      1.0  0.12006  0.43273  0.59978  1.0000
  H   H271      1.0  0.10749  0.40359  0.60006  1.0000
  H   H272      1.0  0.10337  0.42351  0.64293  1.0000
  H   H273      1.0  0.28041  0.50571  0.75553  1.0000
  H   H274      1.0  0.39332  0.46563  0.95701  1.0000
  C   C226      1.0  0.04139  0.36724  0.93368  1.0000
  C   C227      1.0  0.47980  0.44452  0.93041  1.0000
  C   C228      1.0  0.37477  0.41467  0.96128  1.0000
  C   C229      1.0  0.41509  0.39020  0.99212  1.0000
  C   C230      1.0  0.09079  0.57140  0.79971  1.0000
  H   H275      1.0  0.11693  0.55013  0.76481  1.0000
  C   C231      1.0  0.41327  0.50081  0.88214  1.0000
  H   H276      1.0  0.10295  0.58631  0.80104  1.0000
  H   H277      1.0  0.21966  0.59532  0.73174  1.0000
  N   N18       1.0  0.41145  0.47764  0.90329  1.0000
  Fe  Fe32      1.0  0.46509  0.34502  0.98854  1.0000
  H   H278      1.0  0.45857  0.41547  0.95312  1.0000
  H   H279      1.0  0.03074  0.57983  0.87646  1.0000
  H   H280      1.0  0.42160  0.51492  0.90062  1.0000
  C   C232      1.0  0.01675  0.39634  0.63320  1.0000
  C   C233      1.0  0.09902  0.55073  0.77892  1.0000
  H   H281      1.0  0.23408  0.56541  0.67636  1.0000
  C   C234      1.0  0.41514  0.60504  0.97759  1.0000
  H   H282      1.0  0.18965  0.58590  0.72260  1.0000
  S   S63       1.0  0.34917  0.42882  0.94097  1.0000
  C   C235      1.0  0.21886  0.55433  0.68749  1.0000
  H   H283      1.0  0.07366  0.58349  0.89401  1.0000
  H   H284      1.0  0.20239  0.55993  0.67183  1.0000
  C   C236      1.0  0.03665  0.36545  0.97451  1.0000
  C   C237      1.0  0.02677  0.36143  0.84839  1.0000
  H   H285      1.0  0.22251  0.53542  0.67768  1.0000
  H   H286      1.0  0.39513  0.50826  0.87528  1.0000
  H   H287      1.0  0.39296  0.44413  0.89363  1.0000
  H   H288      1.0  0.37980  0.49132  0.93554  1.0000
  H   H289      1.0  0.08546  0.35546  0.87155  1.0000
  H   H290      1.0  0.04026  0.37075  0.65983  1.0000
  C   C238      1.0  0.45742  0.47805  0.90382  1.0000
  H   H291      1.0  0.47013  0.55165  0.97152  1.0000
  C   C239      1.0  0.03919  0.38692  0.64238  1.0000
  H   H292      1.0  0.01016  0.35085  0.85306  1.0000
  C   C240      1.0  0.39743  0.48238  0.94091  1.0000
  H   H293      1.0  0.17558  0.50660  0.52169  1.0000
  C   C241      1.0  0.38541  0.39452  0.94139  1.0000
  C   C242      1.0  0.43511  0.46660  0.91206  1.0000
  H   H294      1.0  0.48740  0.58234  0.92534  1.0000
  C   C243      1.0  0.47938  0.46702  0.91284  1.0000
  H   H295      1.0  0.99602  0.47170  0.70816  1.0000
  C   C244      1.0  0.99776  0.66029  0.98389  1.0000
  C   C245      1.0  0.16669  0.49830  0.49719  1.0000
  S   S64       1.0  0.00467  0.61578  0.75598  1.0000
  H   H296      1.0  0.05513  0.32806  0.81149  1.0000
  C   C246      1.0  0.27805  0.95255  0.31370  1.0000
  S   S65       1.0  0.46397  0.84503  0.37901  1.0000
  H   H297      1.0  0.43649  0.73481  0.11206  1.0000
  S   S66       1.0  0.31922  0.97584  0.04965  1.0000
  S   S67       1.0  0.48782  0.77062  0.21196  1.0000
  H   H298      1.0  0.01102  0.75163  0.35066  1.0000
  S   S68       1.0  0.18191  0.95883  0.45767  1.0000
  Fe  Fe33      1.0  0.01693  0.83573  0.44379  1.0000
  S   S69       1.0  0.04997  0.85862  0.42740  1.0000
  S   S70       1.0  0.01580  0.79559  0.43206  1.0000
  C   C247      1.0  0.26635  0.95741  0.35044  1.0000
  C   C248      1.0  0.49311  0.74361  0.08145  1.0000
  H   H299      1.0  0.05298  0.67768  0.28047  1.0000
  H   H300      1.0  0.41257  0.96412  0.26257  1.0000
  C   C249      1.0  0.42743  0.79608  0.11281  1.0000
  H   H301      1.0  0.36741  0.98380  0.01390  1.0000
  Fe  Fe34      1.0  0.47205  0.86067  0.23221  1.0000
  S   S71       1.0  0.45325  0.88468  0.18876  1.0000
  S   S72       1.0  0.45602  0.82868  0.26269  1.0000
  Fe  Fe35      1.0  0.34350  0.97479  0.19249  1.0000
  S   S73       1.0  0.35963  0.94797  0.23439  1.0000
  S   S74       1.0  0.30597  0.97404  0.16941  1.0000
  C   C250      1.0  0.43325  0.75266  0.10074  1.0000
  H   H302      1.0  0.38464  0.98647  0.05739  1.0000
  H   H303      1.0  0.31190  0.95119  0.28041  1.0000
  Fe  Fe36      1.0  0.48939  0.80875  0.23856  1.0000
  C   C251      1.0  0.49307  0.81712  0.42698  1.0000
  H   H304      1.0  0.45071  0.83550  0.17781  1.0000
  H   H305      1.0  0.41465  0.79770  0.19360  1.0000
  C   C252      1.0  0.42714  0.90197  0.20204  1.0000
  C   C253      1.0  0.41689  0.91664  0.17345  1.0000
  C   C254      1.0  0.39601  0.93059  0.18278  1.0000
  C   C255      1.0  0.38524  0.92996  0.22084  1.0000
  C   C256      1.0  0.39546  0.91524  0.24941  1.0000
  C   C257      1.0  0.41638  0.90130  0.24009  1.0000
  H   H306      1.0  0.42510  0.91715  0.14391  1.0000
  H   H307      1.0  0.38817  0.94168  0.16046  1.0000
  H   H308      1.0  0.38720  0.91464  0.27892  1.0000
  H   H309      1.0  0.42411  0.89002  0.26232  1.0000
  N   N19       1.0  0.26636  0.96985  0.42238  1.0000
  C   C258      1.0  0.06838  0.88086  0.44933  1.0000
  C   C259      1.0  0.08609  0.89206  0.42538  1.0000
  C   C260      1.0  0.10075  0.91020  0.44081  1.0000
  H   H310      1.0  0.08846  0.88669  0.39452  1.0000
  H   H311      1.0  0.11426  0.91850  0.42189  1.0000
  C   C261      1.0  0.22532  0.98067  0.28353  1.0000
  H   H312      1.0  0.48586  0.70890  0.10583  1.0000
  H   H313      1.0  0.21792  0.96353  0.27529  1.0000
  H   H314      1.0  0.02613  0.99242  0.48590  1.0000
  H   H315      1.0  0.23463  0.98591  0.39791  1.0000
  C   C262      1.0  0.06424  0.66184  0.28871  1.0000
  Fe  Fe37      1.0  0.47818  0.83926  0.31494  1.0000
  C   C263      1.0  0.99929  0.89709  0.48950  1.0000
  H   H316      1.0  0.43342  0.76900  0.15787  1.0000
  H   H317      1.0  0.45333  0.86089  0.45916  1.0000
  H   H318      1.0  0.45637  0.80392  0.17372  1.0000
  Fe  Fe38      1.0  0.17789  0.98680  0.41074  1.0000
  N   N20       1.0  0.42634  0.81682  0.14089  1.0000
  C   C264      1.0  0.41920  0.83987  0.12255  1.0000
  C   C265      1.0  0.42650  0.79875  0.07105  1.0000
  C   C266      1.0  0.42906  0.77887  0.04523  1.0000
  C   C267      1.0  0.45048  0.81990  0.15703  1.0000
  H   H319      1.0  0.39078  0.80809  0.16319  1.0000
  H   H320      1.0  0.39956  0.98037  0.01072  1.0000
  H   H321      1.0  0.46429  0.82298  0.13298  1.0000
  H   H322      1.0  0.40144  0.83851  0.10859  1.0000
  H   H323      1.0  0.41759  0.85488  0.14489  1.0000
  H   H324      1.0  0.43298  0.84580  0.10014  1.0000
  H   H325      1.0  0.42429  0.81604  0.05752  1.0000
  H   H326      1.0  0.39919  0.98175  0.19719  1.0000
  H   H327      1.0  0.42889  0.78124  0.01344  1.0000
  C   C268      1.0  0.00189  0.74677  0.32405  1.0000
  H   H328      1.0  0.49147  0.88388  0.40959  1.0000
  H   H329      1.0  0.24936  0.98178  0.23149  1.0000
  H   H330      1.0  0.02583  0.71671  0.30916  1.0000
  C   C269      1.0  0.04652  0.96792  0.44752  1.0000
  H   H331      1.0  0.01296  0.88678  0.47087  1.0000
  H   H332      1.0  0.43015  0.98337  0.18151  1.0000
  C   C270      1.0  0.27931  0.96452  0.38395  1.0000
  C   C271      1.0  0.48696  0.73630  0.15210  1.0000
  C   C272      1.0  0.00818  0.93551  0.46058  1.0000
  C   C273      1.0  0.28253  0.97617  0.45486  1.0000
  S   S75       1.0  0.35991  0.98765  0.13548  1.0000
  C   C274      1.0  0.48842  0.72774  0.11243  1.0000
  C   C275      1.0  0.24330  0.99090  0.25870  1.0000
  C   C276      1.0  0.30292  0.95474  0.30909  1.0000
  S   S76       1.0  0.00331  0.67192  0.03234  1.0000
  C   C277      1.0  0.30474  0.96650  0.37829  1.0000
  H   H333      1.0  0.31619  0.97187  0.40182  1.0000
  C   C278      1.0  0.02870  0.92921  0.43599  1.0000
  H   H334      1.0  0.06310  0.93982  0.41107  1.0000
  S   S77       1.0  0.19373  0.97860  0.34824  1.0000
  C   C279      1.0  0.42818  0.97634  0.25941  1.0000
  C   C280      1.0  0.24939  0.99041  0.41782  1.0000
  H   H335      1.0  0.43469  0.98004  0.28961  1.0000
  C   C281      1.0  0.43245  0.75589  0.06004  1.0000
  C   C282      1.0  0.46696  0.84682  0.46029  1.0000
  C   C283      1.0  0.40881  0.81253  0.17428  1.0000
  H   H336      1.0  0.26427  0.93239  0.43676  1.0000
  H   H337      1.0  0.48312  0.72387  0.17575  1.0000
  C   C284      1.0  0.47557  0.83543  0.42487  1.0000
  H   H338      1.0  0.40656  0.82858  0.19437  1.0000
  H   H339      1.0  0.44247  0.96579  0.24255  1.0000
  H   H340      1.0  0.43513  0.74060  0.03990  1.0000
  C   C285      1.0  0.06563  0.88800  0.48922  1.0000
  S   S78       1.0  0.49135  0.87296  0.28569  1.0000
  H   H341      1.0  0.29554  0.96127  0.46042  1.0000
  C   C286      1.0  0.43117  0.77241  0.12678  1.0000
  H   H342      1.0  0.03071  0.91154  0.42229  1.0000
  H   H343      1.0  0.06143  0.98005  0.44313  1.0000
  C   C287      1.0  0.31624  0.96164  0.34130  1.0000
  H   H344      1.0  0.08186  0.66382  0.27234  1.0000
  S   S79       1.0  0.00971  0.69447  0.23774  1.0000
  H   H345      1.0  0.33561  0.96328  0.33730  1.0000
  C   C288      1.0  0.01022  0.72690  0.30040  1.0000
  C   C289      1.0  0.99858  0.72019  0.26567  1.0000
  C   C290      1.0  0.49033  0.76074  0.16141  1.0000
  Fe  Fe39      1.0  0.32225  0.99052  0.11337  1.0000
  Fe  Fe40      1.0  0.14297  0.96683  0.47523  1.0000
  S   S80       1.0  0.13787  0.99239  0.42485  1.0000
  H   H346      1.0  0.24331  0.95169  0.46486  1.0000
  H   H347      1.0  0.23776  0.94437  0.41471  1.0000
  H   H348      1.0  0.27219  0.97976  0.48340  1.0000
  C   C291      1.0  0.25238  0.94864  0.43514  1.0000
  C   C292      1.0  0.38447  0.99086  0.02540  1.0000
  C   C293      1.0  0.09796  0.91738  0.48063  1.0000
  H   H349      1.0  0.26774  0.94734  0.28845  1.0000
  Fe  Fe41      1.0  0.99754  0.67186  0.18470  1.0000
  H   H350      1.0  0.24696  0.95583  0.35225  1.0000
  H   H351      1.0  0.29258  0.99286  0.44831  1.0000
  C   C294      1.0  0.04746  0.94525  0.42950  1.0000
  H   H352      1.0  0.06691  0.66343  0.32112  1.0000
  C   C295      1.0  0.31713  0.98943  0.00225  1.0000
  C   C296      1.0  0.21679  0.99240  0.31867  1.0000
  C   C297      1.0  0.00763  0.95893  0.47825  1.0000
  C   C298      1.0  0.02661  0.97479  0.47169  1.0000
  C   C299      1.0  0.49542  0.77651  0.13048  1.0000
  H   H353      1.0  0.46755  0.99071  0.20898  1.0000
  C   C300      1.0  0.41535  0.99327  0.19818  1.0000
  Fe  Fe42      1.0  0.47440  0.69257  0.90719  1.0000
  S   S81       1.0  0.45287  0.69529  0.96530  1.0000
  S   S82       1.0  0.46357  0.70759  0.84731  1.0000
  C   C301      1.0  0.39965  0.82971  0.78284  1.0000
  C   C302      1.0  0.49055  0.77366  0.77818  1.0000
  C   C303      1.0  0.04464  0.75622  0.63306  1.0000
  C   C304      1.0  0.45530  0.91998  0.70080  1.0000
  H   H354      1.0  0.07873  0.70542  0.61270  1.0000
  C   C305      1.0  0.44227  0.83044  0.79785  1.0000
  H   H355      1.0  0.45020  0.90287  0.68609  1.0000
  H   H356      1.0  0.41513  0.79693  0.83426  1.0000
  H   H357      1.0  0.05233  0.87947  0.50823  1.0000
  H   H358      1.0  0.00197  0.67804  0.88688  1.0000
  H   H359      1.0  0.26917  0.93774  0.92718  1.0000
  H   H360      1.0  0.41882  0.79685  0.72483  1.0000
  Fe  Fe43      1.0  0.45446  0.85116  0.65945  1.0000
  S   S83       1.0  0.41536  0.86243  0.65633  1.0000
  S   S84       1.0  0.46717  0.81286  0.64871  1.0000
  C   C306      1.0  0.43100  0.80982  0.73890  1.0000
  S   S85       1.0  0.33593  0.97477  0.71281  1.0000
  Fe  Fe44      1.0  0.49469  0.82913  0.60649  1.0000
  H   H361      1.0  0.16415  0.93439  0.67365  1.0000
  C   C307      1.0  0.04498  0.76546  0.59478  1.0000
  C   C308      1.0  0.08187  0.72133  0.69452  1.0000
  Fe  Fe45      1.0  0.34047  0.95944  0.77323  1.0000
  S   S86       1.0  0.35807  0.92410  0.78865  1.0000
  S   S87       1.0  0.30346  0.97129  0.79582  1.0000
  C   C309      1.0  0.40101  0.88135  0.69255  1.0000
  C   C310      1.0  0.41010  0.88403  0.73033  1.0000
  C   C311      1.0  0.39719  0.89784  0.75948  1.0000
  C   C312      1.0  0.37552  0.90955  0.75059  1.0000
  C   C313      1.0  0.36700  0.90771  0.71229  1.0000
  C   C314      1.0  0.37953  0.89334  0.68354  1.0000
  H   H362      1.0  0.42658  0.87481  0.73744  1.0000
  H   H363      1.0  0.40370  0.89904  0.78920  1.0000
  H   H364      1.0  0.35018  0.91651  0.70535  1.0000
  H   H365      1.0  0.37242  0.89130  0.65432  1.0000
  C   C315      1.0  0.26320  0.95357  0.91173  1.0000
  H   H366      1.0  0.00819  0.90304  0.51683  1.0000
  H   H367      1.0  0.43977  0.83293  0.83041  1.0000
  Fe  Fe46      1.0  0.30024  0.98986  0.73692  1.0000
  H   H368      1.0  0.35275  0.84894  0.72707  1.0000
  C   C316      1.0  0.39103  0.84020  0.81943  1.0000
  H   H369      1.0  0.07807  0.91135  0.53559  1.0000
  H   H370      1.0  0.46901  0.84919  0.52417  1.0000
  C   C317      1.0  0.38474  0.83256  0.74981  1.0000
  H   H371      1.0  0.41689  0.95546  0.65116  1.0000
  S   S88       1.0  0.22661  0.98332  0.53117  1.0000
  H   H372      1.0  0.16587  0.97107  0.59393  1.0000
  C   C318      1.0  0.08036  0.90608  0.50470  1.0000
  H   H373      1.0  0.40630  0.78197  0.78983  1.0000
  S   S89       1.0  0.26269  0.99078  0.70964  1.0000
  H   H374      1.0  0.05024  0.75651  0.71544  1.0000
  H   H375      1.0  0.48203  0.93652  0.64058  1.0000
  N   N21       1.0  0.05679  0.72374  0.68130  1.0000
  C   C319      1.0  0.06921  0.72227  0.60883  1.0000
  C   C320      1.0  0.06917  0.73158  0.57060  1.0000
  S   S90       1.0  0.01212  0.67395  0.77085  1.0000
  H   H376      1.0  0.46034  0.82154  0.79316  1.0000
  C   C321      1.0  0.04275  0.73825  0.71181  1.0000
  C   C322      1.0  0.47372  0.73362  0.82204  1.0000
  C   C323      1.0  0.46618  0.73776  0.78333  1.0000
  C   C324      1.0  0.47459  0.75757  0.76144  1.0000
  H   H377      1.0  0.43752  0.78291  0.80189  1.0000
  H   H378      1.0  0.44923  0.80112  0.73744  1.0000
  H   H379      1.0  0.45401  0.72533  0.76994  1.0000
  H   H380      1.0  0.44592  0.92110  0.73052  1.0000
  S   S91       1.0  0.35883  0.99148  0.79834  1.0000
  C   C325      1.0  0.22481  0.93487  0.67884  1.0000
  H   H381      1.0  0.09095  0.73899  0.69426  1.0000
  C   C326      1.0  0.25653  0.95174  0.87248  1.0000
  H   H382      1.0  0.02343  0.74003  0.70425  1.0000
  C   C327      1.0  0.45619  0.96333  0.69733  1.0000
  H   H383      1.0  0.24465  0.96993  0.82171  1.0000
  Fe  Fe47      1.0  0.48875  0.70003  0.99351  1.0000
  H   H384      1.0  0.40095  0.83823  0.84608  1.0000
  C   C328      1.0  0.21369  0.93222  0.61031  1.0000
  S   S92       1.0  0.47819  0.85774  0.71034  1.0000
  H   H385      1.0  0.46900  0.76015  0.73145  1.0000
  N   N22       1.0  0.44908  0.94104  0.67666  1.0000
  S   S93       1.0  0.11629  0.93980  0.50218  1.0000
  S   S94       1.0  0.99870  0.75944  0.52431  1.0000
  H   H386      1.0  0.18981  0.94720  0.54319  1.0000
  C   C329      1.0  0.04612  0.69955  0.68018  1.0000
  H   H387      1.0  0.07828  0.72190  0.54609  1.0000
  Fe  Fe48      1.0  0.19137  0.98943  0.49845  1.0000
  C   C330      1.0  0.32268  0.98564  0.92980  1.0000
  C   C331      1.0  0.42288  0.94011  0.66934  1.0000
  H   H388      1.0  0.36381  0.86252  0.85001  1.0000
  C   C332      1.0  0.23134  0.93320  0.63869  1.0000
  H   H389      1.0  0.42012  0.98020  0.70649  1.0000
  C   C333      1.0  0.20054  0.93506  0.69094  1.0000
  H   H390      1.0  0.43213  0.82614  0.72026  1.0000
  H   H391      1.0  0.02741  0.70051  0.66987  1.0000
  H   H392      1.0  0.32806  0.97489  0.90387  1.0000
  N   N23       1.0  0.42288  0.81614  0.78027  1.0000
  H   H393      1.0  0.22017  0.93194  0.57974  1.0000
  H   H394      1.0  0.38965  0.82537  0.72066  1.0000
  H   H395      1.0  0.14404  0.91226  0.62823  1.0000
  H   H396      1.0  0.44337  0.84851  0.78439  1.0000
  C   C334      1.0  0.00293  0.67463  0.95070  1.0000
  H   H397      1.0  0.41181  0.94016  0.69760  1.0000
  H   H398      1.0  0.41827  0.92337  0.65296  1.0000
  C   C335      1.0  0.23636  0.98705  0.58081  1.0000
  S   S95       1.0  0.48009  0.86670  0.61430  1.0000
  H   H399      1.0  0.04276  0.72968  0.74141  1.0000
  H   H400      1.0  0.33028  0.95744  0.97099  1.0000
  C   C336      1.0  0.42032  0.79353  0.80253  1.0000
  C   C337      1.0  0.36959  0.85381  0.82222  1.0000
  C   C338      1.0  0.36322  0.84604  0.75307  1.0000
  C   C339      1.0  0.35581  0.85686  0.78904  1.0000
  C   C340      1.0  0.05680  0.73423  0.64126  1.0000
  H   H401      1.0  0.33971  0.86821  0.79093  1.0000
  H   H402      1.0  0.01055  0.69218  0.95507  1.0000
  H   H403      1.0  0.45662  0.92253  0.62073  1.0000
  C   C341      1.0  0.05700  0.75309  0.56359  1.0000
  C   C342      1.0  0.15454  0.95486  0.59734  1.0000
  H   H404      1.0  0.09295  0.70860  0.67540  1.0000
  C   C343      1.0  0.46224  0.93871  0.63765  1.0000
  H   H405      1.0  0.25026  0.93362  0.62943  1.0000
  H   H406      1.0  0.14031  0.95581  0.57496  1.0000
  H   H407      1.0  0.16389  0.93101  0.52950  1.0000
  C   C344      1.0  0.18272  0.93387  0.66285  1.0000
  H   H408      1.0  0.45902  0.95479  0.61928  1.0000
  C   C345      1.0  0.18872  0.93266  0.62159  1.0000
  H   H409      1.0  0.05630  0.75995  0.53374  1.0000
  H   H410      1.0  0.05656  0.68660  0.66056  1.0000
  H   H411      1.0  0.08241  0.71409  0.72508  1.0000
  H   H412      1.0  0.16439  0.89444  0.59663  1.0000
  H   H413      1.0  0.19557  0.93655  0.72223  1.0000
  C   C346      1.0  0.32391  0.97579  0.96800  1.0000
  H   H414      1.0  0.14499  0.95629  0.62678  1.0000
  H   H415      1.0  0.03491  0.78181  0.58873  1.0000
  H   H416      1.0  0.03415  0.76636  0.65533  1.0000
  C   C347      1.0  0.43927  0.98150  0.71060  1.0000
  H   H417      1.0  0.23864  0.93659  0.70049  1.0000
  H   H418      1.0  0.18980  0.91465  0.54445  1.0000
  N   N24       1.0  0.16945  0.93255  0.59245  1.0000
  H   H419      1.0  0.27321  0.97726  0.56436  1.0000
  C   C348      1.0  0.17878  0.93127  0.55066  1.0000
  C   C349      1.0  0.15372  0.91157  0.59883  1.0000
  H   H420      1.0  0.47494  0.91840  0.70562  1.0000
  H   H421      1.0  0.13952  0.91068  0.57632  1.0000
  C   C350      1.0  0.49324  0.82184  0.49946  1.0000
  C   C351      1.0  0.26076  0.98237  0.58855  1.0000
  H   H422      1.0  0.99681  0.69541  0.62284  1.0000
  C   C352      1.0  0.24941  0.97226  0.85225  1.0000
  C   C353      1.0  0.25343  0.99020  0.65939  1.0000
  S   S96       1.0  0.99617  0.83327  0.50222  1.0000
  Fe  Fe49      1.0  0.49314  0.82036  0.69692  1.0000
  C   C354      1.0  0.26928  0.98407  0.62743  1.0000
  C   C355      1.0  0.48967  0.74971  0.83875  1.0000
  C   C356      1.0  0.47581  0.84019  0.49729  1.0000
  C   C357      1.0  0.48078  0.96725  0.70515  1.0000
  C   C358      1.0  0.99815  0.66662  0.91188  1.0000
  H   H423      1.0  0.28803  0.98023  0.63274  1.0000
  H   H424      1.0  0.25732  0.93438  0.85742  1.0000
  H   H425      1.0  0.04539  0.69138  0.70997  1.0000
  H   H426      1.0  0.00556  0.71278  0.55686  1.0000
  H   H427      1.0  0.26825  0.97728  0.96133  1.0000
  C   C359      1.0  0.26260  0.97587  0.93097  1.0000
  C   C360      1.0  0.22058  0.99361  0.61266  1.0000
  C   C361      1.0  0.48801  0.98821  0.72432  1.0000
  C   C362      1.0  0.99741  0.72400  0.58033  1.0000
  H   H428      1.0  0.49465  0.95404  0.69659  1.0000
  S   S97       1.0  0.95976  0.31272  0.14832  1.0000
  C   C363      1.0  0.93454  0.25030  0.26016  1.0000
  H   H429      1.0  0.89697  0.01778  0.48918  1.0000
  C   C364      1.0  0.98917  0.26131  0.32696  1.0000
  S   S98       1.0  0.96248  0.19217  0.46793  1.0000
  C   C365      1.0  0.89307  0.01620  0.40973  1.0000
  Fe  Fe50      1.0  0.95713  0.15258  0.45592  1.0000
  H   H430      1.0  0.61698  0.06351  0.31598  1.0000
  Fe  Fe51      1.0  0.98339  0.32511  0.09688  1.0000
  Fe  Fe52      1.0  0.78937  0.00245  0.42773  1.0000
  S   S99       1.0  0.75602  0.01150  0.39173  1.0000
  H   H431      1.0  0.93490  0.22154  0.21716  1.0000
  Fe  Fe53      1.0  0.99354  0.30231  0.17894  1.0000
  H   H432      1.0  0.63663  0.06725  0.24982  1.0000
  C   C366      1.0  0.67477  0.99904  0.00192  1.0000
  S   S100      1.0  0.53728  0.12246  0.20617  1.0000
  S   S101      1.0  0.51386  0.17547  0.27457  1.0000
  C   C367      1.0  0.88498  0.10402  0.43282  1.0000
  S   S102      1.0  0.59513  0.02704  0.24593  1.0000
  S   S103      1.0  0.65695  0.02664  0.17613  1.0000
  H   H433      1.0  0.50172  0.01788  0.20846  1.0000
  H   H434      1.0  0.52662  0.14848  0.46593  1.0000
  C   C368      1.0  0.55157  0.09464  0.21589  1.0000
  C   C369      1.0  0.54539  0.08138  0.24953  1.0000
  C   C370      1.0  0.55858  0.06039  0.25796  1.0000
  C   C371      1.0  0.57765  0.05220  0.23242  1.0000
  C   C372      1.0  0.58310  0.06482  0.19784  1.0000
  C   C373      1.0  0.57020  0.08607  0.18980  1.0000
  H   H435      1.0  0.53075  0.08745  0.26941  1.0000
  H   H436      1.0  0.55423  0.05060  0.28463  1.0000
  H   H437      1.0  0.59774  0.05864  0.17796  1.0000
  H   H438      1.0  0.57499  0.09613  0.16359  1.0000
  S   S104      1.0  0.49766  0.26406  0.04958  1.0000
  H   H439      1.0  0.92336  0.30848  0.06370  1.0000
  N   N25       1.0  0.91407  0.00852  0.43269  1.0000
  H   H440      1.0  0.49990  0.20371  0.15485  1.0000
  S   S105      1.0  0.92064  0.13775  0.43769  1.0000
  C   C374      1.0  0.90399  0.11263  0.45523  1.0000
  H   H441      1.0  0.59092  0.09579  0.34413  1.0000
  S   S106      1.0  0.82945  0.00680  0.41569  1.0000
  H   H442      1.0  0.98541  0.27355  0.35169  1.0000
  C   C375      1.0  0.96599  0.29847  0.47503  1.0000
  S   S107      1.0  0.97756  0.31134  0.03353  1.0000
  C   C376      1.0  0.87077  0.08468  0.44605  1.0000
  Fe  Fe54      1.0  0.83063  0.02366  0.47661  1.0000
  C   C377      1.0  0.96856  0.06258  0.44372  1.0000
  H   H443      1.0  0.62951  0.10350  0.21040  1.0000
  Fe  Fe55      1.0  0.99062  0.19089  0.41812  1.0000
  Fe  Fe56      1.0  0.50763  0.13949  0.24578  1.0000
  H   H444      1.0  0.96509  0.30541  0.44530  1.0000
  S   S108      1.0  0.98370  0.15203  0.40397  1.0000
  H   H445      1.0  0.93859  0.26391  0.23835  1.0000
  H   H446      1.0  0.88253  0.03107  0.42512  1.0000
  H   H447      1.0  0.69179  0.01046  0.29485  1.0000
  H   H448      1.0  0.95800  0.00479  0.46726  1.0000
  C   C378      1.0  0.61450  0.07996  0.29970  1.0000
  C   C379      1.0  0.49664  0.16621  0.43916  1.0000
  H   H449      1.0  0.51064  0.22054  0.08883  1.0000
  C   C380      1.0  0.59947  0.09848  0.31531  1.0000
  N   N26       1.0  0.57924  0.13917  0.31115  1.0000
  C   C381      1.0  0.55454  0.13011  0.31797  1.0000
  C   C382      1.0  0.58840  0.14729  0.34974  1.0000
  C   C383      1.0  0.57746  0.16059  0.28561  1.0000
  C   C384      1.0  0.59507  0.11972  0.29372  1.0000
  C   C385      1.0  0.60637  0.12103  0.25528  1.0000
  H   H450      1.0  0.55387  0.11435  0.33771  1.0000
  H   H451      1.0  0.54230  0.14410  0.33190  1.0000
  H   H452      1.0  0.54667  0.12474  0.28956  1.0000
  H   H453      1.0  0.58766  0.13296  0.37228  1.0000
  H   H454      1.0  0.57737  0.16260  0.36282  1.0000
  H   H455      1.0  0.60742  0.15313  0.34634  1.0000
  H   H456      1.0  0.56913  0.15606  0.25694  1.0000
  H   H457      1.0  0.89871  0.02201  0.37944  1.0000
  H   H458      1.0  0.59544  0.16849  0.27935  1.0000
  H   H459      1.0  0.60337  0.13591  0.23584  1.0000
  C   C386      1.0  0.62153  0.10246  0.24012  1.0000
  C   C387      1.0  0.97223  0.03959  0.45834  1.0000
  H   H460      1.0  0.94043  0.16257  0.36472  1.0000
  H   H461      1.0  0.91278  0.05709  0.40904  1.0000
  H   H462      1.0  0.93423  0.27519  0.30928  1.0000
  H   H463      1.0  0.85601  0.07859  0.42873  1.0000
  C   C388      1.0  0.92915  0.05113  0.42239  1.0000
  C   C389      1.0  0.50977  0.15822  0.47149  1.0000
  Fe  Fe57      1.0  0.62335  0.01038  0.20306  1.0000
  N   N27       1.0  0.92250  0.19506  0.34692  1.0000
  C   C390      1.0  0.89962  0.18266  0.33978  1.0000
  C   C391      1.0  0.94264  0.17723  0.34285  1.0000
  C   C392      1.0  0.92138  0.20385  0.38873  1.0000
  C   C393      1.0  0.92622  0.21434  0.31765  1.0000
  C   C394      1.0  0.92822  0.23897  0.32871  1.0000
  C   C395      1.0  0.92824  0.20865  0.27648  1.0000
  C   C396      1.0  0.93213  0.25660  0.30019  1.0000
  H   H464      1.0  0.98860  0.28942  0.28329  1.0000
  H   H465      1.0  0.94412  0.08645  0.41536  1.0000
  H   H466      1.0  0.89985  0.17344  0.31035  1.0000
  H   H467      1.0  0.89602  0.16851  0.36226  1.0000
  H   H468      1.0  0.88407  0.19560  0.34131  1.0000
  H   H469      1.0  0.94396  0.16829  0.31325  1.0000
  Fe  Fe58      1.0  0.64820  0.00613  0.11988  1.0000
  H   H470      1.0  0.96022  0.18596  0.34768  1.0000
  H   H471      1.0  0.90601  0.21665  0.39468  1.0000
  H   H472      1.0  0.91896  0.18883  0.40996  1.0000
  H   H473      1.0  0.93841  0.21275  0.39652  1.0000
  H   H474      1.0  0.92752  0.24505  0.35923  1.0000
  H   H475      1.0  0.92698  0.19034  0.26580  1.0000
  C   C397      1.0  0.93247  0.02734  0.43634  1.0000
  C   C398      1.0  0.90877  0.10143  0.49097  1.0000
  C   C399      1.0  0.93257  0.22638  0.24832  1.0000
  H   H476      1.0  0.56579  0.17502  0.29986  1.0000
  C   C400      1.0  0.94705  0.06834  0.42594  1.0000
  H   H477      1.0  0.49720  0.05890  0.23709  1.0000
  C   C401      1.0  0.95446  0.02222  0.45494  1.0000
  S   S109      1.0  0.64296  0.02151  0.05789  1.0000
  C   C402      1.0  0.62562  0.08202  0.26230  1.0000
  H   H478      1.0  0.88104  0.11252  0.40517  1.0000
  S   S110      1.0  0.79020  0.02254  0.48675  1.0000
  H   H479      1.0  0.98232  0.07610  0.44648  1.0000
  C   C403      1.0  0.65345  0.01247  0.00912  1.0000
  H   H480      1.0  0.89105  0.30977  0.07134  1.0000
  C   C404      1.0  0.90482  0.00180  0.47270  1.0000
  H   H481      1.0  0.97909  0.26346  0.45480  1.0000
  S   S111      1.0  0.98860  0.22633  0.38374  1.0000
  C   C405      1.0  0.74471  0.00506  0.34381  1.0000
  C   C406      1.0  0.49847  0.23053  0.10901  1.0000
  C   C407      1.0  0.99183  0.23653  0.33404  1.0000
  S   S112      1.0  0.50893  0.16092  0.38996  1.0000
  H   H482      1.0  0.98892  0.03539  0.47257  1.0000
  C   C408      1.0  0.87513  0.07396  0.48234  1.0000
  H   H483      1.0  0.91059  0.31605  0.11122  1.0000
  H   H484      1.0  0.70914  0.01882  0.36034  1.0000
  C   C409      1.0  0.72040  0.01071  0.33676  1.0000
  C   C410      1.0  0.97388  0.27485  0.48024  1.0000
  C   C411      1.0  0.72480  0.99563  0.26854  1.0000
  C   C412      1.0  0.99102  0.27038  0.28815  1.0000
  C   C413      1.0  0.71048  0.00597  0.29955  1.0000
  C   C414      1.0  0.90808  0.31862  0.07911  1.0000
  H   H485      1.0  0.88031  0.00121  0.40581  1.0000
  C   C415      1.0  0.75900  0.99461  0.31285  1.0000
  S   S113      1.0  0.51415  0.29783  0.95581  1.0000
  C   C416      1.0  0.80858  0.02772  0.58823  1.0000
  C   C417      1.0  0.78880  0.05245  0.71785  1.0000
  C   C418      1.0  0.76995  0.05052  0.64252  1.0000
  S   S114      1.0  0.96395  0.27424  0.70027  1.0000
  H   H486      1.0  0.63799  0.10338  0.76490  1.0000
  H   H487      1.0  0.63117  0.02039  0.61158  1.0000
  H   H488      1.0  0.63662  0.01774  0.91279  1.0000
  C   C419      1.0  0.80437  0.05272  0.68424  1.0000
  C   C420      1.0  0.95469  0.30828  0.62028  1.0000
  H   H489      1.0  0.94892  0.32041  0.64559  1.0000
  Fe  Fe59      1.0  0.51304  0.13165  0.66966  1.0000
  S   S115      1.0  0.51762  0.17040  0.65327  1.0000
  S   S116      1.0  0.54409  0.10579  0.65487  1.0000
  H   H490      1.0  0.51187  0.15658  0.53536  1.0000
  H   H491      1.0  0.97887  0.29076  0.95511  1.0000
  H   H492      1.0  0.84850  0.05373  0.58886  1.0000
  H   H493      1.0  0.78600  0.06832  0.57057  1.0000
  H   H494      1.0  0.51674  0.24460  0.97585  1.0000
  H   H495      1.0  0.74330  0.01346  0.55934  1.0000
  Fe  Fe60      1.0  0.61921  0.01612  0.77708  1.0000
  S   S117      1.0  0.58638  0.04026  0.78851  1.0000
  S   S118      1.0  0.65711  0.02795  0.78668  1.0000
  C   C421      1.0  0.55491  0.08665  0.69160  1.0000
  C   C422      1.0  0.57542  0.07208  0.68298  1.0000
  C   C423      1.0  0.58495  0.05726  0.71213  1.0000
  C   C424      1.0  0.57393  0.05693  0.75005  1.0000
  C   C425      1.0  0.55330  0.07131  0.75852  1.0000
  C   C426      1.0  0.54382  0.08614  0.72943  1.0000
  H   H496      1.0  0.58408  0.07244  0.65375  1.0000
  H   H497      1.0  0.60093  0.04631  0.70540  1.0000
  H   H498      1.0  0.54467  0.07110  0.78778  1.0000
  H   H499      1.0  0.52801  0.09723  0.73635  1.0000
  H   H500      1.0  0.51993  0.18214  0.92807  1.0000
  H   H501      1.0  0.53275  0.23313  0.81895  1.0000
  C   C427      1.0  0.97580  0.30989  0.95212  1.0000
  H   H502      1.0  0.61486  0.08111  0.76913  1.0000
  H   H503      1.0  0.54320  0.25092  0.65172  1.0000
  H   H504      1.0  0.92330  0.10777  0.50857  1.0000
  H   H505      1.0  0.80464  0.08849  0.59743  1.0000
  H   H506      1.0  0.51545  0.28024  0.61934  1.0000
  C   C428      1.0  0.51527  0.23190  0.95025  1.0000
  C   C429      1.0  0.89429  0.08240  0.50455  1.0000
  C   C430      1.0  0.96044  0.30449  0.54718  1.0000
  Fe  Fe61      1.0  0.99225  0.18116  0.50738  1.0000
  C   C431      1.0  0.96021  0.23871  0.64288  1.0000
  C   C432      1.0  0.96859  0.22333  0.61136  1.0000
  H   H507      1.0  0.89788  0.07431  0.53268  1.0000
  H   H508      1.0  0.94170  0.23765  0.65380  1.0000
  H   H509      1.0  0.62347  0.02977  0.98164  1.0000
  H   H510      1.0  0.97337  0.30212  0.62624  1.0000
  H   H511      1.0  0.53036  0.22695  0.68092  1.0000
  C   C433      1.0  0.50255  0.26876  0.69377  1.0000
  C   C434      1.0  0.50031  0.22804  0.78702  1.0000
  C   C435      1.0  0.71973  0.01480  0.61209  1.0000
  H   H512      1.0  0.91569  0.31465  0.57592  1.0000
  H   H513      1.0  0.84418  0.03865  0.63458  1.0000
  C   C436      1.0  0.52767  0.23866  0.65493  1.0000
  C   C437      1.0  0.73904  0.00545  0.58769  1.0000
  C   C438      1.0  0.51417  0.23881  0.81627  1.0000
  C   C439      1.0  0.50166  0.26602  0.62198  1.0000
  C   C440      1.0  0.83719  0.05380  0.61692  1.0000
  C   C441      1.0  0.97262  0.31940  0.91410  1.0000
  N   N28       1.0  0.61086  0.11043  0.81154  1.0000
  C   C442      1.0  0.59637  0.09584  0.83976  1.0000
  C   C443      1.0  0.62604  0.09363  0.78615  1.0000
  C   C444      1.0  0.62742  0.12553  0.83423  1.0000
  C   C445      1.0  0.59455  0.12598  0.78892  1.0000
  C   C446      1.0  0.59337  0.12458  0.74695  1.0000
  C   C447      1.0  0.57892  0.14305  0.80904  1.0000
  C   C448      1.0  0.57767  0.13950  0.72668  1.0000
  C   C449      1.0  0.56320  0.15780  0.78841  1.0000
  C   C450      1.0  0.56259  0.15599  0.74732  1.0000
  H   H514      1.0  0.58201  0.08620  0.82425  1.0000
  H   H515      1.0  0.60752  0.08187  0.85418  1.0000
  H   H516      1.0  0.58735  0.10686  0.86386  1.0000
  H   H517      1.0  0.63789  0.08198  0.80396  1.0000
  H   H518      1.0  0.63807  0.13732  0.81408  1.0000
  H   H519      1.0  0.61771  0.13729  0.85664  1.0000
  H   H520      1.0  0.64038  0.11431  0.85073  1.0000
  H   H521      1.0  0.60394  0.11176  0.72897  1.0000
  H   H522      1.0  0.57860  0.14494  0.84092  1.0000
  H   H523      1.0  0.57676  0.13783  0.69471  1.0000
  H   H524      1.0  0.55125  0.17067  0.80412  1.0000
  H   H525      1.0  0.55023  0.16723  0.73141  1.0000
  C   C451      1.0  0.63991  0.01928  0.97655  1.0000
  C   C452      1.0  0.50432  0.25715  0.84172  1.0000
  H   H526      1.0  0.51810  0.15620  0.86914  1.0000
  S   S119      1.0  0.98464  0.14126  0.49994  1.0000
  H   H527      1.0  0.82085  0.02617  0.56148  1.0000
  H   H528      1.0  0.70939  0.03011  0.60228  1.0000
  C   C453      1.0  0.75458  0.05039  0.67629  1.0000
  H   H529      1.0  0.81672  0.07128  0.55542  1.0000
  H   H530      1.0  0.84053  0.07113  0.63244  1.0000
  C   C454      1.0  0.66883  0.99940  0.93015  1.0000
  H   H531      1.0  0.51537  0.26565  0.86333  1.0000
  H   H532      1.0  0.73524  0.04921  0.67338  1.0000
  H   H533      1.0  0.76177  0.04917  0.61408  1.0000
  S   S120      1.0  0.51412  0.20580  0.75458  1.0000
  C   C455      1.0  0.97558  0.25531  0.66051  1.0000
  H   H534      1.0  0.79601  0.05295  0.74722  1.0000
  H   H535      1.0  0.53762  0.26028  0.71888  1.0000
  H   H536      1.0  0.82338  0.05345  0.68955  1.0000
  H   H537      1.0  0.50121  0.19269  0.98883  1.0000
  H   H538      1.0  0.95659  0.21055  0.59845  1.0000
  N   N29       1.0  0.81122  0.05107  0.60909  1.0000
  H   H539      1.0  0.79000  0.02517  0.57801  1.0000
  C   C456      1.0  0.80428  0.07065  0.58215  1.0000
  C   C457      1.0  0.97482  0.32480  0.98624  1.0000
  C   C458      1.0  0.79534  0.05172  0.64539  1.0000
  H   H540      1.0  0.81263  0.01231  0.60774  1.0000
  C   C459      1.0  0.71387  0.00476  0.64920  1.0000
  H   H541      1.0  0.75195  0.05066  0.73990  1.0000
  H   H542      1.0  0.97306  0.30758  0.88834  1.0000
  N   N30       1.0  0.50438  0.25225  0.65886  1.0000
  S   S121      1.0  0.69022  0.01837  0.67968  1.0000
  Fe  Fe62      1.0  0.66756  0.00454  0.73296  1.0000
  C   C460      1.0  0.96867  0.28034  0.55135  1.0000
  C   C461      1.0  0.76398  0.05122  0.71386  1.0000
  Fe  Fe63      1.0  0.97686  0.30993  0.72626  1.0000
  H   H543      1.0  0.97033  0.27213  0.57981  1.0000
  N   N31       1.0  0.95357  0.32043  0.58154  1.0000
  C   C462      1.0  0.50603  0.18585  0.90738  1.0000
  H   H544      1.0  0.52990  0.21830  0.95321  1.0000
  H   H545      1.0  0.50363  0.25414  0.59510  1.0000
  H   H546      1.0  0.94268  0.29247  0.62191  1.0000
  C   C463      1.0  0.64734  0.01253  0.93740  1.0000
  H   H547      1.0  0.58892  0.00740  0.61994  1.0000
  C   C464      1.0  0.99269  0.22391  0.59766  1.0000
  C   C465      1.0  0.51854  0.28635  0.75435  1.0000
  C   C466      1.0  0.95942  0.31315  0.50790  1.0000
  C   C467      1.0  0.50145  0.16283  0.51102  1.0000
  C   C468      1.0  0.50510  0.17082  0.87389  1.0000
  C   C469      1.0  0.62735  0.00165  0.61691  1.0000
  H   H548      1.0  0.53263  0.28723  0.77565  1.0000
  H   H549      1.0  0.52845  0.22643  0.62842  1.0000
  Fe  Fe64      1.0  0.49762  0.17902  0.71145  1.0000
  S   S122      1.0  0.85659  0.05092  0.50247  1.0000
  H   H550      1.0  0.51924  0.24217  0.92283  1.0000
  C   C470      1.0  0.97524  0.26585  0.51831  1.0000
  H   H551      1.0  0.98157  0.24747  0.52231  1.0000
  C   C471      1.0  0.52116  0.27089  0.72134  1.0000
  S   S123      1.0  0.62899  0.99562  0.72097  1.0000
  S   S124      1.0  0.49586  0.14035  0.72961  1.0000
  C   C472      1.0  0.49741  0.29988  0.76119  1.0000
  H   H552      1.0  0.59375  0.45042  0.04672  1.0000
  H   H553      1.0  0.61777  0.35915  0.13783  1.0000
  H   H554      1.0  0.59167  0.45075  0.10004  1.0000
  C   C473      1.0  0.93616  0.65030  0.05259  1.0000
  S   S125      1.0  0.69335  0.47827  0.06424  1.0000
  H   H555      1.0  0.70418  0.52845  0.08501  1.0000
  H   H556      1.0  0.65683  0.42978  0.10750  1.0000
  Fe  Fe65      1.0  0.81887  0.48777  0.29290  1.0000
  S   S126      1.0  0.85694  0.48583  0.26773  1.0000
  S   S127      1.0  0.80827  0.47376  0.35496  1.0000
  Fe  Fe66      1.0  0.79961  0.50929  0.21597  1.0000
  S   S128      1.0  0.83676  0.51010  0.18695  1.0000
  S   S129      1.0  0.76781  0.52519  0.18266  1.0000
  Fe  Fe67      1.0  0.84155  0.47302  0.21096  1.0000
  S   S130      1.0  0.86018  0.44828  0.16481  1.0000
  Fe  Fe68      1.0  0.84951  0.52301  0.24545  1.0000
  S   S131      1.0  0.88141  0.54682  0.25579  1.0000
  S   S132      1.0  0.80364  0.47137  0.23717  1.0000
  S   S133      1.0  0.81208  0.52577  0.27353  1.0000
  Fe  Fe69      1.0  0.96528  0.34961  0.17431  1.0000
  S   S134      1.0  0.93509  0.36733  0.21178  1.0000
  H   H557      1.0  0.96273  0.41210  0.21835  1.0000
  Fe  Fe70      1.0  0.95620  0.64226  0.15292  1.0000
  S   S135      1.0  0.91590  0.63679  0.15688  1.0000
  H   H558      1.0  0.97023  0.36131  0.00752  1.0000
  S   S136      1.0  0.97972  0.62176  0.10825  1.0000
  H   H559      1.0  0.63492  0.39879  0.13179  1.0000
  C   C474      1.0  0.81507  0.48439  0.40358  1.0000
  C   C475      1.0  0.82875  0.50489  0.40982  1.0000
  C   C476      1.0  0.80534  0.47252  0.43697  1.0000
  H   H560      1.0  0.83654  0.51421  0.38468  1.0000
  H   H561      1.0  0.79479  0.45661  0.43269  1.0000
  C   C477      1.0  0.89057  0.57089  0.22575  1.0000
  C   C478      1.0  0.91440  0.57863  0.22778  1.0000
  C   C479      1.0  0.92248  0.59815  0.20544  1.0000
  C   C480      1.0  0.90652  0.61078  0.18206  1.0000
  C   C481      1.0  0.88262  0.60314  0.18001  1.0000
  C   C482      1.0  0.87473  0.58299  0.20136  1.0000
  H   H562      1.0  0.92672  0.56944  0.24675  1.0000
  H   H563      1.0  0.94096  0.60365  0.20699  1.0000
  H   H564      1.0  0.87016  0.61280  0.16194  1.0000
  H   H565      1.0  0.85628  0.57723  0.19980  1.0000
  C   C483      1.0  0.88216  0.42719  0.17897  1.0000
  C   C484      1.0  0.88157  0.41776  0.21707  1.0000
  C   C485      1.0  0.89819  0.39965  0.22673  1.0000
  C   C486      1.0  0.91581  0.39121  0.19871  1.0000
  C   C487      1.0  0.91723  0.40155  0.16125  1.0000
  C   C488      1.0  0.90018  0.41924  0.15121  1.0000
  H   H566      1.0  0.86781  0.42385  0.23869  1.0000
  H   H567      1.0  0.89716  0.39189  0.25592  1.0000
  H   H568      1.0  0.93120  0.39574  0.13996  1.0000
  H   H569      1.0  0.90085  0.42667  0.12179  1.0000
  H   H570      1.0  0.59035  0.41166  0.03090  1.0000
  C   C489      1.0  0.64032  0.44142  0.10705  1.0000
  H   H571      1.0  0.63083  0.44138  0.13667  1.0000
  H   H572      1.0  0.86245  0.36923  0.18118  1.0000
  H   H573      1.0  0.91459  0.47962  0.16565  1.0000
  H   H574      1.0  0.84243  0.52971  0.45301  1.0000
  H   H575      1.0  0.78374  0.55441  0.36104  1.0000
  H   H576      1.0  0.84068  0.39735  0.07067  1.0000
  H   H577      1.0  0.73308  0.51767  0.01941  1.0000
  C   C490      1.0  0.71465  0.49178  0.09569  1.0000
  C   C491      1.0  0.73007  0.47690  0.11715  1.0000
  C   C492      1.0  0.74665  0.48672  0.14341  1.0000
  C   C493      1.0  0.74779  0.51165  0.14904  1.0000
  C   C494      1.0  0.73238  0.52652  0.12754  1.0000
  C   C495      1.0  0.71606  0.51671  0.10085  1.0000
  H   H578      1.0  0.72917  0.45759  0.11357  1.0000
  H   H579      1.0  0.75835  0.47500  0.15960  1.0000
  H   H580      1.0  0.73302  0.54581  0.13167  1.0000
  N   N32       1.0  0.93240  0.49100  0.21825  1.0000
  C   C496      1.0  0.92646  0.49266  0.26139  1.0000
  C   C497      1.0  0.93871  0.51542  0.20449  1.0000
  H   H581      1.0  0.91985  0.47535  0.27333  1.0000
  H   H582      1.0  0.94249  0.49772  0.27822  1.0000
  H   H583      1.0  0.95349  0.52324  0.22157  1.0000
  H   H584      1.0  0.92318  0.52827  0.20860  1.0000
  H   H585      1.0  0.94394  0.51524  0.17234  1.0000
  H   H586      1.0  0.89615  0.49814  0.19934  1.0000
  H   H587      1.0  0.73396  0.47286  0.01221  1.0000
  S   S137      1.0  0.49789  0.33715  0.02464  1.0000
  H   H588      1.0  0.87242  0.37433  0.03514  1.0000
  C   C498      1.0  0.80870  0.46658  0.04584  1.0000
  H   H589      1.0  0.82037  0.45074  0.04385  1.0000
  H   H590      1.0  0.76246  0.50848  0.43317  1.0000
  H   H591      1.0  0.65269  0.41985  0.03599  1.0000
  S   S138      1.0  0.98636  0.36299  0.12086  1.0000
  H   H592      1.0  0.75270  0.55004  0.43939  1.0000
  H   H593      1.0  0.76696  0.52293  0.05690  1.0000
  C   C499      1.0  0.83206  0.51367  0.44873  1.0000
  H   H594      1.0  0.89509  0.34629  0.14776  1.0000
  C   C500      1.0  0.63839  0.43415  0.03718  1.0000
  H   H595      1.0  0.62698  0.43134  0.01124  1.0000
  H   H596      1.0  0.93191  0.35428  0.11372  1.0000
  S   S139      1.0  0.63316  0.50218  0.01331  1.0000
  C   C501      1.0  0.87078  0.37218  0.06682  1.0000
  C   C502      1.0  0.91047  0.48380  0.19756  1.0000
  C   C503      1.0  0.84925  0.38431  0.12789  1.0000
  H   H597      1.0  0.58732  0.34517  0.09150  1.0000
  H   H598      1.0  0.92759  0.63251  0.04969  1.0000
  C   C504      1.0  0.96632  0.43085  0.21255  1.0000
  H   H599      1.0  0.89124  0.33755  0.01217  1.0000
  H   H600      1.0  0.64744  0.45164  0.03286  1.0000
  N   N33       1.0  0.75589  0.53111  0.38304  1.0000
  C   C505      1.0  0.74428  0.54967  0.40993  1.0000
  C   C506      1.0  0.75424  0.50776  0.40357  1.0000
  C   C507      1.0  0.78162  0.53732  0.37739  1.0000
  C   C508      1.0  0.74495  0.52934  0.34379  1.0000
  C   C509      1.0  0.75349  0.51171  0.31554  1.0000
  C   C510      1.0  0.72654  0.54546  0.33170  1.0000
  C   C511      1.0  0.74439  0.51042  0.27759  1.0000
  C   C512      1.0  0.71760  0.54401  0.29355  1.0000
  C   C513      1.0  0.72661  0.52662  0.26651  1.0000
  H   H601      1.0  0.72480  0.54607  0.41555  1.0000
  C   C514      1.0  0.88679  0.35717  0.08768  1.0000
  H   H602      1.0  0.74627  0.56803  0.39775  1.0000
  H   H603      1.0  0.73518  0.50222  0.40778  1.0000
  C   C515      1.0  0.58717  0.37794  0.05877  1.0000
  H   H604      1.0  0.76403  0.49297  0.38701  1.0000
  H   H605      1.0  0.76775  0.49909  0.32215  1.0000
  H   H606      1.0  0.71896  0.55956  0.35088  1.0000
  H   H607      1.0  0.75163  0.49718  0.25616  1.0000
  H   H608      1.0  0.70387  0.55667  0.28455  1.0000
  H   H609      1.0  0.72017  0.52589  0.23659  1.0000
  H   H610      1.0  0.83553  0.39535  0.14349  1.0000
  H   H611      1.0  0.90192  0.46781  0.21082  1.0000
  C   C516      1.0  0.97583  0.47913  0.19823  1.0000
  H   H612      1.0  0.93044  0.37496  0.07366  1.0000
  C   C517      1.0  0.82225  0.50189  0.48215  1.0000
  C   C518      1.0  0.59666  0.40090  0.05480  1.0000
  C   C519      1.0  0.61188  0.37094  0.11470  1.0000
  H   H613      1.0  0.79205  0.52327  0.36001  1.0000
  C   C520      1.0  0.95204  0.47289  0.21097  1.0000
  S   S140      1.0  0.98094  0.63699  0.20285  1.0000
  H   H614      1.0  0.98089  0.49743  0.19255  1.0000
  H   H615      1.0  0.94847  0.65063  0.28281  1.0000
  N   N34       1.0  0.90770  0.34434  0.06801  1.0000
  C   C521      1.0  0.85235  0.38553  0.08686  1.0000
  C   C522      1.0  0.94795  0.44822  0.21835  1.0000
  H   H616      1.0  0.91032  0.36370  0.01294  1.0000
  C   C523      1.0  0.90797  0.34512  0.02400  1.0000
  H   H617      1.0  0.79059  0.53925  0.40619  1.0000
  N   N35       1.0  0.62417  0.43390  0.07520  1.0000
  C   C524      1.0  0.60436  0.45215  0.07390  1.0000
  C   C525      1.0  0.62156  0.39389  0.11090  1.0000
  H   H618      1.0  0.91197  0.50635  0.26840  1.0000
  H   H619      1.0  0.93052  0.44214  0.22898  1.0000
  C   C526      1.0  0.93005  0.35556  0.08114  1.0000
  H   H620      1.0  0.88873  0.65415  0.04611  1.0000
  H   H621      1.0  0.55417  0.62705  0.99672  1.0000
  C   C527      1.0  0.79474  0.50229  0.08151  1.0000
  H   H622      1.0  0.58412  0.59983  0.02685  1.0000
  C   C528      1.0  0.77699  0.49194  0.01801  1.0000
  H   H623      1.0  0.57397  0.37161  0.03827  1.0000
  C   C529      1.0  0.52266  0.54736  0.01353  1.0000
  C   C530      1.0  0.80897  0.48110  0.47594  1.0000
  C   C531      1.0  0.79262  0.47142  0.01593  1.0000
  C   C532      1.0  0.59473  0.36299  0.08869  1.0000
  H   H624      1.0  0.79542  0.51409  0.10733  1.0000
  Fe  Fe71      1.0  0.67291  0.49422  0.01261  1.0000
  H   H625      1.0  0.82206  0.47811  0.10199  1.0000
  H   H626      1.0  0.64705  0.45999  0.10247  1.0000
  C   C533      1.0  0.86442  0.36956  0.14910  1.0000
  C   C534      1.0  0.80974  0.48198  0.07859  1.0000
  H   H627      1.0  0.61129  0.47078  0.07351  1.0000
  C   C535      1.0  0.61408  0.40967  0.08079  1.0000
  H   H628      1.0  0.98443  0.62600  0.00242  1.0000
  H   H629      1.0  0.92470  0.63981  0.25447  1.0000
  C   C536      1.0  0.92888  0.65299  0.27829  1.0000
  C   C537      1.0  0.77845  0.50722  0.05196  1.0000
  C   C538      1.0  0.88302  0.35632  0.12949  1.0000
  H   H630      1.0  0.94634  0.34676  0.06686  1.0000
  H   H631      1.0  0.51225  0.54727  0.04121  1.0000
  H   H632      1.0  0.95519  0.64831  0.04145  1.0000
  H   H633      1.0  0.51476  0.60674  0.01614  1.0000
  H   H634      1.0  0.91892  0.64754  0.30586  1.0000
  H   H635      1.0  0.54772  0.52063  0.03416  1.0000
  H   H636      1.0  0.92336  0.33433  0.01030  1.0000
  C   C539      1.0  0.98931  0.43750  0.19959  1.0000
  C   C540      1.0  0.54289  0.53201  0.00984  1.0000
  C   C541      1.0  0.99408  0.46158  0.19263  1.0000
  H   H637      1.0  0.49977  0.58669  0.04962  1.0000
  H   H638      1.0  0.93643  0.65436  0.08486  1.0000
  C   C542      1.0  0.49818  0.59603  0.02102  1.0000
  H   H639      1.0  0.90357  0.63019  0.99578  1.0000
  Fe  Fe72      1.0  0.67858  0.50234  0.92310  1.0000
  C   C543      1.0  0.56029  0.42604  0.96264  1.0000
  S   S141      1.0  0.71382  0.49859  0.88459  1.0000
  C   C544      1.0  0.96692  0.35890  0.94389  1.0000
  H   H640      1.0  0.95358  0.64124  0.58667  1.0000
  S   S142      1.0  0.63867  0.51112  0.91675  1.0000
  C   C545      1.0  0.51626  0.56284  0.98241  1.0000
  S   S143      1.0  0.54348  0.63586  0.91360  1.0000
  C   C546      1.0  0.91254  0.63573  0.93491  1.0000
  Fe  Fe73      1.0  0.79050  0.50413  0.67505  1.0000
  S   S144      1.0  0.82257  0.49675  0.71110  1.0000
  S   S145      1.0  0.75200  0.50711  0.70309  1.0000
  Fe  Fe74      1.0  0.82225  0.50472  0.59652  1.0000
  S   S146      1.0  0.85650  0.49709  0.62905  1.0000
  S   S147      1.0  0.82632  0.51469  0.53039  1.0000
  Fe  Fe75      1.0  0.83447  0.47038  0.66317  1.0000
  S   S148      1.0  0.84533  0.43426  0.68785  1.0000
  Fe  Fe76      1.0  0.84190  0.52417  0.67429  1.0000
  S   S149      1.0  0.86270  0.55007  0.71213  1.0000
  S   S150      1.0  0.80105  0.47591  0.62814  1.0000
  S   S151      1.0  0.80894  0.53360  0.64072  1.0000
  H   H641      1.0  0.92977  0.62700  0.61328  1.0000
  H   H642      1.0  0.95364  0.33138  0.50236  1.0000
  Fe  Fe77      1.0  0.96545  0.36305  0.71424  1.0000
  S   S152      1.0  0.95110  0.38921  0.66966  1.0000
  H   H643      1.0  0.91384  0.44500  0.74668  1.0000
  C   C547      1.0  0.58501  0.43021  0.95545  1.0000
  Fe  Fe78      1.0  0.97869  0.62651  0.70975  1.0000
  S   S153      1.0  0.96080  0.60164  0.66654  1.0000
  C   C548      1.0  0.88926  0.56520  0.69779  1.0000
  C   C549      1.0  0.90033  0.57960  0.72609  1.0000
  C   C550      1.0  0.92219  0.59098  0.71681  1.0000
  C   C551      1.0  0.93318  0.58796  0.67912  1.0000
  C   C552      1.0  0.92205  0.57371  0.65067  1.0000
  C   C553      1.0  0.90010  0.56242  0.65989  1.0000
  H   H644      1.0  0.89202  0.58183  0.75546  1.0000
  H   H645      1.0  0.93060  0.60192  0.73893  1.0000
  H   H646      1.0  0.93046  0.57134  0.62139  1.0000
  H   H647      1.0  0.89163  0.55151  0.63777  1.0000
  C   C554      1.0  0.92186  0.40199  0.67576  1.0000
  C   C555      1.0  0.91517  0.42118  0.65172  1.0000
  C   C556      1.0  0.89187  0.43153  0.65549  1.0000
  C   C557      1.0  0.87504  0.42249  0.68301  1.0000
  C   C558      1.0  0.88179  0.40341  0.70719  1.0000
  C   C559      1.0  0.90518  0.39329  0.70381  1.0000
  H   H648      1.0  0.92804  0.42802  0.63003  1.0000
  H   H649      1.0  0.88676  0.44609  0.63651  1.0000
  H   H650      1.0  0.86886  0.39635  0.72856  1.0000
  H   H651      1.0  0.91017  0.37854  0.72252  1.0000
  C   C560      1.0  0.59806  0.58479  0.97122  1.0000
  C   C561      1.0  0.98293  0.62971  0.93884  1.0000
  S   S154      1.0  0.68151  0.52676  0.97687  1.0000
  H   H652      1.0  0.60378  0.37177  0.94280  1.0000
  H   H653      1.0  0.94795  0.41761  0.75022  1.0000
  C   C562      1.0  0.77354  0.49879  0.94753  1.0000
  H   H654      1.0  0.73327  0.52206  0.96713  1.0000
  C   C563      1.0  0.59154  0.38691  0.94831  1.0000
  C   C564      1.0  0.60060  0.41047  0.94804  1.0000
  C   C565      1.0  0.97793  0.46631  0.71689  1.0000
  H   H655      1.0  0.78683  0.51349  0.94890  1.0000
  H   H656      1.0  0.69879  0.44891  0.84232  1.0000
  C   C566      1.0  0.53138  0.56193  0.94739  1.0000
  C   C567      1.0  0.56393  0.61605  0.93683  1.0000
  C   C568      1.0  0.57926  0.60089  0.91300  1.0000
  C   C569      1.0  0.59615  0.58527  0.93005  1.0000
  H   H657      1.0  0.57825  0.60137  0.88112  1.0000
  H   H658      1.0  0.60804  0.57398  0.91135  1.0000
  C   C570      1.0  0.72397  0.50249  0.83414  1.0000
  C   C571      1.0  0.70835  0.50823  0.80398  1.0000
  C   C572      1.0  0.71728  0.50987  0.76428  1.0000
  C   C573      1.0  0.74195  0.50609  0.75412  1.0000
  C   C574      1.0  0.75762  0.50088  0.78447  1.0000
  C   C575      1.0  0.74865  0.49891  0.82401  1.0000
  H   H659      1.0  0.68935  0.51108  0.81108  1.0000
  H   H660      1.0  0.70495  0.51400  0.74122  1.0000
  H   H661      1.0  0.77666  0.49829  0.77755  1.0000
  H   H662      1.0  0.76098  0.49452  0.84689  1.0000
  C   C576      1.0  0.97009  0.34106  0.58260  1.0000
  N   N36       1.0  0.76177  0.43218  0.71848  1.0000
  C   C577      1.0  0.75248  0.43855  0.67923  1.0000
  C   C578      1.0  0.78335  0.44679  0.72476  1.0000
  C   C579      1.0  0.76926  0.40644  0.71642  1.0000
  C   C580      1.0  0.74402  0.43644  0.75185  1.0000
  C   C581      1.0  0.72062  0.44649  0.74676  1.0000
  C   C582      1.0  0.75015  0.43094  0.79118  1.0000
  C   C583      1.0  0.70444  0.45042  0.77908  1.0000
  C   C584      1.0  0.73390  0.43518  0.82330  1.0000
  C   C585      1.0  0.71108  0.44489  0.81724  1.0000
  H   H663      1.0  0.73631  0.42802  0.67222  1.0000
  H   H664      1.0  0.74783  0.45809  0.67787  1.0000
  H   H665      1.0  0.76619  0.43497  0.65479  1.0000
  H   H666      1.0  0.77837  0.46615  0.72798  1.0000
  H   H667      1.0  0.79659  0.44496  0.69936  1.0000
  H   H668      1.0  0.79312  0.44158  0.75146  1.0000
  H   H669      1.0  0.77866  0.40071  0.74323  1.0000
  H   H670      1.0  0.75341  0.39472  0.71308  1.0000
  H   H671      1.0  0.78223  0.40265  0.69094  1.0000
  H   H672      1.0  0.71459  0.45220  0.71834  1.0000
  H   H673      1.0  0.76778  0.42376  0.79743  1.0000
  H   H674      1.0  0.68696  0.45876  0.77474  1.0000
  H   H675      1.0  0.73913  0.43147  0.85319  1.0000
  Fe  Fe79      1.0  0.51850  0.33776  0.96595  1.0000
  S   S155      1.0  0.95932  0.65434  0.74857  1.0000
  C   C586      1.0  0.55141  0.54630  0.94393  1.0000
  H   H676      1.0  0.96236  0.50046  0.70448  1.0000
  H   H677      1.0  0.54805  0.44113  0.96848  1.0000
  C   C587      1.0  0.95855  0.48261  0.71492  1.0000
  H   H678      1.0  0.98903  0.43022  0.73072  1.0000
  Fe  Fe80      1.0  0.63141  0.47991  0.95757  1.0000
  C   C588      1.0  0.55124  0.40248  0.96284  1.0000
  S   S156      1.0  0.97959  0.63368  0.85792  1.0000
  H   H679      1.0  0.89744  0.64853  0.64455  1.0000
  C   C589      1.0  0.91234  0.64216  0.97512  1.0000
  H   H680      1.0  0.79233  0.45885  0.99127  1.0000
  C   C590      1.0  0.97409  0.44299  0.72977  1.0000
  C   C591      1.0  0.95091  0.43594  0.74091  1.0000
  C   C592      1.0  0.56684  0.38273  0.95573  1.0000
  S   S157      1.0  0.99438  0.33805  0.68857  1.0000
  H   H681      1.0  0.92302  0.51017  0.77851  1.0000
  H   H682      1.0  0.92365  0.64007  0.56673  1.0000
  S   S158      1.0  0.98723  0.37493  0.76515  1.0000
  H   H683      1.0  0.96583  0.35312  0.60872  1.0000
  C   C593      1.0  0.96771  0.34393  0.90981  1.0000
  H   H684      1.0  0.76122  0.50295  0.92310  1.0000
  H   H685      1.0  0.72905  0.47971  0.96135  1.0000
  H   H686      1.0  0.78345  0.48200  0.93833  1.0000
  Fe  Fe81      1.0  0.97118  0.34429  0.79944  1.0000
  H   H687      1.0  0.96316  0.37792  0.94093  1.0000
  S   S159      1.0  0.67076  0.46942  0.95952  1.0000
  H   H688      1.0  0.61961  0.41331  0.94216  1.0000
  S   S160      1.0  0.96065  0.35648  0.86326  1.0000
  H   H689      1.0  0.92466  0.64484  0.87580  1.0000
  S   S161      1.0  0.59534  0.46033  0.95785  1.0000
  Fe  Fe82      1.0  0.51258  0.65885  0.94177  1.0000
  C   C594      1.0  0.54853  0.65473  0.80414  1.0000
  N   N37       1.0  0.91445  0.49353  0.72299  1.0000
  C   C595      1.0  0.89069  0.48411  0.73657  1.0000
  C   C596      1.0  0.91912  0.51516  0.74761  1.0000
  C   C597      1.0  0.91241  0.50076  0.68118  1.0000
  C   C598      1.0  0.93463  0.47595  0.72577  1.0000
  C   C599      1.0  0.93136  0.45200  0.73875  1.0000
  H   H690      1.0  0.53224  0.39958  0.96878  1.0000
  Fe  Fe83      1.0  0.98721  0.64557  0.79381  1.0000
  H   H691      1.0  0.97492  0.61234  0.93457  1.0000
  C   C600      1.0  0.92390  0.65018  0.90687  1.0000
  H   H692      1.0  0.89075  0.47852  0.76803  1.0000
  H   H693      1.0  0.87603  0.49797  0.73457  1.0000
  H   H694      1.0  0.88526  0.46864  0.71786  1.0000
  S   S162      1.0  0.55669  0.35252  0.95726  1.0000
  H   H695      1.0  0.90334  0.52782  0.74923  1.0000
  H   H696      1.0  0.93446  0.52573  0.73555  1.0000
  H   H697      1.0  0.91000  0.48481  0.66149  1.0000
  H   H698      1.0  0.89669  0.51310  0.67767  1.0000
  H   H699      1.0  0.92846  0.51050  0.66976  1.0000
  H   H700      1.0  0.49624  0.47592  0.90618  1.0000
  C   C601      1.0  0.92853  0.32972  0.57813  1.0000
  H   H701      1.0  0.55219  0.64585  0.77475  1.0000
  H   H702      1.0  0.50152  0.65733  0.80212  1.0000
  H   H703      1.0  0.57317  0.51986  0.97251  1.0000
  C   C602      1.0  0.56556  0.61529  0.97800  1.0000
  N   N38       1.0  0.76001  0.49651  0.98604  1.0000
  H   H704      1.0  0.75256  0.45914  0.97334  1.0000
  C   C603      1.0  0.97079  0.34950  0.98180  1.0000
  Fe  Fe84      1.0  0.64126  0.53301  0.97310  1.0000
  C   C604      1.0  0.98782  0.64418  0.90573  1.0000
  H   H705      1.0  0.56298  0.54617  0.91730  1.0000
  H   H706      1.0  0.92262  0.34107  0.60440  1.0000
  H   H707      1.0  0.52854  0.57347  0.92253  1.0000
  C   C605      1.0  0.74326  0.47615  0.98307  1.0000
  C   C606      1.0  0.55725  0.53149  0.97511  1.0000
  C   C607      1.0  0.74517  0.51880  0.99241  1.0000
  H   H708      1.0  0.90419  0.61927  0.92542  1.0000
  H   H709      1.0  0.50574  0.60595  0.94511  1.0000
  C   C608      1.0  0.93388  0.64266  0.59410  1.0000
  H   H710      1.0  0.53874  0.64157  0.82314  1.0000
  H   H711      1.0  0.96894  0.35240  0.55595  1.0000
  H   H712      1.0  0.56587  0.65776  0.81880  1.0000
  H   H713      1.0  0.98915  0.33474  0.58459  1.0000
  C   C609      1.0  0.98805  0.63756  0.97755  1.0000
  H   H714      1.0  0.92644  0.34123  0.55189  1.0000
  H   H715      1.0  0.80125  0.47180  0.50114  1.0000
  H   H716      1.0  0.93993  0.65126  0.66882  1.0000
  H   H717      1.0  0.49683  0.43599  0.93731  1.0000
  S   S163      1.0  0.94661  0.33479  0.74971  1.0000
  H   H718      1.0  0.75654  0.53496  0.99490  1.0000
  S   S164      1.0  0.62020  0.56686  0.99437  1.0000
  C   C610      1.0  0.58263  0.59988  0.99501  1.0000
  C   C611      1.0  0.97856  0.73382  0.25470  1.0000
  H   H719      1.0  0.55625  0.74453  0.16949  1.0000
  C   C612      1.0  0.53258  0.86358  0.37531  1.0000
  C   C613      1.0  0.88383  0.92016  0.48117  1.0000
  C   C614      1.0  0.56389  0.77988  0.14509  1.0000
  H   H720      1.0  0.97059  0.71239  0.36229  1.0000
  H   H721      1.0  0.96971  0.72937  0.22772  1.0000
  C   C615      1.0  0.92483  0.98677  0.41239  1.0000
  C   C616      1.0  0.53377  0.88207  0.44258  1.0000
  H   H722      1.0  0.88769  0.68500  0.03106  1.0000
  S   S165      1.0  0.64219  0.97726  0.22506  1.0000
  H   H723      1.0  0.89449  0.66399  0.23052  1.0000
  H   H724      1.0  0.89065  0.71343  0.30222  1.0000
  Fe  Fe85      1.0  0.83414  0.97134  0.44686  1.0000
  S   S166      1.0  0.86427  0.94652  0.41967  1.0000
  Fe  Fe86      1.0  0.52216  0.84978  0.26201  1.0000
  S   S167      1.0  0.56009  0.86169  0.27257  1.0000
  C   C617      1.0  0.55265  0.74401  0.10716  1.0000
  C   C618      1.0  0.92595  0.69479  0.30096  1.0000
  H   H725      1.0  0.93286  0.99128  0.38277  1.0000
  H   H726      1.0  0.73527  0.91271  0.26524  1.0000
  H   H727      1.0  0.70740  0.89067  0.30856  1.0000
  H   H728      1.0  0.73343  0.96346  0.42964  1.0000
  C   C619      1.0  0.90820  0.71207  0.31466  1.0000
  Fe  Fe87      1.0  0.63445  0.96101  0.16584  1.0000
  S   S168      1.0  0.61882  0.92497  0.14963  1.0000
  S   S169      1.0  0.66915  0.97313  0.13668  1.0000
  H   H729      1.0  0.92540  0.88107  0.40945  1.0000
  H   H730      1.0  0.68558  0.99391  0.02649  1.0000
  Fe  Fe88      1.0  0.98141  0.80251  0.40104  1.0000
  H   H731      1.0  0.67789  0.90272  0.32113  1.0000
  H   H732      1.0  0.60883  0.91316  0.03731  1.0000
  C   C620      1.0  0.57451  0.88123  0.23898  1.0000
  C   C621      1.0  0.59377  0.89501  0.25168  1.0000
  C   C622      1.0  0.60667  0.90955  0.22491  1.0000
  C   C623      1.0  0.60089  0.90972  0.18499  1.0000
  C   C624      1.0  0.58160  0.89596  0.17232  1.0000
  C   C625      1.0  0.56812  0.88213  0.19939  1.0000
  H   H733      1.0  0.59884  0.89432  0.28224  1.0000
  H   H734      1.0  0.62162  0.91997  0.23481  1.0000
  H   H735      1.0  0.57709  0.89601  0.14146  1.0000
  H   H736      1.0  0.55320  0.87174  0.18941  1.0000
  H   H737      1.0  0.59554  0.78796  0.22858  1.0000
  H   H738      1.0  0.67535  0.94151  0.35904  1.0000
  H   H739      1.0  0.74976  0.93518  0.31397  1.0000
  H   H740      1.0  0.55100  0.79829  0.24056  1.0000
  H   H741      1.0  0.66493  0.94110  0.29638  1.0000
  H   H742      1.0  0.93342  0.70393  0.22445  1.0000
  C   C626      1.0  0.91406  0.89197  0.42967  1.0000
  C   C627      1.0  0.89859  0.90988  0.41482  1.0000
  C   C628      1.0  0.88321  0.92399  0.44036  1.0000
  H   H743      1.0  0.60863  0.98909  0.02165  1.0000
  H   H744      1.0  0.57739  0.82561  0.21068  1.0000
  C   C629      1.0  0.93538  0.72874  0.36185  1.0000
  H   H745      1.0  0.55825  0.82751  0.16966  1.0000
  C   C630      1.0  0.91303  0.72880  0.34457  1.0000
  N   N39       1.0  0.92216  0.67794  0.26748  1.0000
  H   H746      1.0  0.55103  0.85552  0.37641  1.0000
  H   H747      1.0  0.71326  0.92054  0.23046  1.0000
  C   C631      1.0  0.54750  0.90328  0.38389  1.0000
  C   C632      1.0  0.74374  0.94852  0.37235  1.0000
  C   C633      1.0  0.89826  0.67151  0.04754  1.0000
  C   C634      1.0  0.59878  0.97348  0.03395  1.0000
  H   H748      1.0  0.64584  0.96791  0.04553  1.0000
  H   H749      1.0  0.92660  0.70792  0.02560  1.0000
  C   C635      1.0  0.98167  0.76023  0.31338  1.0000
  C   C636      1.0  0.50178  0.81035  0.46404  1.0000
  H   H750      1.0  0.50064  0.89689  0.36338  1.0000
  H   H751      1.0  0.54559  0.90585  0.35143  1.0000
  H   H752      1.0  0.56631  0.89685  0.38817  1.0000
  H   H753      1.0  0.89960  0.74234  0.35384  1.0000
  C   C637      1.0  0.59863  0.93046  0.04184  1.0000
  H   H754      1.0  0.68981  0.95837  0.42074  1.0000
  H   H755      1.0  0.56932  0.81125  0.10710  1.0000
  C   C638      1.0  0.55983  0.78101  0.07290  1.0000
  H   H756      1.0  0.50240  0.91392  0.40827  1.0000
  C   C639      1.0  0.69286  0.90284  0.29827  1.0000
  H   H757      1.0  0.67707  0.93827  0.24718  1.0000
  H   H758      1.0  0.76279  0.95126  0.37637  1.0000
  N   N40       1.0  0.92345  0.66950  0.03130  1.0000
  N   N41       1.0  0.56918  0.79131  0.18365  1.0000
  C   C640      1.0  0.55373  0.75685  0.07213  1.0000
  C   C641      1.0  0.70262  0.95275  0.39724  1.0000
  C   C642      1.0  0.55768  0.75525  0.14313  1.0000
  H   H759      1.0  0.97246  0.92381  0.41254  1.0000
  C   C643      1.0  0.69454  0.94337  0.36155  1.0000
  H   H760      1.0  0.59024  0.82104  0.16194  1.0000
  S   S170      1.0  0.97079  0.67854  0.13739  1.0000
  C   C644      1.0  0.94856  0.69532  0.31922  1.0000
  C   C645      1.0  0.93544  0.69252  0.04026  1.0000
  N   N42       1.0  0.70192  0.92739  0.29183  1.0000
  C   C646      1.0  0.96821  0.92753  0.49273  1.0000
  H   H761      1.0  0.93503  0.67328  0.20684  1.0000
  C   C647      1.0  0.73588  0.93943  0.33634  1.0000
  H   H762      1.0  0.64543  0.93567  0.05235  1.0000
  H   H763      1.0  0.51519  0.79607  0.46534  1.0000
  H   H764      1.0  0.72903  0.94387  0.25444  1.0000
  C   C648      1.0  0.72075  0.92603  0.25928  1.0000
  C   C649      1.0  0.56489  0.79248  0.10872  1.0000
  C   C650      1.0  0.93759  0.68512  0.23309  1.0000
  S   S171      1.0  0.51003  0.81661  0.29367  1.0000
  H   H765      1.0  0.77771  0.99025  0.31756  1.0000
  S   S172      1.0  0.61317  0.99287  0.14633  1.0000
  H   H766      1.0  0.50038  0.78045  0.06718  1.0000
  C   C651      1.0  0.54841  0.78854  0.21205  1.0000
  C   C652      1.0  0.71091  0.93696  0.32959  1.0000
  H   H767      1.0  0.96496  0.89578  0.43538  1.0000
  H   H768      1.0  0.96339  0.68368  0.30906  1.0000
  H   H769      1.0  0.95459  0.76393  0.26977  1.0000
  S   S173      1.0  0.79387  0.96583  0.45462  1.0000
  H   H770      1.0  0.54718  0.72539  0.10647  1.0000
  H   H771      1.0  0.54911  0.74819  0.04449  1.0000
  H   H772      1.0  0.60655  0.78056  0.17891  1.0000
  C   C653      1.0  0.95299  0.71184  0.34954  1.0000
  S   S174      1.0  0.96952  0.78482  0.34295  1.0000
  C   C654      1.0  0.59068  0.77945  0.19995  1.0000
  N   N43       1.0  0.61324  0.95093  0.02788  1.0000
  H   H773      1.0  0.91106  0.97272  0.40772  1.0000
  H   H774      1.0  0.56026  0.79095  0.04553  1.0000
  H   H775      1.0  0.53158  0.79559  0.19938  1.0000
  H   H776      1.0  0.95490  0.69179  0.03081  1.0000
  H   H777      1.0  0.68587  0.89495  0.27055  1.0000
  H   H778      1.0  0.58148  0.92902  0.02624  1.0000
  H   H779      1.0  0.93939  0.74233  0.38393  1.0000
  C   C655      1.0  0.97015  0.75361  0.27847  1.0000
  H   H780      1.0  0.68675  0.96206  0.27866  1.0000
  H   H781      1.0  0.52961  0.86707  0.34354  1.0000
  H   H782      1.0  0.88420  0.67284  0.27962  1.0000
  C   C656      1.0  0.91462  0.88807  0.47049  1.0000
  C   C657      1.0  0.57398  0.81745  0.18108  1.0000
  H   H783      1.0  0.54504  0.76952  0.21976  1.0000
  N   N44       1.0  0.52987  0.88588  0.39996  1.0000
  Fe  Fe89      1.0  0.96298  0.83910  0.46599  1.0000
  C   C658      1.0  0.74912  0.99001  0.27555  1.0000
  H   H784      1.0  0.58772  0.76011  0.20589  1.0000
  H   H785      1.0  0.52666  0.91947  0.46053  1.0000
  H   H786      1.0  0.89827  0.91257  0.38319  1.0000
  C   C659      1.0  0.72716  0.95545  0.40251  1.0000
  S   S175      1.0  0.95768  0.79923  0.45650  1.0000
  C   C660      1.0  0.68184  0.94278  0.27812  1.0000
  H   H787      1.0  0.51913  0.85000  0.38443  1.0000
  C   C661      1.0  0.50512  0.89564  0.39512  1.0000
  H   H788      1.0  0.89755  0.67696  0.07949  1.0000
  H   H789      1.0  0.49869  0.79520  0.13700  1.0000
  S   S176      1.0  0.50434  0.84020  0.20553  1.0000
  H   H790      1.0  0.54530  0.92133  0.39821  1.0000
  C   C662      1.0  0.53973  0.85922  0.45814  1.0000
  H   H791      1.0  0.62861  0.95549  0.08514  1.0000
  H   H792      1.0  0.54170  0.84318  0.43984  1.0000
  H   H793      1.0  0.89116  0.69511  0.24236  1.0000
  H   H794      1.0  0.59376  0.93222  0.07414  1.0000
  C   C663      1.0  0.53116  0.90159  0.47015  1.0000
  C   C664      1.0  0.63430  0.95250  0.05354  1.0000
  C   C665      1.0  0.89685  0.67757  0.25469  1.0000
  H   H795      1.0  0.95708  0.68426  0.23949  1.0000
  H   H796      1.0  0.59484  0.97756  0.06596  1.0000
  N   N45       1.0  0.98906  0.91777  0.46825  1.0000
  S   S177      1.0  0.98397  0.84292  0.40839  1.0000
  H   H797      1.0  0.93491  0.69668  0.07265  1.0000
  H   H798      1.0  0.93902  0.97803  0.42965  1.0000
  H   H799      1.0  0.58116  0.97285  0.01966  1.0000
  C   C666      1.0  0.97968  0.90884  0.43027  1.0000
  Fe  Fe90      1.0  0.67546  0.99232  0.19517  1.0000
  H   H800      1.0  0.49970  0.80796  0.40015  1.0000
  C   C667      1.0  0.49653  0.76804  0.09083  1.0000
  S   S178      1.0  0.49570  0.73407  0.03076  1.0000
  H   H801      1.0  0.95936  0.94295  0.47820  1.0000
  H   H802      1.0  0.76046  0.98209  0.25188  1.0000
  S   S179      1.0  0.71315  0.98843  0.22110  1.0000
  H   H803      1.0  0.99363  0.89894  0.41158  1.0000
  H   H804      1.0  0.89037  0.98816  0.47105  1.0000
  Fe  Fe91      1.0  0.99227  0.79367  0.48824  1.0000
  S   S180      1.0  0.93462  0.86655  0.49148  1.0000
  H   H805      1.0  0.91911  0.99402  0.49095  1.0000
  S   S181      1.0  0.50978  0.69902  0.93475  1.0000
  H   H806      1.0  0.66868  0.94204  0.91947  1.0000
  C   C668      1.0  0.49804  0.76952  0.81689  1.0000
  H   H807      1.0  0.66440  0.99197  0.61835  1.0000
  H   H808      1.0  0.72352  0.97723  0.69004  1.0000
  Fe  Fe92      1.0  0.98637  0.67994  0.72155  1.0000
  H   H809      1.0  0.89549  0.68049  0.64610  1.0000
  C   C669      1.0  0.54248  0.85620  0.49876  1.0000
  C   C670      1.0  0.65523  0.91802  0.63549  1.0000
  H   H810      1.0  0.54063  0.87286  0.55665  1.0000
  S   S182      1.0  0.52161  0.90737  0.67033  1.0000
  S   S183      1.0  0.52212  0.83369  0.65390  1.0000
  Fe  Fe93      1.0  0.63437  0.96428  0.76070  1.0000
  S   S184      1.0  0.62332  0.92644  0.74429  1.0000
  S   S185      1.0  0.67356  0.97182  0.76988  1.0000
  C   C671      1.0  0.54962  0.91218  0.69211  1.0000
  C   C672      1.0  0.56520  0.89311  0.70071  1.0000
  C   C673      1.0  0.58768  0.89772  0.71692  1.0000
  C   C674      1.0  0.59463  0.92138  0.72507  1.0000
  C   C675      1.0  0.57896  0.94044  0.71680  1.0000
  C   C676      1.0  0.55662  0.93585  0.70016  1.0000
  H   H811      1.0  0.56001  0.87481  0.69463  1.0000
  H   H812      1.0  0.59969  0.88288  0.72330  1.0000
  H   H813      1.0  0.58413  0.95873  0.72297  1.0000
  H   H814      1.0  0.54469  0.95072  0.69362  1.0000
  H   H815      1.0  0.51053  0.78171  0.83008  1.0000
  H   H816      1.0  0.96855  0.76391  0.66471  1.0000
  Fe  Fe94      1.0  0.66008  0.99434  0.82289  1.0000
  H   H817      1.0  0.50693  0.99083  0.72980  1.0000
  H   H818      1.0  0.51297  0.66475  0.75314  1.0000
  H   H819      1.0  0.64342  0.91426  0.66210  1.0000
  C   C677      1.0  0.57014  0.69196  0.75810  1.0000
  Fe  Fe95      1.0  0.79588  0.98620  0.51278  1.0000
  C   C678      1.0  0.67335  0.94937  0.67274  1.0000
  H   H820      1.0  0.58299  0.94807  0.96551  1.0000
  C   C679      1.0  0.64207  0.96055  0.62885  1.0000
  H   H821      1.0  0.63643  0.94091  0.87146  1.0000
  S   S186      1.0  0.97661  0.71707  0.69756  1.0000
  C   C680      1.0  0.92566  0.71059  0.60473  1.0000
  C   C681      1.0  0.99255  0.71411  0.61796  1.0000
  H   H822      1.0  0.88984  0.66464  0.60076  1.0000
  C   C682      1.0  0.60358  0.99438  0.62177  1.0000
  H   H823      1.0  0.69083  0.96324  0.60369  1.0000
  H   H824      1.0  0.97666  0.78110  0.59795  1.0000
  C   C683      1.0  0.59871  0.97050  0.63027  1.0000
  N   N46       1.0  0.66251  0.94359  0.63454  1.0000
  H   H825      1.0  0.69921  0.98274  0.95747  1.0000
  C   C684      1.0  0.61998  0.94756  0.98525  1.0000
  C   C685      1.0  0.60778  0.94409  0.91618  1.0000
  H   H826      1.0  0.89966  0.89961  0.52767  1.0000
  H   H827      1.0  0.66010  0.94701  0.69779  1.0000
  H   H828      1.0  0.51709  0.72200  0.78055  1.0000
  H   H829      1.0  0.92549  0.74876  0.59445  1.0000
  H   H830      1.0  0.54736  0.69301  0.85437  1.0000
  C   C686      1.0  0.94638  0.70619  0.52831  1.0000
  H   H831      1.0  0.97358  0.93295  0.52293  1.0000
  C   C687      1.0  0.60187  0.94658  0.95672  1.0000
  C   C688      1.0  0.53923  0.87558  0.52506  1.0000
  C   C689      1.0  0.92365  0.66333  0.98846  1.0000
  H   H832      1.0  0.58060  0.67572  0.76223  1.0000
  C   C690      1.0  0.54593  0.73543  0.74495  1.0000
  C   C691      1.0  0.56898  0.73132  0.72829  1.0000
  C   C692      1.0  0.72746  0.98498  0.66139  1.0000
  S   S187      1.0  0.83642  0.98836  0.50688  1.0000
  C   C693      1.0  0.94174  0.66758  0.65036  1.0000
  H   H833      1.0  0.64560  0.91292  0.60843  1.0000
  C   C694      1.0  0.75290  0.98593  0.60019  1.0000
  C   C695      1.0  0.68250  0.99279  0.96268  1.0000
  H   H834      1.0  0.91834  0.71334  0.63460  1.0000
  C   C696      1.0  0.94235  0.68558  0.55068  1.0000
  H   H835      1.0  0.95509  0.70478  0.49905  1.0000
  C   C697      1.0  0.93994  0.72882  0.54385  1.0000
  H   H836      1.0  0.69581  0.93189  0.60402  1.0000
  H   H837      1.0  0.67919  0.96832  0.67428  1.0000
  S   S188      1.0  0.50231  0.79876  0.75211  1.0000
  H   H838      1.0  0.96117  0.66957  0.64215  1.0000
  H   H839      1.0  0.59907  0.70661  0.72195  1.0000
  C   C698      1.0  0.53487  0.71787  0.76810  1.0000
  C   C699      1.0  0.90141  0.66490  0.62695  1.0000
  C   C700      1.0  0.92966  0.73102  0.58200  1.0000
  H   H840      1.0  0.54630  0.83845  0.51016  1.0000
  C   C701      1.0  0.53018  0.68762  0.84111  1.0000
  H   H841      1.0  0.51794  0.70367  0.84180  1.0000
  C   C702      1.0  0.58106  0.70965  0.73484  1.0000
  S   S189      1.0  0.77812  0.97390  0.57149  1.0000
  C   C703      1.0  0.74679  0.97566  0.63702  1.0000
  C   C704      1.0  0.54655  0.69556  0.77538  1.0000
  C   C705      1.0  0.68129  0.94586  0.60226  1.0000
  H   H842      1.0  0.58021  0.96499  0.63509  1.0000
  H   H843      1.0  0.67333  0.94424  0.57263  1.0000
  H   H844      1.0  0.68934  0.93771  0.67813  1.0000
  N   N47       1.0  0.92730  0.66586  0.61449  1.0000
  H   H845      1.0  0.67104  0.90559  0.63762  1.0000
  C   C706      1.0  0.61758  0.95378  0.63405  1.0000
  H   H846      1.0  0.94812  0.66870  0.53700  1.0000
  H   H847      1.0  0.59373  0.94390  0.89474  1.0000
  H   H848      1.0  0.94497  0.69359  0.96616  1.0000
  C   C707      1.0  0.98231  0.72842  0.64888  1.0000
  H   H849      1.0  0.75739  0.96060  0.64710  1.0000
  H   H850      1.0  0.61245  0.93584  0.64218  1.0000
  H   H851      1.0  0.93636  0.68327  0.66974  1.0000
  H   H852      1.0  0.53657  0.75240  0.74010  1.0000
  C   C708      1.0  0.63180  0.94230  0.90293  1.0000
  C   C709      1.0  0.89947  0.90240  0.49605  1.0000
  H   H853      1.0  0.65940  0.94622  0.98983  1.0000
  H   H854      1.0  0.57749  0.74503  0.71041  1.0000
  C   C710      1.0  0.97659  0.75264  0.64120  1.0000
  C   C711      1.0  0.51080  0.67137  0.78434  1.0000
  S   S190      1.0  0.62159  0.98392  0.81631  1.0000
  H   H855      1.0  0.94453  0.68184  0.89692  1.0000
  H   H856      1.0  0.52160  0.67427  0.86112  1.0000
  C   C712      1.0  0.64998  0.94275  0.93013  1.0000
  C   C713      1.0  0.93166  0.68718  0.58965  1.0000
  H   H857      1.0  0.94375  0.74479  0.52679  1.0000
  Fe  Fe96      1.0  0.50527  0.87037  0.66445  1.0000
  C   C714      1.0  0.93518  0.67762  0.95902  1.0000
  C   C715      1.0  0.93506  0.67111  0.91887  1.0000
  H   H858      1.0  0.87217  0.93079  0.50131  1.0000
  C   C716      1.0  0.53375  0.89828  0.51078  1.0000
  S   S191      1.0  0.50532  0.81302  0.54535  1.0000
  H   H859      1.0  0.53114  0.91328  0.53148  1.0000
  C   C717      1.0  0.64634  0.98509  0.62053  1.0000
  N   N48       1.0  0.53442  0.67751  0.80060  1.0000
  C   C718      1.0  0.98117  0.76248  0.60332  1.0000
  C   C719      1.0  0.64431  0.94534  0.97070  1.0000
  H   H860      1.0  0.99299  0.96528  0.49781  1.0000
  S   S192      1.0  0.67946  0.99087  0.88130  1.0000
  H   H861      1.0  0.49798  0.68698  0.78489  1.0000
  C   C720      1.0  0.99172  0.74820  0.57260  1.0000
  H   H862      1.0  0.49572  0.74681  0.86840  1.0000
  H   H863      1.0  0.98509  0.88412  0.49832  1.0000
  H   H864      1.0  0.95407  0.91380  0.49741  1.0000
