data_image0
_chemical_formula_structural       H2SFeSC2H2CS3C2FeSHSHFeCHCSHNCSC6H8NH3CH2CHCSC2FeH5C2HC3HC2SCHC3H3CH2FeSC5H4CH2C2H5C2H3CHCH2SHCH2SH4CH2NH3C2SHC2HC2H4C2HC2SH5Fe2CFeCFeHCHSCH3CHSHFeCFeHSCHS2HFeS2H2C6H6C4HCHNH2FeHCH2C3HSCSFeCSHC2HCFeH2CNFeH2CH6CSHC3H6C2FeCNFeSHCHCH2SH3C2HC3HCHC3HCH2CHCS2HCHC4HC2NC3H5S2HC2H2C4HSHCH4C2NHC2HC3SFeSC2HSCFeSHFeSCHCH3CHNCHFeSCFeSH2SH3CHFeNHSH3C8H7C4SCHFeSNHSNSCH2SH2C3FeC6H5C3SC6H2C2H6CHNC9H11CHCHSH4SCSC2H2CHNH2C2HC4H7C2HC2HSHC2HCHCHFe2H3CHCHSH2SC5H2NCH2CH2CSCHCHC3FeCH3SC2HFeHCSH3C2HFeCH2CHCH2S2CSHS2FeSCHSHCFeSHCS3FeSC3FeSCFeHSHNSHFeCSH2C2HC2HCHC3HC7H3CH2FeH2CH2SH2CHCH2C2HCHC7H4CHC2H6SCHFeH4CH4CN2HFeHC5HC4HSH2C2H2SFeCHSC2SH2C3H4CFeH2NH3SCHC7H5FeCH3C3FeHCHSCSH2C2H3SH4C3SC2HCHCFeS2FeS3H2C2FeSHSHSH2FeS2H2CHCHSH2C6H4CHCH2C3FeHFeH4CH3CHSC2H2C7H4NSCHCH3CSH2CH2CSHNC4HCHCH7SCSH5NC9H11SH2NC9H4CH7CH2CHC3H2CH2CHCHC2FeSC2SCHCSCHCSFeHFeC2H2FeSCHCSHSCH4SCSHFeS2FeHSFeSHS2CH2C2HCHCSH3NHC9H4SCHFeH3CSCH4C6H7CH3CFeHC2H5NCHC5FeH5C5H2CHNC6H6CSHSFeCHCSCH4C2SH3SH2CNHC9HCH4CH6CHCHCH3CSHC3HCNC2HC3H4SCH3CFeCHC3H4FeC3H2C2HFeH4CHSHFeSHFeSCSHFeSCHFeSCS2HS2CFeSC2H4FeCHC6H4CHCHCFeH2C4H2SHC4HCH2CHSC4H2C4HC2HCHC3SN2H5SH2CHSH4C2H2C2HC6NHC4H7FeH4CHCH2CHCHCHCH2CHCH4NHC2H2NHC2HSCHFeC2H3C2H4CH2CSFeHSHSHFeSHFeS2C2SFeHFeSH2SHFe2SHCHCHC6H6C3HC2FeCHC2SHC4SH4CH2SHSC2HC2H2CH2NC8H4SHCH3CH3SH2C4H3CHC2HSCH2CH5NC2FeCNC3HCNC2H4CSHCHC2HCSHCSH2CH2CH2CHNHCHC2HFeH4C2H2FeCHCH2NCHCHCFeSFeSFeS2FeS2FeCFeS5FeCH5SH2CFeSH2SFeHSC2SCH2C7H4C6H4C6H9C2H7C3SCHCHCH4CSNC4HCHSCHCH2CH5NC6HC2H11CH3CHNH3C2H2CHCHNC6HCH2CH8CHSC2HCH8C3HSH2CFeSHFeS2FeS2FeSFeS4CSHC2H3CSFeHSH2FeH2CSHCH2C2HC3H3FeHC6H4C6H4C6H4C3H5C2HCH3CHC2SH2C2H5NSH2C2NHSCH4CH2FeC3H2NCHNC5H4C4FeH4CHNC9H14C3HSH2CH9CHCHSHSCH3C4H2CFeSHFeHSH2C2SFeS2FeS2FeSFeS3H3C6H3C6H4C7H4C2HN2HCFeH2CH2NCH2SH2CHNH2CH4CH2CH2CH2C3HS2H3CH2CH5C2HCNCHCHC2H5C3HCHCHCHC2FeHCSCHCNHCFeS2FeS2FeSFeS3CSHFeSHCFeHSCSC6H4C6H4C6H4C3H3CH2C2NC9H12SH2C4H2C2H4CHCHFeC5HCSH3NCH3NCH2CH7C3HC2FeH2SH2CSH7NFeS2FeS2FeSFeS5HCHFeSH2CHC6H2CHC6H4C6H4C6H3C3HC2SHC2H4NSHCH3CHC2H3CH2NH2SHNH2FeHCH2C2HCH2CHCH2C2HC2HC3FeCHC3H4CH4CH4CNH2CH4SH2CHCH3CHCHNH3FeSHFeS2FeS2FeSFeS3CSCH2CFeSC6H4C6H4C6H4C6H5NCNCH2SHC4H6CH2CHCHCHCH3CH3CH2CH4CHFeCH2NHCHCH2CNH2CHC2HCHCH2CH3CSH2CH4SCH2C2HCNC2HCHC3H5NCHC2HCH7CH3FeHSHFeSFeS2FeSFeS2CHCFeSHFeS2H4CSH3CH4SCHSH3CS4HCH4CHC2HC6H2C6H4C6H5SCNCH2CHCFeHC2H2CNCH2FeH5CFeH2CSCH2CH5FeH4CFeHCNC3SH3CH5C2HCNC9H14NC6H2CHCH6C2SCNC2H2C3S2H2C2SHCSCHC4HCHC2SHCSFeSFeS2FeS2FeSFeS3FeSCHFeHCFeS2HC5HCHCNH3CHCH4C2H6SC7H3C6H4C6H4CHCSHNC9H13FeH2C2H2CH5NC4H2C4HNC9H14S2H2SHFeCHCH2C3SH2NHFeC3SH3CHC2HSC2HCFeSH5CH2CHC2H2C2HSHC2SHCHC2FeHS3C2HFeSHCHS2HFeSCH3CSC6H6C2H3C2HC2HC2SC4H4FeCHCH2SCHC2H2C2SCHCHSH3C2SFeHSH2CNCHCHC2NCH2FeHC4H2C4H4SC2H2FeC3HCHSNFeCSC2H2SH2FeCH2CH2CH2CNCH2CSHSH4C2NHCH3CSCSFeSCH2SH2FeCH2SFeH2S4H2SH2C6H5C5H2CFeC5H3C8H3CHNCSCH2CH2FeC2NC6H2SH11CHCHCNHFeHSC2HFeHCH2NCH3CH2CSH4CH6CSC7HCH2C2H2C3HC3HCSHNCSH3FeNC2H3C2FeHCHSCHSH2CH2C2HCHCHS2CH2FeSHFeSNFeS3HCSFeS2HS2H2CFeSCFeCHFeC4SH6CH2C6H5FeH3C2HC6H6C2NHCHC2H2CSH2C2H2CH2CNC2FeC3HCH5S2HFeH2C2HCHCHC3NC2H2C2H3CH8C2HC2NC9H11CHCHCHC3HCH2CH2C2FeCHCH2CH2SHCNC3SC2HC2H4CH2C2H2SH2CHFeSC2SFeSH2SCSFeHSFeCSHSCFeS2HC2H4FeH2C6H5C3FeHCH3C4H2CFeHCHFeCH2C2HS3H3CHCSH5C3FeHSHSFeHCNSH2C3HCH3C2HCNSHSCHC3SNHSH5CFeH2CHCNC8FeH12CFeCHC4H2FeC2FeH2C2HCNS2H3C2HC2H2CH2CS2HCHCH2CH4S2CHCFeSCFeHSH2CHCS2HFeSHFeS3CHCFeC2SHC6H4CFeSH4SH2C6H4SC2H3SFeHFeH4C5FeSHCH7SCHCH4CH2CHSHCHCHC3HFeHC6HCHC2SCHCNC9NH4CH8NC9H14CH4NC2H3C2H2SH2FeHC2H2NCHCSH2CHCSFeSFeCSCH2SHCSHSCSC8H4CH2SHCSHCHC6H4CSCH3CH4C7H5CSH2CHSHC2FeH2CSC3HC2HSNH2SCFeH2C2H7CH2CH2CSHCFe2H7C3H2C2H6C2HC3FeNH2C2HNH2CHCHCH3SHCH3CHC2H3FeCSHCS2CH2C2HCH2SHFeCSH2SFeCH3CH2FeHSCHSCFeSHSCH6C6H4C2H2SH2CHCHFeCH6C7HCH3C2H2FeH2CSC5HNH2C2HSCFeCHSHNHS2C2HC5HSCH7CHSCHCHS2FeH3CSHC2HCSH2FeHNH2C2HC4HC2FeC2SH4CHCH2CNCH2CHFeCSH2SCHSFeSFeSHC2HSFeSHCNHSHS2HFeH4CH2SH2C6H4FeC3NCHCHCH5SC2HC4SCHCHC2HSC2H4C5FeS2CHCHCHC2HC2SHCHCH2FeNCH5CNH7CH5SH2CHCHC4H3C2H2C2H2C2HC2NHC3HC3HNH3CSCHFeC
_chemical_formula_sum              "H2160 S480 Fe240 C1800 N120"
_cell_length_a       62.4962
_cell_length_b       62.5335
_cell_length_c       62.1116
_cell_angle_alpha    87.4302
_cell_angle_beta     86.4399
_cell_angle_gamma    86.644

_space_group_name_H-M_alt    "P 1"
_space_group_IT_number       1

loop_
  _space_group_symop_operation_xyz
  'x, y, z'

loop_
  _atom_site_type_symbol
  _atom_site_label
  _atom_site_symmetry_multiplicity
  _atom_site_fract_x
  _atom_site_fract_y
  _atom_site_fract_z
  _atom_site_occupancy
  H   H1        1.0  0.26758  0.24339  0.50075  1.0000
  H   H2        1.0  0.13949  0.09670  0.32340  1.0000
  S   S1        1.0  0.31751  0.02862  0.17291  1.0000
  Fe  Fe1       1.0  0.31430  0.02534  0.13721  1.0000
  S   S2        1.0  0.29776  0.05210  0.11697  1.0000
  C   C1        1.0  0.34282  0.07517  0.07268  1.0000
  C   C2        1.0  0.01686  0.22234  0.30674  1.0000
  H   H3        1.0  0.27458  0.07029  0.45115  1.0000
  H   H4        1.0  0.22838  0.07926  0.45941  1.0000
  C   C3        1.0  0.19584  0.02763  0.21775  1.0000
  S   S3        1.0  0.11945  0.04978  0.33732  1.0000
  S   S4        1.0  0.17886  0.02483  0.32984  1.0000
  S   S5        1.0  0.03308  0.16767  0.29768  1.0000
  C   C4        1.0  0.23826  0.09363  0.45861  1.0000
  C   C5        1.0  0.26827  0.07040  0.46829  1.0000
  Fe  Fe2       1.0  0.02926  0.13210  0.29755  1.0000
  S   S6        1.0  0.05364  0.10781  0.28266  1.0000
  H   H5        1.0  0.07968  0.15167  0.31649  1.0000
  S   S7        1.0  0.04317  0.22664  0.48965  1.0000
  H   H6        1.0  0.21713  0.04846  0.14191  1.0000
  Fe  Fe3       1.0  0.33203  0.13324  0.01755  1.0000
  C   C6        1.0  0.30323  0.12686  0.46136  1.0000
  H   H7        1.0  0.32002  0.12556  0.45564  1.0000
  C   C7        1.0  0.24137  0.22582  0.02036  1.0000
  S   S8        1.0  0.14910  0.01159  0.29148  1.0000
  H   H8        1.0  0.25970  0.08768  0.50760  1.0000
  N   N1        1.0  0.24100  0.03449  0.16262  1.0000
  C   C8        1.0  0.02417  0.19283  0.38122  1.0000
  S   S9        1.0  0.28749  0.01386  0.47901  1.0000
  C   C9        1.0  0.10012  0.06421  0.32184  1.0000
  C   C10       1.0  0.10078  0.06362  0.29932  1.0000
  C   C11       1.0  0.08619  0.07679  0.28753  1.0000
  C   C12       1.0  0.07082  0.09058  0.29814  1.0000
  C   C13       1.0  0.06964  0.09057  0.32067  1.0000
  C   C14       1.0  0.08429  0.07751  0.33245  1.0000
  H   H9        1.0  0.11292  0.05348  0.29097  1.0000
  H   H10       1.0  0.08716  0.07664  0.27008  1.0000
  H   H11       1.0  0.05778  0.10096  0.32897  1.0000
  H   H12       1.0  0.08367  0.07802  0.34986  1.0000
  H   H13       1.0  0.24457  0.09595  0.44155  1.0000
  H   H14       1.0  0.23182  0.06775  0.15468  1.0000
  H   H15       1.0  0.19975  0.06095  0.22203  1.0000
  H   H16       1.0  0.10562  0.17228  0.35549  1.0000
  N   N2        1.0  0.25606  0.09085  0.47337  1.0000
  H   H17       1.0  0.26582  0.16369  0.48072  1.0000
  H   H18       1.0  0.27397  0.04254  0.15679  1.0000
  H   H19       1.0  0.09714  0.13576  0.28444  1.0000
  C   C15       1.0  0.06587  0.13727  0.36042  1.0000
  H   H20       1.0  0.27226  0.02687  0.22054  1.0000
  H   H21       1.0  0.24647  0.04139  0.24906  1.0000
  C   C16       1.0  0.31104  0.06703  0.09558  1.0000
  H   H22       1.0  0.08081  0.17452  0.37199  1.0000
  C   C17       1.0  0.22366  0.01223  0.42751  1.0000
  S   S10       1.0  0.24472  0.02817  0.50928  1.0000
  C   C18       1.0  0.30947  0.09568  0.06727  1.0000
  C   C19       1.0  0.29943  0.08342  0.08425  1.0000
  Fe  Fe4       1.0  0.14350  0.02358  0.32504  1.0000
  H   H23       1.0  0.02470  0.25549  0.07274  1.0000
  H   H24       1.0  0.30036  0.10831  0.05883  1.0000
  H   H25       1.0  0.28260  0.08674  0.08870  1.0000
  H   H26       1.0  0.06384  0.25824  0.08100  1.0000
  H   H27       1.0  0.28708  0.25044  0.01818  1.0000
  C   C20       1.0  0.27588  0.25585  0.50775  1.0000
  C   C21       1.0  0.11997  0.11591  0.30187  1.0000
  H   H28       1.0  0.28179  0.06712  0.47902  1.0000
  C   C22       1.0  0.10311  0.13134  0.30016  1.0000
  C   C23       1.0  0.30680  0.06343  0.01668  1.0000
  C   C24       1.0  0.12696  0.10939  0.32211  1.0000
  H   H29       1.0  0.05664  0.14408  0.37472  1.0000
  C   C25       1.0  0.24568  0.02496  0.24453  1.0000
  C   C26       1.0  0.03694  0.20469  0.39368  1.0000
  S   S11       1.0  0.23504  0.02626  0.44798  1.0000
  C   C27       1.0  0.03056  0.23250  0.22866  1.0000
  H   H30       1.0  0.09705  0.11824  0.38249  1.0000
  C   C28       1.0  0.26028  0.01680  0.22820  1.0000
  C   C29       1.0  0.33126  0.09160  0.06143  1.0000
  C   C30       1.0  0.22529  0.03185  0.18129  1.0000
  H   H31       1.0  0.03117  0.20555  0.25183  1.0000
  H   H32       1.0  0.01189  0.09038  0.27380  1.0000
  H   H33       1.0  0.01585  0.06318  0.32717  1.0000
  C   C31       1.0  0.23317  0.05180  0.14742  1.0000
  H   H34       1.0  0.02486  0.04201  0.27257  1.0000
  H   H35       1.0  0.26824  0.02765  0.18166  1.0000
  Fe  Fe5       1.0  0.01774  0.16562  0.33154  1.0000
  S   S12       1.0  0.27348  0.19351  0.01997  1.0000
  C   C32       1.0  0.27278  0.14831  0.47560  1.0000
  C   C33       1.0  0.26040  0.13031  0.47692  1.0000
  C   C34       1.0  0.02112  0.21697  0.24288  1.0000
  C   C35       1.0  0.33721  0.10992  0.49741  1.0000
  C   C36       1.0  0.24683  0.08852  0.49591  1.0000
  H   H36       1.0  0.05279  0.20869  0.38738  1.0000
  H   H37       1.0  0.26028  0.05560  0.17902  1.0000
  H   H38       1.0  0.22501  0.06512  0.19068  1.0000
  H   H39       1.0  0.01313  0.20944  0.31903  1.0000
  C   C37       1.0  0.32386  0.07387  0.49622  1.0000
  H   H40       1.0  0.11511  0.13999  0.37964  1.0000
  H   H41       1.0  0.29275  0.05385  0.02170  1.0000
  C   C38       1.0  0.29112  0.10868  0.46292  1.0000
  C   C39       1.0  0.33798  0.08962  0.48837  1.0000
  H   H42       1.0  0.24441  0.05353  0.13282  1.0000
  H   H43       1.0  0.08933  0.14349  0.39373  1.0000
  H   H44       1.0  0.32146  0.05567  0.02367  1.0000
  H   H45       1.0  0.01574  0.21535  0.29070  1.0000
  H   H46       1.0  0.22720  0.10766  0.46251  1.0000
  C   C40       1.0  0.08887  0.16704  0.35744  1.0000
  C   C41       1.0  0.09802  0.13588  0.37957  1.0000
  H   H47       1.0  0.23785  0.07370  0.49860  1.0000
  H   H48       1.0  0.30396  0.16037  0.46739  1.0000
  H   H49       1.0  0.32098  0.23575  0.02169  1.0000
  C   C42       1.0  0.33281  0.06296  0.08966  1.0000
  H   H50       1.0  0.29942  0.09388  0.45811  1.0000
  C   C43       1.0  0.20420  0.01365  0.39426  1.0000
  H   H51       1.0  0.03918  0.22088  0.42355  1.0000
  H   H52       1.0  0.04787  0.23289  0.22688  1.0000
  S   S13       1.0  0.21158  0.02367  0.27493  1.0000
  H   H53       1.0  0.18511  0.02586  0.23206  1.0000
  C   C44       1.0  0.01788  0.24734  0.21647  1.0000
  H   H54       1.0  0.32485  0.05826  0.48929  1.0000
  H   H55       1.0  0.25797  0.05646  0.47063  1.0000
  S   S14       1.0  0.01676  0.12968  0.33205  1.0000
  H   H56       1.0  0.12714  0.10844  0.28754  1.0000
  H   H57       1.0  0.12298  0.11188  0.35588  1.0000
  H   H58       1.0  0.03387  0.22607  0.30831  1.0000
  H   H59       1.0  0.03871  0.06404  0.28146  1.0000
  C   C45       1.0  0.09313  0.14027  0.31869  1.0000
  H   H60       1.0  0.25671  0.01752  0.13592  1.0000
  H   H61       1.0  0.30394  0.07911  0.02455  1.0000
  N   N3        1.0  0.08851  0.14329  0.35901  1.0000
  H   H62       1.0  0.33583  0.24530  0.43732  1.0000
  H   H63       1.0  0.34194  0.05041  0.09819  1.0000
  H   H64       1.0  0.06482  0.11954  0.36153  1.0000
  C   C46       1.0  0.11711  0.11822  0.34078  1.0000
  C   C47       1.0  0.09982  0.13402  0.33961  1.0000
  S   S15       1.0  0.03445  0.18483  0.35532  1.0000
  H   H65       1.0  0.23851  0.22086  0.03715  1.0000
  C   C48       1.0  0.24527  0.01480  0.15015  1.0000
  C   C49       1.0  0.26172  0.04038  0.17039  1.0000
  H   H66       1.0  0.21224  0.04136  0.41100  1.0000
  C   C50       1.0  0.21867  0.04955  0.19414  1.0000
  C   C51       1.0  0.02926  0.21167  0.41419  1.0000
  H   H67       1.0  0.08007  0.17418  0.34361  1.0000
  H   H68       1.0  0.02053  0.08679  0.31089  1.0000
  H   H69       1.0  0.05723  0.14342  0.34613  1.0000
  H   H70       1.0  0.03446  0.04160  0.29934  1.0000
  C   C52       1.0  0.26931  0.10981  0.47105  1.0000
  C   C53       1.0  0.21330  0.02403  0.41094  1.0000
  H   H71       1.0  0.24383  0.13252  0.48283  1.0000
  C   C54       1.0  0.02681  0.05195  0.28666  1.0000
  C   C55       1.0  0.29421  0.14653  0.46799  1.0000
  S   S16       1.0  0.33203  0.16857  0.02299  1.0000
  H   H72       1.0  0.23528  0.10195  0.50043  1.0000
  H   H73       1.0  0.19631  0.02299  0.38166  1.0000
  H   H74       1.0  0.21667  0.25165  0.02162  1.0000
  H   H75       1.0  0.23719  0.02280  0.32570  1.0000
  H   H76       1.0  0.33165  0.23453  0.46475  1.0000
  Fe  Fe6       1.0  0.25172  0.01214  0.47766  1.0000
  Fe  Fe7       1.0  0.28054  0.02784  0.51159  1.0000
  C   C56       1.0  0.20418  0.04739  0.21209  1.0000
  Fe  Fe8       1.0  0.01187  0.23403  0.47424  1.0000
  C   C57       1.0  0.21665  0.01182  0.18769  1.0000
  Fe  Fe9       1.0  0.34274  0.20734  0.51172  1.0000
  H   H77       1.0  0.30438  0.25835  0.45609  1.0000
  C   C58       1.0  0.22994  0.01218  0.25486  1.0000
  H   H78       1.0  0.11980  0.24786  0.51002  1.0000
  S   S17       1.0  0.30993  0.22569  0.50864  1.0000
  C   C59       1.0  0.30887  0.07824  0.51334  1.0000
  H   H79       1.0  0.06427  0.15955  0.72733  1.0000
  H   H80       1.0  0.03574  0.16679  0.78418  1.0000
  H   H81       1.0  0.28602  0.09303  0.99386  1.0000
  C   C60       1.0  0.07046  0.16981  0.77966  1.0000
  H   H82       1.0  0.33600  0.22089  0.96653  1.0000
  S   S18       1.0  0.31825  0.17671  0.97293  1.0000
  H   H83       1.0  0.09715  0.20209  0.81118  1.0000
  Fe  Fe10      1.0  0.31900  0.14057  0.97130  1.0000
  C   C61       1.0  0.18353  0.03913  0.80262  1.0000
  Fe  Fe11      1.0  0.32218  0.02452  0.86365  1.0000
  H   H84       1.0  0.02790  0.06788  0.68787  1.0000
  S   S19       1.0  0.32022  0.02870  0.82764  1.0000
  C   C62       1.0  0.03392  0.18601  0.58884  1.0000
  H   H85       1.0  0.13193  0.03358  0.80459  1.0000
  S   S20       1.0  0.26247  0.02572  0.80968  1.0000
  S   S21       1.0  0.03396  0.17911  0.69674  1.0000
  H   H86       1.0  0.29150  0.08293  0.96777  1.0000
  Fe  Fe12      1.0  0.04539  0.14405  0.69611  1.0000
  S   S22       1.0  0.08094  0.13366  0.69393  1.0000
  S   S23       1.0  0.11757  0.03951  0.72044  1.0000
  H   H87       1.0  0.03735  0.21089  0.74636  1.0000
  H   H88       1.0  0.32972  0.08514  0.97056  1.0000
  C   C63       1.0  0.09037  0.10697  0.70029  1.0000
  C   C64       1.0  0.11098  0.09970  0.69242  1.0000
  C   C65       1.0  0.11933  0.07886  0.69789  1.0000
  C   C66       1.0  0.10734  0.06531  0.71181  1.0000
  C   C67       1.0  0.08680  0.07264  0.71982  1.0000
  C   C68       1.0  0.07820  0.09323  0.71384  1.0000
  H   H89       1.0  0.12054  0.11024  0.68198  1.0000
  H   H90       1.0  0.13521  0.07349  0.69170  1.0000
  H   H91       1.0  0.07735  0.06224  0.73052  1.0000
  H   H92       1.0  0.06228  0.09854  0.71994  1.0000
  H   H93       1.0  0.23867  0.04085  0.77333  1.0000
  H   H94       1.0  0.32151  0.02790  0.92996  1.0000
  C   C69       1.0  0.12458  0.25199  0.52566  1.0000
  C   C70       1.0  0.03679  0.23147  0.77353  1.0000
  C   C71       1.0  0.23258  0.25016  0.98996  1.0000
  C   C72       1.0  0.04643  0.18676  0.80758  1.0000
  H   H95       1.0  0.09925  0.21869  0.51593  1.0000
  C   C73       1.0  0.32320  0.23407  0.96714  1.0000
  H   H96       1.0  0.28404  0.09668  0.91663  1.0000
  N   N4        1.0  0.07327  0.15680  0.76022  1.0000
  H   H97       1.0  0.32647  0.09480  0.99710  1.0000
  H   H98       1.0  0.14437  0.05502  0.78919  1.0000
  Fe  Fe13      1.0  0.30131  0.17210  0.00554  1.0000
  H   H99       1.0  0.08106  0.20490  0.55934  1.0000
  C   C74       1.0  0.08660  0.22912  0.52425  1.0000
  H   H100      1.0  0.27796  0.03005  0.69030  1.0000
  H   H101      1.0  0.10949  0.20434  0.55239  1.0000
  C   C75       1.0  0.26091  0.22134  0.98595  1.0000
  C   C76       1.0  0.24864  0.23900  0.97723  1.0000
  C   C77       1.0  0.22942  0.01393  0.60647  1.0000
  H   H102      1.0  0.27295  0.21283  0.97586  1.0000
  S   S24       1.0  0.33999  0.04748  0.88302  1.0000
  C   C78       1.0  0.31537  0.10210  0.92735  1.0000
  S   S25       1.0  0.18143  0.02359  0.70494  1.0000
  Fe  Fe14      1.0  0.02417  0.22923  0.52169  1.0000
  C   C79       1.0  0.32989  0.06831  0.90008  1.0000
  S   S26       1.0  0.03735  0.25735  0.80823  1.0000
  H   H103      1.0  0.34141  0.13384  0.56689  1.0000
  C   C80       1.0  0.28990  0.07797  0.98520  1.0000
  C   C81       1.0  0.23678  0.02378  0.77532  1.0000
  H   H104      1.0  0.17963  0.05485  0.79553  1.0000
  C   C82       1.0  0.27778  0.01854  0.70390  1.0000
  Fe  Fe15      1.0  0.14572  0.01990  0.70477  1.0000
  H   H105      1.0  0.07179  0.22001  0.52533  1.0000
  H   H106      1.0  0.04607  0.13707  0.76742  1.0000
  C   C83       1.0  0.02557  0.23845  0.79254  1.0000
  N   N5        1.0  0.32251  0.24529  0.98776  1.0000
  Fe  Fe16      1.0  0.28906  0.01212  0.83122  1.0000
  H   H107      1.0  0.24133  0.02338  0.61288  1.0000
  H   H108      1.0  0.05199  0.23810  0.76849  1.0000
  C   C84       1.0  0.12039  0.25366  0.56460  1.0000
  H   H109      1.0  0.08786  0.03208  0.67879  1.0000
  H   H110      1.0  0.04729  0.17582  0.58268  1.0000
  H   H111      1.0  0.30681  0.02858  0.71481  1.0000
  H   H112      1.0  0.05919  0.23983  0.55591  1.0000
  H   H113      1.0  0.06682  0.12518  0.75044  1.0000
  H   H114      1.0  0.29678  0.06698  0.89291  1.0000
  C   C85       1.0  0.29432  0.01750  0.71821  1.0000
  S   S27       1.0  0.03470  0.20448  0.54779  1.0000
  H   H115      1.0  0.21597  0.02313  0.74882  1.0000
  C   C86       1.0  0.07459  0.24795  0.55591  1.0000
  C   C87       1.0  0.31613  0.04615  0.95865  1.0000
  C   C88       1.0  0.02865  0.21581  0.76104  1.0000
  H   H116      1.0  0.04450  0.17059  0.74635  1.0000
  H   H117      1.0  0.11220  0.25019  0.58008  1.0000
  H   H118      1.0  0.12553  0.03991  0.77701  1.0000
  H   H119      1.0  0.03384  0.17114  0.62104  1.0000
  H   H120      1.0  0.32095  0.12999  0.52125  1.0000
  H   H121      1.0  0.27578  0.06788  0.98759  1.0000
  C   C89       1.0  0.09562  0.21449  0.55902  1.0000
  C   C90       1.0  0.31334  0.04592  0.98152  1.0000
  Fe  Fe17      1.0  0.00970  0.16816  0.72252  1.0000
  C   C91       1.0  0.09607  0.15262  0.75251  1.0000
  N   N6        1.0  0.30959  0.06631  0.99280  1.0000
  Fe  Fe18      1.0  0.01037  0.17069  0.67290  1.0000
  S   S28       1.0  0.02261  0.13358  0.72333  1.0000
  H   H122      1.0  0.29648  0.10212  0.53554  1.0000
  C   C92       1.0  0.07077  0.03186  0.68277  1.0000
  H   H123      1.0  0.10373  0.16766  0.74689  1.0000
  C   C93       1.0  0.30093  0.09168  0.91543  1.0000
  H   H124      1.0  0.06060  0.20806  0.82815  1.0000
  H   H125      1.0  0.17294  0.04683  0.76074  1.0000
  S   S29       1.0  0.29998  0.13630  0.00310  1.0000
  H   H126      1.0  0.09836  0.21730  0.57614  1.0000
  H   H127      1.0  0.30577  0.22007  0.00496  1.0000
  H   H128      1.0  0.17860  0.01961  0.75344  1.0000
  C   C94       1.0  0.32073  0.22873  0.00558  1.0000
  C   C95       1.0  0.06345  0.19711  0.81507  1.0000
  H   H129      1.0  0.32666  0.24482  0.95281  1.0000
  C   C96       1.0  0.25751  0.21476  0.00767  1.0000
  C   C97       1.0  0.02438  0.20176  0.57502  1.0000
  C   C98       1.0  0.31949  0.02721  0.94749  1.0000
  H   H130      1.0  0.10556  0.14430  0.76529  1.0000
  C   C99       1.0  0.08759  0.18036  0.78791  1.0000
  H   H131      1.0  0.06832  0.18457  0.73904  1.0000
  C   C100      1.0  0.02666  0.03373  0.69336  1.0000
  C   C101      1.0  0.08400  0.19382  0.80535  1.0000
  C   C102      1.0  0.31428  0.02547  0.99257  1.0000
  H   H132      1.0  0.10383  0.17883  0.78096  1.0000
  C   C103      1.0  0.16575  0.03111  0.75976  1.0000
  H   H133      1.0  0.06700  0.06627  0.67834  1.0000
  H   H134      1.0  0.15351  0.03328  0.74745  1.0000
  C   C104      1.0  0.13882  0.03855  0.78829  1.0000
  H   H135      1.0  0.33421  0.21634  0.00458  1.0000
  C   C105      1.0  0.03699  0.05253  0.68788  1.0000
  S   S30       1.0  0.20832  0.01751  0.64652  1.0000
  S   S31       1.0  0.30515  0.12289  0.94439  1.0000
  H   H136      1.0  0.20782  0.05149  0.82123  1.0000
  C   C106      1.0  0.30802  0.09857  0.52230  1.0000
  H   H137      1.0  0.09754  0.14221  0.73826  1.0000
  C   C107      1.0  0.19960  0.03745  0.81740  1.0000
  C   C108      1.0  0.06382  0.13567  0.76450  1.0000
  C   C109      1.0  0.24734  0.01196  0.79175  1.0000
  C   C110      1.0  0.02630  0.18328  0.61060  1.0000
  H   H138      1.0  0.03036  0.18975  0.81486  1.0000
  C   C111      1.0  0.32810  0.07989  0.98788  1.0000
  C   C112      1.0  0.30810  0.07481  0.90196  1.0000
  N   N7        1.0  0.09276  0.23477  0.54591  1.0000
  C   C113      1.0  0.32202  0.11436  0.51436  1.0000
  C   C114      1.0  0.04976  0.17345  0.79006  1.0000
  C   C115      1.0  0.06209  0.16838  0.74250  1.0000
  H   H139      1.0  0.24679  0.01091  0.57538  1.0000
  H   H140      1.0  0.07067  0.12707  0.77879  1.0000
  H   H141      1.0  0.30761  0.22689  0.96500  1.0000
  H   H142      1.0  0.31299  0.06738  0.57038  1.0000
  H   H143      1.0  0.25165  0.24413  0.96051  1.0000
  S   S32       1.0  0.02391  0.13685  0.67006  1.0000
  S   S33       1.0  0.29151  0.05869  0.52485  1.0000
  H   H144      1.0  0.31563  0.06103  0.94918  1.0000
  C   C116      1.0  0.11262  0.24668  0.54523  1.0000
  C   C117      1.0  0.05897  0.05157  0.68250  1.0000
  H   H145      1.0  0.07682  0.25113  0.57304  1.0000
  H   H146      1.0  0.33720  0.01169  0.73001  1.0000
  C   C118      1.0  0.22363  0.01378  0.76154  1.0000
  C   C119      1.0  0.33716  0.09549  0.92559  1.0000
  C   C120      1.0  0.20577  0.01759  0.82677  1.0000
  C   C121      1.0  0.22890  0.24329  0.01157  1.0000
  H   H147      1.0  0.31244  0.02360  0.00994  1.0000
  S   S34       1.0  0.28941  0.01104  0.86772  1.0000
  H   H148      1.0  0.32926  0.10048  0.57716  1.0000
  C   C122      1.0  0.32924  0.06996  0.56398  1.0000
  H   H149      1.0  0.32357  0.03262  0.74600  1.0000
  H   H150      1.0  0.34197  0.01350  0.75793  1.0000
  H   H151      1.0  0.21871  0.01629  0.83771  1.0000
  H   H152      1.0  0.33211  0.04015  0.54785  1.0000
  C   C123      1.0  0.32925  0.01541  0.74604  1.0000
  C   C124      1.0  0.17316  0.02083  0.79671  1.0000
  N   N8        1.0  0.15632  0.02305  0.78083  1.0000
  H   H153      1.0  0.29387  0.02340  0.77289  1.0000
  C   C125      1.0  0.33879  0.08906  0.56757  1.0000
  C   C126      1.0  0.34000  0.05453  0.55122  1.0000
  H   H154      1.0  0.08320  0.24371  0.51376  1.0000
  C   C127      1.0  0.03826  0.01386  0.69353  1.0000
  C   C128      1.0  0.06078  0.01234  0.68823  1.0000
  C   C129      1.0  0.29723  0.25157  0.51349  1.0000
  S   S35       1.0  0.01572  0.26967  0.47281  1.0000
  Fe  Fe19      1.0  0.21058  0.36518  0.47986  1.0000
  S   S36       1.0  0.22163  0.37920  0.44675  1.0000
  C   C130      1.0  0.30119  0.48579  0.09524  1.0000
  C   C131      1.0  0.26236  0.48617  0.21076  1.0000
  H   H155      1.0  0.15303  0.34025  0.09125  1.0000
  S   S37       1.0  0.20803  0.32984  0.48889  1.0000
  C   C132      1.0  0.02247  0.42361  0.21353  1.0000
  Fe  Fe20      1.0  0.02258  0.47461  0.23969  1.0000
  S   S38       1.0  0.19039  0.47913  0.33436  1.0000
  H   H156      1.0  0.16888  0.36136  0.03693  1.0000
  Fe  Fe21      1.0  0.18912  0.48053  0.37050  1.0000
  S   S39       1.0  0.17463  0.45595  0.39431  1.0000
  C   C133      1.0  0.28344  0.47790  0.28202  1.0000
  H   H157      1.0  0.14729  0.36859  0.09348  1.0000
  C   C134      1.0  0.29336  0.50702  0.09763  1.0000
  H   H158      1.0  0.30162  0.45940  0.18085  1.0000
  H   H159      1.0  0.28021  0.32048  0.47390  1.0000
  H   H160      1.0  0.27806  0.45965  0.15463  1.0000
  C   C135      1.0  0.31183  0.50773  0.13124  1.0000
  H   H161      1.0  0.03247  0.37591  0.18856  1.0000
  N   N9        1.0  0.27816  0.48384  0.19202  1.0000
  C   C136      1.0  0.03728  0.30713  0.07647  1.0000
  H   H162      1.0  0.25836  0.43031  0.31269  1.0000
  Fe  Fe22      1.0  0.15772  0.30539  0.02928  1.0000
  S   S40       1.0  0.14848  0.29782  0.06467  1.0000
  C   C137      1.0  0.19811  0.38515  0.08702  1.0000
  Fe  Fe23      1.0  0.03992  0.32271  0.13899  1.0000
  S   S41       1.0  0.06412  0.33705  0.11428  1.0000
  H   H163      1.0  0.11799  0.29261  0.46325  1.0000
  H   H164      1.0  0.26810  0.39023  0.33913  1.0000
  S   S42       1.0  0.03554  0.32485  0.17520  1.0000
  H   H165      1.0  0.26169  0.47017  0.12120  1.0000
  H   H166      1.0  0.18401  0.43108  0.04546  1.0000
  H   H167      1.0  0.24258  0.50550  0.11639  1.0000
  C   C138      1.0  0.02333  0.38936  0.19559  1.0000
  H   H168      1.0  0.01604  0.28208  0.31949  1.0000
  Fe  Fe24      1.0  0.01942  0.29325  0.17479  1.0000
  N   N10       1.0  0.04212  0.28440  0.07122  1.0000
  H   H169      1.0  0.31668  0.33057  0.48083  1.0000
  S   S43       1.0  0.23461  0.36929  0.50431  1.0000
  H   H170      1.0  0.32018  0.45915  0.10885  1.0000
  H   H171      1.0  0.03342  0.31567  0.47219  1.0000
  H   H172      1.0  0.21997  0.40692  0.09859  1.0000
  C   C139      1.0  0.19117  0.34309  0.06901  1.0000
  C   C140      1.0  0.05882  0.27494  0.08537  1.0000
  C   C141      1.0  0.12409  0.30773  0.07762  1.0000
  C   C142      1.0  0.11193  0.32495  0.06859  1.0000
  C   C143      1.0  0.09361  0.33364  0.08010  1.0000
  C   C144      1.0  0.08684  0.32482  0.10041  1.0000
  C   C145      1.0  0.09865  0.30724  0.10924  1.0000
  C   C146      1.0  0.11735  0.29890  0.09796  1.0000
  H   H173      1.0  0.11677  0.33185  0.05294  1.0000
  H   H174      1.0  0.08458  0.34729  0.07321  1.0000
  H   H175      1.0  0.09371  0.30045  0.12497  1.0000
  H   H176      1.0  0.12673  0.28563  0.10511  1.0000
  H   H177      1.0  0.05309  0.27452  0.10269  1.0000
  H   H178      1.0  0.27631  0.44949  0.19182  1.0000
  H   H179      1.0  0.20972  0.47568  0.41890  1.0000
  C   C147      1.0  0.31425  0.47560  0.11082  1.0000
  C   C148      1.0  0.20652  0.45671  0.46100  1.0000
  C   C149      1.0  0.22977  0.40813  0.35599  1.0000
  C   C150      1.0  0.21476  0.38012  0.38056  1.0000
  S   S44       1.0  0.25000  0.47852  0.31329  1.0000
  C   C151      1.0  0.25980  0.48081  0.13460  1.0000
  H   H180      1.0  0.05138  0.40505  0.20391  1.0000
  Fe  Fe25      1.0  0.04578  0.26238  0.49084  1.0000
  S   S45       1.0  0.04501  0.50117  0.24268  1.0000
  N   N11       1.0  0.19872  0.49482  0.44588  1.0000
  H   H181      1.0  0.14615  0.31210  0.47956  1.0000
  S   S46       1.0  0.23233  0.49944  0.04374  1.0000
  N   N12       1.0  0.02627  0.33702  0.49864  1.0000
  S   S47       1.0  0.28095  0.48257  0.02614  1.0000
  C   C152      1.0  0.29628  0.50898  0.26100  1.0000
  H   H182      1.0  0.21677  0.45223  0.44713  1.0000
  H   H183      1.0  0.30717  0.49789  0.17998  1.0000
  S   S48       1.0  0.07722  0.27771  0.47941  1.0000
  H   H184      1.0  0.01834  0.34014  0.46537  1.0000
  H   H185      1.0  0.14549  0.36981  0.05386  1.0000
  C   C153      1.0  0.31967  0.48651  0.12886  1.0000
  C   C154      1.0  0.20852  0.41722  0.35452  1.0000
  C   C155      1.0  0.03403  0.40594  0.20434  1.0000
  Fe  Fe26      1.0  0.24683  0.47450  0.02108  1.0000
  C   C156      1.0  0.20883  0.40203  0.43414  1.0000
  C   C157      1.0  0.22070  0.41458  0.41888  1.0000
  C   C158      1.0  0.21062  0.43174  0.40716  1.0000
  C   C159      1.0  0.18849  0.43617  0.41029  1.0000
  C   C160      1.0  0.17675  0.42399  0.42593  1.0000
  C   C161      1.0  0.18688  0.40710  0.43795  1.0000
  H   H186      1.0  0.23769  0.41072  0.41584  1.0000
  H   H187      1.0  0.21977  0.44106  0.39522  1.0000
  H   H188      1.0  0.15963  0.42737  0.42853  1.0000
  H   H189      1.0  0.17758  0.39754  0.44963  1.0000
  H   H190      1.0  0.02424  0.26126  0.29006  1.0000
  C   C162      1.0  0.13171  0.30819  0.48908  1.0000
  C   C163      1.0  0.11572  0.29704  0.47991  1.0000
  C   C164      1.0  0.09692  0.29152  0.49208  1.0000
  S   S49       1.0  0.02634  0.29033  0.13882  1.0000
  C   C165      1.0  0.20366  0.44073  0.47726  1.0000
  C   C166      1.0  0.31446  0.31489  0.47483  1.0000
  C   C167      1.0  0.02231  0.27271  0.07653  1.0000
  C   C168      1.0  0.17995  0.46498  0.49785  1.0000
  C   C169      1.0  0.05007  0.28332  0.04830  1.0000
  C   C170      1.0  0.15986  0.35846  0.05273  1.0000
  H   H191      1.0  0.17013  0.35557  0.10577  1.0000
  H   H192      1.0  0.28497  0.46089  0.28599  1.0000
  C   C171      1.0  0.28826  0.46173  0.19345  1.0000
  C   C172      1.0  0.19102  0.40789  0.36558  1.0000
  H   H193      1.0  0.21232  0.36845  0.01682  1.0000
  H   H194      1.0  0.26975  0.48156  0.22632  1.0000
  H   H195      1.0  0.03132  0.30875  0.09363  1.0000
  H   H196      1.0  0.18465  0.32703  0.06737  1.0000
  H   H197      1.0  0.31021  0.47689  0.25803  1.0000
  H   H198      1.0  0.07946  0.29970  0.05220  1.0000
  C   C173      1.0  0.19415  0.38944  0.37866  1.0000
  H   H199      1.0  0.26420  0.44830  0.34731  1.0000
  N   N13       1.0  0.08674  0.44737  0.26775  1.0000
  C   C174      1.0  0.08869  0.46201  0.24833  1.0000
  C   C175      1.0  0.08968  0.42494  0.26085  1.0000
  C   C176      1.0  0.06446  0.45048  0.27736  1.0000
  C   C177      1.0  0.10334  0.45160  0.28281  1.0000
  C   C178      1.0  0.09833  0.45650  0.30477  1.0000
  C   C179      1.0  0.12538  0.45100  0.27558  1.0000
  C   C180      1.0  0.11441  0.46088  0.31836  1.0000
  C   C181      1.0  0.14126  0.45586  0.28922  1.0000
  C   C182      1.0  0.13575  0.46088  0.31053  1.0000
  H   H200      1.0  0.10382  0.45885  0.23838  1.0000
  H   H201      1.0  0.07552  0.46029  0.23733  1.0000
  H   H202      1.0  0.08810  0.47901  0.25293  1.0000
  H   H203      1.0  0.10550  0.42168  0.25208  1.0000
  H   H204      1.0  0.07717  0.42121  0.24968  1.0000
  H   H205      1.0  0.08855  0.41338  0.27498  1.0000
  H   H206      1.0  0.06105  0.46720  0.28259  1.0000
  H   H207      1.0  0.05234  0.44748  0.26562  1.0000
  H   H208      1.0  0.06134  0.43917  0.29138  1.0000
  H   H209      1.0  0.08208  0.45768  0.31179  1.0000
  H   H210      1.0  0.13046  0.44713  0.25921  1.0000
  C   C183      1.0  0.21485  0.48909  0.42820  1.0000
  H   H211      1.0  0.15791  0.45612  0.28319  1.0000
  C   C184      1.0  0.01189  0.27149  0.33312  1.0000
  H   H212      1.0  0.25297  0.43726  0.37252  1.0000
  S   S50       1.0  0.03091  0.26641  0.19867  1.0000
  H   H213      1.0  0.16674  0.39760  0.04437  1.0000
  H   H214      1.0  0.15371  0.34217  0.05244  1.0000
  H   H215      1.0  0.24790  0.38141  0.37212  1.0000
  H   H216      1.0  0.28219  0.41447  0.33684  1.0000
  S   S51       1.0  0.01060  0.47533  0.27453  1.0000
  C   C185      1.0  0.33202  0.30019  0.47169  1.0000
  S   S52       1.0  0.03686  0.44394  0.22451  1.0000
  C   C186      1.0  0.26892  0.40625  0.34605  1.0000
  C   C187      1.0  0.26916  0.47496  0.15404  1.0000
  H   H217      1.0  0.20531  0.43211  0.34550  1.0000
  H   H218      1.0  0.18067  0.38282  0.38801  1.0000
  C   C188      1.0  0.03848  0.27402  0.03241  1.0000
  H   H219      1.0  0.11021  0.46513  0.33489  1.0000
  N   N14       1.0  0.17376  0.36022  0.07103  1.0000
  H   H220      1.0  0.01723  0.27326  0.09404  1.0000
  H   H221      1.0  0.20216  0.34631  0.05455  1.0000
  C   C189      1.0  0.16053  0.35603  0.09127  1.0000
  C   C190      1.0  0.18310  0.38142  0.07153  1.0000
  H   H222      1.0  0.20255  0.37288  0.09898  1.0000
  C   C191      1.0  0.17787  0.39878  0.05683  1.0000
  C   C192      1.0  0.29078  0.28896  0.46375  1.0000
  C   C193      1.0  0.18767  0.41828  0.05727  1.0000
  C   C194      1.0  0.26739  0.49073  0.29303  1.0000
  H   H223      1.0  0.25595  0.50299  0.21254  1.0000
  H   H224      1.0  0.27389  0.40410  0.36296  1.0000
  H   H225      1.0  0.25813  0.27772  0.01733  1.0000
  H   H226      1.0  0.09849  0.38078  0.48829  1.0000
  H   H227      1.0  0.07343  0.28426  0.08448  1.0000
  H   H228      1.0  0.20099  0.34139  0.08332  1.0000
  H   H229      1.0  0.05163  0.31682  0.07405  1.0000
  C   C195      1.0  0.20804  0.40463  0.08709  1.0000
  C   C196      1.0  0.23239  0.38921  0.36941  1.0000
  H   H230      1.0  0.21118  0.43594  0.07162  1.0000
  C   C197      1.0  0.17790  0.49989  0.43607  1.0000
  C   C198      1.0  0.26769  0.48903  0.17153  1.0000
  H   H231      1.0  0.24854  0.47599  0.20931  1.0000
  S   S53       1.0  0.18278  0.37649  0.50197  1.0000
  H   H232      1.0  0.21716  0.36625  0.39147  1.0000
  C   C199      1.0  0.29528  0.49885  0.19403  1.0000
  C   C200      1.0  0.19617  0.47750  0.46279  1.0000
  H   H233      1.0  0.02466  0.31475  0.06630  1.0000
  C   C201      1.0  0.20298  0.42108  0.07208  1.0000
  H   H234      1.0  0.17506  0.41565  0.36491  1.0000
  C   C202      1.0  0.02079  0.32753  0.47832  1.0000
  H   H235      1.0  0.23088  0.48470  0.43446  1.0000
  Fe  Fe27      1.0  0.34218  0.50751  0.21982  1.0000
  Fe  Fe28      1.0  0.22224  0.49434  0.33401  1.0000
  H   H236      1.0  0.01955  0.29524  0.35519  1.0000
  H   H237      1.0  0.29712  0.47721  0.08145  1.0000
  H   H238      1.0  0.21161  0.42492  0.47555  1.0000
  C   C203      1.0  0.25042  0.43962  0.35498  1.0000
  H   H239      1.0  0.14797  0.46520  0.32093  1.0000
  C   C204      1.0  0.29389  0.30929  0.47084  1.0000
  H   H240      1.0  0.30402  0.49510  0.20889  1.0000
  S   S54       1.0  0.24173  0.43852  0.02575  1.0000
  H   H241      1.0  0.06590  0.32382  0.48086  1.0000
  H   H242      1.0  0.23596  0.45065  0.35328  1.0000
  S   S55       1.0  0.22203  0.49266  0.37035  1.0000
  C   C205      1.0  0.24901  0.50076  0.13184  1.0000
  C   C206      1.0  0.18258  0.48105  0.48164  1.0000
  C   C207      1.0  0.30817  0.27404  0.46075  1.0000
  C   C208      1.0  0.06996  0.29194  0.04121  1.0000
  C   C209      1.0  0.22534  0.39942  0.02002  1.0000
  H   H243      1.0  0.04393  0.30785  0.50846  1.0000
  H   H244      1.0  0.24089  0.40824  0.31378  1.0000
  N   N15       1.0  0.24812  0.41892  0.34489  1.0000
  C   C210      1.0  0.24430  0.42319  0.32168  1.0000
  H   H245      1.0  0.21707  0.50274  0.41629  1.0000
  H   H246      1.0  0.17381  0.49625  0.48394  1.0000
  C   C211      1.0  0.08374  0.37236  0.48984  1.0000
  H   H247      1.0  0.23072  0.43515  0.31912  1.0000
  H   H248      1.0  0.17187  0.48536  0.42923  1.0000
  C   C212      1.0  0.29779  0.48693  0.26610  1.0000
  S   S56       1.0  0.33602  0.47289  0.14807  1.0000
  C   C213      1.0  0.06493  0.34022  0.48574  1.0000
  H   H249      1.0  0.27461  0.28447  0.46137  1.0000
  C   C214      1.0  0.08376  0.35132  0.48345  1.0000
  H   H250      1.0  0.07902  0.50837  0.34081  1.0000
  C   C215      1.0  0.04546  0.34981  0.49477  1.0000
  C   C216      1.0  0.19048  0.44488  0.49566  1.0000
  C   C217      1.0  0.32943  0.27929  0.46451  1.0000
  Fe  Fe29      1.0  0.03135  0.50343  0.27668  1.0000
  C   C218      1.0  0.07962  0.50988  0.30603  1.0000
  H   H251      1.0  0.09856  0.34338  0.47703  1.0000
  H   H252      1.0  0.29564  0.45824  0.20920  1.0000
  H   H253      1.0  0.18837  0.43242  0.50822  1.0000
  S   S57       1.0  0.05156  0.50660  0.30562  1.0000
  C   C219      1.0  0.07815  0.29058  0.01983  1.0000
  C   C220      1.0  0.25649  0.50922  0.16817  1.0000
  H   H254      1.0  0.23816  0.39304  0.02979  1.0000
  Fe  Fe30      1.0  0.26627  0.50862  0.04698  1.0000
  H   H255      1.0  0.02302  0.26746  0.03611  1.0000
  C   C221      1.0  0.26510  0.27608  0.51095  1.0000
  S   S58       1.0  0.19046  0.31680  0.01851  1.0000
  H   H256      1.0  0.15145  0.26822  0.51050  1.0000
  H   H257      1.0  0.24872  0.27902  0.50642  1.0000
  H   H258      1.0  0.33459  0.50462  0.06450  1.0000
  C   C222      1.0  0.12911  0.31398  0.51063  1.0000
  C   C223      1.0  0.01399  0.27931  0.35362  1.0000
  H   H259      1.0  0.09361  0.29685  0.01487  1.0000
  Fe  Fe31      1.0  0.18136  0.34149  0.51278  1.0000
  C   C224      1.0  0.06483  0.38244  0.49842  1.0000
  H   H260      1.0  0.16528  0.50607  0.44796  1.0000
  H   H261      1.0  0.06495  0.39882  0.50345  1.0000
  C   C225      1.0  0.04591  0.37141  0.50095  1.0000
  H   H262      1.0  0.16967  0.46803  0.51223  1.0000
  C   C226      1.0  0.22344  0.42162  0.01502  1.0000
  H   H263      1.0  0.03196  0.38006  0.50803  1.0000
  H   H264      1.0  0.01070  0.27273  0.38801  1.0000
  S   S59       1.0  0.03051  0.27992  0.86928  1.0000
  S   S60       1.0  0.24097  0.49726  0.65782  1.0000
  C   C227      1.0  0.01303  0.27761  0.72475  1.0000
  S   S61       1.0  0.19847  0.48017  0.68617  1.0000
  H   H265      1.0  0.02362  0.28986  0.71878  1.0000
  S   S62       1.0  0.30226  0.50909  0.87079  1.0000
  S   S63       1.0  0.17417  0.37685  0.99174  1.0000
  Fe  Fe32      1.0  0.21265  0.47774  0.65181  1.0000
  S   S64       1.0  0.21502  0.44399  0.63858  1.0000
  C   C228      1.0  0.05721  0.41287  0.81902  1.0000
  H   H266      1.0  0.28519  0.38683  0.54249  1.0000
  S   S65       1.0  0.20388  0.34444  0.53969  1.0000
  H   H267      1.0  0.03647  0.32574  0.52981  1.0000
  C   C229      1.0  0.26458  0.42517  0.59276  1.0000
  Fe  Fe33      1.0  0.20689  0.37855  0.52726  1.0000
  S   S66       1.0  0.21083  0.41041  0.54317  1.0000
  H   H268      1.0  0.14743  0.36242  0.96058  1.0000
  C   C230      1.0  0.27553  0.29240  0.52001  1.0000
  S   S67       1.0  0.24412  0.49638  0.99133  1.0000
  S   S68       1.0  0.33543  0.48067  0.82439  1.0000
  S   S69       1.0  0.02867  0.26449  0.52357  1.0000
  Fe  Fe34      1.0  0.18942  0.29354  0.99184  1.0000
  S   S70       1.0  0.17375  0.31831  0.96899  1.0000
  C   C231      1.0  0.19193  0.41571  0.99534  1.0000
  C   C232      1.0  0.28797  0.26241  0.00511  1.0000
  C   C233      1.0  0.20671  0.42968  0.00248  1.0000
  Fe  Fe35      1.0  0.14227  0.30684  0.98321  1.0000
  S   S71       1.0  0.11013  0.30268  0.96852  1.0000
  C   C234      1.0  0.29413  0.44527  0.95668  1.0000
  Fe  Fe36      1.0  0.04365  0.31250  0.86423  1.0000
  H   H269      1.0  0.07701  0.36760  0.89742  1.0000
  S   S72       1.0  0.07551  0.32346  0.87474  1.0000
  H   H270      1.0  0.27117  0.36503  0.53340  1.0000
  N   N16       1.0  0.32090  0.44444  0.89080  1.0000
  S   S73       1.0  0.04011  0.31242  0.82847  1.0000
  H   H271      1.0  0.08671  0.36739  0.85765  1.0000
  Fe  Fe37      1.0  0.04006  0.49297  0.75444  1.0000
  C   C235      1.0  0.27008  0.29352  0.98806  1.0000
  S   S74       1.0  0.07569  0.48371  0.74862  1.0000
  H   H272      1.0  0.28103  0.34483  0.58758  1.0000
  H   H273      1.0  0.07356  0.35017  0.80499  1.0000
  C   C236      1.0  0.04974  0.36863  0.83699  1.0000
  C   C237      1.0  0.26301  0.39777  0.62126  1.0000
  H   H274      1.0  0.25644  0.38939  0.53975  1.0000
  C   C238      1.0  0.32033  0.45758  0.92917  1.0000
  C   C239      1.0  0.27111  0.27812  0.00490  1.0000
  H   H275      1.0  0.07241  0.26366  0.54700  1.0000
  C   C240      1.0  0.02955  0.29670  0.76322  1.0000
  H   H276      1.0  0.10789  0.35668  0.98945  1.0000
  C   C241      1.0  0.30766  0.26788  0.52261  1.0000
  C   C242      1.0  0.28627  0.29372  0.97164  1.0000
  C   C243      1.0  0.13862  0.26565  0.56433  1.0000
  H   H277      1.0  0.14802  0.48778  0.71358  1.0000
  C   C244      1.0  0.07511  0.41146  0.77679  1.0000
  C   C245      1.0  0.10153  0.30731  0.94183  1.0000
  C   C246      1.0  0.11490  0.31543  0.92484  1.0000
  C   C247      1.0  0.10685  0.31993  0.90428  1.0000
  C   C248      1.0  0.08553  0.31594  0.90034  1.0000
  C   C249      1.0  0.07238  0.30725  0.91714  1.0000
  C   C250      1.0  0.08029  0.30315  0.93778  1.0000
  H   H278      1.0  0.13141  0.31821  0.92751  1.0000
  H   H279      1.0  0.05594  0.30412  0.91439  1.0000
  H   H280      1.0  0.06980  0.29682  0.95071  1.0000
  C   C251      1.0  0.32956  0.42250  0.88587  1.0000
  H   H281      1.0  0.28503  0.49529  0.70521  1.0000
  H   H282      1.0  0.26167  0.43159  0.62658  1.0000
  Fe  Fe38      1.0  0.27708  0.50600  0.99786  1.0000
  H   H283      1.0  0.30511  0.30053  0.53292  1.0000
  H   H284      1.0  0.26552  0.41530  0.56066  1.0000
  C   C252      1.0  0.14294  0.26374  0.52564  1.0000
  H   H285      1.0  0.04991  0.41433  0.83516  1.0000
  H   H286      1.0  0.08356  0.34212  0.83057  1.0000
  S   S75       1.0  0.26293  0.31842  0.52427  1.0000
  H   H287      1.0  0.24593  0.34621  0.55812  1.0000
  H   H288      1.0  0.06215  0.44398  0.77279  1.0000
  C   C253      1.0  0.08359  0.38126  0.84612  1.0000
  H   H289      1.0  0.10800  0.31302  0.53941  1.0000
  C   C254      1.0  0.26413  0.38195  0.60595  1.0000
  H   H290      1.0  0.26320  0.36552  0.61189  1.0000
  H   H291      1.0  0.20499  0.44670  0.99856  1.0000
  C   C255      1.0  0.24572  0.35969  0.56926  1.0000
  C   C256      1.0  0.05500  0.43074  0.80481  1.0000
  H   H292      1.0  0.30976  0.45318  0.85907  1.0000
  C   C257      1.0  0.21065  0.38544  0.01277  1.0000
  H   H293      1.0  0.07505  0.39417  0.85559  1.0000
  C   C258      1.0  0.11136  0.37318  0.98332  1.0000
  C   C259      1.0  0.21173  0.43545  0.61205  1.0000
  C   C260      1.0  0.21353  0.44936  0.59383  1.0000
  C   C261      1.0  0.21291  0.44140  0.57296  1.0000
  C   C262      1.0  0.21014  0.41955  0.57001  1.0000
  C   C263      1.0  0.20763  0.40578  0.58827  1.0000
  C   C264      1.0  0.20869  0.41366  0.60911  1.0000
  H   H294      1.0  0.21600  0.46612  0.59578  1.0000
  H   H295      1.0  0.21480  0.45224  0.55899  1.0000
  H   H296      1.0  0.20499  0.38907  0.58644  1.0000
  H   H297      1.0  0.20726  0.40277  0.62309  1.0000
  C   C265      1.0  0.27003  0.37834  0.54485  1.0000
  H   H298      1.0  0.31697  0.41061  0.88743  1.0000
  C   C266      1.0  0.11590  0.48597  0.72854  1.0000
  C   C267      1.0  0.09434  0.49379  0.72853  1.0000
  H   H299      1.0  0.23227  0.37126  0.56502  1.0000
  H   H300      1.0  0.26380  0.44203  0.58778  1.0000
  H   H301      1.0  0.08638  0.37967  0.78438  1.0000
  H   H302      1.0  0.11721  0.32648  0.89136  1.0000
  H   H303      1.0  0.28525  0.30564  0.95848  1.0000
  H   H304      1.0  0.12062  0.47361  0.74034  1.0000
  S   S76       1.0  0.01571  0.46786  0.75415  1.0000
  C   C268      1.0  0.08235  0.35586  0.81850  1.0000
  H   H305      1.0  0.13599  0.35907  0.93537  1.0000
  Fe  Fe39      1.0  0.22544  0.50179  0.69115  1.0000
  H   H306      1.0  0.12853  0.34230  0.95836  1.0000
  H   H307      1.0  0.04614  0.44521  0.81010  1.0000
  H   H308      1.0  0.09806  0.38448  0.98915  1.0000
  H   H309      1.0  0.29503  0.46615  0.88095  1.0000
  C   C269      1.0  0.30341  0.27829  0.97183  1.0000
  H   H310      1.0  0.28705  0.44577  0.97308  1.0000
  H   H311      1.0  0.09942  0.38710  0.84000  1.0000
  H   H312      1.0  0.03979  0.36410  0.82387  1.0000
  H   H313      1.0  0.04506  0.34909  0.95760  1.0000
  C   C270      1.0  0.19377  0.39354  0.00047  1.0000
  N   N17       1.0  0.07107  0.37510  0.82808  1.0000
  N   N18       1.0  0.11439  0.37436  0.95940  1.0000
  H   H314      1.0  0.32393  0.26489  0.52737  1.0000
  Fe  Fe40      1.0  0.23054  0.33492  0.51508  1.0000
  H   H315      1.0  0.24176  0.35293  0.58577  1.0000
  C   C271      1.0  0.28488  0.50637  0.93507  1.0000
  C   C272      1.0  0.29469  0.43212  0.92057  1.0000
  C   C273      1.0  0.30351  0.45078  0.87615  1.0000
  C   C274      1.0  0.28392  0.35387  0.57197  1.0000
  C   C275      1.0  0.28581  0.43249  0.94180  1.0000
  H   H316      1.0  0.03906  0.30141  0.74825  1.0000
  C   C276      1.0  0.11018  0.30867  0.52272  1.0000
  C   C277      1.0  0.29686  0.28811  0.52585  1.0000
  C   C278      1.0  0.06390  0.43004  0.78374  1.0000
  C   C279      1.0  0.13234  0.35894  0.95311  1.0000
  H   H317      1.0  0.27225  0.42296  0.94678  1.0000
  S   S77       1.0  0.21877  0.27336  0.97851  1.0000
  H   H318      1.0  0.33684  0.42184  0.86902  1.0000
  H   H319      1.0  0.01669  0.31013  0.51915  1.0000
  C   C280      1.0  0.31144  0.45763  0.95041  1.0000
  C   C281      1.0  0.14979  0.27079  0.54487  1.0000
  H   H320      1.0  0.29121  0.43868  0.87619  1.0000
  H   H321      1.0  0.31769  0.46776  0.96202  1.0000
  S   S78       1.0  0.33338  0.50373  0.76367  1.0000
  Fe  Fe41      1.0  0.17266  0.34047  0.99677  1.0000
  C   C282      1.0  0.07744  0.39345  0.79086  1.0000
  H   H322      1.0  0.28553  0.34150  0.55945  1.0000
  S   S79       1.0  0.14922  0.32690  0.52361  1.0000
  C   C283      1.0  0.30738  0.50252  0.75331  1.0000
  C   C284      1.0  0.30460  0.26190  0.98838  1.0000
  S   S80       1.0  0.14015  0.33048  0.00953  1.0000
  H   H323      1.0  0.12613  0.37726  0.99110  1.0000
  H   H324      1.0  0.10839  0.37678  0.91586  1.0000
  C   C285      1.0  0.13149  0.49399  0.71340  1.0000
  C   C286      1.0  0.04678  0.27288  0.01100  1.0000
  C   C287      1.0  0.26334  0.41932  0.61467  1.0000
  H   H325      1.0  0.04056  0.38147  0.84596  1.0000
  H   H326      1.0  0.05115  0.35460  0.84859  1.0000
  H   H327      1.0  0.08212  0.41115  0.76037  1.0000
  H   H328      1.0  0.09911  0.35900  0.81267  1.0000
  C   C288      1.0  0.06848  0.39361  0.81250  1.0000
  Fe  Fe42      1.0  0.33142  0.50815  0.84681  1.0000
  H   H329      1.0  0.04535  0.35383  0.91790  1.0000
  H   H330      1.0  0.28760  0.42204  0.90960  1.0000
  N   N19       1.0  0.26638  0.37025  0.56757  1.0000
  H   H331      1.0  0.27027  0.50195  0.90510  1.0000
  H   H332      1.0  0.26120  0.39344  0.63835  1.0000
  H   H333      1.0  0.13456  0.40091  0.96204  1.0000
  S   S81       1.0  0.15782  0.28060  0.00411  1.0000
  C   C289      1.0  0.26564  0.38731  0.58345  1.0000
  H   H334      1.0  0.07974  0.29378  0.52304  1.0000
  C   C290      1.0  0.12075  0.39636  0.95297  1.0000
  C   C291      1.0  0.09500  0.36929  0.94844  1.0000
  C   C292      1.0  0.07650  0.36107  0.95973  1.0000
  C   C293      1.0  0.09459  0.37165  0.92563  1.0000
  C   C294      1.0  0.05874  0.35589  0.94877  1.0000
  C   C295      1.0  0.07669  0.36649  0.91487  1.0000
  C   C296      1.0  0.05882  0.35862  0.92640  1.0000
  H   H335      1.0  0.10718  0.40838  0.95611  1.0000
  H   H336      1.0  0.12617  0.39800  0.93564  1.0000
  H   H337      1.0  0.07548  0.35795  0.97697  1.0000
  H   H338      1.0  0.03276  0.30828  0.77561  1.0000
  H   H339      1.0  0.33300  0.47611  0.88835  1.0000
  Fe  Fe43      1.0  0.02434  0.28107  0.83381  1.0000
  C   C297      1.0  0.31215  0.44479  0.91353  1.0000
  H   H340      1.0  0.29960  0.36138  0.57223  1.0000
  H   H341      1.0  0.25371  0.50990  0.76669  1.0000
  H   H342      1.0  0.17894  0.42217  0.98585  1.0000
  C   C298      1.0  0.26556  0.40951  0.57729  1.0000
  C   C299      1.0  0.33855  0.45915  0.88580  1.0000
  C   C300      1.0  0.28471  0.50594  0.91241  1.0000
  Fe  Fe44      1.0  0.17989  0.50933  0.67339  1.0000
  H   H343      1.0  0.03626  0.28068  0.76885  1.0000
  C   C301      1.0  0.28574  0.49866  0.72204  1.0000
  H   H344      1.0  0.14397  0.27132  0.57923  1.0000
  S   S82       1.0  0.19256  0.50594  0.63878  1.0000
  C   C302      1.0  0.26823  0.50664  0.75670  1.0000
  S   S83       1.0  0.24073  0.50476  0.72372  1.0000
  H   H345      1.0  0.33328  0.46806  0.92537  1.0000
  H   H346      1.0  0.07318  0.27982  0.98826  1.0000
  C   C303      1.0  0.30587  0.49862  0.73129  1.0000
  C   C304      1.0  0.06663  0.28098  0.00478  1.0000
  H   H347      1.0  0.28914  0.50936  0.78295  1.0000
  H   H348      1.0  0.25635  0.30495  0.98751  1.0000
  H   H349      1.0  0.03784  0.26558  0.99912  1.0000
  S   S84       1.0  0.03066  0.50203  0.78854  1.0000
  H   H350      1.0  0.16352  0.28068  0.54458  1.0000
  H   H351      1.0  0.27069  0.50258  0.94505  1.0000
  H   H352      1.0  0.32042  0.49560  0.72128  1.0000
  H   H353      1.0  0.31552  0.27906  0.95869  1.0000
  C   C305      1.0  0.28835  0.50629  0.76603  1.0000
  C   C306      1.0  0.26672  0.50300  0.73462  1.0000
  C   C307      1.0  0.03108  0.31943  0.51469  1.0000
  S   S85       1.0  0.01202  0.33105  0.87039  1.0000
  C   C308      1.0  0.01017  0.26087  0.71116  1.0000
  C   C309      1.0  0.12568  0.51006  0.69815  1.0000
  H   H354      1.0  0.01845  0.26044  0.69529  1.0000
  C   C310      1.0  0.08848  0.50981  0.71321  1.0000
  H   H355      1.0  0.34229  0.41699  0.89696  1.0000
  C   C311      1.0  0.09417  0.29757  0.51353  1.0000
  Fe  Fe45      1.0  0.20156  0.64189  0.47552  1.0000
  S   S86       1.0  0.19049  0.63141  0.44341  1.0000
  S   S87       1.0  0.20787  0.67661  0.47866  1.0000
  Fe  Fe46      1.0  0.20527  0.52565  0.36943  1.0000
  S   S88       1.0  0.21862  0.54487  0.39574  1.0000
  S   S89       1.0  0.20791  0.52817  0.33278  1.0000
  S   S90       1.0  0.27667  0.52062  0.07874  1.0000
  H   H356      1.0  0.23372  0.64530  0.44545  1.0000
  H   H357      1.0  0.06853  0.73040  0.17485  1.0000
  C   C312      1.0  0.12203  0.63443  0.04785  1.0000
  C   C313      1.0  0.14777  0.59512  0.04819  1.0000
  Fe  Fe47      1.0  0.03996  0.69625  0.15453  1.0000
  S   S91       1.0  0.07565  0.69523  0.14443  1.0000
  H   H358      1.0  0.12004  0.62088  0.08988  1.0000
  S   S92       1.0  0.02990  0.69706  0.19008  1.0000
  H   H359      1.0  0.17935  0.51232  0.42268  1.0000
  S   S93       1.0  0.17403  0.69871  0.03797  1.0000
  H   H360      1.0  0.13406  0.59630  0.03839  1.0000
  H   H361      1.0  0.06082  0.72452  0.45452  1.0000
  Fe  Fe48      1.0  0.14048  0.69881  0.02681  1.0000
  S   S94       1.0  0.10772  0.69644  0.04488  1.0000
  S   S95       1.0  0.01632  0.67215  0.14706  1.0000
  H   H362      1.0  0.06317  0.69389  0.48101  1.0000
  H   H363      1.0  0.32447  0.73076  0.48705  1.0000
  C   C314      1.0  0.01434  0.61296  0.18976  1.0000
  H   H364      1.0  0.18963  0.55906  0.05673  1.0000
  C   C315      1.0  0.06305  0.75178  0.11371  1.0000
  H   H365      1.0  0.11989  0.64963  0.08664  1.0000
  S   S96       1.0  0.02360  0.55017  0.20855  1.0000
  H   H366      1.0  0.17655  0.62051  0.08346  1.0000
  H   H367      1.0  0.28790  0.61838  0.45249  1.0000
  C   C316      1.0  0.08455  0.69545  0.11675  1.0000
  C   C317      1.0  0.07007  0.69467  0.10058  1.0000
  C   C318      1.0  0.07754  0.69506  0.07872  1.0000
  C   C319      1.0  0.09951  0.69634  0.07273  1.0000
  C   C320      1.0  0.11405  0.69714  0.08889  1.0000
  C   C321      1.0  0.10657  0.69665  0.11082  1.0000
  H   H368      1.0  0.05309  0.69379  0.10490  1.0000
  H   H369      1.0  0.06617  0.69443  0.06634  1.0000
  H   H370      1.0  0.13099  0.69824  0.08451  1.0000
  H   H371      1.0  0.11788  0.69733  0.12323  1.0000
  C   C322      1.0  0.02374  0.75805  0.23189  1.0000
  H   H372      1.0  0.14664  0.64266  0.46881  1.0000
  C   C323      1.0  0.25712  0.59502  0.38538  1.0000
  H   H373      1.0  0.30722  0.69785  0.47748  1.0000
  H   H374      1.0  0.06547  0.74288  0.20039  1.0000
  C   C324      1.0  0.27934  0.70256  0.49936  1.0000
  C   C325      1.0  0.27220  0.62759  0.45420  1.0000
  C   C326      1.0  0.09731  0.71818  0.51057  1.0000
  Fe  Fe49      1.0  0.23255  0.52219  0.01447  1.0000
  H   H375      1.0  0.02890  0.58394  0.17643  1.0000
  Fe  Fe50      1.0  0.23430  0.66555  0.50021  1.0000
  H   H376      1.0  0.28161  0.66310  0.41213  1.0000
  H   H377      1.0  0.30028  0.64423  0.42460  1.0000
  H   H378      1.0  0.09074  0.73036  0.42739  1.0000
  H   H379      1.0  0.29513  0.60870  0.41784  1.0000
  C   C327      1.0  0.32845  0.53868  0.06166  1.0000
  H   H380      1.0  0.03091  0.74266  0.22726  1.0000
  H   H381      1.0  0.23419  0.61102  0.03274  1.0000
  H   H382      1.0  0.07141  0.74105  0.10232  1.0000
  C   C328      1.0  0.28005  0.52173  0.27180  1.0000
  H   H383      1.0  0.23470  0.57203  0.02680  1.0000
  S   S97       1.0  0.22957  0.63047  0.49473  1.0000
  C   C329      1.0  0.06050  0.74421  0.18345  1.0000
  C   C330      1.0  0.11110  0.51317  0.32714  1.0000
  H   H384      1.0  0.27331  0.63818  0.46804  1.0000
  H   H385      1.0  0.31560  0.51623  0.14514  1.0000
  C   C331      1.0  0.16078  0.57617  0.04693  1.0000
  C   C332      1.0  0.19721  0.60634  0.43154  1.0000
  C   C333      1.0  0.18651  0.60095  0.41340  1.0000
  C   C334      1.0  0.19231  0.58186  0.40263  1.0000
  C   C335      1.0  0.20918  0.56814  0.40967  1.0000
  C   C336      1.0  0.21970  0.57343  0.42796  1.0000
  C   C337      1.0  0.21365  0.59229  0.43896  1.0000
  H   H386      1.0  0.17383  0.61172  0.40746  1.0000
  H   H387      1.0  0.18414  0.57807  0.38855  1.0000
  H   H388      1.0  0.23290  0.56304  0.43344  1.0000
  H   H389      1.0  0.22208  0.59623  0.45281  1.0000
  N   N20       1.0  0.26684  0.64008  0.43417  1.0000
  S   S98       1.0  0.17781  0.64162  0.50404  1.0000
  C   C338      1.0  0.06955  0.75203  0.13481  1.0000
  H   H390      1.0  0.14396  0.66628  0.05668  1.0000
  C   C339      1.0  0.29879  0.51792  0.11569  1.0000
  H   H391      1.0  0.28914  0.58268  0.39090  1.0000
  H   H392      1.0  0.05995  0.62202  0.20542  1.0000
  H   H393      1.0  0.11279  0.65020  0.04903  1.0000
  C   C340      1.0  0.18460  0.58955  0.07159  1.0000
  S   S99       1.0  0.26800  0.67827  0.49237  1.0000
  H   H394      1.0  0.25349  0.52284  0.29596  1.0000
  H   H395      1.0  0.22573  0.61045  0.38320  1.0000
  C   C341      1.0  0.28486  0.65375  0.42738  1.0000
  H   H396      1.0  0.28752  0.66540  0.43993  1.0000
  H   H397      1.0  0.24321  0.66513  0.42555  1.0000
  C   C342      1.0  0.27981  0.60965  0.41061  1.0000
  S   S100      1.0  0.26542  0.53293  0.01914  1.0000
  H   H398      1.0  0.12826  0.63341  0.03071  1.0000
  N   N21       1.0  0.13981  0.63246  0.06277  1.0000
  C   C343      1.0  0.13021  0.63453  0.08507  1.0000
  C   C344      1.0  0.15358  0.65072  0.05746  1.0000
  C   C345      1.0  0.30917  0.72682  0.49486  1.0000
  C   C346      1.0  0.15292  0.61198  0.06129  1.0000
  H   H399      1.0  0.33743  0.54621  0.13851  1.0000
  C   C347      1.0  0.17160  0.60846  0.07317  1.0000
  H   H400      1.0  0.25975  0.61593  0.45890  1.0000
  C   C348      1.0  0.24095  0.61047  0.39070  1.0000
  H   H401      1.0  0.12663  0.73267  0.49905  1.0000
  H   H402      1.0  0.14263  0.63495  0.09708  1.0000
  H   H403      1.0  0.08696  0.73144  0.50491  1.0000
  H   H404      1.0  0.25440  0.58308  0.37383  1.0000
  H   H405      1.0  0.16565  0.65252  0.06953  1.0000
  H   H406      1.0  0.27869  0.53880  0.26800  1.0000
  H   H407      1.0  0.02944  0.64294  0.26495  1.0000
  S   S101      1.0  0.31397  0.52144  0.24123  1.0000
  C   C349      1.0  0.26571  0.51272  0.28770  1.0000
  S   S102      1.0  0.01701  0.72287  0.48857  1.0000
  H   H408      1.0  0.22068  0.51103  0.46398  1.0000
  H   H409      1.0  0.04292  0.74212  0.18398  1.0000
  H   H410      1.0  0.19333  0.52158  0.46703  1.0000
  H   H411      1.0  0.11019  0.62201  0.05164  1.0000
  H   H412      1.0  0.11803  0.51357  0.34265  1.0000
  N   N22       1.0  0.06418  0.57401  0.26509  1.0000
  C   C350      1.0  0.05692  0.57146  0.28827  1.0000
  C   C351      1.0  0.05537  0.55646  0.25367  1.0000
  C   C352      1.0  0.08797  0.57139  0.26357  1.0000
  C   C353      1.0  0.05729  0.59496  0.25488  1.0000
  C   C354      1.0  0.06255  0.59949  0.23263  1.0000
  C   C355      1.0  0.04527  0.61128  0.26639  1.0000
  C   C356      1.0  0.05625  0.61910  0.22257  1.0000
  C   C357      1.0  0.03899  0.63082  0.25611  1.0000
  C   C358      1.0  0.04450  0.63473  0.23428  1.0000
  H   H413      1.0  0.03908  0.57253  0.29052  1.0000
  H   H414      1.0  0.06227  0.55546  0.29537  1.0000
  H   H415      1.0  0.06365  0.58360  0.29812  1.0000
  H   H416      1.0  0.03767  0.55898  0.25286  1.0000
  H   H417      1.0  0.05872  0.54057  0.26191  1.0000
  H   H418      1.0  0.06213  0.55525  0.23676  1.0000
  H   H419      1.0  0.09521  0.58484  0.27115  1.0000
  H   H420      1.0  0.09385  0.55622  0.27190  1.0000
  H   H421      1.0  0.09466  0.57087  0.24659  1.0000
  H   H422      1.0  0.07128  0.58776  0.22270  1.0000
  H   H423      1.0  0.04031  0.60932  0.28328  1.0000
  S   S103      1.0  0.20566  0.64652  0.02139  1.0000
  H   H424      1.0  0.15706  0.56376  0.03630  1.0000
  H   H425      1.0  0.28901  0.51581  0.19506  1.0000
  N   N23       1.0  0.13184  0.67064  0.45281  1.0000
  C   C359      1.0  0.15105  0.68304  0.45515  1.0000
  C   C360      1.0  0.13173  0.65336  0.47003  1.0000
  C   C361      1.0  0.13415  0.66020  0.43174  1.0000
  C   C362      1.0  0.11225  0.68521  0.45363  1.0000
  C   C363      1.0  0.11023  0.70288  0.43855  1.0000
  C   C364      1.0  0.09465  0.68233  0.46896  1.0000
  C   C365      1.0  0.09188  0.71684  0.43891  1.0000
  C   C366      1.0  0.07629  0.69626  0.46900  1.0000
  C   C367      1.0  0.07496  0.71356  0.45414  1.0000
  H   H426      1.0  0.14936  0.69213  0.47021  1.0000
  H   H427      1.0  0.16594  0.67239  0.45590  1.0000
  H   H428      1.0  0.15399  0.69475  0.44150  1.0000
  H   H429      1.0  0.13092  0.66010  0.48638  1.0000
  C   C368      1.0  0.33179  0.55838  0.07012  1.0000
  H   H430      1.0  0.13636  0.67193  0.41793  1.0000
  H   H431      1.0  0.03909  0.64967  0.22623  1.0000
  H   H432      1.0  0.29274  0.53431  0.11769  1.0000
  H   H433      1.0  0.12291  0.70607  0.42641  1.0000
  H   H434      1.0  0.09473  0.66967  0.48137  1.0000
  H   H435      1.0  0.08272  0.74097  0.13903  1.0000
  H   H436      1.0  0.25525  0.52099  0.18047  1.0000
  C   C369      1.0  0.26341  0.62521  0.41693  1.0000
  H   H437      1.0  0.11977  0.65118  0.42911  1.0000
  H   H438      1.0  0.12467  0.51783  0.27344  1.0000
  C   C370      1.0  0.24390  0.62536  0.40625  1.0000
  H   H439      1.0  0.19920  0.58753  0.08018  1.0000
  C   C371      1.0  0.27659  0.59473  0.39516  1.0000
  C   C372      1.0  0.24776  0.65456  0.43961  1.0000
  C   C373      1.0  0.22194  0.58259  0.02071  1.0000
  H   H440      1.0  0.23035  0.63637  0.41001  1.0000
  H   H441      1.0  0.11811  0.64285  0.46892  1.0000
  C   C374      1.0  0.29930  0.70810  0.48945  1.0000
  H   H442      1.0  0.14844  0.64863  0.43080  1.0000
  H   H443      1.0  0.16259  0.64870  0.04159  1.0000
  C   C375      1.0  0.17920  0.57346  0.05847  1.0000
  H   H444      1.0  0.23931  0.53063  0.14617  1.0000
  C   C376      1.0  0.20486  0.61873  0.01685  1.0000
  H   H445      1.0  0.25077  0.66541  0.45273  1.0000
  C   C377      1.0  0.29936  0.74019  0.51055  1.0000
  C   C378      1.0  0.33766  0.51994  0.07090  1.0000
  Fe  Fe51      1.0  0.18590  0.67535  0.50867  1.0000
  S   S104      1.0  0.19682  0.75478  0.01955  1.0000
  C   C379      1.0  0.12412  0.51596  0.30819  1.0000
  C   C380      1.0  0.22152  0.60471  0.02422  1.0000
  S   S105      1.0  0.15179  0.52115  0.30855  1.0000
  C   C381      1.0  0.11977  0.71878  0.50717  1.0000
  H   H446      1.0  0.01798  0.62281  0.17538  1.0000
  C   C382      1.0  0.24732  0.51493  0.14860  1.0000
  S   S106      1.0  0.01835  0.72483  0.14614  1.0000
  C   C383      1.0  0.11474  0.51562  0.28818  1.0000
  H   H447      1.0  0.32443  0.57290  0.06294  1.0000
  C   C384      1.0  0.02049  0.59092  0.19041  1.0000
  S   S107      1.0  0.16153  0.70378  0.51128  1.0000
  Fe  Fe52      1.0  0.02057  0.75812  0.48257  1.0000
  H   H448      1.0  0.09868  0.75321  0.16629  1.0000
  Fe  Fe53      1.0  0.17572  0.51279  0.33460  1.0000
  C   C385      1.0  0.09268  0.51244  0.28708  1.0000
  C   C386      1.0  0.20566  0.51447  0.45540  1.0000
  H   H449      1.0  0.20882  0.52737  0.44278  1.0000
  H   H450      1.0  0.31830  0.53784  0.04821  1.0000
  Fe  Fe54      1.0  0.01731  0.52398  0.23429  1.0000
  S   S108      1.0  0.17208  0.51322  0.37098  1.0000
  C   C387      1.0  0.01570  0.57784  0.20888  1.0000
  H   H451      1.0  0.08579  0.51223  0.27158  1.0000
  C   C388      1.0  0.08896  0.51028  0.32604  1.0000
  S   S109      1.0  0.04132  0.76011  0.51075  1.0000
  H   H452      1.0  0.25425  0.56437  0.92417  1.0000
  S   S110      1.0  0.21263  0.66611  0.53084  1.0000
  C   C389      1.0  0.08837  0.70059  0.52170  1.0000
  H   H453      1.0  0.13477  0.67044  0.53051  1.0000
  H   H454      1.0  0.27787  0.59075  0.67918  1.0000
  H   H455      1.0  0.19863  0.61152  0.94239  1.0000
  H   H456      1.0  0.31389  0.66775  0.56447  1.0000
  S   S111      1.0  0.19904  0.60166  0.54441  1.0000
  C   C390      1.0  0.01737  0.67118  0.95615  1.0000
  S   S112      1.0  0.23294  0.55595  0.63076  1.0000
  H   H457      1.0  0.11475  0.54661  0.76902  1.0000
  Fe  Fe55      1.0  0.15591  0.70033  0.97928  1.0000
  S   S113      1.0  0.14626  0.70224  0.94440  1.0000
  S   S114      1.0  0.19099  0.69987  0.98667  1.0000
  Fe  Fe56      1.0  0.03477  0.69514  0.88578  1.0000
  H   H458      1.0  0.16521  0.54336  0.60952  1.0000
  S   S115      1.0  0.04895  0.70043  0.91817  1.0000
  Fe  Fe57      1.0  0.02608  0.66135  0.85244  1.0000
  S   S116      1.0  0.03633  0.62642  0.84515  1.0000
  H   H459      1.0  0.09227  0.53183  0.79940  1.0000
  S   S117      1.0  0.03207  0.73282  0.81190  1.0000
  S   S118      1.0  0.04899  0.68796  0.85253  1.0000
  C   C391      1.0  0.12781  0.72756  0.57186  1.0000
  H   H460      1.0  0.28905  0.53229  0.67148  1.0000
  H   H461      1.0  0.17572  0.62096  0.99997  1.0000
  C   C392      1.0  0.06197  0.60708  0.78439  1.0000
  C   C393      1.0  0.26809  0.56756  0.93372  1.0000
  H   H462      1.0  0.28206  0.55758  0.76157  1.0000
  C   C394      1.0  0.03873  0.71467  0.75727  1.0000
  H   H463      1.0  0.05091  0.58483  0.76366  1.0000
  C   C395      1.0  0.10916  0.73791  0.56429  1.0000
  S   S119      1.0  0.20547  0.53113  0.68073  1.0000
  H   H464      1.0  0.01240  0.75811  0.67173  1.0000
  H   H465      1.0  0.13640  0.54500  0.61155  1.0000
  H   H466      1.0  0.07831  0.51608  0.78242  1.0000
  N   N24       1.0  0.01447  0.75692  0.70634  1.0000
  H   H467      1.0  0.33678  0.72457  0.53279  1.0000
  C   C396      1.0  0.02503  0.57213  0.81450  1.0000
  C   C397      1.0  0.10200  0.68327  0.52855  1.0000
  C   C398      1.0  0.06264  0.54612  0.75669  1.0000
  C   C399      1.0  0.11920  0.70085  0.93736  1.0000
  C   C400      1.0  0.11468  0.70037  0.91547  1.0000
  C   C401      1.0  0.09335  0.69986  0.90927  1.0000
  C   C402      1.0  0.07625  0.70011  0.92493  1.0000
  C   C403      1.0  0.08079  0.70062  0.94682  1.0000
  C   C404      1.0  0.10212  0.70081  0.95303  1.0000
  H   H468      1.0  0.12775  0.70041  0.90321  1.0000
  H   H469      1.0  0.09013  0.69955  0.89238  1.0000
  H   H470      1.0  0.06774  0.70092  0.95909  1.0000
  H   H471      1.0  0.10531  0.70124  0.96993  1.0000
  S   S120      1.0  0.33771  0.53336  0.82042  1.0000
  C   C405      1.0  0.18206  0.75107  0.95951  1.0000
  H   H472      1.0  0.07465  0.62642  0.80784  1.0000
  Fe  Fe58      1.0  0.18055  0.72404  0.01159  1.0000
  H   H473      1.0  0.12571  0.60470  0.56928  1.0000
  H   H474      1.0  0.18212  0.74624  0.97695  1.0000
  H   H475      1.0  0.01776  0.65502  0.96440  1.0000
  C   C406      1.0  0.18905  0.58820  0.00224  1.0000
  S   S121      1.0  0.30466  0.51226  0.97308  1.0000
  C   C407      1.0  0.24746  0.56314  0.69322  1.0000
  H   H476      1.0  0.27976  0.55350  0.93171  1.0000
  H   H477      1.0  0.25854  0.55979  0.73197  1.0000
  H   H478      1.0  0.02156  0.66880  0.93867  1.0000
  H   H479      1.0  0.03576  0.74383  0.68078  1.0000
  C   C408      1.0  0.20980  0.58889  0.56780  1.0000
  C   C409      1.0  0.20224  0.56893  0.57513  1.0000
  C   C410      1.0  0.20946  0.55851  0.59414  1.0000
  C   C411      1.0  0.22417  0.56806  0.60619  1.0000
  C   C412      1.0  0.23185  0.58798  0.59883  1.0000
  C   C413      1.0  0.22475  0.59835  0.57970  1.0000
  H   H480      1.0  0.19066  0.56152  0.56605  1.0000
  H   H481      1.0  0.20372  0.54304  0.59941  1.0000
  H   H482      1.0  0.24328  0.59548  0.60801  1.0000
  H   H483      1.0  0.23064  0.61372  0.57428  1.0000
  H   H484      1.0  0.15066  0.53324  0.63333  1.0000
  H   H485      1.0  0.09518  0.66959  0.53713  1.0000
  H   H486      1.0  0.10260  0.55815  0.74542  1.0000
  C   C414      1.0  0.32533  0.68020  0.56332  1.0000
  H   H487      1.0  0.16822  0.55370  0.65737  1.0000
  H   H488      1.0  0.01030  0.73180  0.68467  1.0000
  H   H489      1.0  0.03058  0.68041  0.96170  1.0000
  C   C415      1.0  0.13650  0.73444  0.59028  1.0000
  Fe  Fe59      1.0  0.21957  0.52572  0.64721  1.0000
  H   H490      1.0  0.23779  0.56450  0.67869  1.0000
  C   C416      1.0  0.03237  0.58670  0.82874  1.0000
  C   C417      1.0  0.15088  0.54650  0.62072  1.0000
  H   H491      1.0  0.01942  0.67353  0.99678  1.0000
  H   H492      1.0  0.25419  0.71208  0.52279  1.0000
  H   H493      1.0  0.10237  0.52983  0.75162  1.0000
  H   H494      1.0  0.23602  0.54893  0.95658  1.0000
  H   H495      1.0  0.04322  0.58095  0.84090  1.0000
  N   N25       1.0  0.07998  0.54925  0.77136  1.0000
  C   C418      1.0  0.07847  0.53241  0.78894  1.0000
  H   H496      1.0  0.33718  0.54880  0.71795  1.0000
  C   C419      1.0  0.10082  0.54587  0.75886  1.0000
  C   C420      1.0  0.07863  0.57074  0.78065  1.0000
  C   C421      1.0  0.09328  0.57579  0.79601  1.0000
  C   C422      1.0  0.07616  0.61124  0.79989  1.0000
  C   C423      1.0  0.06216  0.75184  0.56546  1.0000
  Fe  Fe60      1.0  0.02161  0.70968  0.84008  1.0000
  H   H497      1.0  0.26711  0.57703  0.65769  1.0000
  H   H498      1.0  0.06351  0.53509  0.79940  1.0000
  H   H499      1.0  0.10239  0.74633  0.95258  1.0000
  H   H500      1.0  0.19912  0.75119  0.95323  1.0000
  H   H501      1.0  0.13960  0.74933  0.93967  1.0000
  C   C424      1.0  0.32000  0.55206  0.72052  1.0000
  C   C425      1.0  0.12442  0.68368  0.52477  1.0000
  C   C426      1.0  0.33858  0.71243  0.54559  1.0000
  C   C427      1.0  0.34134  0.68022  0.57799  1.0000
  C   C428      1.0  0.01698  0.72092  0.75775  1.0000
  H   H502      1.0  0.10577  0.56427  0.80096  1.0000
  H   H503      1.0  0.04646  0.54825  0.76519  1.0000
  C   C429      1.0  0.04434  0.73485  0.72343  1.0000
  H   H504      1.0  0.26078  0.53709  0.96558  1.0000
  N   N26       1.0  0.26167  0.57085  0.95681  1.0000
  C   C430      1.0  0.28165  0.57154  0.96849  1.0000
  C   C431      1.0  0.24729  0.59045  0.95887  1.0000
  C   C432      1.0  0.25189  0.60784  0.97155  1.0000
  C   C433      1.0  0.22770  0.59237  0.94833  1.0000
  C   C434      1.0  0.23779  0.62598  0.97327  1.0000
  C   C435      1.0  0.21370  0.61057  0.95023  1.0000
  H   H505      1.0  0.29416  0.57120  0.66417  1.0000
  H   H506      1.0  0.27805  0.57263  0.98621  1.0000
  H   H507      1.0  0.29223  0.55673  0.96636  1.0000
  H   H508      1.0  0.24414  0.55452  0.98267  1.0000
  H   H509      1.0  0.26603  0.60772  0.98068  1.0000
  H   H510      1.0  0.22288  0.57961  0.93884  1.0000
  C   C436      1.0  0.27947  0.73456  0.52052  1.0000
  S   S122      1.0  0.01404  0.66695  0.88668  1.0000
  H   H511      1.0  0.31141  0.69634  0.53581  1.0000
  S   S123      1.0  0.14475  0.52113  0.67909  1.0000
  Fe  Fe61      1.0  0.20617  0.63187  0.52381  1.0000
  C   C437      1.0  0.09188  0.59569  0.80560  1.0000
  H   H512      1.0  0.05562  0.74007  0.71066  1.0000
  C   C438      1.0  0.28895  0.55707  0.74512  1.0000
  S   S124      1.0  0.14594  0.72602  0.00253  1.0000
  C   C439      1.0  0.18857  0.61037  0.00584  1.0000
  H   H513      1.0  0.27578  0.58187  0.92612  1.0000
  H   H514      1.0  0.10280  0.59901  0.81777  1.0000
  H   H515      1.0  0.26602  0.52434  0.68779  1.0000
  H   H516      1.0  0.29130  0.58520  0.96244  1.0000
  C   C440      1.0  0.02592  0.60866  0.82729  1.0000
  C   C441      1.0  0.12648  0.75164  0.60123  1.0000
  S   S125      1.0  0.06043  0.69980  0.52802  1.0000
  H   H517      1.0  0.06344  0.55733  0.74228  1.0000
  H   H518      1.0  0.31447  0.55138  0.68717  1.0000
  H   H519      1.0  0.24495  0.57860  0.70143  1.0000
  S   S126      1.0  0.20500  0.54618  0.00607  1.0000
  H   H520      1.0  0.13018  0.55958  0.65784  1.0000
  H   H521      1.0  0.03001  0.55532  0.81591  1.0000
  C   C442      1.0  0.25018  0.55204  0.96570  1.0000
  N   N27       1.0  0.15142  0.56776  0.63035  1.0000
  H   H522      1.0  0.20764  0.64121  0.96462  1.0000
  C   C443      1.0  0.16975  0.56666  0.64458  1.0000
  C   C444      1.0  0.13146  0.57166  0.64415  1.0000
  C   C445      1.0  0.15283  0.58477  0.61302  1.0000
  C   C446      1.0  0.13677  0.58749  0.59776  1.0000
  C   C447      1.0  0.16978  0.59909  0.61078  1.0000
  C   C448      1.0  0.13783  0.60325  0.58109  1.0000
  C   C449      1.0  0.17052  0.61495  0.59419  1.0000
  C   C450      1.0  0.15474  0.61688  0.57926  1.0000
  C   C451      1.0  0.13341  0.70160  0.51436  1.0000
  H   H523      1.0  0.22773  0.75227  0.98151  1.0000
  C   C452      1.0  0.21876  0.62735  0.96265  1.0000
  H   H524      1.0  0.18527  0.56300  0.63536  1.0000
  H   H525      1.0  0.24121  0.63882  0.98354  1.0000
  H   H526      1.0  0.17075  0.58180  0.65309  1.0000
  H   H527      1.0  0.04952  0.61913  0.78030  1.0000
  C   C453      1.0  0.06299  0.58714  0.77493  1.0000
  H   H528      1.0  0.13093  0.58778  0.65111  1.0000
  H   H529      1.0  0.12340  0.57724  0.59846  1.0000
  H   H530      1.0  0.18305  0.59802  0.62118  1.0000
  H   H531      1.0  0.10294  0.73183  0.55013  1.0000
  H   H532      1.0  0.18398  0.62519  0.59224  1.0000
  H   H533      1.0  0.15598  0.62861  0.56590  1.0000
  C   C454      1.0  0.10412  0.51797  0.69819  1.0000
  H   H534      1.0  0.06647  0.73806  0.55500  1.0000
  C   C455      1.0  0.32176  0.51536  0.90882  1.0000
  H   H535      1.0  0.06380  0.52968  0.75042  1.0000
  C   C456      1.0  0.01838  0.74716  0.68501  1.0000
  H   H536      1.0  0.11677  0.57063  0.63513  1.0000
  H   H537      1.0  0.24049  0.55020  0.70395  1.0000
  H   H538      1.0  0.09945  0.53034  0.68640  1.0000
  C   C457      1.0  0.26945  0.71604  0.51489  1.0000
  S   S127      1.0  0.14848  0.67309  0.00280  1.0000
  H   H539      1.0  0.26280  0.53790  0.66206  1.0000
  C   C458      1.0  0.27227  0.53729  0.67670  1.0000
  C   C459      1.0  0.31109  0.55398  0.74149  1.0000
  C   C460      1.0  0.32396  0.69628  0.54716  1.0000
  H   H540      1.0  0.06937  0.71687  0.74000  1.0000
  C   C461      1.0  0.11255  0.75622  0.96104  1.0000
  N   N28       1.0  0.27056  0.55809  0.68737  1.0000
  C   C462      1.0  0.05238  0.72152  0.74009  1.0000
  C   C463      1.0  0.27780  0.57502  0.67149  1.0000
  H   H541      1.0  0.13561  0.71420  0.56325  1.0000
  C   C464      1.0  0.28417  0.55680  0.70614  1.0000
  C   C465      1.0  0.27557  0.55832  0.72782  1.0000
  C   C466      1.0  0.30682  0.55347  0.70306  1.0000
  H   H542      1.0  0.05804  0.74514  0.58201  1.0000
  H   H543      1.0  0.15101  0.72640  0.59607  1.0000
  H   H544      1.0  0.07193  0.51586  0.71287  1.0000
  H   H545      1.0  0.17449  0.73821  0.95132  1.0000
  S   S128      1.0  0.01828  0.51870  0.73969  1.0000
  C   C467      1.0  0.09880  0.75578  0.57467  1.0000
  H   H546      1.0  0.27170  0.74464  0.53274  1.0000
  H   H547      1.0  0.34229  0.66766  0.59056  1.0000
  H   H548      1.0  0.17637  0.58185  0.99377  1.0000
  C   C468      1.0  0.32187  0.51600  0.93146  1.0000
  Fe  Fe62      1.0  0.03534  0.72550  0.51800  1.0000
  C   C469      1.0  0.02087  0.75457  0.79571  1.0000
  H   H549      1.0  0.13323  0.75686  0.61565  1.0000
  C   C470      1.0  0.30348  0.51147  0.94469  1.0000
  C   C471      1.0  0.01118  0.57943  0.79856  1.0000
  C   C472      1.0  0.01201  0.61590  0.81139  1.0000
  H   H550      1.0  0.32129  0.55210  0.75504  1.0000
  H   H551      1.0  0.33632  0.51998  0.93876  1.0000
  H   H552      1.0  0.33600  0.51895  0.89883  1.0000
  H   H553      1.0  0.04507  0.70502  0.77063  1.0000
  Fe  Fe63      1.0  0.18244  0.67459  0.01232  1.0000
  C   C473      1.0  0.02231  0.74192  0.72363  1.0000
  C   C474      1.0  0.13393  0.75826  0.95362  1.0000
  C   C475      1.0  0.20565  0.57417  0.00978  1.0000
  H   H554      1.0  0.04724  0.75987  0.55925  1.0000
  H   H555      1.0  0.00973  0.71360  0.95562  1.0000
  C   C476      1.0  0.30315  0.51033  0.89918  1.0000
  C   C477      1.0  0.33281  0.93555  0.10033  1.0000
  H   H556      1.0  0.31649  0.86547  0.09544  1.0000
  Fe  Fe64      1.0  0.34002  0.78478  0.51056  1.0000
  H   H557      1.0  0.04628  0.81041  0.46918  1.0000
  H   H558      1.0  0.24843  0.98899  0.29149  1.0000
  H   H559      1.0  0.07676  0.85355  0.36202  1.0000
  H   H560      1.0  0.07913  0.81509  0.40725  1.0000
  C   C478      1.0  0.06431  0.81146  0.43857  1.0000
  H   H561      1.0  0.22131  0.99723  0.17954  1.0000
  S   S129      1.0  0.29876  0.99366  0.14139  1.0000
  H   H562      1.0  0.04086  0.91053  0.29553  1.0000
  Fe  Fe65      1.0  0.30370  0.99607  0.17693  1.0000
  S   S130      1.0  0.27663  0.98455  0.20075  1.0000
  H   H563      1.0  0.02205  0.92132  0.32909  1.0000
  Fe  Fe66      1.0  0.31160  0.86976  0.03051  1.0000
  S   S131      1.0  0.29869  0.88984  0.05892  1.0000
  C   C479      1.0  0.33592  0.87987  0.14187  1.0000
  S   S132      1.0  0.31284  0.83353  0.03309  1.0000
  H   H564      1.0  0.22070  0.00380  0.31516  1.0000
  Fe  Fe67      1.0  0.17704  0.99122  0.34376  1.0000
  S   S133      1.0  0.18441  0.97609  0.31152  1.0000
  C   C480      1.0  0.24342  0.79860  0.01619  1.0000
  H   H565      1.0  0.03674  0.92512  0.27050  1.0000
  Fe  Fe68      1.0  0.14856  0.97863  0.30801  1.0000
  S   S134      1.0  0.13030  0.95394  0.29154  1.0000
  C   C481      1.0  0.27253  0.99734  0.38095  1.0000
  S   S135      1.0  0.03259  0.80053  0.27845  1.0000
  S   S136      1.0  0.14117  0.99075  0.34130  1.0000
  H   H566      1.0  0.23031  0.00936  0.14385  1.0000
  S   S137      1.0  0.03238  0.76690  0.44790  1.0000
  S   S138      1.0  0.03668  0.83253  0.33022  1.0000
  C   C482      1.0  0.21590  0.97944  0.41043  1.0000
  Fe  Fe69      1.0  0.03859  0.86785  0.32149  1.0000
  S   S139      1.0  0.06316  0.88898  0.33454  1.0000
  C   C483      1.0  0.22494  0.98983  0.42715  1.0000
  C   C484      1.0  0.03862  0.85750  0.38282  1.0000
  H   H567      1.0  0.08217  0.87476  0.40554  1.0000
  H   H568      1.0  0.22279  0.00448  0.34352  1.0000
  H   H569      1.0  0.02065  0.78804  0.11721  1.0000
  H   H570      1.0  0.33882  0.86318  0.06447  1.0000
  Fe  Fe70      1.0  0.33214  0.97834  0.13840  1.0000
  C   C485      1.0  0.29345  0.00299  0.37546  1.0000
  H   H571      1.0  0.21682  0.78946  0.03793  1.0000
  C   C486      1.0  0.11187  0.93582  0.30382  1.0000
  C   C487      1.0  0.10762  0.93419  0.32619  1.0000
  C   C488      1.0  0.09266  0.91977  0.33522  1.0000
  C   C489      1.0  0.08178  0.90683  0.32204  1.0000
  C   C490      1.0  0.08612  0.90834  0.29968  1.0000
  C   C491      1.0  0.10105  0.92280  0.29065  1.0000
  H   H572      1.0  0.11585  0.94407  0.33651  1.0000
  H   H573      1.0  0.08953  0.91869  0.35254  1.0000
  H   H574      1.0  0.07829  0.89817  0.28934  1.0000
  H   H575      1.0  0.10435  0.92384  0.27334  1.0000
  C   C492      1.0  0.02200  0.78823  0.25622  1.0000
  H   H576      1.0  0.03226  0.86534  0.42813  1.0000
  C   C493      1.0  0.23184  0.92977  0.47956  1.0000
  H   H577      1.0  0.17948  0.96747  0.48475  1.0000
  C   C494      1.0  0.32766  0.86549  0.10805  1.0000
  Fe  Fe71      1.0  0.28638  0.98151  0.49688  1.0000
  H   H578      1.0  0.06987  0.82808  0.37344  1.0000
  H   H579      1.0  0.03269  0.84177  0.37919  1.0000
  C   C495      1.0  0.25926  0.99569  0.22185  1.0000
  C   C496      1.0  0.20141  0.94970  0.46322  1.0000
  C   C497      1.0  0.22919  0.99096  0.24885  1.0000
  C   C498      1.0  0.24372  0.98283  0.23244  1.0000
  H   H580      1.0  0.21720  0.98089  0.25655  1.0000
  H   H581      1.0  0.24276  0.96647  0.22774  1.0000
  S   S140      1.0  0.25099  0.97927  0.49351  1.0000
  H   H582      1.0  0.07913  0.97977  0.27214  1.0000
  C   C499      1.0  0.06703  0.87616  0.39692  1.0000
  C   C500      1.0  0.31216  0.90825  0.07371  1.0000
  C   C501      1.0  0.30037  0.92006  0.08967  1.0000
  C   C502      1.0  0.31057  0.93377  0.10277  1.0000
  H   H583      1.0  0.04035  0.76421  0.09109  1.0000
  C   C503      1.0  0.05639  0.84249  0.41409  1.0000
  H   H584      1.0  0.28324  0.91845  0.09204  1.0000
  H   H585      1.0  0.30127  0.94259  0.11507  1.0000
  C   C504      1.0  0.04158  0.85042  0.43052  1.0000
  H   H586      1.0  0.23234  0.96447  0.31658  1.0000
  S   S141      1.0  0.19536  0.97732  0.37262  1.0000
  C   C505      1.0  0.02054  0.80048  0.39173  1.0000
  C   C506      1.0  0.02954  0.78637  0.40751  1.0000
  C   C507      1.0  0.02901  0.92085  0.28656  1.0000
  C   C508      1.0  0.03814  0.83903  0.45021  1.0000
  H   H587      1.0  0.30702  0.88826  0.12566  1.0000
  H   H588      1.0  0.33531  0.81403  0.09883  1.0000
  C   C509      1.0  0.24301  0.96838  0.32941  1.0000
  C   C510      1.0  0.03447  0.77817  0.12215  1.0000
  C   C511      1.0  0.03123  0.76828  0.24961  1.0000
  C   C512      1.0  0.07508  0.84405  0.37760  1.0000
  H   H589      1.0  0.02632  0.84510  0.46229  1.0000
  C   C513      1.0  0.20436  0.94998  0.50173  1.0000
  C   C514      1.0  0.04945  0.81957  0.45420  1.0000
  H   H590      1.0  0.19604  0.99440  0.21052  1.0000
  C   C515      1.0  0.22015  0.93639  0.46128  1.0000
  H   H591      1.0  0.26746  0.92811  0.50407  1.0000
  C   C516      1.0  0.32205  0.87863  0.12535  1.0000
  C   C517      1.0  0.08920  0.76734  0.17280  1.0000
  C   C518      1.0  0.24807  0.89554  0.46862  1.0000
  S   S142      1.0  0.33630  0.97822  0.17430  1.0000
  N   N29       1.0  0.05937  0.85469  0.39321  1.0000
  N   N30       1.0  0.25230  0.91667  0.47688  1.0000
  H   H592      1.0  0.01544  0.91085  0.28350  1.0000
  H   H593      1.0  0.07030  0.88542  0.38140  1.0000
  H   H594      1.0  0.09041  0.98638  0.30845  1.0000
  H   H595      1.0  0.02756  0.80094  0.37536  1.0000
  H   H596      1.0  0.23329  0.96633  0.34490  1.0000
  S   S143      1.0  0.02627  0.86462  0.28858  1.0000
  H   H597      1.0  0.21712  0.96213  0.41020  1.0000
  H   H598      1.0  0.06071  0.78181  0.20259  1.0000
  C   C519      1.0  0.05881  0.76560  0.15027  1.0000
  H   H599      1.0  0.03129  0.78898  0.15401  1.0000
  S   S144      1.0  0.30892  0.95418  0.48415  1.0000
  H   H600      1.0  0.26942  0.94436  0.46582  1.0000
  H   H601      1.0  0.32129  0.83285  0.08130  1.0000
  H   H602      1.0  0.22564  0.93169  0.44525  1.0000
  H   H603      1.0  0.02577  0.86593  0.39287  1.0000
  C   C520      1.0  0.05495  0.78232  0.18593  1.0000
  C   C521      1.0  0.20539  0.99126  0.39394  1.0000
  H   H604      1.0  0.24112  0.89706  0.45254  1.0000
  H   H605      1.0  0.33160  0.89038  0.15505  1.0000
  C   C522      1.0  0.02038  0.78517  0.42877  1.0000
  C   C523      1.0  0.25899  0.99296  0.36483  1.0000
  H   H606      1.0  0.05503  0.88613  0.40658  1.0000
  C   C524      1.0  0.19366  0.95665  0.48338  1.0000
  C   C525      1.0  0.04701  0.95721  0.32271  1.0000
  C   C526      1.0  0.06969  0.97394  0.28622  1.0000
  C   C527      1.0  0.06473  0.96947  0.32489  1.0000
  C   C528      1.0  0.28731  0.00017  0.33753  1.0000
  C   C529      1.0  0.07610  0.97772  0.30670  1.0000
  N   N31       1.0  0.02156  0.93987  0.29896  1.0000
  H   H607      1.0  0.24292  0.98865  0.36986  1.0000
  C   C530      1.0  0.33257  0.89267  0.49418  1.0000
  C   C531      1.0  0.05184  0.96196  0.28382  1.0000
  C   C532      1.0  0.33431  0.91057  0.07081  1.0000
  C   C533      1.0  0.04553  0.76479  0.10738  1.0000
  H   H608      1.0  0.07029  0.97190  0.34075  1.0000
  H   H609      1.0  0.25276  0.00146  0.16016  1.0000
  H   H610      1.0  0.03950  0.95068  0.33748  1.0000
  H   H611      1.0  0.34093  0.88047  0.48452  1.0000
  H   H612      1.0  0.09140  0.84217  0.38388  1.0000
  H   H613      1.0  0.27892  0.90314  0.49469  1.0000
  H   H614      1.0  0.07254  0.79596  0.44158  1.0000
  Fe  Fe72      1.0  0.02132  0.82987  0.29826  1.0000
  H   H615      1.0  0.05789  0.79848  0.17850  1.0000
  H   H616      1.0  0.19309  0.95508  0.44895  1.0000
  H   H617      1.0  0.28363  0.91940  0.46027  1.0000
  H   H618      1.0  0.26664  0.99651  0.39778  1.0000
  C   C534      1.0  0.31605  0.92908  0.49704  1.0000
  H   H619      1.0  0.04016  0.86695  0.36731  1.0000
  C   C535      1.0  0.04000  0.95307  0.30200  1.0000
  H   H620      1.0  0.04776  0.95920  0.26757  1.0000
  H   H621      1.0  0.04360  0.77622  0.40317  1.0000
  C   C536      1.0  0.06778  0.82262  0.41876  1.0000
  H   H622      1.0  0.33089  0.91624  0.46775  1.0000
  C   C537      1.0  0.32687  0.91298  0.48473  1.0000
  H   H623      1.0  0.26180  0.92858  0.44448  1.0000
  C   C538      1.0  0.26732  0.92766  0.46115  1.0000
  H   H624      1.0  0.23296  0.98055  0.43970  1.0000
  C   C539      1.0  0.22588  0.78607  0.02294  1.0000
  H   H625      1.0  0.03734  0.78060  0.18818  1.0000
  H   H626      1.0  0.25664  0.95612  0.32946  1.0000
  C   C540      1.0  0.04087  0.77860  0.14332  1.0000
  H   H627      1.0  0.01117  0.95711  0.27010  1.0000
  C   C541      1.0  0.22304  0.93654  0.50000  1.0000
  H   H628      1.0  0.24762  0.81145  0.02595  1.0000
  H   H629      1.0  0.34181  0.81501  0.07014  1.0000
  H   H630      1.0  0.27419  0.98054  0.30070  1.0000
  H   H631      1.0  0.26309  0.88508  0.46676  1.0000
  N   N32       1.0  0.06567  0.76506  0.17272  1.0000
  H   H632      1.0  0.09403  0.78181  0.16300  1.0000
  C   C542      1.0  0.26586  0.99437  0.34262  1.0000
  C   C543      1.0  0.26344  0.91274  0.49726  1.0000
  H   H633      1.0  0.23655  0.88695  0.47983  1.0000
  H   H634      1.0  0.29397  0.00170  0.32112  1.0000
  N   N33       1.0  0.25079  0.99033  0.32597  1.0000
  H   H635      1.0  0.25367  0.90352  0.50962  1.0000
  C   C544      1.0  0.33731  0.82501  0.08435  1.0000
  C   C545      1.0  0.26029  0.99225  0.30347  1.0000
  H   H636      1.0  0.09448  0.76881  0.18945  1.0000
  S   S145      1.0  0.33867  0.81405  0.48793  1.0000
  C   C546      1.0  0.23213  0.00602  0.32775  1.0000
  H   H637      1.0  0.26532  0.00878  0.29925  1.0000
  Fe  Fe73      1.0  0.18452  0.00979  0.29732  1.0000
  C   C547      1.0  0.01082  0.93190  0.31955  1.0000
  C   C548      1.0  0.30085  0.00434  0.35382  1.0000
  H   H638      1.0  0.30390  0.00639  0.38803  1.0000
  H   H639      1.0  0.04420  0.76062  0.25839  1.0000
  H   H640      1.0  0.31715  0.00877  0.34964  1.0000
  C   C549      1.0  0.20204  0.00991  0.20558  1.0000
  C   C550      1.0  0.32765  0.88833  0.51615  1.0000
  H   H641      1.0  0.03771  0.79184  0.75697  1.0000
  H   H642      1.0  0.32264  0.99276  0.95002  1.0000
  H   H643      1.0  0.09897  0.78496  0.54228  1.0000
  H   H644      1.0  0.30274  0.93693  0.52868  1.0000
  C   C551      1.0  0.01310  0.79553  0.58142  1.0000
  H   H645      1.0  0.18335  0.78351  0.98519  1.0000
  H   H646      1.0  0.18864  0.78155  0.92702  1.0000
  C   C552      1.0  0.34042  0.92172  0.92196  1.0000
  S   S146      1.0  0.27649  0.81109  0.98634  1.0000
  Fe  Fe74      1.0  0.32837  0.87058  0.98353  1.0000
  H   H647      1.0  0.05369  0.97392  0.71125  1.0000
  S   S147      1.0  0.29487  0.87108  0.99914  1.0000
  H   H648      1.0  0.21018  0.94440  0.60002  1.0000
  S   S148      1.0  0.30498  0.97935  0.82761  1.0000
  H   H649      1.0  0.30792  0.90479  0.86328  1.0000
  Fe  Fe75      1.0  0.30733  0.97888  0.86383  1.0000
  S   S149      1.0  0.29460  0.95121  0.88510  1.0000
  H   H650      1.0  0.07115  0.95749  0.69426  1.0000
  Fe  Fe76      1.0  0.29868  0.83470  0.00057  1.0000
  S   S150      1.0  0.03220  0.80139  0.65155  1.0000
  S   S151      1.0  0.18723  0.97416  0.68778  1.0000
  C   C553      1.0  0.07112  0.78581  0.57785  1.0000
  C   C554      1.0  0.25514  0.79478  0.99665  1.0000
  S   S152      1.0  0.14737  0.98719  0.72153  1.0000
  Fe  Fe77      1.0  0.18324  0.99020  0.71974  1.0000
  H   H651      1.0  0.29009  0.99580  0.78022  1.0000
  Fe  Fe78      1.0  0.15109  0.97436  0.68838  1.0000
  S   S153      1.0  0.13255  0.94903  0.67325  1.0000
  H   H652      1.0  0.19857  0.95586  0.51735  1.0000
  H   H653      1.0  0.24796  0.00599  0.69610  1.0000
  S   S154      1.0  0.04225  0.82737  0.70576  1.0000
  H   H654      1.0  0.31461  0.00710  0.78549  1.0000
  Fe  Fe79      1.0  0.02512  0.82912  0.67454  1.0000
  Fe  Fe80      1.0  0.04023  0.86366  0.70324  1.0000
  S   S155      1.0  0.06562  0.88387  0.71624  1.0000
  H   H655      1.0  0.17378  0.98580  0.80237  1.0000
  C   C555      1.0  0.06096  0.97276  0.69449  1.0000
  H   H656      1.0  0.14853  0.78991  0.99323  1.0000
  C   C556      1.0  0.23137  0.97992  0.78048  1.0000
  H   H657      1.0  0.26279  0.96621  0.63172  1.0000
  C   C557      1.0  0.11341  0.93167  0.68557  1.0000
  C   C558      1.0  0.11027  0.92898  0.70798  1.0000
  C   C559      1.0  0.09540  0.91446  0.71700  1.0000
  C   C560      1.0  0.08336  0.90261  0.70380  1.0000
  C   C561      1.0  0.08618  0.90568  0.68138  1.0000
  C   C562      1.0  0.10121  0.92004  0.67234  1.0000
  H   H658      1.0  0.11959  0.93769  0.71839  1.0000
  H   H659      1.0  0.09339  0.91215  0.73437  1.0000
  H   H660      1.0  0.07705  0.89668  0.67103  1.0000
  H   H661      1.0  0.10347  0.92201  0.65497  1.0000
  H   H662      1.0  0.19151  0.90672  0.66316  1.0000
  H   H663      1.0  0.13361  0.00492  0.76539  1.0000
  C   C563      1.0  0.33035  0.93539  0.90647  1.0000
  C   C564      1.0  0.31101  0.92469  0.51899  1.0000
  C   C565      1.0  0.08328  0.98830  0.66587  1.0000
  H   H664      1.0  0.17123  0.90322  0.62173  1.0000
  C   C566      1.0  0.22042  0.99182  0.76435  1.0000
  C   C567      1.0  0.18005  0.00074  0.80639  1.0000
  Fe  Fe81      1.0  0.18344  0.00739  0.67286  1.0000
  C   C568      1.0  0.24800  0.95791  0.63260  1.0000
  H   H665      1.0  0.17040  0.95937  0.64096  1.0000
  C   C569      1.0  0.20829  0.93776  0.63495  1.0000
  C   C570      1.0  0.18674  0.91125  0.62036  1.0000
  S   S156      1.0  0.33146  0.83450  0.98285  1.0000
  H   H666      1.0  0.21351  0.93549  0.66970  1.0000
  C   C571      1.0  0.32823  0.90985  0.93757  1.0000
  C   C572      1.0  0.30582  0.91238  0.93801  1.0000
  C   C573      1.0  0.29577  0.92554  0.92215  1.0000
  C   C574      1.0  0.30795  0.93696  0.90619  1.0000
  S   S157      1.0  0.34176  0.89085  0.95484  1.0000
  H   H667      1.0  0.16170  0.79346  0.92982  1.0000
  H   H668      1.0  0.29624  0.90390  0.95028  1.0000
  H   H669      1.0  0.27843  0.92675  0.92211  1.0000
  H   H670      1.0  0.09225  0.97242  0.66475  1.0000
  C   C575      1.0  0.23908  0.95056  0.65248  1.0000
  H   H671      1.0  0.18690  0.98040  0.58316  1.0000
  H   H672      1.0  0.17405  0.95274  0.61315  1.0000
  S   S158      1.0  0.20301  0.97840  0.74833  1.0000
  H   H673      1.0  0.16661  0.76589  0.92294  1.0000
  S   S159      1.0  0.02565  0.86528  0.67074  1.0000
  C   C576      1.0  0.01811  0.77725  0.59439  1.0000
  C   C577      1.0  0.21116  0.00868  0.61960  1.0000
  H   H674      1.0  0.27205  0.82537  0.91060  1.0000
  C   C578      1.0  0.11767  0.77848  0.99078  1.0000
  C   C579      1.0  0.26086  0.00499  0.70710  1.0000
  H   H675      1.0  0.18880  0.91718  0.60327  1.0000
  H   H676      1.0  0.30903  0.96734  0.76040  1.0000
  C   C580      1.0  0.32079  0.97883  0.75352  1.0000
  H   H677      1.0  0.32696  0.97329  0.73740  1.0000
  H   H678      1.0  0.23074  0.93256  0.51486  1.0000
  N   N34       1.0  0.29229  0.84521  0.92706  1.0000
  C   C581      1.0  0.29034  0.85771  0.94679  1.0000
  C   C582      1.0  0.27208  0.83401  0.92587  1.0000
  C   C583      1.0  0.30997  0.82841  0.92924  1.0000
  C   C584      1.0  0.29683  0.86011  0.90834  1.0000
  C   C585      1.0  0.31714  0.86921  0.90514  1.0000
  C   C586      1.0  0.28075  0.86773  0.89418  1.0000
  C   C587      1.0  0.31761  0.00658  0.98122  1.0000
  C   C588      1.0  0.21734  0.99459  0.57669  1.0000
  H   H679      1.0  0.25803  0.77480  0.96910  1.0000
  H   H680      1.0  0.27764  0.87089  0.94573  1.0000
  H   H681      1.0  0.28620  0.84748  0.96134  1.0000
  H   H682      1.0  0.30560  0.86514  0.94963  1.0000
  S   S160      1.0  0.33514  0.86341  0.52920  1.0000
  H   H683      1.0  0.02472  0.78407  0.72211  1.0000
  C   C589      1.0  0.21996  0.76922  0.01059  1.0000
  H   H684      1.0  0.32517  0.83498  0.93364  1.0000
  H   H685      1.0  0.30610  0.81634  0.94250  1.0000
  H   H686      1.0  0.31326  0.81978  0.91401  1.0000
  C   C590      1.0  0.18215  0.78815  0.96777  1.0000
  H   H687      1.0  0.26465  0.86232  0.89574  1.0000
  H   H688      1.0  0.27503  0.97825  0.75301  1.0000
  H   H689      1.0  0.02917  1.00000  0.69788  1.0000
  S   S161      1.0  0.34015  0.99219  0.86162  1.0000
  H   H690      1.0  0.17412  0.80446  0.96640  1.0000
  H   H691      1.0  0.33437  0.97735  0.76441  1.0000
  C   C591      1.0  0.32119  0.88464  0.88865  1.0000
  C   C592      1.0  0.02347  0.79958  0.62496  1.0000
  C   C593      1.0  0.23761  0.95502  0.61386  1.0000
  C   C594      1.0  0.21960  0.94049  0.65374  1.0000
  H   H692      1.0  0.19984  0.89882  0.62335  1.0000
  H   H693      1.0  0.08326  0.79808  0.57824  1.0000
  H   H694      1.0  0.18142  0.99300  0.62074  1.0000
  C   C595      1.0  0.17992  0.91962  0.65748  1.0000
  H   H695      1.0  0.25766  0.84527  0.92732  1.0000
  C   C596      1.0  0.01769  0.81778  0.61224  1.0000
  C   C597      1.0  0.32017  0.00745  0.95875  1.0000
  H   H696      1.0  0.16390  0.91263  0.65751  1.0000
  S   S162      1.0  0.28241  0.99563  0.52982  1.0000
  C   C598      1.0  0.28490  0.88345  0.87794  1.0000
  H   H697      1.0  0.17784  0.93218  0.66968  1.0000
  H   H698      1.0  0.24707  0.95311  0.66708  1.0000
  C   C599      1.0  0.14785  0.77077  0.96443  1.0000
  H   H699      1.0  0.15418  0.94000  0.63052  1.0000
  H   H700      1.0  0.22917  0.96292  0.78275  1.0000
  H   H701      1.0  0.19907  0.78922  0.96123  1.0000
  H   H702      1.0  0.25278  0.98052  0.80658  1.0000
  H   H703      1.0  0.04805  0.97081  0.68328  1.0000
  N   N35       1.0  0.17058  0.77228  0.95644  1.0000
  C   C600      1.0  0.08496  0.77469  0.54308  1.0000
  C   C601      1.0  0.30209  0.00710  0.77349  1.0000
  Fe  Fe82      1.0  0.24692  0.99543  0.52545  1.0000
  C   C602      1.0  0.02670  0.78294  0.76753  1.0000
  N   N36       1.0  0.07363  0.99164  0.68798  1.0000
  C   C603      1.0  0.24912  0.77803  0.98419  1.0000
  C   C604      1.0  0.19885  0.98970  0.58966  1.0000
  C   C605      1.0  0.24487  0.98985  0.79397  1.0000
  H   H704      1.0  0.10056  0.97633  0.70398  1.0000
  C   C606      1.0  0.02353  0.77930  0.61592  1.0000
  N   N37       1.0  0.18685  0.92871  0.63580  1.0000
  C   C607      1.0  0.17071  0.94590  0.62976  1.0000
  C   C608      1.0  0.21801  0.94523  0.61496  1.0000
  H   H705      1.0  0.31301  0.90125  0.54550  1.0000
  H   H706      1.0  0.24435  0.96115  0.59843  1.0000
  H   H707      1.0  0.32976  0.86544  0.91607  1.0000
  H   H708      1.0  0.11143  0.78584  0.00552  1.0000
  C   C609      1.0  0.23252  0.00696  0.58515  1.0000
  S   S163      1.0  0.22152  0.98375  0.55067  1.0000
  H   H709      1.0  0.06562  0.78112  0.59471  1.0000
  C   C610      1.0  0.31687  0.90445  0.52848  1.0000
  H   H710      1.0  0.07071  0.98902  0.65389  1.0000
  C   C611      1.0  0.19575  0.99670  0.61099  1.0000
  C   C612      1.0  0.30504  0.89194  0.87524  1.0000
  H   H711      1.0  0.26987  0.82195  0.93952  1.0000
  C   C613      1.0  0.29426  0.00273  0.73634  1.0000
  S   S164      1.0  0.14753  0.00686  0.67148  1.0000
  H   H712      1.0  0.09500  0.00050  0.66065  1.0000
  C   C614      1.0  0.09116  0.99200  0.70299  1.0000
  S   S165      1.0  0.31158  0.76332  0.51930  1.0000
  H   H713      1.0  0.33660  0.89186  0.88704  1.0000
  H   H714      1.0  0.07123  0.78430  0.53618  1.0000
  C   C615      1.0  0.19603  0.99930  0.82128  1.0000
  H   H715      1.0  0.05690  0.79402  0.57038  1.0000
  H   H716      1.0  0.27227  0.88964  0.86780  1.0000
  C   C616      1.0  0.27661  0.98936  0.73923  1.0000
  H   H717      1.0  0.31816  0.99112  0.98990  1.0000
  H   H718      1.0  0.08799  0.76421  0.98556  1.0000
  C   C617      1.0  0.14642  0.00259  0.77714  1.0000
  H   H719      1.0  0.10293  0.00412  0.69784  1.0000
  N   N38       1.0  0.31138  0.00117  0.75191  1.0000
  H   H720      1.0  0.01976  0.78907  0.69422  1.0000
  C   C618      1.0  0.23186  0.76520  0.99118  1.0000
  H   H721      1.0  0.24701  0.98000  0.72725  1.0000
  C   C619      1.0  0.03470  0.76621  0.78140  1.0000
  C   C620      1.0  0.10444  0.76627  0.97960  1.0000
  H   H722      1.0  0.01801  0.76156  0.58778  1.0000
  Fe  Fe83      1.0  0.33623  0.99577  0.82587  1.0000
  H   H723      1.0  0.04355  0.77429  0.70135  1.0000
  H   H724      1.0  0.08473  0.99587  0.71957  1.0000
  H   H725      1.0  0.15849  0.99056  0.77017  1.0000
  H   H726      1.0  0.33993  0.94402  0.89426  1.0000
  C   C621      1.0  0.17188  0.77859  0.93307  1.0000
  C   C622      1.0  0.26036  0.99035  0.72466  1.0000
  H   H727      1.0  0.13886  0.99561  0.79235  1.0000
  H   H728      1.0  0.20143  0.98380  0.82810  1.0000
  Fe  Fe84      1.0  0.01034  0.76631  0.53072  1.0000
  C   C623      1.0  0.02618  0.77685  0.70603  1.0000
  H   H729      1.0  0.01759  0.83349  0.61890  1.0000
  C   C624      1.0  0.13908  0.78074  0.98343  1.0000
  H   H730      1.0  0.02787  0.76510  0.62561  1.0000
  H   H731      1.0  0.10098  0.77542  0.60290  1.0000
  N   N39       1.0  0.07960  0.76694  0.56560  1.0000
  C   C625      1.0  0.01269  0.81575  0.59059  1.0000
  H   H732      1.0  0.08895  0.76131  0.53206  1.0000
  C   C626      1.0  0.10789  0.76223  0.59364  1.0000
  H   H733      1.0  0.05180  0.76225  0.78107  1.0000
  C   C627      1.0  0.56259  0.25790  0.17897  1.0000
  Fe  Fe85      1.0  0.64810  0.21159  0.48161  1.0000
  S   S166      1.0  0.61804  0.22099  0.46308  1.0000
  Fe  Fe86      1.0  0.38730  0.20177  0.48827  1.0000
  S   S167      1.0  0.40908  0.22068  0.46454  1.0000
  Fe  Fe87      1.0  0.54890  0.19209  0.36288  1.0000
  S   S168      1.0  0.52226  0.21637  0.37162  1.0000
  S   S169      1.0  0.58134  0.18703  0.37785  1.0000
  Fe  Fe88      1.0  0.52315  0.17256  0.32823  1.0000
  S   S170      1.0  0.49468  0.19564  0.33483  1.0000
  S   S171      1.0  0.52537  0.15018  0.29986  1.0000
  Fe  Fe89      1.0  0.51898  0.22099  0.33551  1.0000
  C   C628      1.0  0.57386  0.24295  0.34298  1.0000
  Fe  Fe90      1.0  0.50038  0.18915  0.37015  1.0000
  S   S172      1.0  0.47663  0.17633  0.39641  1.0000
  S   S173      1.0  0.54709  0.19839  0.32697  1.0000
  S   S174      1.0  0.52746  0.16446  0.36324  1.0000
  S   S175      1.0  0.50316  0.02500  0.23858  1.0000
  S   S176      1.0  0.49911  0.05293  0.29653  1.0000
  Fe  Fe91      1.0  0.50941  0.02563  0.27397  1.0000
  C   C629      1.0  0.43697  0.01380  0.20839  1.0000
  H   H734      1.0  0.56065  0.24487  0.33165  1.0000
  H   H735      1.0  0.45347  0.06943  0.29316  1.0000
  H   H736      1.0  0.46965  0.05234  0.26253  1.0000
  H   H737      1.0  0.56067  0.25522  0.08120  1.0000
  H   H738      1.0  0.57349  0.20208  0.01649  1.0000
  S   S177      1.0  0.65115  0.18223  0.50402  1.0000
  H   H739      1.0  0.55091  0.24533  0.17790  1.0000
  H   H740      1.0  0.42302  0.05152  0.23094  1.0000
  C   C630      1.0  0.57174  0.18369  0.47339  1.0000
  Fe  Fe92      1.0  0.36071  0.16210  0.49947  1.0000
  S   S178      1.0  0.52029  0.22977  0.02174  1.0000
  H   H741      1.0  0.37208  0.24780  0.48121  1.0000
  H   H742      1.0  0.41372  0.11730  0.04754  1.0000
  S   S179      1.0  0.64501  0.16490  0.01486  1.0000
  Fe  Fe93      1.0  0.34977  0.01065  0.16772  1.0000
  H   H743      1.0  0.39874  0.04392  0.29787  1.0000
  S   S180      1.0  0.51339  0.25504  0.32065  1.0000
  C   C631      1.0  0.40129  0.01189  0.19439  1.0000
  C   C632      1.0  0.42376  0.19872  0.04270  1.0000
  S   S181      1.0  0.65370  0.23491  0.50727  1.0000
  C   C633      1.0  0.42090  0.02183  0.19472  1.0000
  H   H744      1.0  0.45076  0.06651  0.24610  1.0000
  H   H745      1.0  0.46502  0.16515  0.05818  1.0000
  C   C634      1.0  0.43266  0.15579  0.05511  1.0000
  C   C635      1.0  0.51879  0.12283  0.29973  1.0000
  C   C636      1.0  0.50687  0.11303  0.31684  1.0000
  C   C637      1.0  0.50118  0.09161  0.31560  1.0000
  C   C638      1.0  0.50759  0.07958  0.29743  1.0000
  C   C639      1.0  0.51968  0.08932  0.28039  1.0000
  C   C640      1.0  0.52509  0.11085  0.28149  1.0000
  H   H746      1.0  0.50182  0.12200  0.33094  1.0000
  H   H747      1.0  0.49181  0.08429  0.32887  1.0000
  H   H748      1.0  0.52470  0.08034  0.26629  1.0000
  H   H749      1.0  0.53432  0.11822  0.26815  1.0000
  C   C641      1.0  0.42805  0.20821  0.44584  1.0000
  C   C642      1.0  0.44092  0.22099  0.43169  1.0000
  C   C643      1.0  0.45593  0.21160  0.41645  1.0000
  C   C644      1.0  0.45818  0.18928  0.41523  1.0000
  C   C645      1.0  0.44549  0.17654  0.42956  1.0000
  C   C646      1.0  0.43050  0.18591  0.44476  1.0000
  H   H750      1.0  0.43916  0.23826  0.43239  1.0000
  H   H751      1.0  0.46557  0.22162  0.40554  1.0000
  H   H752      1.0  0.44706  0.15927  0.42874  1.0000
  H   H753      1.0  0.42071  0.17585  0.45548  1.0000
  C   C647      1.0  0.60812  0.21107  0.43946  1.0000
  C   C648      1.0  0.58840  0.21982  0.43232  1.0000
  C   C649      1.0  0.57979  0.21252  0.41370  1.0000
  C   C650      1.0  0.59083  0.19627  0.40201  1.0000
  C   C651      1.0  0.61055  0.18752  0.40914  1.0000
  C   C652      1.0  0.61917  0.19485  0.42776  1.0000
  H   H754      1.0  0.57983  0.23248  0.44119  1.0000
  H   H755      1.0  0.56492  0.21982  0.40817  1.0000
  H   H756      1.0  0.61930  0.17506  0.40014  1.0000
  H   H757      1.0  0.63436  0.18799  0.43303  1.0000
  H   H758      1.0  0.36277  0.04103  0.28531  1.0000
  H   H759      1.0  0.67569  0.02799  0.24371  1.0000
  H   H760      1.0  0.40468  0.12536  0.07450  1.0000
  H   H761      1.0  0.34962  0.08605  0.47520  1.0000
  H   H762      1.0  0.45206  0.02144  0.20825  1.0000
  C   C653      1.0  0.41474  0.04782  0.26580  1.0000
  C   C654      1.0  0.44441  0.19182  0.04803  1.0000
  H   H763      1.0  0.37819  0.15748  0.07838  1.0000
  H   H764      1.0  0.64325  0.20745  0.04303  1.0000
  H   H765      1.0  0.63267  0.22576  0.38977  1.0000
  H   H766      1.0  0.43207  0.08283  0.27882  1.0000
  H   H767      1.0  0.35758  0.23209  0.45101  1.0000
  H   H768      1.0  0.35672  0.04315  0.24622  1.0000
  H   H769      1.0  0.42052  0.21528  0.03736  1.0000
  C   C655      1.0  0.58937  0.16973  0.46856  1.0000
  C   C656      1.0  0.58831  0.15479  0.45275  1.0000
  C   C657      1.0  0.37268  0.04465  0.25171  1.0000
  S   S182      1.0  0.39472  0.16987  0.50475  1.0000
  C   C658      1.0  0.63845  0.22408  0.03952  1.0000
  H   H770      1.0  0.53504  0.23888  0.10793  1.0000
  C   C659      1.0  0.62233  0.25548  0.40409  1.0000
  H   H771      1.0  0.59189  0.25492  0.03757  1.0000
  C   C660      1.0  0.49401  0.24605  0.21747  1.0000
  H   H772      1.0  0.60237  0.14449  0.44853  1.0000
  H   H773      1.0  0.42370  0.03583  0.18428  1.0000
  H   H774      1.0  0.45288  0.24097  0.50530  1.0000
  H   H775      1.0  0.36747  0.17013  0.05451  1.0000
  C   C661      1.0  0.61657  0.23000  0.04219  1.0000
  S   S183      1.0  0.35453  0.19291  0.48022  1.0000
  N   N40       1.0  0.39428  0.14703  0.04871  1.0000
  C   C662      1.0  0.38906  0.14521  0.02595  1.0000
  C   C663      1.0  0.40026  0.12511  0.05743  1.0000
  C   C664      1.0  0.37466  0.15487  0.06138  1.0000
  C   C665      1.0  0.41146  0.16228  0.04945  1.0000
  H   H776      1.0  0.57891  0.25060  0.17478  1.0000
  C   C666      1.0  0.54621  0.24996  0.11314  1.0000
  H   H777      1.0  0.45712  0.20300  0.04680  1.0000
  S   S184      1.0  0.38145  0.02320  0.17727  1.0000
  C   C667      1.0  0.62171  0.23985  0.38892  1.0000
  H   H778      1.0  0.40352  0.13994  0.01577  1.0000
  C   C668      1.0  0.44236  0.02918  0.28644  1.0000
  H   H779      1.0  0.38701  0.04861  0.21958  1.0000
  H   H780      1.0  0.55053  0.25139  0.38067  1.0000
  C   C669      1.0  0.44883  0.17044  0.05430  1.0000
  H   H781      1.0  0.35966  0.07182  0.06828  1.0000
  H   H782      1.0  0.48824  0.18124  0.28621  1.0000
  H   H783      1.0  0.53396  0.24807  0.14578  1.0000
  H   H784      1.0  0.45867  0.02972  0.29263  1.0000
  H   H785      1.0  0.48750  0.24212  0.27989  1.0000
  N   N41       1.0  0.53141  0.16757  0.43438  1.0000
  C   C670      1.0  0.52937  0.18771  0.42104  1.0000
  C   C671      1.0  0.53127  0.14944  0.41971  1.0000
  C   C672      1.0  0.51215  0.16631  0.44955  1.0000
  C   C673      1.0  0.55119  0.16759  0.44637  1.0000
  C   C674      1.0  0.56959  0.15370  0.44169  1.0000
  C   C675      1.0  0.55292  0.18272  0.46250  1.0000
  H   H786      1.0  0.39213  0.19018  0.03771  1.0000
  C   C676      1.0  0.60487  0.18536  0.01493  1.0000
  C   C677      1.0  0.48916  0.24247  0.26243  1.0000
  H   H787      1.0  0.54301  0.18868  0.40871  1.0000
  H   H788      1.0  0.51432  0.18879  0.41233  1.0000
  H   H789      1.0  0.52912  0.20219  0.43080  1.0000
  H   H790      1.0  0.54421  0.15034  0.40657  1.0000
  H   H791      1.0  0.51593  0.14957  0.41140  1.0000
  H   H792      1.0  0.53312  0.13370  0.42869  1.0000
  H   H793      1.0  0.51372  0.15212  0.46093  1.0000
  H   H794      1.0  0.50912  0.18083  0.45916  1.0000
  H   H795      1.0  0.49722  0.16495  0.44080  1.0000
  H   H796      1.0  0.57019  0.14222  0.42918  1.0000
  H   H797      1.0  0.54000  0.19440  0.46631  1.0000
  C   C678      1.0  0.40755  0.18421  0.04315  1.0000
  H   H798      1.0  0.38666  0.11431  0.05727  1.0000
  H   H799      1.0  0.43730  0.13945  0.05982  1.0000
  H   H800      1.0  0.42632  0.06602  0.30249  1.0000
  C   C679      1.0  0.43702  0.06763  0.28762  1.0000
  H   H801      1.0  0.60420  0.17112  0.47649  1.0000
  N   N42       1.0  0.43653  0.04904  0.27365  1.0000
  H   H802      1.0  0.54607  0.24469  0.28574  1.0000
  H   H803      1.0  0.63368  0.25346  0.41668  1.0000
  H   H804      1.0  0.60650  0.22854  0.36262  1.0000
  C   C680      1.0  0.54560  0.25551  0.13474  1.0000
  C   C681      1.0  0.41054  0.04936  0.24351  1.0000
  H   H805      1.0  0.37674  0.13337  0.02442  1.0000
  H   H806      1.0  0.47916  0.20839  0.28989  1.0000
  C   C682      1.0  0.39683  0.04504  0.28069  1.0000
  H   H807      1.0  0.34598  0.25216  0.49471  1.0000
  C   C683      1.0  0.60644  0.24171  0.37330  1.0000
  H   H808      1.0  0.60064  0.17367  0.02763  1.0000
  N   N43       1.0  0.50275  0.20379  0.26315  1.0000
  C   C684      1.0  0.48425  0.19674  0.27732  1.0000
  C   C685      1.0  0.50981  0.18578  0.24907  1.0000
  C   C686      1.0  0.52071  0.20754  0.27675  1.0000
  C   C687      1.0  0.49670  0.22401  0.25111  1.0000
  C   C688      1.0  0.49886  0.22634  0.22818  1.0000
  C   C689      1.0  0.60899  0.25070  0.03638  1.0000
  H   H809      1.0  0.57120  0.22804  0.35305  1.0000
  C   C690      1.0  0.38980  0.04775  0.23669  1.0000
  H   H810      1.0  0.43131  0.02657  0.30086  1.0000
  H   H811      1.0  0.47011  0.19450  0.26779  1.0000
  C   C691      1.0  0.37615  0.04341  0.27368  1.0000
  H   H812      1.0  0.60532  0.21818  0.04797  1.0000
  H   H813      1.0  0.52460  0.18931  0.23894  1.0000
  H   H814      1.0  0.49693  0.18188  0.23854  1.0000
  H   H815      1.0  0.51391  0.17078  0.25876  1.0000
  H   H816      1.0  0.51591  0.21899  0.28960  1.0000
  H   H817      1.0  0.52673  0.19251  0.28512  1.0000
  H   H818      1.0  0.53449  0.21404  0.26686  1.0000
  H   H819      1.0  0.50444  0.21324  0.21818  1.0000
  C   C692      1.0  0.65359  0.23898  0.03143  1.0000
  H   H820      1.0  0.36174  0.14324  0.06174  1.0000
  S   S185      1.0  0.35509  0.12931  0.48652  1.0000
  C   C693      1.0  0.45351  0.05147  0.25603  1.0000
  C   C694      1.0  0.34298  0.24311  0.45328  1.0000
  H   H821      1.0  0.58902  0.24049  0.33281  1.0000
  C   C695      1.0  0.59129  0.25959  0.37239  1.0000
  H   H822      1.0  0.45461  0.03751  0.24539  1.0000
  H   H823      1.0  0.43212  0.20849  0.50763  1.0000
  H   H824      1.0  0.57309  0.19588  0.48506  1.0000
  H   H825      1.0  0.67529  0.08521  0.49741  1.0000
  H   H826      1.0  0.67072  0.07649  0.08031  1.0000
  H   H827      1.0  0.44231  0.01477  0.27646  1.0000
  H   H828      1.0  0.38263  0.16069  0.01873  1.0000
  H   H829      1.0  0.49586  0.24761  0.20002  1.0000
  C   C696      1.0  0.35783  0.25931  0.48275  1.0000
  C   C697      1.0  0.56067  0.25915  0.09802  1.0000
  C   C698      1.0  0.53757  0.25963  0.28136  1.0000
  H   H830      1.0  0.66444  0.02567  0.50550  1.0000
  S   S186      1.0  0.34490  0.10638  0.04021  1.0000
  H   H831      1.0  0.66956  0.20224  0.01368  1.0000
  H   H832      1.0  0.67566  0.12500  0.49434  1.0000
  C   C699      1.0  0.64537  0.26010  0.02596  1.0000
  Fe  Fe94      1.0  0.65863  0.20536  0.52886  1.0000
  S   S187      1.0  0.64768  0.19851  0.56413  1.0000
  H   H833      1.0  0.44896  0.16822  0.98848  1.0000
  Fe  Fe95      1.0  0.53413  0.20425  0.63311  1.0000
  S   S188      1.0  0.51010  0.22866  0.64718  1.0000
  S   S189      1.0  0.55170  0.21754  0.60248  1.0000
  Fe  Fe96      1.0  0.51720  0.16847  0.66449  1.0000
  S   S190      1.0  0.49143  0.19068  0.68006  1.0000
  S   S191      1.0  0.52606  0.13258  0.66979  1.0000
  Fe  Fe97      1.0  0.48611  0.20332  0.64581  1.0000
  S   S192      1.0  0.45646  0.21678  0.62883  1.0000
  Fe  Fe98      1.0  0.51738  0.21458  0.67992  1.0000
  S   S193      1.0  0.52741  0.23289  0.70882  1.0000
  S   S194      1.0  0.50987  0.17958  0.63048  1.0000
  S   S195      1.0  0.54342  0.19161  0.66589  1.0000
  S   S196      1.0  0.65973  0.01408  0.80064  1.0000
  C   C700      1.0  0.34436  0.07874  0.91197  1.0000
  S   S197      1.0  0.39872  0.17204  0.56445  1.0000
  H   H834      1.0  0.66906  0.07768  0.93282  1.0000
  C   C701      1.0  0.41603  0.18071  0.98750  1.0000
  C   C702      1.0  0.57085  0.23878  0.65845  1.0000
  H   H835      1.0  0.45999  0.05454  0.77844  1.0000
  H   H836      1.0  0.66495  0.12685  0.58178  1.0000
  H   H837      1.0  0.54985  0.15167  0.96128  1.0000
  C   C703      1.0  0.40202  0.19900  0.98818  1.0000
  S   S198      1.0  0.51677  0.24669  0.97118  1.0000
  Fe  Fe99      1.0  0.50497  0.02702  0.74690  1.0000
  H   H838      1.0  0.43360  0.02242  0.83497  1.0000
  S   S199      1.0  0.49622  0.06288  0.74238  1.0000
  H   H839      1.0  0.42791  0.07953  0.77734  1.0000
  H   H840      1.0  0.37680  0.02917  0.81939  1.0000
  Fe  Fe100     1.0  0.49444  0.23329  0.99771  1.0000
  H   H841      1.0  0.40975  0.16524  0.98548  1.0000
  H   H842      1.0  0.40629  0.07222  0.85841  1.0000
  C   C704      1.0  0.41281  0.04943  0.82293  1.0000
  S   S200      1.0  0.35127  0.13585  0.98557  1.0000
  H   H843      1.0  0.57432  0.20305  0.95586  1.0000
  C   C705      1.0  0.47624  0.21527  0.54884  1.0000
  H   H844      1.0  0.57780  0.17534  0.96298  1.0000
  H   H845      1.0  0.50138  0.19058  0.95346  1.0000
  C   C706      1.0  0.56893  0.18702  0.95221  1.0000
  C   C707      1.0  0.43304  0.22090  0.99124  1.0000
  H   H846      1.0  0.43844  0.18066  0.53642  1.0000
  C   C708      1.0  0.44700  0.20257  0.99090  1.0000
  C   C709      1.0  0.44832  0.03738  0.80721  1.0000
  C   C710      1.0  0.51367  0.22280  0.55224  1.0000
  H   H847      1.0  0.48297  0.19615  0.59006  1.0000
  H   H848      1.0  0.58567  0.23364  0.66678  1.0000
  H   H849      1.0  0.54158  0.25004  0.74736  1.0000
  Fe  Fe101     1.0  0.34918  0.17157  0.99017  1.0000
  H   H850      1.0  0.54238  0.16026  0.93458  1.0000
  C   C711      1.0  0.44126  0.20404  0.61035  1.0000
  C   C712      1.0  0.42769  0.21673  0.59704  1.0000
  C   C713      1.0  0.41502  0.20729  0.58242  1.0000
  C   C714      1.0  0.41544  0.18499  0.58134  1.0000
  C   C715      1.0  0.42913  0.17231  0.59452  1.0000
  C   C716      1.0  0.44216  0.18176  0.60878  1.0000
  H   H851      1.0  0.42680  0.23397  0.59819  1.0000
  H   H852      1.0  0.40453  0.21725  0.57244  1.0000
  H   H853      1.0  0.42956  0.15503  0.59387  1.0000
  H   H854      1.0  0.45244  0.17180  0.61899  1.0000
  C   C717      1.0  0.51737  0.11350  0.69012  1.0000
  C   C718      1.0  0.50339  0.11918  0.70766  1.0000
  C   C719      1.0  0.49705  0.10344  0.72340  1.0000
  C   C720      1.0  0.50450  0.08185  0.72179  1.0000
  C   C721      1.0  0.51856  0.07617  0.70431  1.0000
  C   C722      1.0  0.52497  0.09193  0.68863  1.0000
  H   H855      1.0  0.49743  0.13569  0.70906  1.0000
  H   H856      1.0  0.48619  0.10805  0.73686  1.0000
  H   H857      1.0  0.52439  0.05965  0.70278  1.0000
  H   H858      1.0  0.53576  0.08736  0.67510  1.0000
  C   C723      1.0  0.62072  0.20320  0.57433  1.0000
  C   C724      1.0  0.60547  0.21461  0.56212  1.0000
  C   C725      1.0  0.58438  0.21864  0.57096  1.0000
  C   C726      1.0  0.57820  0.21102  0.59194  1.0000
  C   C727      1.0  0.59336  0.19940  0.60411  1.0000
  C   C728      1.0  0.61457  0.19565  0.59536  1.0000
  H   H859      1.0  0.61001  0.22061  0.54596  1.0000
  H   H860      1.0  0.57284  0.22778  0.56147  1.0000
  H   H861      1.0  0.58885  0.19349  0.62029  1.0000
  H   H862      1.0  0.62626  0.18684  0.60495  1.0000
  C   C729      1.0  0.39797  0.03030  0.85600  1.0000
  C   C730      1.0  0.53984  0.16372  0.95202  1.0000
  C   C731      1.0  0.35672  0.12897  0.57452  1.0000
  H   H863      1.0  0.36105  0.04197  0.84081  1.0000
  H   H864      1.0  0.36002  0.12801  0.53147  1.0000
  H   H865      1.0  0.41233  0.03251  0.86523  1.0000
  H   H866      1.0  0.55713  0.23760  0.67066  1.0000
  H   H867      1.0  0.40016  0.23341  0.99020  1.0000
  C   C732      1.0  0.43833  0.18249  0.98894  1.0000
  C   C733      1.0  0.35965  0.09320  0.55839  1.0000
  H   H868      1.0  0.50182  0.18468  0.56976  1.0000
  C   C734      1.0  0.44805  0.19462  0.53511  1.0000
  H   H869      1.0  0.55991  0.21852  0.92638  1.0000
  H   H870      1.0  0.38773  0.10003  0.58784  1.0000
  H   H871      1.0  0.37834  0.06734  0.86392  1.0000
  C   C735      1.0  0.37496  0.12416  0.53993  1.0000
  H   H872      1.0  0.66161  0.13100  0.54207  1.0000
  C   C736      1.0  0.37028  0.07696  0.54572  1.0000
  C   C737      1.0  0.46365  0.19697  0.54993  1.0000
  S   S201      1.0  0.37550  0.21782  0.51902  1.0000
  H   H873      1.0  0.40243  0.09903  0.56205  1.0000
  H   H874      1.0  0.46521  0.18440  0.56232  1.0000
  C   C738      1.0  0.53047  0.23166  0.91533  1.0000
  C   C739      1.0  0.62585  0.18455  0.00524  1.0000
  H   H875      1.0  0.48007  0.24589  0.53111  1.0000
  H   H876      1.0  0.34848  0.10341  0.93456  1.0000
  H   H877      1.0  0.38608  0.07900  0.53810  1.0000
  H   H878      1.0  0.57435  0.18348  0.93527  1.0000
  H   H879      1.0  0.39968  0.01436  0.84864  1.0000
  N   N44       1.0  0.37013  0.11344  0.56130  1.0000
  S   S202      1.0  0.37362  0.19787  0.98695  1.0000
  H   H880      1.0  0.49773  0.23874  0.59039  1.0000
  H   H881      1.0  0.58500  0.24808  0.61813  1.0000
  C   C740      1.0  0.37479  0.04398  0.82876  1.0000
  C   C741      1.0  0.61577  0.21581  0.98262  1.0000
  N   N45       1.0  0.49296  0.21830  0.56417  1.0000
  H   H882      1.0  0.38400  0.02960  0.86807  1.0000
  S   S203      1.0  0.47526  0.20381  0.99304  1.0000
  C   C742      1.0  0.41203  0.06547  0.80600  1.0000
  H   H883      1.0  0.36861  0.04612  0.53185  1.0000
  H   H884      1.0  0.52680  0.22404  0.56344  1.0000
  H   H885      1.0  0.47026  0.23422  0.58636  1.0000
  H   H886      1.0  0.66774  0.15475  0.58434  1.0000
  C   C743      1.0  0.44698  0.05321  0.79079  1.0000
  H   H887      1.0  0.38585  0.11429  0.52906  1.0000
  H   H888      1.0  0.67148  0.22462  0.99471  1.0000
  Fe  Fe102     1.0  0.54167  0.24553  0.99599  1.0000
  C   C744      1.0  0.39140  0.06825  0.85085  1.0000
  C   C745      1.0  0.39054  0.10881  0.57203  1.0000
  C   C746      1.0  0.48616  0.23667  0.57776  1.0000
  H   H889      1.0  0.62007  0.22758  0.97004  1.0000
  H   H890      1.0  0.52224  0.18914  0.98331  1.0000
  N   N46       1.0  0.54527  0.18597  0.95589  1.0000
  C   C747      1.0  0.53966  0.19045  0.97886  1.0000
  H   H891      1.0  0.38287  0.13942  0.54145  1.0000
  N   N47       1.0  0.39471  0.04788  0.83941  1.0000
  C   C748      1.0  0.53291  0.20136  0.94190  1.0000
  C   C749      1.0  0.51013  0.20146  0.94265  1.0000
  C   C750      1.0  0.54277  0.21697  0.92779  1.0000
  C   C751      1.0  0.49801  0.21625  0.93017  1.0000
  C   C752      1.0  0.50816  0.23134  0.91656  1.0000
  H   H892      1.0  0.38656  0.08203  0.83997  1.0000
  H   H893      1.0  0.64697  0.19886  0.98076  1.0000
  H   H894      1.0  0.54861  0.17925  0.98999  1.0000
  H   H895      1.0  0.54368  0.20697  0.98238  1.0000
  C   C753      1.0  0.59496  0.21694  0.99268  1.0000
  C   C754      1.0  0.42887  0.06725  0.79020  1.0000
  C   C755      1.0  0.52038  0.25763  0.72166  1.0000
  C   C756      1.0  0.63111  0.19964  0.98876  1.0000
  Fe  Fe103     1.0  0.38086  0.18501  0.53512  1.0000
  H   H896      1.0  0.36980  0.05739  0.81753  1.0000
  H   H897      1.0  0.39842  0.12387  0.57511  1.0000
  H   H898      1.0  0.48467  0.25204  0.56817  1.0000
  H   H899      1.0  0.48061  0.21634  0.93154  1.0000
  C   C757      1.0  0.36049  0.05800  0.54213  1.0000
  H   H900      1.0  0.35308  0.12235  0.59118  1.0000
  N   N48       1.0  0.56033  0.07306  0.76131  1.0000
  C   C758      1.0  0.56363  0.08806  0.74228  1.0000
  C   C759      1.0  0.55566  0.05199  0.75328  1.0000
  C   C760      1.0  0.54121  0.08157  0.77431  1.0000
  C   C761      1.0  0.57911  0.07019  0.77479  1.0000
  C   C762      1.0  0.59939  0.07843  0.76839  1.0000
  C   C763      1.0  0.57772  0.05791  0.79458  1.0000
  C   C764      1.0  0.61703  0.07459  0.78115  1.0000
  C   C765      1.0  0.59534  0.05452  0.80735  1.0000
  C   C766      1.0  0.61501  0.06266  0.80057  1.0000
  H   H901      1.0  0.57645  0.08179  0.73060  1.0000
  H   H902      1.0  0.54890  0.09054  0.73300  1.0000
  H   H903      1.0  0.56761  0.10418  0.74722  1.0000
  H   H904      1.0  0.56980  0.04475  0.74388  1.0000
  H   H905      1.0  0.54194  0.05343  0.74260  1.0000
  H   H906      1.0  0.55138  0.04028  0.76666  1.0000
  H   H907      1.0  0.54470  0.09647  0.78226  1.0000
  H   H908      1.0  0.52727  0.08548  0.76418  1.0000
  H   H909      1.0  0.53538  0.06983  0.78698  1.0000
  H   H910      1.0  0.60217  0.08763  0.75347  1.0000
  H   H911      1.0  0.56316  0.05027  0.80008  1.0000
  H   H912      1.0  0.63250  0.08060  0.77585  1.0000
  H   H913      1.0  0.59397  0.04486  0.82226  1.0000
  H   H914      1.0  0.62886  0.05926  0.81015  1.0000
  C   C767      1.0  0.43154  0.03535  0.82304  1.0000
  C   C768      1.0  0.49714  0.19931  0.57886  1.0000
  C   C769      1.0  0.41073  0.21910  0.98987  1.0000
  H   H915      1.0  0.39830  0.07670  0.80481  1.0000
  S   S204      1.0  0.57653  0.23788  0.98441  1.0000
  H   H916      1.0  0.53825  0.24368  0.90496  1.0000
  H   H917      1.0  0.56857  0.22678  0.64617  1.0000
  C   C770      1.0  0.47172  0.23121  0.53247  1.0000
  H   H918      1.0  0.51880  0.20978  0.54108  1.0000
  H   H919      1.0  0.52286  0.16072  0.95709  1.0000
  H   H920      1.0  0.36126  0.07383  0.91065  1.0000
  H   H921      1.0  0.46238  0.02637  0.80753  1.0000
  H   H922      1.0  0.35695  0.24333  0.98940  1.0000
  H   H923      1.0  0.51052  0.20178  0.58935  1.0000
  H   H924      1.0  0.43941  0.23646  0.99260  1.0000
  H   H925      1.0  0.54795  0.25663  0.62595  1.0000
  H   H926      1.0  0.60487  0.25367  0.63614  1.0000
  C   C771      1.0  0.45610  0.22865  0.51772  1.0000
  H   H927      1.0  0.36500  0.14406  0.57625  1.0000
  C   C772      1.0  0.44434  0.21036  0.51900  1.0000
  H   H928      1.0  0.49872  0.24308  0.90722  1.0000
  S   S205      1.0  0.50740  0.01777  0.78209  1.0000
  H   H929      1.0  0.51293  0.23822  0.54268  1.0000
  S   S206      1.0  0.34701  0.17561  0.53055  1.0000
  C   C773      1.0  0.58945  0.20144  0.00867  1.0000
  H   H930      1.0  0.63190  0.01514  0.76549  1.0000
  H   H931      1.0  0.66217  0.15912  0.54526  1.0000
  H   H932      1.0  0.34343  0.07121  0.99211  1.0000
  C   C774      1.0  0.67254  0.14431  0.54245  1.0000
  C   C775      1.0  0.34316  0.25550  0.98928  1.0000
  C   C776      1.0  0.58896  0.25953  0.63038  1.0000
  C   C777      1.0  0.62243  0.01058  0.77996  1.0000
  H   H933      1.0  0.67428  0.09992  0.55877  1.0000
  H   H934      1.0  0.53810  0.29772  0.06015  1.0000
  C   C778      1.0  0.57268  0.29358  0.16930  1.0000
  Fe  Fe104     1.0  0.65939  0.47730  0.21384  1.0000
  S   S207      1.0  0.63980  0.44942  0.22716  1.0000
  H   H935      1.0  0.52333  0.27381  0.16909  1.0000
  Fe  Fe105     1.0  0.38228  0.47757  0.21183  1.0000
  H   H936      1.0  0.58444  0.29214  0.12951  1.0000
  S   S208      1.0  0.40766  0.45641  0.22842  1.0000
  H   H937      1.0  0.50828  0.30896  0.03682  1.0000
  H   H938      1.0  0.37876  0.26155  0.44329  1.0000
  C   C779      1.0  0.46580  0.31784  0.03517  1.0000
  C   C780      1.0  0.49313  0.35514  0.09909  1.0000
  S   S209      1.0  0.38688  0.48861  0.17716  1.0000
  Fe  Fe106     1.0  0.52903  0.33401  0.21110  1.0000
  S   S210      1.0  0.55489  0.34605  0.18712  1.0000
  S   S211      1.0  0.53982  0.30289  0.22995  1.0000
  Fe  Fe107     1.0  0.49502  0.36547  0.19182  1.0000
  S   S212      1.0  0.51856  0.37848  0.16669  1.0000
  S   S213      1.0  0.46016  0.37629  0.18728  1.0000
  Fe  Fe108     1.0  0.53061  0.34450  0.16205  1.0000
  S   S214      1.0  0.54247  0.33319  0.12858  1.0000
  Fe  Fe109     1.0  0.54104  0.37933  0.19357  1.0000
  S   S215      1.0  0.55770  0.41118  0.19010  1.0000
  S   S216      1.0  0.50550  0.33107  0.18537  1.0000
  S   S217      1.0  0.51660  0.36781  0.21941  1.0000
  H   H939      1.0  0.44400  0.49816  0.16547  1.0000
  H   H940      1.0  0.46079  0.32302  0.07554  1.0000
  H   H941      1.0  0.58535  0.28157  0.09248  1.0000
  C   C781      1.0  0.53023  0.31627  0.11130  1.0000
  C   C782      1.0  0.51190  0.30535  0.11797  1.0000
  C   C783      1.0  0.50312  0.29165  0.10384  1.0000
  C   C784      1.0  0.51240  0.28883  0.08287  1.0000
  C   C785      1.0  0.53063  0.29987  0.07613  1.0000
  C   C786      1.0  0.53947  0.31349  0.09030  1.0000
  H   H942      1.0  0.50435  0.30760  0.13390  1.0000
  H   H943      1.0  0.48895  0.28328  0.10916  1.0000
  H   H944      1.0  0.55365  0.32187  0.08501  1.0000
  C   C787      1.0  0.42281  0.43500  0.21600  1.0000
  C   C788      1.0  0.44141  0.42627  0.22549  1.0000
  C   C789      1.0  0.45339  0.40866  0.21656  1.0000
  C   C790      1.0  0.44661  0.39938  0.19826  1.0000
  C   C791      1.0  0.42814  0.40826  0.18865  1.0000
  C   C792      1.0  0.41642  0.42615  0.19731  1.0000
  H   H945      1.0  0.44647  0.43303  0.23995  1.0000
  H   H946      1.0  0.46755  0.40196  0.22413  1.0000
  H   H947      1.0  0.42275  0.40113  0.17453  1.0000
  H   H948      1.0  0.40209  0.43264  0.18991  1.0000
  C   C793      1.0  0.50601  0.36174  0.08123  1.0000
  C   C794      1.0  0.61866  0.43714  0.21527  1.0000
  C   C795      1.0  0.60796  0.42079  0.22706  1.0000
  C   C796      1.0  0.58996  0.41180  0.21910  1.0000
  C   C797      1.0  0.58221  0.41935  0.19935  1.0000
  C   C798      1.0  0.59311  0.43548  0.18740  1.0000
  C   C799      1.0  0.61146  0.44404  0.19508  1.0000
  H   H949      1.0  0.61341  0.41525  0.24265  1.0000
  H   H950      1.0  0.58165  0.39956  0.22858  1.0000
  H   H951      1.0  0.58728  0.44141  0.17208  1.0000
  H   H952      1.0  0.61977  0.45619  0.18551  1.0000
  C   C800      1.0  0.53249  0.29029  0.25556  1.0000
  C   C801      1.0  0.51674  0.29922  0.27002  1.0000
  H   H953      1.0  0.50865  0.31448  0.26586  1.0000
  N   N49       1.0  0.58391  0.50083  0.22140  1.0000
  N   N50       1.0  0.34827  0.26392  0.46169  1.0000
  H   H954      1.0  0.60678  0.48812  0.24418  1.0000
  C   C802      1.0  0.57776  0.28086  0.34202  1.0000
  Fe  Fe110     1.0  0.35102  0.48755  0.17610  1.0000
  H   H955      1.0  0.57678  0.29598  0.35085  1.0000
  H   H956      1.0  0.35792  0.27771  0.43050  1.0000
  C   C803      1.0  0.60805  0.27341  0.40336  1.0000
  H   H957      1.0  0.56543  0.28277  0.32970  1.0000
  H   H958      1.0  0.49898  0.29537  0.30081  1.0000
  N   N51       1.0  0.57434  0.26179  0.35663  1.0000
  C   C804      1.0  0.47333  0.33408  0.07615  1.0000
  H   H959      1.0  0.44985  0.32494  0.04094  1.0000
  H   H960      1.0  0.60861  0.28550  0.41526  1.0000
  S   S218      1.0  0.50060  0.27127  0.06591  1.0000
  H   H961      1.0  0.56946  0.30867  0.15950  1.0000
  H   H962      1.0  0.46971  0.30305  0.04521  1.0000
  C   C805      1.0  0.49950  0.44332  0.18918  1.0000
  H   H963      1.0  0.58975  0.28797  0.16613  1.0000
  N   N52       1.0  0.48284  0.33341  0.03560  1.0000
  H   H964      1.0  0.52402  0.45992  0.20286  1.0000
  H   H965      1.0  0.47222  0.43051  0.17610  1.0000
  C   C806      1.0  0.57221  0.48093  0.22091  1.0000
  H   H966      1.0  0.51637  0.33377  0.02418  1.0000
  H   H967      1.0  0.35570  0.50540  0.09576  1.0000
  H   H968      1.0  0.51293  0.36042  0.04740  1.0000
  H   H969      1.0  0.58229  0.49857  0.25647  1.0000
  C   C807      1.0  0.51132  0.28832  0.28989  1.0000
  H   H970      1.0  0.57084  0.29806  0.18654  1.0000
  H   H971      1.0  0.59385  0.27955  0.33324  1.0000
  C   C808      1.0  0.47676  0.35218  0.02138  1.0000
  H   H972      1.0  0.47889  0.27598  0.26060  1.0000
  H   H973      1.0  0.42929  0.48644  0.20052  1.0000
  C   C809      1.0  0.55928  0.27082  0.14180  1.0000
  H   H974      1.0  0.53403  0.29089  0.18739  1.0000
  H   H975      1.0  0.46192  0.36087  0.02802  1.0000
  C   C810      1.0  0.43936  0.49755  0.20832  1.0000
  C   C811      1.0  0.50252  0.35477  0.06071  1.0000
  C   C812      1.0  0.48615  0.34058  0.05753  1.0000
  H   H976      1.0  0.49618  0.36023  0.11505  1.0000
  S   S219      1.0  0.65939  0.49148  0.17994  1.0000
  S   S220      1.0  0.34682  0.47325  0.21003  1.0000
  H   H977      1.0  0.46709  0.33605  0.11062  1.0000
  H   H978      1.0  0.50226  0.49328  0.20685  1.0000
  H   H979      1.0  0.58297  0.46639  0.22386  1.0000
  C   C813      1.0  0.54291  0.27047  0.26146  1.0000
  H   H980      1.0  0.58216  0.28979  0.38775  1.0000
  H   H981      1.0  0.53143  0.29976  0.15978  1.0000
  C   C814      1.0  0.50766  0.46110  0.19784  1.0000
  H   H982      1.0  0.56536  0.47937  0.20496  1.0000
  H   H983      1.0  0.48351  0.27926  0.22088  1.0000
  H   H984      1.0  0.55880  0.48030  0.23349  1.0000
  H   H985      1.0  0.55064  0.27996  0.37650  1.0000
  H   H986      1.0  0.34759  0.30519  0.47535  1.0000
  C   C815      1.0  0.59287  0.27560  0.38765  1.0000
  C   C816      1.0  0.47677  0.34144  0.09654  1.0000
  H   H987      1.0  0.51901  0.37204  0.08347  1.0000
  C   C817      1.0  0.47854  0.44448  0.18267  1.0000
  N   N53       1.0  0.55775  0.27695  0.16465  1.0000
  C   C818      1.0  0.48688  0.26388  0.22914  1.0000
  H   H988      1.0  0.55532  0.26351  0.25058  1.0000
  C   C819      1.0  0.53567  0.28561  0.17046  1.0000
  H   H989      1.0  0.37142  0.28765  0.45244  1.0000
  C   C820      1.0  0.52147  0.26833  0.29560  1.0000
  C   C821      1.0  0.47335  0.48182  0.19365  1.0000
  H   H990      1.0  0.36334  0.27387  0.48981  1.0000
  H   H991      1.0  0.50944  0.42856  0.18760  1.0000
  H   H992      1.0  0.61731  0.28174  0.02357  1.0000
  H   H993      1.0  0.61378  0.48661  0.20772  1.0000
  H   H994      1.0  0.65551  0.27244  0.01933  1.0000
  C   C822      1.0  0.49490  0.48016  0.20005  1.0000
  C   C823      1.0  0.46557  0.46334  0.18495  1.0000
  C   C824      1.0  0.57454  0.27399  0.10441  1.0000
  H   H995      1.0  0.56199  0.26221  0.19627  1.0000
  C   C825      1.0  0.57385  0.27991  0.12592  1.0000
  H   H996      1.0  0.44930  0.46321  0.17997  1.0000
  C   C826      1.0  0.62336  0.26574  0.02838  1.0000
  H   H997      1.0  0.48958  0.36383  0.01940  1.0000
  C   C827      1.0  0.59391  0.50116  0.24248  1.0000
  H   H998      1.0  0.53962  0.26452  0.35704  1.0000
  C   C828      1.0  0.50296  0.32286  0.02629  1.0000
  C   C829      1.0  0.55292  0.26455  0.36823  1.0000
  Fe  Fe111     1.0  0.50949  0.26342  0.03079  1.0000
  H   H999      1.0  0.59587  0.49710  0.18822  1.0000
  C   C830      1.0  0.48427  0.26202  0.25154  1.0000
  S   S221      1.0  0.65436  0.50898  0.23007  1.0000
  C   C831      1.0  0.60169  0.49993  0.20437  1.0000
  H   H1000     1.0  0.44280  0.49012  0.22447  1.0000
  C   C832      1.0  0.36474  0.27318  0.44632  1.0000
  N   N54       1.0  0.45944  0.50181  0.19522  1.0000
  H   H1001     1.0  0.46400  0.31252  0.01851  1.0000
  C   C833      1.0  0.45379  0.50957  0.17326  1.0000
  Fe  Fe112     1.0  0.51507  0.33926  0.78485  1.0000
  S   S222      1.0  0.49115  0.34437  0.81325  1.0000
  S   S223      1.0  0.50557  0.32257  0.75462  1.0000
  Fe  Fe113     1.0  0.54666  0.37004  0.80342  1.0000
  S   S224      1.0  0.52489  0.37692  0.83273  1.0000
  S   S225      1.0  0.57955  0.38362  0.79543  1.0000
  Fe  Fe114     1.0  0.51987  0.34136  0.83400  1.0000
  S   S226      1.0  0.52675  0.31776  0.86235  1.0000
  Fe  Fe115     1.0  0.49808  0.37949  0.80979  1.0000
  S   S227      1.0  0.47623  0.40935  0.80303  1.0000
  S   S228      1.0  0.54328  0.33429  0.80558  1.0000
  S   S229      1.0  0.52042  0.37455  0.78039  1.0000
  C   C834      1.0  0.48015  0.50371  0.85310  1.0000
  S   S230      1.0  0.65219  0.49279  0.79211  1.0000
  H   H1002     1.0  0.45283  0.46293  0.83510  1.0000
  Fe  Fe116     1.0  0.37036  0.47929  0.83146  1.0000
  S   S231      1.0  0.38732  0.44843  0.84402  1.0000
  H   H1003     1.0  0.61292  0.31131  0.67906  1.0000
  C   C835      1.0  0.65744  0.49812  0.73367  1.0000
  Fe  Fe117     1.0  0.65084  0.47911  0.82609  1.0000
  H   H1004     1.0  0.66841  0.48616  0.74199  1.0000
  S   S232      1.0  0.62292  0.45939  0.83950  1.0000
  C   C836      1.0  0.53035  0.26196  0.74064  1.0000
  S   S233      1.0  0.49779  0.30901  0.96290  1.0000
  C   C837      1.0  0.59050  0.40573  0.80712  1.0000
  C   C838      1.0  0.58067  0.41546  0.82535  1.0000
  C   C839      1.0  0.59057  0.43218  0.83475  1.0000
  C   C840      1.0  0.61025  0.43956  0.82594  1.0000
  C   C841      1.0  0.61981  0.43016  0.80744  1.0000
  C   C842      1.0  0.61005  0.41326  0.79821  1.0000
  H   H1005     1.0  0.56566  0.40987  0.83241  1.0000
  H   H1006     1.0  0.58312  0.43923  0.84913  1.0000
  H   H1007     1.0  0.63500  0.43553  0.80057  1.0000
  H   H1008     1.0  0.61780  0.40583  0.78415  1.0000
  C   C843      1.0  0.45108  0.41914  0.81442  1.0000
  C   C844      1.0  0.44194  0.41064  0.83382  1.0000
  C   C845      1.0  0.42230  0.41967  0.84260  1.0000
  C   C846      1.0  0.41162  0.43719  0.83206  1.0000
  C   C847      1.0  0.42058  0.44543  0.81247  1.0000
  C   C848      1.0  0.44024  0.43647  0.80375  1.0000
  H   H1009     1.0  0.45014  0.39731  0.84219  1.0000
  H   H1010     1.0  0.41542  0.41313  0.85773  1.0000
  H   H1011     1.0  0.41236  0.45868  0.80401  1.0000
  H   H1012     1.0  0.44714  0.44305  0.78864  1.0000
  C   C849      1.0  0.51793  0.31580  0.89013  1.0000
  C   C850      1.0  0.52488  0.29763  0.90254  1.0000
  C   C851      1.0  0.51874  0.29530  0.92471  1.0000
  C   C852      1.0  0.50562  0.31123  0.93485  1.0000
  C   C853      1.0  0.49874  0.32950  0.92248  1.0000
  C   C854      1.0  0.50481  0.33178  0.90022  1.0000
  H   H1013     1.0  0.53509  0.28523  0.89493  1.0000
  H   H1014     1.0  0.64307  0.41607  0.85712  1.0000
  H   H1015     1.0  0.48858  0.34191  0.93013  1.0000
  H   H1016     1.0  0.49935  0.34586  0.89091  1.0000
  C   C855      1.0  0.52596  0.28155  0.75105  1.0000
  C   C856      1.0  0.51159  0.29726  0.74254  1.0000
  C   C857      1.0  0.50169  0.29297  0.72351  1.0000
  H   H1017     1.0  0.44825  0.34533  0.79230  1.0000
  H   H1018     1.0  0.49059  0.30494  0.71667  1.0000
  H   H1019     1.0  0.55388  0.29487  0.71286  1.0000
  C   C858      1.0  0.46188  0.49260  0.84835  1.0000
  H   H1020     1.0  0.45008  0.36184  0.72460  1.0000
  H   H1021     1.0  0.53376  0.28449  0.76561  1.0000
  C   C859      1.0  0.42782  0.37195  0.76340  1.0000
  C   C860      1.0  0.44806  0.33994  0.77551  1.0000
  N   N55       1.0  0.58709  0.35308  0.86494  1.0000
  C   C861      1.0  0.57669  0.35235  0.84421  1.0000
  C   C862      1.0  0.59856  0.33206  0.86931  1.0000
  C   C863      1.0  0.56969  0.35602  0.88217  1.0000
  C   C864      1.0  0.60255  0.37025  0.86345  1.0000
  C   C865      1.0  0.61927  0.37035  0.84687  1.0000
  C   C866      1.0  0.60145  0.38732  0.87796  1.0000
  C   C867      1.0  0.63377  0.38661  0.84479  1.0000
  C   C868      1.0  0.61612  0.40347  0.87574  1.0000
  C   C869      1.0  0.63222  0.40311  0.85920  1.0000
  H   H1022     1.0  0.58801  0.34737  0.83061  1.0000
  H   H1023     1.0  0.56377  0.34077  0.84522  1.0000
  H   H1024     1.0  0.56951  0.36841  0.83945  1.0000
  H   H1025     1.0  0.61076  0.32789  0.85614  1.0000
  H   H1026     1.0  0.58726  0.31883  0.87077  1.0000
  H   H1027     1.0  0.60698  0.33204  0.88459  1.0000
  H   H1028     1.0  0.55996  0.37129  0.87941  1.0000
  H   H1029     1.0  0.55821  0.34297  0.88260  1.0000
  H   H1030     1.0  0.57614  0.35569  0.89848  1.0000
  H   H1031     1.0  0.62092  0.35815  0.83501  1.0000
  H   H1032     1.0  0.58921  0.38881  0.89091  1.0000
  H   H1033     1.0  0.46567  0.38608  0.75144  1.0000
  S   S234      1.0  0.53277  0.27897  0.00678  1.0000
  H   H1034     1.0  0.64590  0.38680  0.83152  1.0000
  H   H1035     1.0  0.48922  0.44783  0.82810  1.0000
  C   C870      1.0  0.59863  0.30219  0.68013  1.0000
  C   C871      1.0  0.44959  0.34899  0.73759  1.0000
  C   C872      1.0  0.54874  0.49801  0.80623  1.0000
  C   C873      1.0  0.42414  0.38240  0.78323  1.0000
  H   H1036     1.0  0.52424  0.28121  0.93397  1.0000
  H   H1037     1.0  0.48188  0.36189  0.75623  1.0000
  C   C874      1.0  0.50101  0.49471  0.84908  1.0000
  C   C875      1.0  0.46665  0.37083  0.76138  1.0000
  H   H1038     1.0  0.54430  0.48237  0.80172  1.0000
  H   H1039     1.0  0.58642  0.31571  0.71008  1.0000
  H   H1040     1.0  0.43565  0.38053  0.79560  1.0000
  H   H1041     1.0  0.42516  0.47082  0.85867  1.0000
  C   C876      1.0  0.50599  0.27333  0.71317  1.0000
  H   H1042     1.0  0.47380  0.34729  0.00480  1.0000
  C   C877      1.0  0.42714  0.48617  0.86650  1.0000
  H   H1043     1.0  0.41318  0.36836  0.73256  1.0000
  Fe  Fe118     1.0  0.50654  0.27902  0.98348  1.0000
  C   C878      1.0  0.40574  0.39571  0.78743  1.0000
  C   C879      1.0  0.50427  0.47463  0.84016  1.0000
  C   C880      1.0  0.39352  0.38903  0.75243  1.0000
  C   C881      1.0  0.46587  0.47227  0.83917  1.0000
  C   C882      1.0  0.39051  0.39911  0.77204  1.0000
  H   H1044     1.0  0.43381  0.33019  0.77473  1.0000
  C   C883      1.0  0.48673  0.46348  0.83512  1.0000
  S   S235      1.0  0.37964  0.50223  0.80402  1.0000
  H   H1045     1.0  0.43508  0.48228  0.88184  1.0000
  H   H1046     1.0  0.41052  0.49275  0.87065  1.0000
  H   H1047     1.0  0.52042  0.46760  0.83722  1.0000
  N   N56       1.0  0.44760  0.35814  0.75935  1.0000
  C   C884      1.0  0.56190  0.27871  0.68326  1.0000
  H   H1048     1.0  0.42799  0.48939  0.82332  1.0000
  H   H1049     1.0  0.37638  0.40965  0.77531  1.0000
  H   H1050     1.0  0.43626  0.33846  0.73520  1.0000
  N   N57       1.0  0.43954  0.50143  0.85238  1.0000
  C   C885      1.0  0.42915  0.50464  0.83158  1.0000
  H   H1051     1.0  0.46852  0.37506  0.77828  1.0000
  H   H1052     1.0  0.40339  0.40361  0.80266  1.0000
  C   C886      1.0  0.41185  0.37559  0.74807  1.0000
  H   H1053     1.0  0.60740  0.28675  0.65100  1.0000
  H   H1054     1.0  0.38159  0.39177  0.74050  1.0000
  H   H1055     1.0  0.46474  0.33877  0.73523  1.0000
  H   H1056     1.0  0.46268  0.32905  0.77290  1.0000
  H   H1057     1.0  0.58062  0.48651  0.81427  1.0000
  H   H1058     1.0  0.61472  0.41673  0.88649  1.0000
  H   H1059     1.0  0.35257  0.45491  0.89566  1.0000
  C   C887      1.0  0.58375  0.30471  0.69763  1.0000
  C   C888      1.0  0.56543  0.29298  0.69918  1.0000
  C   C889      1.0  0.57661  0.27579  0.66515  1.0000
  H   H1060     1.0  0.54752  0.26986  0.68533  1.0000
  C   C890      1.0  0.59522  0.28796  0.66405  1.0000
  C   C891      1.0  0.56923  0.50029  0.81319  1.0000
  Fe  Fe119     1.0  0.34387  0.50553  0.79842  1.0000
  H   H1061     1.0  0.55156  0.28398  0.63218  1.0000
  H   H1062     1.0  0.59050  0.27534  0.62165  1.0000
  S   S236      1.0  0.48232  0.26587  0.00838  1.0000
  H   H1063     1.0  0.34662  0.26686  0.97541  1.0000
  H   H1064     1.0  0.34476  0.45851  0.86862  1.0000
  C   C892      1.0  0.55149  0.26725  0.63907  1.0000
  S   S237      1.0  0.36553  0.50484  0.85577  1.0000
  H   H1065     1.0  0.65148  0.49074  0.71938  1.0000
  H   H1066     1.0  0.49821  0.27038  0.69859  1.0000
  H   H1067     1.0  0.53768  0.26643  0.65121  1.0000
  H   H1068     1.0  0.64329  0.50104  0.74520  1.0000
  H   H1069     1.0  0.34309  0.26453  0.00433  1.0000
  H   H1070     1.0  0.50082  0.31684  0.00997  1.0000
  H   H1071     1.0  0.51477  0.50324  0.85305  1.0000
  N   N58       1.0  0.57225  0.26068  0.64847  1.0000
  Fe  Fe120     1.0  0.48972  0.62684  0.20852  1.0000
  S   S238      1.0  0.52004  0.61789  0.18862  1.0000
  S   S239      1.0  0.46369  0.60391  0.21968  1.0000
  Fe  Fe121     1.0  0.50735  0.66930  0.22264  1.0000
  S   S240      1.0  0.53896  0.66276  0.20413  1.0000
  S   S241      1.0  0.49707  0.70091  0.23896  1.0000
  Fe  Fe122     1.0  0.51921  0.65290  0.17735  1.0000
  S   S242      1.0  0.53222  0.66482  0.14395  1.0000
  Fe  Fe123     1.0  0.53720  0.62850  0.21658  1.0000
  S   S243      1.0  0.56294  0.60772  0.23306  1.0000
  S   S244      1.0  0.48748  0.66111  0.19518  1.0000
  S   S245      1.0  0.50709  0.63585  0.23722  1.0000
  S   S246      1.0  0.63505  0.55038  0.18259  1.0000
  S   S247      1.0  0.40134  0.54670  0.17217  1.0000
  H   H1072     1.0  0.55081  0.51472  0.24968  1.0000
  C   C893      1.0  0.51133  0.72371  0.37251  1.0000
  H   H1073     1.0  0.48711  0.67561  0.13486  1.0000
  Fe  Fe124     1.0  0.50430  0.73376  0.03586  1.0000
  S   S248      1.0  0.48876  0.71406  0.06393  1.0000
  H   H1074     1.0  0.38377  0.51138  0.11576  1.0000
  H   H1075     1.0  0.35898  0.51115  0.13244  1.0000
  C   C894      1.0  0.51616  0.73667  0.14950  1.0000
  H   H1076     1.0  0.38211  0.52243  0.14172  1.0000
  C   C895      1.0  0.50752  0.71449  0.26035  1.0000
  C   C896      1.0  0.49695  0.73375  0.26722  1.0000
  C   C897      1.0  0.50476  0.74529  0.28388  1.0000
  C   C898      1.0  0.52332  0.73768  0.29391  1.0000
  C   C899      1.0  0.53387  0.71842  0.28704  1.0000
  C   C900      1.0  0.52608  0.70691  0.27037  1.0000
  H   H1077     1.0  0.48261  0.73982  0.25957  1.0000
  H   H1078     1.0  0.48221  0.73924  0.40130  1.0000
  C   C901      1.0  0.61844  0.62157  0.23851  1.0000
  H   H1079     1.0  0.53443  0.69216  0.26531  1.0000
  C   C902      1.0  0.58152  0.59066  0.21846  1.0000
  C   C903      1.0  0.58585  0.59390  0.19624  1.0000
  C   C904      1.0  0.60212  0.58120  0.18546  1.0000
  C   C905      1.0  0.61394  0.56501  0.19670  1.0000
  C   C906      1.0  0.60896  0.56117  0.21875  1.0000
  C   C907      1.0  0.59302  0.57415  0.22963  1.0000
  H   H1080     1.0  0.57710  0.60659  0.18749  1.0000
  H   H1081     1.0  0.60576  0.58418  0.16836  1.0000
  H   H1082     1.0  0.61747  0.54841  0.22750  1.0000
  H   H1083     1.0  0.58959  0.57150  0.24680  1.0000
  C   C908      1.0  0.44686  0.58798  0.20587  1.0000
  C   C909      1.0  0.44697  0.58816  0.18333  1.0000
  C   C910      1.0  0.43290  0.57545  0.17324  1.0000
  C   C911      1.0  0.41872  0.56241  0.18556  1.0000
  C   C912      1.0  0.41888  0.56196  0.20806  1.0000
  C   C913      1.0  0.43284  0.57473  0.21812  1.0000
  H   H1084     1.0  0.45766  0.59829  0.17373  1.0000
  H   H1085     1.0  0.43293  0.57589  0.15582  1.0000
  H   H1086     1.0  0.40801  0.55209  0.21775  1.0000
  H   H1087     1.0  0.43261  0.57455  0.23557  1.0000
  C   C914      1.0  0.51965  0.67917  0.12235  1.0000
  C   C915      1.0  0.53264  0.68772  0.10511  1.0000
  C   C916      1.0  0.52349  0.69890  0.08738  1.0000
  C   C917      1.0  0.50117  0.70146  0.08657  1.0000
  C   C918      1.0  0.48817  0.69307  0.10389  1.0000
  C   C919      1.0  0.49733  0.68214  0.12178  1.0000
  H   H1088     1.0  0.54992  0.68551  0.10538  1.0000
  H   H1089     1.0  0.53371  0.70520  0.07418  1.0000
  H   H1090     1.0  0.47088  0.69492  0.10342  1.0000
  C   C920      1.0  0.63565  0.60729  0.24348  1.0000
  C   C921      1.0  0.53948  0.55604  0.21453  1.0000
  C   C922      1.0  0.46449  0.69599  0.36181  1.0000
  H   H1091     1.0  0.65907  0.60371  0.19233  1.0000
  C   C923      1.0  0.53834  0.54271  0.23308  1.0000
  C   C924      1.0  0.49131  0.70743  0.33459  1.0000
  S   S249      1.0  0.53339  0.75068  0.31592  1.0000
  H   H1092     1.0  0.44539  0.67050  0.35279  1.0000
  C   C925      1.0  0.55450  0.55114  0.19773  1.0000
  C   C926      1.0  0.52376  0.74363  0.18734  1.0000
  H   H1093     1.0  0.64729  0.56518  0.25245  1.0000
  H   H1094     1.0  0.52664  0.54671  0.24612  1.0000
  H   H1095     1.0  0.47959  0.71094  0.40030  1.0000
  H   H1096     1.0  0.51576  0.70718  0.37872  1.0000
  N   N59       1.0  0.48792  0.72656  0.36948  1.0000
  S   S250      1.0  0.53680  0.72769  0.01902  1.0000
  H   H1097     1.0  0.58046  0.53083  0.18615  1.0000
  C   C927      1.0  0.35329  0.54051  0.09825  1.0000
  H   H1098     1.0  0.46610  0.75043  0.35553  1.0000
  H   H1099     1.0  0.51657  0.73517  0.38409  1.0000
  H   H1100     1.0  0.60129  0.51670  0.24430  1.0000
  C   C928      1.0  0.56862  0.51965  0.21861  1.0000
  H   H1101     1.0  0.61049  0.51495  0.20328  1.0000
  C   C929      1.0  0.46841  0.67912  0.32726  1.0000
  C   C930      1.0  0.48861  0.65616  0.03682  1.0000
  H   H1102     1.0  0.47368  0.64726  0.03903  1.0000
  H   H1103     1.0  0.67253  0.55194  0.24482  1.0000
  H   H1104     1.0  0.54922  0.70639  0.18132  1.0000
  C   C931      1.0  0.64353  0.75803  0.02439  1.0000
  H   H1105     1.0  0.34921  0.57082  0.12970  1.0000
  H   H1106     1.0  0.42899  0.51245  0.21086  1.0000
  N   N60       1.0  0.52283  0.72750  0.17071  1.0000
  H   H1107     1.0  0.55687  0.72815  0.16308  1.0000
  H   H1108     1.0  0.39554  0.55493  0.12553  1.0000
  S   S251      1.0  0.37745  0.51100  0.22425  1.0000
  H   H1109     1.0  0.65292  0.55720  0.22520  1.0000
  N   N61       1.0  0.36591  0.54200  0.11750  1.0000
  H   H1110     1.0  0.36152  0.55404  0.14968  1.0000
  H   H1111     1.0  0.55549  0.56176  0.18344  1.0000
  Fe  Fe125     1.0  0.65633  0.52310  0.19625  1.0000
  H   H1112     1.0  0.62905  0.62846  0.18457  1.0000
  C   C932      1.0  0.66003  0.56392  0.23920  1.0000
  H   H1113     1.0  0.46347  0.66752  0.31635  1.0000
  H   H1114     1.0  0.48822  0.66713  0.05058  1.0000
  C   C933      1.0  0.64856  0.60861  0.20588  1.0000
  C   C934      1.0  0.35293  0.55376  0.13449  1.0000
  H   H1115     1.0  0.51193  0.70254  0.19329  1.0000
  C   C935      1.0  0.34418  0.55937  0.08801  1.0000
  H   H1116     1.0  0.60611  0.62592  0.25087  1.0000
  H   H1117     1.0  0.44406  0.52506  0.17364  1.0000
  C   C936      1.0  0.62307  0.75019  0.02372  1.0000
  H   H1118     1.0  0.63609  0.60110  0.25997  1.0000
  C   C937      1.0  0.63129  0.62294  0.20112  1.0000
  H   H1119     1.0  0.53631  0.74672  0.24020  1.0000
  H   H1120     1.0  0.53455  0.72063  0.21252  1.0000
  C   C938      1.0  0.48128  0.70981  0.35554  1.0000
  C   C939      1.0  0.45827  0.68086  0.34780  1.0000
  H   H1121     1.0  0.45863  0.53418  0.20634  1.0000
  C   C940      1.0  0.65139  0.60049  0.22735  1.0000
  C   C941      1.0  0.53143  0.75208  0.22428  1.0000
  H   H1122     1.0  0.54477  0.70535  0.15348  1.0000
  C   C942      1.0  0.34980  0.52068  0.08901  1.0000
  C   C943      1.0  0.47663  0.72650  0.39127  1.0000
  C   C944      1.0  0.38544  0.55381  0.11146  1.0000
  Fe  Fe126     1.0  0.38037  0.52180  0.18932  1.0000
  C   C945      1.0  0.54434  0.71644  0.16704  1.0000
  H   H1123     1.0  0.60242  0.63980  0.21352  1.0000
  C   C946      1.0  0.50721  0.71145  0.17831  1.0000
  C   C947      1.0  0.56890  0.53325  0.19960  1.0000
  C   C948      1.0  0.61630  0.62942  0.21739  1.0000
  H   H1124     1.0  0.46974  0.69419  0.02910  1.0000
  H   H1125     1.0  0.50282  0.64480  0.03869  1.0000
  H   H1126     1.0  0.49098  0.71917  0.18203  1.0000
  H   H1127     1.0  0.45584  0.69663  0.37737  1.0000
  C   C949      1.0  0.53044  0.73726  0.20823  1.0000
  H   H1128     1.0  0.52125  0.72669  0.35727  1.0000
  H   H1129     1.0  0.45903  0.72998  0.39031  1.0000
  H   H1130     1.0  0.54816  0.71227  0.29475  1.0000
  H   H1131     1.0  0.50409  0.71740  0.32872  1.0000
  C   C950      1.0  0.48491  0.69239  0.32068  1.0000
  H   H1132     1.0  0.52894  0.57043  0.21333  1.0000
  H   H1133     1.0  0.49271  0.69117  0.30461  1.0000
  H   H1134     1.0  0.67011  0.59234  0.26661  1.0000
  H   H1135     1.0  0.50571  0.69919  0.16610  1.0000
  C   C951      1.0  0.55248  0.52462  0.23505  1.0000
  N   N62       1.0  0.66909  0.58479  0.23295  1.0000
  H   H1136     1.0  0.39549  0.54570  0.09848  1.0000
  H   H1137     1.0  0.61357  0.74681  0.03857  1.0000
  C   C952      1.0  0.37294  0.52078  0.12716  1.0000
  H   H1138     1.0  0.46845  0.51210  0.16257  1.0000
  H   H1139     1.0  0.51577  0.72401  0.13744  1.0000
  H   H1140     1.0  0.51032  0.69003  0.02957  1.0000
  H   H1141     1.0  0.38151  0.57055  0.10558  1.0000
  S   S252      1.0  0.34478  0.52156  0.18558  1.0000
  H   H1142     1.0  0.48425  0.52445  0.19566  1.0000
  H   H1143     1.0  0.47379  0.51489  0.22210  1.0000
  C   C953      1.0  0.48337  0.74792  0.35893  1.0000
  H   H1144     1.0  0.49964  0.74436  0.15083  1.0000
  C   C954      1.0  0.46962  0.51949  0.20529  1.0000
  H   H1145     1.0  0.49290  0.75010  0.34332  1.0000
  H   H1146     1.0  0.52754  0.74850  0.14247  1.0000
  H   H1147     1.0  0.34635  0.57504  0.09392  1.0000
  C   C955      1.0  0.47090  0.68355  0.01509  1.0000
  H   H1148     1.0  0.49634  0.75996  0.28901  1.0000
  C   C956      1.0  0.50963  0.68051  0.01493  1.0000
  H   H1149     1.0  0.45578  0.67494  0.01544  1.0000
  N   N63       1.0  0.48995  0.66827  0.01567  1.0000
  H   H1150     1.0  0.64908  0.76007  0.04023  1.0000
  H   H1151     1.0  0.48799  0.62335  0.01408  1.0000
  H   H1152     1.0  0.52438  0.66965  0.01381  1.0000
  Fe  Fe127     1.0  0.37267  0.52822  0.82795  1.0000
  S   S253      1.0  0.39363  0.55414  0.83882  1.0000
  H   H1153     1.0  0.54588  0.58065  0.80613  1.0000
  Fe  Fe128     1.0  0.51998  0.66892  0.80199  1.0000
  S   S254      1.0  0.48652  0.66526  0.81682  1.0000
  S   S255      1.0  0.53077  0.69658  0.77866  1.0000
  Fe  Fe129     1.0  0.53835  0.63121  0.83079  1.0000
  S   S256      1.0  0.50607  0.62570  0.84761  1.0000
  S   S257      1.0  0.56481  0.60874  0.84413  1.0000
  Fe  Fe130     1.0  0.49352  0.62947  0.81452  1.0000
  S   S258      1.0  0.47479  0.60389  0.79976  1.0000
  Fe  Fe131     1.0  0.50213  0.66167  0.84891  1.0000
  S   S259      1.0  0.48685  0.68026  0.87755  1.0000
  S   S260      1.0  0.52621  0.63336  0.79746  1.0000
  S   S261      1.0  0.53519  0.66698  0.83429  1.0000
  C   C957      1.0  0.52926  0.71126  0.66852  1.0000
  S   S262      1.0  0.63733  0.55317  0.79192  1.0000
  C   C958      1.0  0.62589  0.75277  0.98484  1.0000
  H   H1154     1.0  0.49503  0.65913  0.94129  1.0000
  H   H1155     1.0  0.67377  0.52933  0.87975  1.0000
  C   C959      1.0  0.48654  0.74089  0.85780  1.0000
  Fe  Fe132     1.0  0.51989  0.73332  0.98789  1.0000
  S   S263      1.0  0.53068  0.71053  0.96088  1.0000
  C   C960      1.0  0.58445  0.59320  0.82908  1.0000
  C   C961      1.0  0.58830  0.59664  0.80682  1.0000
  C   C962      1.0  0.60437  0.58406  0.79558  1.0000
  C   C963      1.0  0.61648  0.56777  0.80642  1.0000
  C   C964      1.0  0.61225  0.56400  0.82859  1.0000
  C   C965      1.0  0.59649  0.57684  0.83990  1.0000
  H   H1156     1.0  0.57919  0.60927  0.79835  1.0000
  H   H1157     1.0  0.60758  0.58713  0.77844  1.0000
  H   H1158     1.0  0.62156  0.55163  0.83716  1.0000
  H   H1159     1.0  0.59363  0.57410  0.85713  1.0000
  C   C966      1.0  0.49958  0.68910  0.90022  1.0000
  C   C967      1.0  0.52093  0.68302  0.90412  1.0000
  C   C968      1.0  0.53016  0.68994  0.92261  1.0000
  C   C969      1.0  0.51834  0.70323  0.93732  1.0000
  C   C970      1.0  0.49705  0.70954  0.93327  1.0000
  C   C971      1.0  0.48773  0.70241  0.91491  1.0000
  H   H1160     1.0  0.53027  0.67275  0.89306  1.0000
  H   H1161     1.0  0.54661  0.68486  0.92558  1.0000
  H   H1162     1.0  0.48768  0.71968  0.94443  1.0000
  H   H1163     1.0  0.47116  0.70715  0.91215  1.0000
  C   C972      1.0  0.41637  0.56745  0.82754  1.0000
  C   C973      1.0  0.42580  0.56327  0.80704  1.0000
  C   C974      1.0  0.44372  0.57450  0.79886  1.0000
  C   C975      1.0  0.45240  0.59001  0.81103  1.0000
  C   C976      1.0  0.44327  0.59381  0.83172  1.0000
  C   C977      1.0  0.42537  0.58260  0.83989  1.0000
  H   H1164     1.0  0.41904  0.55173  0.79732  1.0000
  H   H1165     1.0  0.45063  0.57146  0.78281  1.0000
  H   H1166     1.0  0.44976  0.60565  0.84130  1.0000
  H   H1167     1.0  0.41820  0.58597  0.85577  1.0000
  C   C978      1.0  0.50343  0.73811  0.72175  1.0000
  C   C979      1.0  0.51535  0.73114  0.63636  1.0000
  C   C980      1.0  0.53121  0.72925  0.74714  1.0000
  C   C981      1.0  0.51979  0.71208  0.75662  1.0000
  C   C982      1.0  0.50009  0.70802  0.74849  1.0000
  C   C983      1.0  0.49206  0.72088  0.73115  1.0000
  H   H1168     1.0  0.67613  0.74806  0.55471  1.0000
  H   H1169     1.0  0.54643  0.73262  0.75330  1.0000
  H   H1170     1.0  0.49107  0.69492  0.75551  1.0000
  H   H1171     1.0  0.47684  0.71748  0.72503  1.0000
  H   H1172     1.0  0.45446  0.73037  0.83347  1.0000
  N   N64       1.0  0.52386  0.55508  0.80872  1.0000
  C   C984      1.0  0.64760  0.58959  0.87536  1.0000
  N   N65       1.0  0.48842  0.73335  0.83536  1.0000
  C   C985      1.0  0.49394  0.72727  0.64407  1.0000
  H   H1173     1.0  0.66329  0.58534  0.91692  1.0000
  H   H1174     1.0  0.54380  0.70662  0.67751  1.0000
  S   S264      1.0  0.65244  0.51122  0.84127  1.0000
  H   H1175     1.0  0.44530  0.52116  0.87889  1.0000
  C   C986      1.0  0.49068  0.65459  0.99675  1.0000
  C   C987      1.0  0.66495  0.53735  0.89350  1.0000
  C   C988      1.0  0.67216  0.56631  0.85414  1.0000
  C   C989      1.0  0.67522  0.52695  0.74758  1.0000
  H   H1176     1.0  0.49191  0.72969  0.79138  1.0000
  H   H1177     1.0  0.51079  0.54530  0.77944  1.0000
  H   H1178     1.0  0.46030  0.73045  0.63797  1.0000
  H   H1179     1.0  0.56549  0.70937  0.64619  1.0000
  H   H1180     1.0  0.37132  0.73274  0.52335  1.0000
  H   H1181     1.0  0.50969  0.71076  0.81781  1.0000
  C   C990      1.0  0.56071  0.53826  0.81723  1.0000
  H   H1182     1.0  0.50290  0.75606  0.58788  1.0000
  H   H1183     1.0  0.55915  0.72636  0.62367  1.0000
  C   C991      1.0  0.50842  0.71944  0.83309  1.0000
  H   H1184     1.0  0.67237  0.57213  0.81963  1.0000
  C   C992      1.0  0.65970  0.56834  0.91487  1.0000
  H   H1185     1.0  0.39110  0.71439  0.53471  1.0000
  C   C993      1.0  0.52312  0.74219  0.72987  1.0000
  H   H1186     1.0  0.52293  0.72891  0.83329  1.0000
  C   C994      1.0  0.38615  0.72931  0.57505  1.0000
  H   H1187     1.0  0.50726  0.54694  0.83904  1.0000
  H   H1188     1.0  0.44546  0.53516  0.85256  1.0000
  H   H1189     1.0  0.49369  0.68108  0.97278  1.0000
  C   C995      1.0  0.48902  0.75090  0.81855  1.0000
  H   H1190     1.0  0.39387  0.74287  0.53495  1.0000
  H   H1191     1.0  0.66143  0.52993  0.75947  1.0000
  H   H1192     1.0  0.50933  0.70692  0.84636  1.0000
  C   C996      1.0  0.55197  0.71528  0.63624  1.0000
  H   H1193     1.0  0.48603  0.72718  0.86993  1.0000
  H   H1194     1.0  0.49538  0.53721  0.81586  1.0000
  C   C997      1.0  0.50046  0.74748  0.60333  1.0000
  H   H1195     1.0  0.65827  0.54991  0.71516  1.0000
  H   H1196     1.0  0.64751  0.53592  0.89151  1.0000
  H   H1197     1.0  0.48935  0.60234  0.98204  1.0000
  H   H1198     1.0  0.42090  0.52824  0.86620  1.0000
  C   C998      1.0  0.53959  0.53648  0.81045  1.0000
  H   H1199     1.0  0.51778  0.71904  0.68060  1.0000
  Fe  Fe133     1.0  0.65545  0.52435  0.80711  1.0000
  C   C999      1.0  0.64136  0.60042  0.85635  1.0000
  H   H1200     1.0  0.47129  0.69428  0.00034  1.0000
  H   H1201     1.0  0.49206  0.56480  0.82159  1.0000
  N   N66       1.0  0.53411  0.72586  0.64949  1.0000
  H   H1202     1.0  0.43805  0.51580  0.82030  1.0000
  C   C1000     1.0  0.61425  0.74766  0.00402  1.0000
  H   H1203     1.0  0.62896  0.61332  0.85699  1.0000
  C   C1001     1.0  0.35785  0.75153  0.56006  1.0000
  H   H1204     1.0  0.53601  0.57370  0.83340  1.0000
  H   H1205     1.0  0.53352  0.74669  0.60935  1.0000
  C   C1002     1.0  0.43795  0.52236  0.86300  1.0000
  N   N67       1.0  0.66830  0.51821  0.72751  1.0000
  H   H1206     1.0  0.53212  0.75532  0.72290  1.0000
  H   H1207     1.0  0.49013  0.72043  0.66003  1.0000
  C   C1003     1.0  0.51865  0.55896  0.78585  1.0000
  H   H1208     1.0  0.51851  0.51325  0.79910  1.0000
  C   C1004     1.0  0.49074  0.74610  0.79636  1.0000
  C   C1005     1.0  0.38209  0.73009  0.53693  1.0000
  H   H1209     1.0  0.64718  0.52814  0.70245  1.0000
  C   C1006     1.0  0.53170  0.57530  0.81624  1.0000
  H   H1210     1.0  0.52244  0.69628  0.66366  1.0000
  C   C1007     1.0  0.50383  0.55068  0.82187  1.0000
  H   H1211     1.0  0.51925  0.58876  0.81531  1.0000
  H   H1212     1.0  0.49288  0.61982  0.94552  1.0000
  C   C1008     1.0  0.66580  0.57724  0.83527  1.0000
  H   H1213     1.0  0.34741  0.75205  0.57524  1.0000
  H   H1214     1.0  0.47090  0.71231  0.81694  1.0000
  H   H1215     1.0  0.61877  0.75111  0.96956  1.0000
  C   C1009     1.0  0.49262  0.66397  0.97552  1.0000
  S   S265      1.0  0.49242  0.75352  0.69969  1.0000
  H   H1216     1.0  0.64198  0.56706  0.91541  1.0000
  H   H1217     1.0  0.51064  0.69212  0.00088  1.0000
  C   C1010     1.0  0.47650  0.73310  0.63154  1.0000
  H   H1218     1.0  0.54635  0.70134  0.62804  1.0000
  H   H1219     1.0  0.36793  0.69547  0.58852  1.0000
  H   H1220     1.0  0.47874  0.51928  0.86006  1.0000
  H   H1221     1.0  0.66550  0.55902  0.92931  1.0000
  S   S266      1.0  0.48707  0.73710  0.00477  1.0000
  C   C1011     1.0  0.46975  0.72032  0.83262  1.0000
  H   H1222     1.0  0.64523  0.60240  0.82166  1.0000
  H   H1223     1.0  0.53341  0.56183  0.77537  1.0000
  C   C1012     1.0  0.65052  0.59433  0.83638  1.0000
  C   C1013     1.0  0.49024  0.61960  0.98030  1.0000
  H   H1224     1.0  0.50739  0.57332  0.78377  1.0000
  C   C1014     1.0  0.49222  0.62937  0.95971  1.0000
  N   N68       1.0  0.67019  0.56010  0.89452  1.0000
  C   C1015     1.0  0.66332  0.57217  0.87481  1.0000
  C   C1016     1.0  0.65213  0.53365  0.71810  1.0000
  H   H1225     1.0  0.39658  0.71430  0.57415  1.0000
  C   C1017     1.0  0.49340  0.65151  0.95733  1.0000
  H   H1226     1.0  0.46838  0.70725  0.84533  1.0000
  C   C1018     1.0  0.47975  0.74309  0.61119  1.0000
  C   C1019     1.0  0.48947  0.63193  0.99864  1.0000
  C   C1020     1.0  0.51800  0.74178  0.61573  1.0000
  H   H1227     1.0  0.59808  0.74226  0.00370  1.0000
  H   H1228     1.0  0.63965  0.59507  0.89019  1.0000
  H   H1229     1.0  0.66938  0.52776  0.90828  1.0000
  H   H1230     1.0  0.56652  0.55331  0.82145  1.0000
  H   H1231     1.0  0.39712  0.74283  0.57295  1.0000
  N   N69       1.0  0.37009  0.73057  0.55829  1.0000
  C   C1021     1.0  0.53411  0.51579  0.80483  1.0000
  H   H1232     1.0  0.52865  0.75410  0.66781  1.0000
  C   C1022     1.0  0.54153  0.74595  0.65746  1.0000
  C   C1023     1.0  0.35502  0.71307  0.56029  1.0000
  H   H1233     1.0  0.63746  0.53573  0.72914  1.0000
  C   C1024     1.0  0.35603  0.69638  0.57660  1.0000
  H   H1234     1.0  0.37824  0.73041  0.59156  1.0000
  H   H1235     1.0  0.34727  0.75506  0.54646  1.0000
  H   H1236     1.0  0.55574  0.74294  0.66734  1.0000
  H   H1237     1.0  0.46614  0.74808  0.60180  1.0000
  H   H1238     1.0  0.47147  0.75093  0.86095  1.0000
  H   H1239     1.0  0.50059  0.74999  0.86136  1.0000
  H   H1240     1.0  0.54600  0.75752  0.64400  1.0000
  C   C1025     1.0  0.57522  0.52039  0.81856  1.0000
  H   H1241     1.0  0.59132  0.52217  0.82364  1.0000
  H   H1242     1.0  0.49240  0.75815  0.76330  1.0000
  H   H1243     1.0  0.41246  0.51169  0.83396  1.0000
  Fe  Fe134     1.0  0.63911  0.81392  0.48975  1.0000
  H   H1244     1.0  0.42617  0.79392  0.46511  1.0000
  S   S267      1.0  0.60852  0.80738  0.47348  1.0000
  H   H1245     1.0  0.58978  0.84945  0.03367  1.0000
  Fe  Fe135     1.0  0.52544  0.78159  0.33424  1.0000
  S   S268      1.0  0.49372  0.79973  0.34130  1.0000
  Fe  Fe136     1.0  0.54895  0.80953  0.36426  1.0000
  S   S269      1.0  0.51909  0.82983  0.37316  1.0000
  S   S270      1.0  0.58220  0.81491  0.37556  1.0000
  Fe  Fe137     1.0  0.50225  0.79883  0.37604  1.0000
  S   S271      1.0  0.48272  0.78840  0.40667  1.0000
  Fe  Fe138     1.0  0.51280  0.82958  0.33785  1.0000
  S   S272      1.0  0.49751  0.85810  0.31903  1.0000
  S   S273      1.0  0.54390  0.81147  0.32848  1.0000
  C   C1026     1.0  0.62630  0.87772  0.39827  1.0000
  H   H1246     1.0  0.62267  0.84885  0.45887  1.0000
  C   C1027     1.0  0.65436  0.96374  0.49557  1.0000
  Fe  Fe139     1.0  0.37409  0.80604  0.47999  1.0000
  S   S274      1.0  0.38672  0.80923  0.44474  1.0000
  H   H1247     1.0  0.54034  0.88566  0.27459  1.0000
  Fe  Fe140     1.0  0.52167  0.97681  0.27685  1.0000
  S   S275      1.0  0.51597  0.97310  0.24194  1.0000
  S   S276      1.0  0.53552  0.94983  0.29873  1.0000
  H   H1248     1.0  0.60676  0.86994  0.25796  1.0000
  H   H1249     1.0  0.60509  0.93041  0.21211  1.0000
  H   H1250     1.0  0.58215  0.86584  0.37267  1.0000
  H   H1251     1.0  0.38811  0.83959  0.08906  1.0000
  C   C1028     1.0  0.62588  0.86618  0.45896  1.0000
  S   S277      1.0  0.49089  0.99627  0.28287  1.0000
  H   H1252     1.0  0.57198  0.86015  0.27581  1.0000
  H   H1253     1.0  0.37497  0.81686  0.10222  1.0000
  H   H1254     1.0  0.54600  0.93883  0.22351  1.0000
  C   C1029     1.0  0.39787  0.99383  0.20798  1.0000
  H   H1255     1.0  0.34355  0.90205  0.05830  1.0000
  H   H1256     1.0  0.44367  0.77613  0.02721  1.0000
  H   H1257     1.0  0.54293  0.92073  0.25631  1.0000
  H   H1258     1.0  0.56647  0.92760  0.20514  1.0000
  S   S278      1.0  0.50793  0.76918  0.03748  1.0000
  C   C1030     1.0  0.60488  0.80134  0.03005  1.0000
  H   H1259     1.0  0.55628  0.83211  0.03327  1.0000
  S   S279      1.0  0.34676  0.95119  0.11761  1.0000
  H   H1260     1.0  0.39140  0.94852  0.17130  1.0000
  H   H1261     1.0  0.45735  0.94732  0.19524  1.0000
  H   H1262     1.0  0.36091  0.84724  0.05333  1.0000
  C   C1031     1.0  0.46315  0.97703  0.17790  1.0000
  S   S280      1.0  0.34730  0.00993  0.13174  1.0000
  S   S281      1.0  0.37157  0.81216  0.02828  1.0000
  S   S282      1.0  0.56891  0.77796  0.03099  1.0000
  S   S283      1.0  0.34480  0.87142  0.01479  1.0000
  H   H1263     1.0  0.63742  0.86777  0.47164  1.0000
  C   C1032     1.0  0.65812  0.00931  0.50571  1.0000
  H   H1264     1.0  0.36568  0.86872  0.07026  1.0000
  H   H1265     1.0  0.39693  0.94209  0.12235  1.0000
  H   H1266     1.0  0.58808  0.00516  0.24119  1.0000
  H   H1267     1.0  0.60010  0.95823  0.21637  1.0000
  C   C1033     1.0  0.43418  0.95465  0.17120  1.0000
  H   H1268     1.0  0.41300  0.98551  0.11520  1.0000
  C   C1034     1.0  0.45614  0.99187  0.16211  1.0000
  C   C1035     1.0  0.59827  0.00025  0.18720  1.0000
  H   H1269     1.0  0.41425  0.93110  0.14232  1.0000
  C   C1036     1.0  0.45589  0.79438  0.41677  1.0000
  C   C1037     1.0  0.43946  0.80096  0.40325  1.0000
  C   C1038     1.0  0.41837  0.80532  0.41205  1.0000
  C   C1039     1.0  0.41340  0.80290  0.43442  1.0000
  C   C1040     1.0  0.42975  0.79593  0.44790  1.0000
  C   C1041     1.0  0.45084  0.79165  0.43909  1.0000
  H   H1270     1.0  0.44287  0.80225  0.38601  1.0000
  H   H1271     1.0  0.40579  0.81053  0.40148  1.0000
  C   C1042     1.0  0.50847  0.88344  0.31358  1.0000
  C   C1043     1.0  0.49747  0.89878  0.30046  1.0000
  C   C1044     1.0  0.50551  0.91917  0.29576  1.0000
  C   C1045     1.0  0.52461  0.92447  0.30428  1.0000
  C   C1046     1.0  0.53560  0.90914  0.31744  1.0000
  C   C1047     1.0  0.52760  0.88870  0.32206  1.0000
  H   H1272     1.0  0.48266  0.89486  0.29381  1.0000
  H   H1273     1.0  0.49691  0.93081  0.28561  1.0000
  H   H1274     1.0  0.55043  0.91308  0.32403  1.0000
  H   H1275     1.0  0.53626  0.87705  0.33214  1.0000
  C   C1048     1.0  0.60192  0.80864  0.44601  1.0000
  C   C1049     1.0  0.58042  0.80671  0.44126  1.0000
  C   C1050     1.0  0.57423  0.80807  0.41978  1.0000
  C   C1051     1.0  0.58952  0.81145  0.40274  1.0000
  C   C1052     1.0  0.61109  0.81320  0.40746  1.0000
  C   C1053     1.0  0.61730  0.81170  0.42897  1.0000
  H   H1276     1.0  0.56842  0.80420  0.45431  1.0000
  H   H1277     1.0  0.55760  0.80671  0.41642  1.0000
  H   H1278     1.0  0.62302  0.81581  0.39438  1.0000
  H   H1279     1.0  0.63394  0.81267  0.43235  1.0000
  H   H1280     1.0  0.61043  0.90456  0.23926  1.0000
  S   S284      1.0  0.53275  0.77859  0.36940  1.0000
  C   C1054     1.0  0.67004  0.93727  0.04040  1.0000
  N   N70       1.0  0.63455  0.87415  0.43747  1.0000
  C   C1055     1.0  0.63883  0.89707  0.43919  1.0000
  H   H1281     1.0  0.52620  0.78497  0.23274  1.0000
  H   H1282     1.0  0.47675  0.98018  0.18709  1.0000
  C   C1056     1.0  0.61982  0.87199  0.42000  1.0000
  H   H1283     1.0  0.66592  0.92245  0.03269  1.0000
  C   C1057     1.0  0.59874  0.86466  0.42387  1.0000
  Fe  Fe141     1.0  0.34532  0.83537  0.01522  1.0000
  H   H1284     1.0  0.37660  0.84589  0.12435  1.0000
  C   C1058     1.0  0.52568  0.77363  0.22010  1.0000
  C   C1059     1.0  0.57933  0.85334  0.02057  1.0000
  H   H1285     1.0  0.46336  0.78628  0.44968  1.0000
  H   H1286     1.0  0.37867  0.81926  0.07350  1.0000
  C   C1060     1.0  0.52130  0.82139  0.01941  1.0000
  N   N71       1.0  0.67494  0.99240  0.51087  1.0000
  C   C1061     1.0  0.51812  0.76579  0.18354  1.0000
  H   H1287     1.0  0.41114  0.97177  0.23205  1.0000
  H   H1288     1.0  0.51982  0.82917  0.03523  1.0000
  Fe  Fe142     1.0  0.53952  0.76348  0.01841  1.0000
  H   H1289     1.0  0.61084  0.87530  0.46436  1.0000
  H   H1290     1.0  0.67387  0.78592  0.03661  1.0000
  H   H1291     1.0  0.63803  0.93790  0.48310  1.0000
  H   H1292     1.0  0.63302  0.81995  0.03017  1.0000
  H   H1293     1.0  0.67356  0.93228  0.05725  1.0000
  C   C1062     1.0  0.43355  0.99569  0.22193  1.0000
  Fe  Fe143     1.0  0.48623  0.99477  0.24737  1.0000
  H   H1294     1.0  0.66695  0.91490  0.10099  1.0000
  H   H1295     1.0  0.64198  0.88361  0.39408  1.0000
  C   C1063     1.0  0.39887  0.80898  0.01847  1.0000
  S   S285      1.0  0.45320  0.98456  0.23932  1.0000
  C   C1064     1.0  0.43793  0.98839  0.15099  1.0000
  H   H1296     1.0  0.50670  0.86280  0.01582  1.0000
  H   H1297     1.0  0.53403  0.80818  0.01998  1.0000
  C   C1065     1.0  0.45216  0.95849  0.18248  1.0000
  H   H1298     1.0  0.65203  0.00784  0.48947  1.0000
  H   H1299     1.0  0.38501  0.97682  0.16910  1.0000
  H   H1300     1.0  0.42623  0.94003  0.17539  1.0000
  H   H1301     1.0  0.46448  0.00651  0.15899  1.0000
  H   H1302     1.0  0.66415  0.86817  0.41792  1.0000
  Fe  Fe144     1.0  0.66853  0.84920  0.50022  1.0000
  H   H1303     1.0  0.62991  0.99556  0.17123  1.0000
  H   H1304     1.0  0.58339  0.95342  0.26398  1.0000
  H   H1305     1.0  0.42514  0.94689  0.11980  1.0000
  H   H1306     1.0  0.50587  0.81371  0.01786  1.0000
  C   C1066     1.0  0.41395  0.98577  0.22160  1.0000
  Fe  Fe145     1.0  0.53363  0.00342  0.23613  1.0000
  H   H1307     1.0  0.66630  0.86253  0.44599  1.0000
  C   C1067     1.0  0.35537  0.86776  0.14127  1.0000
  N   N72       1.0  0.40702  0.96527  0.14381  1.0000
  C   C1068     1.0  0.41108  0.94547  0.13157  1.0000
  C   C1069     1.0  0.58527  0.86297  0.40694  1.0000
  C   C1070     1.0  0.42635  0.96958  0.15523  1.0000
  S   S286      1.0  0.55768  0.00429  0.20695  1.0000
  H   H1308     1.0  0.36608  0.86875  0.15422  1.0000
  H   H1309     1.0  0.64696  0.90381  0.42419  1.0000
  H   H1310     1.0  0.51277  0.77216  0.16823  1.0000
  C   C1071     1.0  0.43384  0.78919  0.02030  1.0000
  H   H1311     1.0  0.62362  0.90687  0.44241  1.0000
  H   H1312     1.0  0.38564  0.97912  0.12021  1.0000
  H   H1313     1.0  0.65261  0.84472  0.43034  1.0000
  H   H1314     1.0  0.56958  0.85651  0.41008  1.0000
  H   H1315     1.0  0.37387  0.95894  0.15150  1.0000
  C   C1072     1.0  0.58619  0.00264  0.20691  1.0000
  C   C1073     1.0  0.65524  0.86190  0.43264  1.0000
  H   H1316     1.0  0.64953  0.89938  0.45251  1.0000
  C   C1074     1.0  0.64626  0.94332  0.49652  1.0000
  N   N73       1.0  0.45738  0.86431  0.37580  1.0000
  C   C1075     1.0  0.46147  0.84227  0.36813  1.0000
  C   C1076     1.0  0.44786  0.87766  0.35802  1.0000
  C   C1077     1.0  0.47820  0.87327  0.37978  1.0000
  C   C1078     1.0  0.44347  0.86340  0.39598  1.0000
  C   C1079     1.0  0.42185  0.87196  0.39726  1.0000
  C   C1080     1.0  0.45102  0.85239  0.41479  1.0000
  C   C1081     1.0  0.40869  0.86935  0.41616  1.0000
  C   C1082     1.0  0.43779  0.85011  0.43364  1.0000
  C   C1083     1.0  0.41660  0.85836  0.43425  1.0000
  H   H1317     1.0  0.44617  0.83496  0.36515  1.0000
  H   H1318     1.0  0.47152  0.84207  0.35276  1.0000
  H   H1319     1.0  0.46998  0.83151  0.37996  1.0000
  H   H1320     1.0  0.43307  0.87088  0.35273  1.0000
  H   H1321     1.0  0.45912  0.87843  0.34334  1.0000
  H   H1322     1.0  0.44412  0.89446  0.36282  1.0000
  H   H1323     1.0  0.48762  0.86310  0.39130  1.0000
  H   H1324     1.0  0.48874  0.87463  0.36465  1.0000
  H   H1325     1.0  0.47571  0.88955  0.38637  1.0000
  H   H1326     1.0  0.41455  0.88030  0.38377  1.0000
  H   H1327     1.0  0.46693  0.84458  0.41483  1.0000
  H   H1328     1.0  0.39204  0.87538  0.41668  1.0000
  H   H1329     1.0  0.44369  0.84098  0.44752  1.0000
  H   H1330     1.0  0.40610  0.85562  0.44857  1.0000
  N   N74       1.0  0.57821  0.93780  0.23464  1.0000
  C   C1084     1.0  0.57244  0.95455  0.25046  1.0000
  C   C1085     1.0  0.59986  0.94206  0.22466  1.0000
  C   C1086     1.0  0.56291  0.94012  0.21723  1.0000
  C   C1087     1.0  0.57689  0.91634  0.24561  1.0000
  C   C1088     1.0  0.55719  0.91003  0.25598  1.0000
  C   C1089     1.0  0.59478  0.90124  0.24655  1.0000
  H   H1331     1.0  0.59009  0.00029  0.17234  1.0000
  H   H1332     1.0  0.36177  0.92520  0.08211  1.0000
  C   C1090     1.0  0.62072  0.81452  0.02053  1.0000
  H   H1333     1.0  0.55593  0.95337  0.25777  1.0000
  C   C1091     1.0  0.37479  0.82865  0.08826  1.0000
  H   H1334     1.0  0.57285  0.97091  0.24281  1.0000
  H   H1335     1.0  0.60526  0.79655  0.04698  1.0000
  H   H1336     1.0  0.38276  0.98620  0.20821  1.0000
  H   H1337     1.0  0.56359  0.95611  0.20853  1.0000
  H   H1338     1.0  0.61826  0.87946  0.36490  1.0000
  H   H1339     1.0  0.65546  0.94836  0.04123  1.0000
  C   C1092     1.0  0.38862  0.96221  0.15966  1.0000
  C   C1093     1.0  0.58854  0.79434  0.01790  1.0000
  S   S287      1.0  0.37462  0.77560  0.50084  1.0000
  C   C1094     1.0  0.35481  0.85561  0.06807  1.0000
  N   N75       1.0  0.35366  0.84075  0.08731  1.0000
  C   C1095     1.0  0.57335  0.87560  0.26732  1.0000
  C   C1096     1.0  0.34753  0.85328  0.10663  1.0000
  H   H1340     1.0  0.61210  0.94177  0.23697  1.0000
  H   H1341     1.0  0.40518  0.78125  0.03951  1.0000
  C   C1097     1.0  0.41199  0.79215  0.02728  1.0000
  C   C1098     1.0  0.55552  0.88996  0.26660  1.0000
  C   C1099     1.0  0.59292  0.88119  0.25729  1.0000
  S   S288      1.0  0.54098  0.00615  0.27085  1.0000
  S   S289      1.0  0.65989  0.99172  0.20591  1.0000
  H   H1342     1.0  0.59244  0.85937  0.43968  1.0000
  H   H1343     1.0  0.51455  0.79728  0.19665  1.0000
  C   C1100     1.0  0.55986  0.84347  0.02011  1.0000
  C   C1101     1.0  0.40037  0.98284  0.12830  1.0000
  S   S290      1.0  0.38524  0.82650  0.50556  1.0000
  H   H1344     1.0  0.39641  0.99814  0.13663  1.0000
  C   C1102     1.0  0.51908  0.78048  0.19977  1.0000
  S   S291      1.0  0.67183  0.82292  0.47630  1.0000
  C   C1103     1.0  0.61279  0.87564  0.38145  1.0000
  H   H1345     1.0  0.43303  0.00090  0.13950  1.0000
  C   C1104     1.0  0.63166  0.99699  0.20561  1.0000
  C   C1105     1.0  0.34459  0.92387  0.08426  1.0000
  C   C1106     1.0  0.62088  0.99758  0.18651  1.0000
  C   C1107     1.0  0.36122  0.85463  0.12394  1.0000
  H   H1346     1.0  0.65209  0.97360  0.48108  1.0000
  C   C1108     1.0  0.59705  0.00279  0.22595  1.0000
  H   H1347     1.0  0.62778  0.99935  0.24018  1.0000
  C   C1109     1.0  0.59235  0.86819  0.38578  1.0000
  C   C1110     1.0  0.61961  0.99965  0.22531  1.0000
  S   S292      1.0  0.67603  0.88291  0.48694  1.0000
  H   H1348     1.0  0.48732  0.76100  0.36931  1.0000
  C   C1111     1.0  0.66583  0.97099  0.51264  1.0000
  S   S293      1.0  0.63496  0.84144  0.51214  1.0000
  Fe  Fe146     1.0  0.65012  0.81863  0.53642  1.0000
  S   S294      1.0  0.64074  0.81622  0.57255  1.0000
  Fe  Fe147     1.0  0.50028  0.78449  0.67997  1.0000
  S   S295      1.0  0.47971  0.81517  0.68348  1.0000
  S   S296      1.0  0.34917  0.80393  0.53829  1.0000
  Fe  Fe148     1.0  0.52551  0.80335  0.63964  1.0000
  S   S297      1.0  0.50691  0.83532  0.64079  1.0000
  S   S298      1.0  0.54707  0.79313  0.61044  1.0000
  Fe  Fe149     1.0  0.51043  0.83208  0.67675  1.0000
  S   S299      1.0  0.52104  0.85669  0.69957  1.0000
  Fe  Fe150     1.0  0.47762  0.81598  0.64721  1.0000
  S   S300      1.0  0.44602  0.82477  0.63120  1.0000
  S   S301      1.0  0.53132  0.80117  0.67514  1.0000
  S   S302      1.0  0.49588  0.78444  0.64422  1.0000
  Fe  Fe151     1.0  0.38353  0.79669  0.52722  1.0000
  S   S303      1.0  0.41042  0.78375  0.54863  1.0000
  C   C1112     1.0  0.46105  0.87462  0.71876  1.0000
  H   H1349     1.0  0.35712  0.86477  0.56760  1.0000
  Fe  Fe152     1.0  0.66963  0.84939  0.00032  1.0000
  H   H1350     1.0  0.63496  0.97236  0.85664  1.0000
  C   C1113     1.0  0.49008  0.78373  0.78544  1.0000
  Fe  Fe153     1.0  0.51113  0.97997  0.73447  1.0000
  S   S304      1.0  0.51448  0.96796  0.76875  1.0000
  S   S305      1.0  0.50842  0.95853  0.70590  1.0000
  H   H1351     1.0  0.66947  0.77605  0.55536  1.0000
  C   C1114     1.0  0.43333  0.98492  0.80085  1.0000
  C   C1115     1.0  0.49115  0.76229  0.78012  1.0000
  C   C1116     1.0  0.61966  0.00325  0.81851  1.0000
  C   C1117     1.0  0.40189  0.99545  0.78091  1.0000
  C   C1118     1.0  0.58828  0.80059  0.99600  1.0000
  H   H1352     1.0  0.57563  0.94289  0.79646  1.0000
  C   C1119     1.0  0.44064  0.84085  0.54996  1.0000
  H   H1353     1.0  0.54071  0.81352  0.98004  1.0000
  C   C1120     1.0  0.62818  0.94343  0.82781  1.0000
  N   N76       1.0  0.52583  0.83702  0.00123  1.0000
  H   H1354     1.0  0.41961  0.88143  0.59263  1.0000
  H   H1355     1.0  0.41061  0.84542  0.53590  1.0000
  H   H1356     1.0  0.39820  0.89489  0.53356  1.0000
  C   C1121     1.0  0.37413  0.85838  0.56766  1.0000
  H   H1357     1.0  0.54369  0.86657  0.97246  1.0000
  C   C1122     1.0  0.63211  0.00895  0.79990  1.0000
  H   H1358     1.0  0.43469  0.99740  0.76796  1.0000
  H   H1359     1.0  0.60157  0.87412  0.00375  1.0000
  H   H1360     1.0  0.45034  0.77694  0.56939  1.0000
  H   H1361     1.0  0.60826  0.95742  0.77846  1.0000
  C   C1123     1.0  0.60928  0.93459  0.83743  1.0000
  C   C1124     1.0  0.45326  0.84584  0.56654  1.0000
  H   H1362     1.0  0.48673  0.77820  0.83984  1.0000
  H   H1363     1.0  0.38687  0.97798  0.83195  1.0000
  H   H1364     1.0  0.45490  0.86370  0.59501  1.0000
  H   H1365     1.0  0.49057  0.79619  0.77273  1.0000
  H   H1366     1.0  0.46228  0.86112  0.70828  1.0000
  H   H1367     1.0  0.67040  0.92215  0.85550  1.0000
  S   S306      1.0  0.63902  0.83884  0.98630  1.0000
  C   C1125     1.0  0.41991  0.79504  0.57187  1.0000
  C   C1126     1.0  0.44048  0.78851  0.57858  1.0000
  C   C1127     1.0  0.44862  0.79717  0.59684  1.0000
  C   C1128     1.0  0.43618  0.81240  0.60874  1.0000
  C   C1129     1.0  0.41543  0.81856  0.60226  1.0000
  C   C1130     1.0  0.40732  0.80990  0.58401  1.0000
  C   C1131     1.0  0.38402  0.89329  0.57641  1.0000
  H   H1368     1.0  0.46463  0.79232  0.60155  1.0000
  H   H1369     1.0  0.40562  0.83019  0.61141  1.0000
  H   H1370     1.0  0.39129  0.81454  0.57939  1.0000
  C   C1132     1.0  0.51596  0.88488  0.70150  1.0000
  C   C1133     1.0  0.50737  0.89775  0.68477  1.0000
  C   C1134     1.0  0.50513  0.92023  0.68644  1.0000
  C   C1135     1.0  0.51112  0.93009  0.70494  1.0000
  C   C1136     1.0  0.51938  0.91719  0.72179  1.0000
  C   C1137     1.0  0.52189  0.89476  0.71999  1.0000
  H   H1371     1.0  0.50271  0.89044  0.67045  1.0000
  H   H1372     1.0  0.49874  0.93007  0.67331  1.0000
  H   H1373     1.0  0.52434  0.92455  0.73596  1.0000
  H   H1374     1.0  0.52870  0.88499  0.73296  1.0000
  C   C1138     1.0  0.61459  0.80990  0.58289  1.0000
  C   C1139     1.0  0.59915  0.80367  0.56943  1.0000
  C   C1140     1.0  0.57858  0.79872  0.57817  1.0000
  C   C1141     1.0  0.57303  0.80032  0.60036  1.0000
  C   C1142     1.0  0.58848  0.80649  0.61386  1.0000
  C   C1143     1.0  0.60918  0.81115  0.60517  1.0000
  H   H1375     1.0  0.60307  0.80254  0.55228  1.0000
  H   H1376     1.0  0.56684  0.79373  0.56759  1.0000
  H   H1377     1.0  0.58462  0.80717  0.63099  1.0000
  H   H1378     1.0  0.62105  0.81584  0.61572  1.0000
  C   C1144     1.0  0.42436  0.99306  0.78190  1.0000
  H   H1379     1.0  0.57614  0.92809  0.83403  1.0000
  C   C1145     1.0  0.39723  0.98233  0.81802  1.0000
  S   S307      1.0  0.47052  0.80047  0.99568  1.0000
  H   H1380     1.0  0.59349  0.00745  0.76311  1.0000
  N   N77       1.0  0.45895  0.92811  0.76072  1.0000
  C   C1146     1.0  0.47783  0.92580  0.77417  1.0000
  C   C1147     1.0  0.45946  0.94944  0.74921  1.0000
  C   C1148     1.0  0.43912  0.92814  0.77514  1.0000
  C   C1149     1.0  0.45940  0.91003  0.74605  1.0000
  C   C1150     1.0  0.45941  0.91299  0.72320  1.0000
  C   C1151     1.0  0.45989  0.88854  0.75457  1.0000
  C   C1152     1.0  0.60398  0.81402  0.98654  1.0000
  C   C1153     1.0  0.46090  0.87116  0.74106  1.0000
  C   C1154     1.0  0.64639  0.76052  0.98528  1.0000
  H   H1381     1.0  0.49305  0.92489  0.76385  1.0000
  H   H1382     1.0  0.47844  0.93961  0.78482  1.0000
  H   H1383     1.0  0.47770  0.91128  0.78510  1.0000
  H   H1384     1.0  0.47432  0.95078  0.73848  1.0000
  H   H1385     1.0  0.45930  0.96262  0.76068  1.0000
  H   H1386     1.0  0.44522  0.95286  0.73946  1.0000
  H   H1387     1.0  0.43823  0.91333  0.78563  1.0000
  H   H1388     1.0  0.43815  0.94179  0.78619  1.0000
  H   H1389     1.0  0.42453  0.92963  0.76565  1.0000
  H   H1390     1.0  0.45948  0.92864  0.71510  1.0000
  H   H1391     1.0  0.45977  0.88503  0.77176  1.0000
  H   H1392     1.0  0.51189  0.81615  0.97980  1.0000
  H   H1393     1.0  0.57602  0.79511  0.98639  1.0000
  Fe  Fe154     1.0  0.35002  0.83250  0.51488  1.0000
  H   H1394     1.0  0.60871  0.92814  0.85387  1.0000
  H   H1395     1.0  0.46884  0.83758  0.56825  1.0000
  C   C1155     1.0  0.38824  0.99011  0.79896  1.0000
  C   C1156     1.0  0.66537  0.95508  0.82836  1.0000
  H   H1396     1.0  0.39548  0.90621  0.57334  1.0000
  H   H1397     1.0  0.36971  0.89231  0.53829  1.0000
  C   C1157     1.0  0.59032  0.94241  0.80494  1.0000
  H   H1398     1.0  0.50871  0.86461  0.98682  1.0000
  H   H1399     1.0  0.36760  0.90067  0.57412  1.0000
  H   H1400     1.0  0.60347  0.81903  0.96967  1.0000
  H   H1401     1.0  0.36871  0.76504  0.55993  1.0000
  H   H1402     1.0  0.37675  0.85115  0.58405  1.0000
  N   N78       1.0  0.38932  0.87530  0.56180  1.0000
  C   C1158     1.0  0.58832  0.00015  0.79714  1.0000
  C   C1159     1.0  0.41968  0.97958  0.81888  1.0000
  C   C1160     1.0  0.41157  0.86597  0.56325  1.0000
  C   C1161     1.0  0.48794  0.77296  0.82347  1.0000
  H   H1403     1.0  0.63051  0.94768  0.87171  1.0000
  H   H1404     1.0  0.52761  0.83599  0.96630  1.0000
  C   C1162     1.0  0.44537  0.86065  0.58156  1.0000
  C   C1163     1.0  0.52659  0.82522  0.98097  1.0000
  C   C1164     1.0  0.66064  0.93604  0.53136  1.0000
  C   C1165     1.0  0.55321  0.86252  0.98614  1.0000
  H   H1405     1.0  0.66473  0.80505  0.00290  1.0000
  N   N79       1.0  0.57088  0.86741  0.64597  1.0000
  C   C1166     1.0  0.56712  0.84623  0.65678  1.0000
  C   C1167     1.0  0.58745  0.87745  0.65770  1.0000
  C   C1168     1.0  0.55083  0.88127  0.64834  1.0000
  C   C1169     1.0  0.57699  0.86453  0.62280  1.0000
  C   C1170     1.0  0.59780  0.86849  0.61337  1.0000
  C   C1171     1.0  0.56207  0.85686  0.60904  1.0000
  C   C1172     1.0  0.60312  0.86503  0.59152  1.0000
  C   C1173     1.0  0.56753  0.85360  0.58722  1.0000
  C   C1174     1.0  0.58802  0.85767  0.57848  1.0000
  H   H1406     1.0  0.58197  0.83551  0.65596  1.0000
  H   H1407     1.0  0.56176  0.84773  0.67414  1.0000
  H   H1408     1.0  0.55449  0.83782  0.64924  1.0000
  H   H1409     1.0  0.58204  0.87989  0.67492  1.0000
  H   H1410     1.0  0.59106  0.89350  0.65033  1.0000
  H   H1411     1.0  0.60258  0.86716  0.65806  1.0000
  H   H1412     1.0  0.53659  0.87347  0.64315  1.0000
  H   H1413     1.0  0.54684  0.88517  0.66549  1.0000
  H   H1414     1.0  0.55227  0.89670  0.63884  1.0000
  H   H1415     1.0  0.61043  0.87385  0.62254  1.0000
  H   H1416     1.0  0.54624  0.85267  0.61515  1.0000
  H   H1417     1.0  0.61930  0.86733  0.58475  1.0000
  H   H1418     1.0  0.55610  0.84703  0.57723  1.0000
  H   H1419     1.0  0.59248  0.85430  0.56176  1.0000
  S   S308      1.0  0.52514  0.76872  0.98621  1.0000
  S   S309      1.0  0.56124  0.99310  0.79641  1.0000
  H   H1420     1.0  0.38402  0.88776  0.59370  1.0000
  H   H1421     1.0  0.67197  0.79410  0.97726  1.0000
  S   S310      1.0  0.36011  0.99281  0.79681  1.0000
  H   H1422     1.0  0.48775  0.80577  0.81111  1.0000
  Fe  Fe155     1.0  0.48641  0.99097  0.77670  1.0000
  C   C1175     1.0  0.59061  0.93428  0.82617  1.0000
  H   H1423     1.0  0.64078  0.95870  0.79734  1.0000
  C   C1176     1.0  0.60063  0.00631  0.77856  1.0000
  H   H1424     1.0  0.42651  0.97317  0.83358  1.0000
  H   H1425     1.0  0.37581  0.84518  0.55611  1.0000
  C   C1177     1.0  0.46001  0.89548  0.70989  1.0000
  C   C1178     1.0  0.42485  0.87063  0.58006  1.0000
  C   C1179     1.0  0.38574  0.88366  0.53944  1.0000
  S   S311      1.0  0.46138  0.98027  0.80252  1.0000
  H   H1426     1.0  0.39805  0.83597  0.99574  1.0000
  H   H1427     1.0  0.66762  0.96218  0.00480  1.0000
  N   N80       1.0  0.64749  0.94423  0.84037  1.0000
  H   H1428     1.0  0.46181  0.85488  0.74784  1.0000
  Fe  Fe156     1.0  0.53542  0.99577  0.77174  1.0000
  C   C1180     1.0  0.64204  0.95600  0.86041  1.0000
  C   C1181     1.0  0.62743  0.95127  0.80598  1.0000
  C   C1182     1.0  0.60876  0.95060  0.79480  1.0000
  S   S312      1.0  0.48169  0.00162  0.74234  1.0000
  H   H1429     1.0  0.35776  0.91997  0.92155  1.0000
  H   H1430     1.0  0.65464  0.76459  0.96998  1.0000
  H   H1431     1.0  0.43664  0.83100  0.98360  1.0000
  C   C1183     1.0  0.62023  0.82113  0.99874  1.0000
  H   H1432     1.0  0.46038  0.89808  0.69250  1.0000
  C   C1184     1.0  0.59796  0.99869  0.81710  1.0000
  C   C1185     1.0  0.65553  0.92212  0.84642  1.0000
  H   H1433     1.0  0.58858  0.99393  0.83156  1.0000
  S   S313      1.0  0.67391  0.00370  0.86375  1.0000
  C   C1186     1.0  0.42008  0.85063  0.54839  1.0000
  C   C1187     1.0  0.57289  0.87201  0.98661  1.0000
  H   H1434     1.0  0.39506  0.00156  0.76612  1.0000
  C   C1188     1.0  0.48850  0.78906  0.80705  1.0000
  Fe  Fe157     1.0  0.49317  0.77214  0.00532  1.0000
  S   S314      1.0  0.53438  0.00638  0.73650  1.0000
  H   H1435     1.0  0.65649  0.95785  0.86966  1.0000
  H   H1436     1.0  0.67252  0.99822  0.54493  1.0000
  H   H1437     1.0  0.49192  0.84557  0.00045  1.0000
  H   H1438     1.0  0.65946  0.91261  0.83183  1.0000
  H   H1439     1.0  0.44644  0.82863  0.53882  1.0000
  C   C1189     1.0  0.58598  0.86732  0.00373  1.0000
  H   H1440     1.0  0.66064  0.97207  0.82386  1.0000
  H   H1441     1.0  0.64369  0.91341  0.85703  1.0000
  C   C1190     1.0  0.40791  0.82293  0.00265  1.0000
  H   H1442     1.0  0.57826  0.88278  0.97347  1.0000
  C   C1191     1.0  0.44290  0.80318  0.00454  1.0000
  C   C1192     1.0  0.42983  0.82008  0.99581  1.0000
  H   H1443     1.0  0.38573  0.87071  0.52776  1.0000
  H   H1444     1.0  0.66379  0.92489  0.54482  1.0000
  C   C1193     1.0  0.66890  0.95638  0.53056  1.0000
  C   C1194     1.0  0.50756  0.85326  0.00106  1.0000
  H   H1445     1.0  0.67110  0.94664  0.81352  1.0000
  S   S315      1.0  0.67338  0.88336  0.00901  1.0000
  H   H1446     1.0  0.62674  0.00245  0.83397  1.0000
  C   C1195     1.0  0.65582  0.76354  0.00508  1.0000
  C   C1196     1.0  0.64939  0.92950  0.51439  1.0000
  S   S316      1.0  0.65242  0.79047  0.51500  1.0000
  H   H1447     1.0  0.64380  0.91338  0.51475  1.0000
  C   C1197     1.0  0.54623  0.84767  0.00271  1.0000
  H   H1448     1.0  0.64423  0.00883  0.51782  1.0000
  C   C1198     1.0  0.89895  0.12488  0.34572  1.0000
  C   C1199     1.0  0.79523  0.21347  0.49778  1.0000
  Fe  Fe158     1.0  0.69947  0.02100  0.13633  1.0000
  H   H1449     1.0  0.70246  0.21617  0.04464  1.0000
  S   S317      1.0  0.73496  0.10891  0.04562  1.0000
  S   S318      1.0  0.70470  0.16631  0.02949  1.0000
  S   S319      1.0  0.69912  0.02731  0.17179  1.0000
  C   C1200     1.0  0.96003  0.01395  0.30993  1.0000
  C   C1201     1.0  0.76299  0.01445  0.28357  1.0000
  H   H1450     1.0  0.82797  0.07772  0.31605  1.0000
  Fe  Fe159     1.0  0.98415  0.13520  0.31853  1.0000
  S   S320      1.0  0.95939  0.11267  0.33348  1.0000
  H   H1451     1.0  0.90817  0.12790  0.35939  1.0000
  C   C1202     1.0  0.86102  0.07005  0.34088  1.0000
  H   H1452     1.0  0.84808  0.05854  0.34345  1.0000
  S   S321      1.0  0.98405  0.17118  0.32101  1.0000
  S   S322      1.0  0.83985  0.03222  0.30246  1.0000
  H   H1453     1.0  0.85261  0.08114  0.30053  1.0000
  Fe  Fe160     1.0  0.87608  0.02883  0.30085  1.0000
  S   S323      1.0  0.89562  0.05640  0.28664  1.0000
  C   C1203     1.0  0.81748  0.21088  0.49445  1.0000
  H   H1454     1.0  0.99477  0.22201  0.34935  1.0000
  H   H1455     1.0  0.70788  0.24399  0.01943  1.0000
  H   H1456     1.0  0.96816  0.24940  0.31151  1.0000
  C   C1204     1.0  0.99435  0.02870  0.31459  1.0000
  S   S324      1.0  0.87783  0.01493  0.33471  1.0000
  C   C1205     1.0  0.94331  0.09596  0.31962  1.0000
  C   C1206     1.0  0.93275  0.07950  0.33134  1.0000
  C   C1207     1.0  0.91859  0.06684  0.32139  1.0000
  C   C1208     1.0  0.91445  0.07083  0.29965  1.0000
  C   C1209     1.0  0.92538  0.08699  0.28780  1.0000
  C   C1210     1.0  0.93985  0.09940  0.29767  1.0000
  H   H1457     1.0  0.93538  0.07668  0.34831  1.0000
  H   H1458     1.0  0.91077  0.05414  0.33063  1.0000
  H   H1459     1.0  0.92236  0.09017  0.27096  1.0000
  H   H1460     1.0  0.94767  0.11216  0.28850  1.0000
  H   H1461     1.0  0.68864  0.03908  0.26552  1.0000
  H   H1462     1.0  0.83449  0.10412  0.30653  1.0000
  C   C1211     1.0  0.88199  0.11116  0.34813  1.0000
  C   C1212     1.0  0.71124  0.04379  0.22717  1.0000
  H   H1463     1.0  0.98448  0.08805  0.28291  1.0000
  H   H1464     1.0  0.84251  0.10017  0.36588  1.0000
  H   H1465     1.0  0.74421  0.08044  0.49354  1.0000
  C   C1213     1.0  0.79517  0.02060  0.42430  1.0000
  C   C1214     1.0  0.87030  0.10622  0.33027  1.0000
  H   H1466     1.0  0.82996  0.11622  0.34495  1.0000
  C   C1215     1.0  0.90468  0.13415  0.32556  1.0000
  C   C1216     1.0  0.83613  0.09971  0.34963  1.0000
  H   H1467     1.0  0.91827  0.14425  0.32366  1.0000
  C   C1217     1.0  0.72094  0.09147  0.06406  1.0000
  C   C1218     1.0  0.69855  0.09114  0.06510  1.0000
  S   S325      1.0  0.75935  0.02069  0.18936  1.0000
  C   C1219     1.0  0.69979  0.06234  0.09313  1.0000
  C   C1220     1.0  0.72219  0.06256  0.09198  1.0000
  C   C1221     1.0  0.73270  0.07704  0.07746  1.0000
  C   C1222     1.0  0.83068  0.22654  0.50077  1.0000
  H   H1468     1.0  0.78502  0.20146  0.49261  1.0000
  H   H1469     1.0  0.73139  0.05167  0.10236  1.0000
  H   H1470     1.0  0.75003  0.07718  0.07675  1.0000
  H   H1471     1.0  0.82217  0.08929  0.35167  1.0000
  Fe  Fe161     1.0  0.68658  0.18169  0.49449  1.0000
  C   C1223     1.0  0.87679  0.11574  0.30983  1.0000
  H   H1472     1.0  0.68929  0.10217  0.05492  1.0000
  C   C1224     1.0  0.89363  0.12960  0.30768  1.0000
  H   H1473     1.0  0.87841  0.10412  0.36404  1.0000
  H   H1474     1.0  0.72590  0.04321  0.21597  1.0000
  S   S326      1.0  0.68304  0.20927  0.46995  1.0000
  C   C1225     1.0  0.84145  0.08860  0.31317  1.0000
  H   H1475     1.0  0.93989  0.03140  0.28763  1.0000
  C   C1226     1.0  0.99001  0.04584  0.29942  1.0000
  C   C1227     1.0  0.99993  0.23818  0.34988  1.0000
  H   H1476     1.0  0.86881  0.07041  0.35644  1.0000
  H   H1477     1.0  0.77542  0.04281  0.26803  1.0000
  C   C1228     1.0  0.79078  0.02344  0.21835  1.0000
  C   C1229     1.0  0.68944  0.02556  0.25439  1.0000
  S   S327      1.0  0.71165  0.15373  0.49072  1.0000
  C   C1230     1.0  0.96988  0.04636  0.28982  1.0000
  H   H1478     1.0  0.71086  0.05859  0.23651  1.0000
  C   C1231     1.0  0.69061  0.11538  0.49446  1.0000
  H   H1479     1.0  0.99674  0.07105  0.26210  1.0000
  S   S328      1.0  0.77343  0.03761  0.50281  1.0000
  H   H1480     1.0  0.99361  0.17888  0.38013  1.0000
  H   H1481     1.0  0.75406  0.04536  0.01465  1.0000
  H   H1482     1.0  0.96876  0.23056  0.23477  1.0000
  C   C1232     1.0  0.72940  0.11256  0.49226  1.0000
  C   C1233     1.0  0.70975  0.08001  0.49581  1.0000
  S   S329      1.0  0.70887  0.05163  0.49812  1.0000
  Fe  Fe162     1.0  0.73894  0.02960  0.50173  1.0000
  H   H1483     1.0  0.81853  0.02065  0.50482  1.0000
  S   S330      1.0  0.99772  0.21574  0.44783  1.0000
  H   H1484     1.0  0.68248  0.23076  0.06127  1.0000
  H   H1485     1.0  0.86356  0.25575  0.49629  1.0000
  C   C1234     1.0  0.82178  0.24531  0.51083  1.0000
  N   N81       1.0  0.85252  0.09148  0.33325  1.0000
  C   C1235     1.0  0.00912  0.07386  0.31420  1.0000
  H   H1486     1.0  0.87313  0.06325  0.32883  1.0000
  C   C1236     1.0  0.74530  0.03565  0.25555  1.0000
  H   H1487     1.0  0.86950  0.11238  0.29514  1.0000
  C   C1237     1.0  0.95525  0.03054  0.29500  1.0000
  C   C1238     1.0  0.00472  0.25061  0.33065  1.0000
  N   N82       1.0  0.00592  0.06230  0.29442  1.0000
  C   C1239     1.0  0.99596  0.19498  0.40997  1.0000
  H   H1488     1.0  0.72960  0.04208  0.03164  1.0000
  H   H1489     1.0  0.00916  0.02748  0.32280  1.0000
  Fe  Fe163     1.0  0.68901  0.23083  0.49699  1.0000
  H   H1490     1.0  0.69734  0.04555  0.21668  1.0000
  C   C1240     1.0  0.77480  0.01079  0.21139  1.0000
  C   C1241     1.0  0.97976  0.23567  0.30788  1.0000
  C   C1242     1.0  0.68806  0.07657  0.07951  1.0000
  C   C1243     1.0  0.99876  0.21608  0.24517  1.0000
  H   H1491     1.0  0.79338  0.03885  0.21029  1.0000
  H   H1492     1.0  0.89867  0.13631  0.29189  1.0000
  C   C1244     1.0  0.68492  0.22060  0.04697  1.0000
  C   C1245     1.0  0.73819  0.05303  0.01990  1.0000
  C   C1246     1.0  0.71014  0.12539  0.49263  1.0000
  C   C1247     1.0  0.72826  0.02147  0.25621  1.0000
  H   H1493     1.0  0.81582  0.02624  0.24060  1.0000
  H   H1494     1.0  0.76869  0.23384  0.50996  1.0000
  H   H1495     1.0  0.85428  0.03078  0.48769  1.0000
  H   H1496     1.0  0.98000  0.19122  0.41619  1.0000
  S   S331      1.0  0.81784  0.02870  0.36165  1.0000
  C   C1248     1.0  0.99552  0.24655  0.21890  1.0000
  C   C1249     1.0  0.86020  0.03073  0.50429  1.0000
  H   H1497     1.0  0.96483  0.05895  0.27846  1.0000
  H   H1498     1.0  0.99367  0.08144  0.32086  1.0000
  Fe  Fe164     1.0  0.71936  0.13342  0.02250  1.0000
  C   C1250     1.0  0.79722  0.02643  0.40209  1.0000
  C   C1251     1.0  0.00364  0.18796  0.38949  1.0000
  C   C1252     1.0  0.72924  0.09003  0.49385  1.0000
  H   H1499     1.0  0.97677  0.23046  0.29146  1.0000
  C   C1253     1.0  0.69044  0.09280  0.49606  1.0000
  H   H1500     1.0  0.74628  0.04922  0.24424  1.0000
  S   S332      1.0  0.68569  0.04433  0.11085  1.0000
  N   N83       1.0  0.71033  0.02422  0.24163  1.0000
  Fe  Fe165     1.0  0.99935  0.17152  0.28701  1.0000
  C   C1254     1.0  0.99935  0.07856  0.27755  1.0000
  S   S333      1.0  0.98584  0.19711  0.26316  1.0000
  C   C1255     1.0  0.98607  0.23105  0.23317  1.0000
  C   C1256     1.0  0.00194  0.24623  0.37024  1.0000
  H   H1501     1.0  0.68957  0.02206  0.03554  1.0000
  H   H1502     1.0  0.84773  0.22369  0.49742  1.0000
  S   S334      1.0  0.99662  0.13592  0.28392  1.0000
  H   H1503     1.0  0.67726  0.20521  0.05104  1.0000
  H   H1504     1.0  0.70121  0.01770  0.07291  1.0000
  Fe  Fe166     1.0  0.84178  0.01583  0.33543  1.0000
  C   C1257     1.0  0.76227  0.03217  0.26919  1.0000
  H   H1505     1.0  0.74458  0.12012  0.49072  1.0000
  H   H1506     1.0  0.99816  0.23644  0.38470  1.0000
  C   C1258     1.0  0.80354  0.01635  0.23560  1.0000
  H   H1507     1.0  0.78040  0.02465  0.43363  1.0000
  H   H1508     1.0  0.87783  0.02685  0.50309  1.0000
  C   C1259     1.0  0.69065  0.24980  0.02139  1.0000
  H   H1509     1.0  0.82454  0.19673  0.48668  1.0000
  H   H1510     1.0  0.78392  0.03494  0.39449  1.0000
  C   C1260     1.0  0.81621  0.02117  0.38962  1.0000
  N   N84       1.0  0.00224  0.24171  0.30930  1.0000
  C   C1261     1.0  0.97955  0.01302  0.31973  1.0000
  H   H1511     1.0  0.74166  0.06713  0.02919  1.0000
  H   H1512     1.0  0.97562  0.22202  0.31915  1.0000
  C   C1262     1.0  0.00867  0.20688  0.42245  1.0000
  S   S335      1.0  0.71225  0.25754  0.48743  1.0000
  H   H1513     1.0  0.69494  0.05766  0.01950  1.0000
  S   S336      1.0  0.99246  0.23413  0.50628  1.0000
  H   H1514     1.0  0.98552  0.25780  0.20968  1.0000
  H   H1515     1.0  0.00497  0.24960  0.27498  1.0000
  H   H1516     1.0  0.70695  0.08289  0.02012  1.0000
  H   H1517     1.0  0.85754  0.04742  0.50972  1.0000
  C   C1263     1.0  0.78605  0.23166  0.50761  1.0000
  C   C1264     1.0  0.00721  0.25684  0.29074  1.0000
  N   N85       1.0  0.67648  0.23194  0.02745  1.0000
  H   H1518     1.0  0.77664  0.01140  0.29348  1.0000
  C   C1265     1.0  0.83334  0.01038  0.39970  1.0000
  H   H1519     1.0  0.68644  0.01063  0.26420  1.0000
  H   H1520     1.0  0.96820  0.16050  0.65541  1.0000
  H   H1521     1.0  0.69523  0.06641  0.55192  1.0000
  C   C1266     1.0  0.70648  0.02827  0.95516  1.0000
  S   S337      1.0  0.74187  0.14610  0.99586  1.0000
  C   C1267     1.0  0.73694  0.07593  0.98797  1.0000
  S   S338      1.0  0.70032  0.17359  0.97703  1.0000
  Fe  Fe167     1.0  0.71562  0.14018  0.97403  1.0000
  S   S339      1.0  0.72800  0.12485  0.94282  1.0000
  C   C1268     1.0  0.82416  0.02256  0.61423  1.0000
  H   H1522     1.0  0.68063  0.14624  0.52609  1.0000
  H   H1523     1.0  0.82239  0.03818  0.52590  1.0000
  S   S340      1.0  0.70225  0.03893  0.83569  1.0000
  H   H1524     1.0  0.81199  0.24836  0.92157  1.0000
  H   H1525     1.0  0.80072  0.03761  0.79712  1.0000
  Fe  Fe168     1.0  0.87767  0.03442  0.69172  1.0000
  C   C1269     1.0  0.87379  0.01603  0.58250  1.0000
  H   H1526     1.0  0.81253  0.22348  0.89157  1.0000
  H   H1527     1.0  0.68830  0.13572  0.59356  1.0000
  S   S341      1.0  0.98607  0.09592  0.69346  1.0000
  Fe  Fe169     1.0  0.68076  0.15949  0.00527  1.0000
  H   H1528     1.0  0.84788  0.04856  0.54652  1.0000
  H   H1529     1.0  0.94984  0.08475  0.58432  1.0000
  S   S342      1.0  0.98505  0.16185  0.69877  1.0000
  S   S343      1.0  0.88933  0.06835  0.69216  1.0000
  S   S344      1.0  0.84429  0.03035  0.68077  1.0000
  S   S345      1.0  0.68333  0.05024  0.89856  1.0000
  H   H1530     1.0  0.89830  0.22057  0.98030  1.0000
  H   H1531     1.0  0.78990  0.24116  0.95529  1.0000
  S   S346      1.0  0.99902  0.18548  0.75360  1.0000
  H   H1532     1.0  0.98310  0.20665  0.79189  1.0000
  H   H1533     1.0  0.81084  0.01137  0.65596  1.0000
  C   C1270     1.0  0.95900  0.08852  0.69425  1.0000
  C   C1271     1.0  0.94162  0.10315  0.69855  1.0000
  C   C1272     1.0  0.92040  0.09663  0.69815  1.0000
  C   C1273     1.0  0.91631  0.07538  0.69383  1.0000
  C   C1274     1.0  0.93370  0.06068  0.68992  1.0000
  C   C1275     1.0  0.95490  0.06726  0.69004  1.0000
  H   H1534     1.0  0.94450  0.11949  0.70204  1.0000
  H   H1535     1.0  0.90705  0.10811  0.70121  1.0000
  H   H1536     1.0  0.93083  0.04432  0.68648  1.0000
  H   H1537     1.0  0.96821  0.05580  0.68673  1.0000
  H   H1538     1.0  0.73449  0.06617  0.54443  1.0000
  C   C1276     1.0  0.73578  0.10025  0.54697  1.0000
  C   C1277     1.0  0.95338  0.11937  0.62526  1.0000
  C   C1278     1.0  0.80451  0.01940  0.58168  1.0000
  C   C1279     1.0  0.82585  0.02151  0.52065  1.0000
  C   C1280     1.0  0.80482  0.21649  0.00056  1.0000
  H   H1539     1.0  0.96156  0.22718  0.93837  1.0000
  H   H1540     1.0  0.86146  0.04877  0.58249  1.0000
  C   C1281     1.0  0.94622  0.23383  0.93318  1.0000
  Fe  Fe170     1.0  0.68210  0.01150  0.82872  1.0000
  C   C1282     1.0  0.99805  0.21368  0.78658  1.0000
  C   C1283     1.0  0.95945  0.14605  0.65231  1.0000
  C   C1284     1.0  0.92812  0.23438  0.94762  1.0000
  C   C1285     1.0  0.80698  0.23876  0.00141  1.0000
  C   C1286     1.0  0.92843  0.09109  0.63530  1.0000
  H   H1541     1.0  0.91742  0.08364  0.64723  1.0000
  H   H1542     1.0  0.74811  0.01920  0.60521  1.0000
  H   H1543     1.0  0.78311  0.19070  0.00038  1.0000
  C   C1287     1.0  0.71542  0.10403  0.93081  1.0000
  C   C1288     1.0  0.69473  0.09830  0.93770  1.0000
  C   C1289     1.0  0.78438  0.20783  0.00095  1.0000
  C   C1290     1.0  0.69616  0.07095  0.91048  1.0000
  C   C1291     1.0  0.71692  0.07657  0.90372  1.0000
  C   C1292     1.0  0.72645  0.09310  0.91379  1.0000
  C   C1293     1.0  0.70447  0.06938  0.00962  1.0000
  C   C1294     1.0  0.00593  0.22972  0.79880  1.0000
  H   H1544     1.0  0.72557  0.06826  0.89066  1.0000
  H   H1545     1.0  0.74245  0.09741  0.90832  1.0000
  H   H1546     1.0  0.71362  0.15855  0.57081  1.0000
  C   C1295     1.0  0.70152  0.15986  0.55835  1.0000
  H   H1547     1.0  0.99754  0.14718  0.63245  1.0000
  N   N86       1.0  0.96491  0.13843  0.63021  1.0000
  C   C1296     1.0  0.94668  0.09172  0.59995  1.0000
  S   S347      1.0  0.73879  0.01120  0.53356  1.0000
  C   C1297     1.0  0.79354  0.02698  0.78671  1.0000
  H   H1548     1.0  0.93044  0.22765  0.96366  1.0000
  H   H1549     1.0  0.70473  0.06097  0.96320  1.0000
  C   C1298     1.0  0.93250  0.08222  0.61520  1.0000
  H   H1550     1.0  0.85779  0.23038  0.95969  1.0000
  H   H1551     1.0  0.78652  0.02716  0.66202  1.0000
  Fe  Fe171     1.0  0.69628  0.02928  0.87089  1.0000
  C   C1299     1.0  0.70327  0.08128  0.55206  1.0000
  C   C1300     1.0  0.95697  0.11003  0.60483  1.0000
  N   N87       1.0  0.76495  0.17833  0.93061  1.0000
  C   C1301     1.0  0.77285  0.16484  0.94904  1.0000
  C   C1302     1.0  0.74201  0.18493  0.93549  1.0000
  C   C1303     1.0  0.76606  0.16476  0.91148  1.0000
  C   C1304     1.0  0.77773  0.19756  0.92752  1.0000
  C   C1305     1.0  0.79068  0.20208  0.90837  1.0000
  C   C1306     1.0  0.77776  0.21230  0.94421  1.0000
  H   H1552     1.0  0.99713  0.23481  0.81341  1.0000
  H   H1553     1.0  0.81716  0.01085  0.53256  1.0000
  S   S348      1.0  0.73948  0.21173  0.00022  1.0000
  H   H1554     1.0  0.77049  0.17310  0.96458  1.0000
  H   H1555     1.0  0.76428  0.14969  0.95133  1.0000
  H   H1556     1.0  0.79029  0.16035  0.94650  1.0000
  H   H1557     1.0  0.73929  0.19293  0.95114  1.0000
  H   H1558     1.0  0.73174  0.17089  0.93671  1.0000
  H   H1559     1.0  0.73580  0.19619  0.92266  1.0000
  H   H1560     1.0  0.78270  0.15819  0.90754  1.0000
  H   H1561     1.0  0.75605  0.15057  0.91435  1.0000
  H   H1562     1.0  0.75986  0.17377  0.89709  1.0000
  H   H1563     1.0  0.79169  0.19185  0.89476  1.0000
  H   H1564     1.0  0.76827  0.20993  0.95916  1.0000
  C   C1307     1.0  0.92544  0.25156  0.90552  1.0000
  H   H1565     1.0  0.69844  0.03165  0.94026  1.0000
  C   C1308     1.0  0.98615  0.24491  0.73831  1.0000
  H   H1566     1.0  0.96397  0.13359  0.66489  1.0000
  C   C1309     1.0  0.93861  0.10940  0.64032  1.0000
  N   N88       1.0  0.84908  0.01513  0.51909  1.0000
  H   H1567     1.0  0.89246  0.25907  0.91363  1.0000
  Fe  Fe172     1.0  0.72538  0.17844  0.00092  1.0000
  H   H1568     1.0  0.68599  0.10666  0.95067  1.0000
  S   S349      1.0  0.69423  0.12559  0.00030  1.0000
  C   C1310     1.0  0.70148  0.12043  0.55513  1.0000
  C   C1311     1.0  0.81029  0.03149  0.59875  1.0000
  H   H1569     1.0  0.99290  0.11948  0.63957  1.0000
  Fe  Fe173     1.0  0.77380  0.01700  0.53352  1.0000
  H   H1570     1.0  0.96793  0.11676  0.59254  1.0000
  C   C1312     1.0  0.95973  0.15646  0.61470  1.0000
  H   H1571     1.0  0.82875  0.03222  0.62702  1.0000
  H   H1572     1.0  0.87923  0.01613  0.59876  1.0000
  N   N89       1.0  0.68853  0.14066  0.55906  1.0000
  C   C1313     1.0  0.98840  0.13326  0.62840  1.0000
  H   H1573     1.0  0.74127  0.08926  0.99796  1.0000
  H   H1574     1.0  0.72728  0.08372  0.97503  1.0000
  H   H1575     1.0  0.87937  0.21356  0.94790  1.0000
  C   C1314     1.0  0.72115  0.04127  0.98769  1.0000
  H   H1576     1.0  0.83250  0.25303  0.55054  1.0000
  H   H1577     1.0  0.80403  0.04792  0.59998  1.0000
  C   C1315     1.0  0.67692  0.13935  0.58062  1.0000
  S   S350      1.0  0.78671  0.03147  0.56287  1.0000
  H   H1578     1.0  0.96541  0.15297  0.59785  1.0000
  H   H1579     1.0  0.94212  0.16036  0.61497  1.0000
  H   H1580     1.0  0.75293  0.10007  0.54302  1.0000
  H   H1581     1.0  0.80078  0.01449  0.68336  1.0000
  C   C1316     1.0  0.79007  0.23031  0.94209  1.0000
  H   H1582     1.0  0.93472  0.11528  0.65622  1.0000
  H   H1583     1.0  0.94206  0.15076  0.65479  1.0000
  H   H1584     1.0  0.99486  0.23135  0.70757  1.0000
  H   H1585     1.0  0.99434  0.12908  0.61182  1.0000
  H   H1586     1.0  0.86382  0.24339  0.52334  1.0000
  H   H1587     1.0  0.75879  0.02157  0.64214  1.0000
  C   C1317     1.0  0.76573  0.22139  0.00176  1.0000
  S   S351      1.0  0.69433  0.20319  0.52066  1.0000
  C   C1318     1.0  0.71029  0.04501  0.96836  1.0000
  C   C1319     1.0  0.99681  0.24451  0.71797  1.0000
  C   C1320     1.0  0.89272  0.23776  0.97884  1.0000
  C   C1321     1.0  0.00896  0.19628  0.61874  1.0000
  C   C1322     1.0  0.67825  0.21701  0.00953  1.0000
  C   C1323     1.0  0.00943  0.20644  0.76775  1.0000
  C   C1324     1.0  0.79595  0.01229  0.66669  1.0000
  H   H1588     1.0  0.69064  0.01483  0.52922  1.0000
  C   C1325     1.0  0.80283  0.22027  0.90632  1.0000
  H   H1589     1.0  0.96758  0.17131  0.61856  1.0000
  H   H1590     1.0  0.75203  0.06887  0.98006  1.0000
  C   C1326     1.0  0.80341  0.02300  0.76608  1.0000
  C   C1327     1.0  0.68515  0.08190  0.92752  1.0000
  H   H1591     1.0  0.92467  0.06792  0.61153  1.0000
  H   H1592     1.0  0.90479  0.24774  0.98541  1.0000
  C   C1328     1.0  0.72541  0.08110  0.54778  1.0000
  C   C1329     1.0  0.72746  0.01957  0.99329  1.0000
  C   C1330     1.0  0.85778  0.01511  0.54075  1.0000
  H   H1593     1.0  0.98593  0.22210  0.61102  1.0000
  C   C1331     1.0  0.78832  0.25227  0.00255  1.0000
  C   C1332     1.0  0.72409  0.11970  0.55043  1.0000
  C   C1333     1.0  0.80256  0.23431  0.92317  1.0000
  H   H1594     1.0  0.81794  0.03071  0.76065  1.0000
  C   C1334     1.0  0.90800  0.24373  0.94136  1.0000
  S   S352      1.0  0.83329  0.24882  0.99968  1.0000
  H   H1595     1.0  0.69440  0.07606  0.99649  1.0000
  N   N90       1.0  0.88848  0.24462  0.95619  1.0000
  C   C1335     1.0  0.86373  0.03437  0.57332  1.0000
  S   S353      1.0  0.87180  0.01454  0.72246  1.0000
  H   H1596     1.0  0.69130  0.17477  0.56142  1.0000
  H   H1597     1.0  0.70989  0.16243  0.54213  1.0000
  H   H1598     1.0  0.87796  0.23942  0.98981  1.0000
  Fe  Fe174     1.0  0.00005  0.12836  0.69731  1.0000
  N   N91       1.0  0.72523  0.05943  0.00115  1.0000
  C   C1336     1.0  0.85588  0.03401  0.55275  1.0000
  C   C1337     1.0  0.69144  0.10059  0.55578  1.0000
  H   H1599     1.0  0.73311  0.13393  0.54889  1.0000
  H   H1600     1.0  0.81909  0.20583  0.99971  1.0000
  H   H1601     1.0  0.97610  0.23187  0.74366  1.0000
  C   C1338     1.0  0.87259  0.23039  0.94863  1.0000
  C   C1339     1.0  0.76789  0.24365  0.00254  1.0000
  Fe  Fe175     1.0  0.73013  0.01423  0.83591  1.0000
  H   H1602     1.0  0.95918  0.24277  0.90137  1.0000
  C   C1340     1.0  0.77443  0.01735  0.79402  1.0000
  H   H1603     1.0  0.73557  0.01504  0.00779  1.0000
  S   S354      1.0  0.76348  0.02176  0.82074  1.0000
  C   C1341     1.0  0.94491  0.24251  0.91224  1.0000
  H   H1604     1.0  0.99953  0.22692  0.57274  1.0000
  S   S355      1.0  0.99831  0.19329  0.64583  1.0000
  H   H1605     1.0  0.69521  0.21174  0.00537  1.0000
  H   H1606     1.0  0.75367  0.25437  0.00306  1.0000
  C   C1342     1.0  0.99938  0.21198  0.60490  1.0000
  H   H1607     1.0  0.68685  0.25769  0.00556  1.0000
  H   H1608     1.0  0.86746  0.23549  0.93229  1.0000
  C   C1343     1.0  0.00707  0.21478  0.58318  1.0000
  C   C1344     1.0  0.90716  0.25196  0.91971  1.0000
  H   H1609     1.0  0.92471  0.25872  0.88934  1.0000
  C   C1345     1.0  0.79908  0.24727  0.51415  1.0000
  H   H1610     1.0  0.00951  0.03467  0.69753  1.0000
  C   C1346     1.0  0.85854  0.25789  0.51362  1.0000
  H   H1611     1.0  0.89912  0.31000  0.11151  1.0000
  S   S356      1.0  0.69553  0.47684  0.21521  1.0000
  S   S357      1.0  0.81112  0.45564  0.02134  1.0000
  C   C1347     1.0  0.73211  0.27073  0.50059  1.0000
  H   H1612     1.0  0.71776  0.35785  0.44021  1.0000
  H   H1613     1.0  0.74626  0.46068  0.22242  1.0000
  Fe  Fe176     1.0  0.80223  0.50406  0.34219  1.0000
  S   S358      1.0  0.98609  0.30843  0.17086  1.0000
  H   H1614     1.0  0.79650  0.48491  0.50871  1.0000
  Fe  Fe177     1.0  0.99421  0.30792  0.13478  1.0000
  S   S359      1.0  0.97851  0.30125  0.10347  1.0000
  N   N92       1.0  0.74421  0.35485  0.46102  1.0000
  Fe  Fe178     1.0  0.87091  0.30837  0.03531  1.0000
  S   S360      1.0  0.88377  0.30971  0.06897  1.0000
  S   S361      1.0  0.83536  0.30327  0.03422  1.0000
  S   S362      1.0  0.83610  0.48896  0.34125  1.0000
  H   H1615     1.0  0.83820  0.45132  0.46096  1.0000
  C   C1348     1.0  0.82212  0.48050  0.45059  1.0000
  S   S363      1.0  0.98665  0.36972  0.18514  1.0000
  Fe  Fe179     1.0  0.83116  0.48447  0.37734  1.0000
  S   S364      1.0  0.84700  0.45594  0.39538  1.0000
  S   S365      1.0  0.00817  0.34011  0.13376  1.0000
  H   H1616     1.0  0.97197  0.40878  0.20556  1.0000
  S   S366      1.0  0.72284  0.48506  0.15788  1.0000
  S   S367      1.0  0.81881  0.33283  0.48454  1.0000
  H   H1617     1.0  0.77620  0.35340  0.44566  1.0000
  H   H1618     1.0  0.77914  0.44211  0.07028  1.0000
  C   C1349     1.0  0.73851  0.34735  0.50105  1.0000
  Fe  Fe180     1.0  0.81601  0.36884  0.48411  1.0000
  S   S368      1.0  0.79860  0.39016  0.45951  1.0000
  C   C1350     1.0  0.76025  0.50130  0.30055  1.0000
  Fe  Fe181     1.0  0.69507  0.49363  0.18224  1.0000
  C   C1351     1.0  0.91748  0.29005  0.48748  1.0000
  H   H1619     1.0  0.79177  0.48274  0.18773  1.0000
  Fe  Fe182     1.0  0.99819  0.26935  0.50554  1.0000
  C   C1352     1.0  0.82593  0.41361  0.02401  1.0000
  C   C1353     1.0  0.71789  0.46358  0.05625  1.0000
  C   C1354     1.0  0.95367  0.47801  0.32559  1.0000
  C   C1355     1.0  0.90416  0.30711  0.49567  1.0000
  S   S369      1.0  0.99621  0.49727  0.22816  1.0000
  H   H1620     1.0  0.77022  0.45346  0.20568  1.0000
  H   H1621     1.0  0.76749  0.32832  0.45748  1.0000
  H   H1622     1.0  0.72480  0.48302  0.26643  1.0000
  H   H1623     1.0  0.79733  0.46145  0.27273  1.0000
  H   H1624     1.0  0.73746  0.45131  0.09400  1.0000
  H   H1625     1.0  0.83940  0.41962  0.03156  1.0000
  C   C1356     1.0  0.84778  0.44718  0.50643  1.0000
  H   H1626     1.0  0.82840  0.42203  0.48156  1.0000
  H   H1627     1.0  0.69471  0.48865  0.04710  1.0000
  C   C1357     1.0  0.83313  0.43786  0.41307  1.0000
  C   C1358     1.0  0.84504  0.42197  0.42466  1.0000
  C   C1359     1.0  0.83467  0.40733  0.43903  1.0000
  C   C1360     1.0  0.81227  0.40840  0.44181  1.0000
  C   C1361     1.0  0.80036  0.42432  0.43027  1.0000
  C   C1362     1.0  0.81074  0.43907  0.41601  1.0000
  H   H1628     1.0  0.86237  0.42093  0.42247  1.0000
  H   H1629     1.0  0.84400  0.39505  0.44773  1.0000
  H   H1630     1.0  0.78302  0.42528  0.43235  1.0000
  H   H1631     1.0  0.80142  0.45127  0.40719  1.0000
  H   H1632     1.0  0.76575  0.40547  0.07055  1.0000
  Fe  Fe183     1.0  0.85100  0.33538  0.49882  1.0000
  H   H1633     1.0  0.75196  0.46986  0.29220  1.0000
  H   H1634     1.0  0.75590  0.48107  0.12373  1.0000
  H   H1635     1.0  0.77125  0.44852  0.04341  1.0000
  C   C1363     1.0  0.82539  0.39150  0.02090  1.0000
  C   C1364     1.0  0.76194  0.29488  0.49757  1.0000
  H   H1636     1.0  0.75203  0.38680  0.44952  1.0000
  C   C1365     1.0  0.95192  0.30308  0.09445  1.0000
  C   C1366     1.0  0.94908  0.30158  0.07225  1.0000
  C   C1367     1.0  0.92838  0.30325  0.06417  1.0000
  C   C1368     1.0  0.91022  0.30642  0.07824  1.0000
  C   C1369     1.0  0.91306  0.30766  0.10047  1.0000
  C   C1370     1.0  0.93374  0.30593  0.10855  1.0000
  H   H1637     1.0  0.96298  0.29925  0.06118  1.0000
  H   H1638     1.0  0.92649  0.30225  0.04706  1.0000
  H   H1639     1.0  0.90788  0.42808  0.36959  1.0000
  H   H1640     1.0  0.93556  0.30653  0.12569  1.0000
  H   H1641     1.0  0.87902  0.37447  0.10124  1.0000
  H   H1642     1.0  0.75901  0.49600  0.08589  1.0000
  C   C1371     1.0  0.77760  0.48939  0.22854  1.0000
  C   C1372     1.0  0.77669  0.49305  0.18950  1.0000
  N   N93       1.0  0.82430  0.44789  0.50381  1.0000
  H   H1643     1.0  0.69338  0.30891  0.49345  1.0000
  C   C1373     1.0  0.00684  0.34956  0.50708  1.0000
  H   H1644     1.0  0.74652  0.46474  0.19385  1.0000
  C   C1374     1.0  0.75373  0.41247  0.05932  1.0000
  C   C1375     1.0  0.74287  0.49118  0.11749  1.0000
  H   H1645     1.0  0.77524  0.34888  0.47419  1.0000
  H   H1646     1.0  0.83829  0.38061  0.02619  1.0000
  C   C1376     1.0  0.73950  0.43491  0.08770  1.0000
  S   S370      1.0  0.87735  0.31076  0.48740  1.0000
  H   H1647     1.0  0.75143  0.42624  0.09800  1.0000
  H   H1648     1.0  0.73518  0.49842  0.22699  1.0000
  C   C1377     1.0  0.82732  0.46444  0.46611  1.0000
  C   C1378     1.0  0.90971  0.49732  0.29065  1.0000
  H   H1649     1.0  0.75353  0.38232  0.47765  1.0000
  H   H1650     1.0  0.73319  0.42080  0.02519  1.0000
  C   C1379     1.0  0.94915  0.44097  0.31873  1.0000
  H   H1651     1.0  0.71046  0.32647  0.46200  1.0000
  H   H1652     1.0  0.91126  0.27949  0.47635  1.0000
  C   C1380     1.0  0.74462  0.49947  0.09598  1.0000
  N   N94       1.0  0.90219  0.46034  0.35621  1.0000
  C   C1381     1.0  0.89557  0.48158  0.36507  1.0000
  C   C1382     1.0  0.88436  0.45382  0.34369  1.0000
  Fe  Fe184     1.0  0.98519  0.49965  0.26327  1.0000
  C   C1383     1.0  0.92230  0.46037  0.34229  1.0000
  C   C1384     1.0  0.78234  0.47197  0.24335  1.0000
  C   C1385     1.0  0.98932  0.40793  0.20514  1.0000
  H   H1653     1.0  0.76726  0.49098  0.17511  1.0000
  C   C1386     1.0  0.91250  0.32067  0.50999  1.0000
  H   H1654     1.0  0.76203  0.41147  0.04299  1.0000
  H   H1655     1.0  0.94893  0.27345  0.48689  1.0000
  H   H1656     1.0  0.83334  0.27957  0.48591  1.0000
  H   H1657     1.0  0.73468  0.50149  0.19812  1.0000
  H   H1658     1.0  0.92188  0.42677  0.33414  1.0000
  S   S371      1.0  0.94951  0.49432  0.26943  1.0000
  S   S372      1.0  0.79682  0.49705  0.37814  1.0000
  H   H1659     1.0  0.88031  0.48105  0.37528  1.0000
  Fe  Fe185     1.0  0.69058  0.50970  0.22867  1.0000
  H   H1660     1.0  0.73994  0.40191  0.06037  1.0000
  H   H1661     1.0  0.89552  0.35929  0.06773  1.0000
  C   C1387     1.0  0.93463  0.47875  0.33869  1.0000
  C   C1388     1.0  0.89350  0.50628  0.30486  1.0000
  H   H1662     1.0  0.77317  0.30407  0.48764  1.0000
  C   C1389     1.0  0.93889  0.28659  0.49342  1.0000
  H   H1663     1.0  0.75178  0.35693  0.50405  1.0000
  C   C1390     1.0  0.00002  0.42453  0.21388  1.0000
  H   H1664     1.0  0.00838  0.28008  0.06796  1.0000
  C   C1391     1.0  0.70951  0.44510  0.01783  1.0000
  C   C1392     1.0  0.70268  0.47338  0.04289  1.0000
  C   C1393     1.0  0.72936  0.44406  0.05087  1.0000
  N   N95       1.0  0.76426  0.48743  0.20989  1.0000
  C   C1394     1.0  0.96077  0.45927  0.31546  1.0000
  C   C1395     1.0  0.71571  0.33039  0.47750  1.0000
  H   H1665     1.0  0.73589  0.33449  0.43599  1.0000
  H   H1666     1.0  0.85286  0.46287  0.51147  1.0000
  C   C1396     1.0  0.72445  0.49601  0.13099  1.0000
  C   C1397     1.0  0.79456  0.47463  0.26108  1.0000
  H   H1667     1.0  0.88225  0.46468  0.32918  1.0000
  H   H1668     1.0  0.90774  0.48722  0.37550  1.0000
  H   H1669     1.0  0.76146  0.46519  0.06477  1.0000
  C   C1398     1.0  0.74687  0.28291  0.48795  1.0000
  H   H1670     1.0  0.99643  0.27163  0.29128  1.0000
  H   H1671     1.0  0.81243  0.28767  0.50552  1.0000
  H   H1672     1.0  0.99089  0.43799  0.22090  1.0000
  H   H1673     1.0  0.88685  0.43719  0.33817  1.0000
  H   H1674     1.0  0.72113  0.47201  0.07036  1.0000
  H   H1675     1.0  0.80146  0.42706  0.49246  1.0000
  H   H1676     1.0  0.95468  0.42648  0.31064  1.0000
  H   H1677     1.0  0.81106  0.49661  0.27889  1.0000
  C   C1399     1.0  0.73253  0.34438  0.47974  1.0000
  C   C1400     1.0  0.79892  0.49889  0.47705  1.0000
  H   H1678     1.0  0.89054  0.44492  0.38610  1.0000
  C   C1401     1.0  0.93028  0.44140  0.33206  1.0000
  C   C1402     1.0  0.80412  0.48298  0.49278  1.0000
  N   N96       1.0  0.94479  0.36935  0.13465  1.0000
  C   C1403     1.0  0.93389  0.38093  0.15302  1.0000
  C   C1404     1.0  0.95117  0.34741  0.14274  1.0000
  C   C1405     1.0  0.96444  0.38076  0.12780  1.0000
  C   C1406     1.0  0.93118  0.36781  0.11614  1.0000
  C   C1407     1.0  0.90876  0.37349  0.11732  1.0000
  C   C1408     1.0  0.94004  0.35919  0.09655  1.0000
  C   C1409     1.0  0.89618  0.37064  0.09990  1.0000
  C   C1410     1.0  0.92737  0.35675  0.07916  1.0000
  C   C1411     1.0  0.90545  0.36224  0.08090  1.0000
  H   H1679     1.0  0.92014  0.37217  0.16053  1.0000
  H   H1680     1.0  0.94495  0.38248  0.16625  1.0000
  H   H1681     1.0  0.92821  0.39746  0.14789  1.0000
  H   H1682     1.0  0.93687  0.33823  0.14790  1.0000
  H   H1683     1.0  0.96123  0.34774  0.15688  1.0000
  H   H1684     1.0  0.96061  0.33805  0.13024  1.0000
  H   H1685     1.0  0.96029  0.39688  0.12040  1.0000
  H   H1686     1.0  0.97448  0.38301  0.14168  1.0000
  H   H1687     1.0  0.97516  0.37182  0.11599  1.0000
  H   H1688     1.0  0.90047  0.37973  0.13164  1.0000
  H   H1689     1.0  0.95667  0.35338  0.09480  1.0000
  C   C1412     1.0  0.72478  0.43513  0.03110  1.0000
  H   H1690     1.0  0.93438  0.34957  0.06460  1.0000
  C   C1413     1.0  0.73484  0.35170  0.44006  1.0000
  H   H1691     1.0  0.99261  0.33949  0.50928  1.0000
  C   C1414     1.0  0.74885  0.48693  0.28940  1.0000
  H   H1692     1.0  0.74362  0.36034  0.42645  1.0000
  C   C1415     1.0  0.76672  0.34594  0.45952  1.0000
  C   C1416     1.0  0.80232  0.49450  0.26464  1.0000
  C   C1417     1.0  0.73347  0.49436  0.27466  1.0000
  H   H1693     1.0  0.72393  0.42716  0.09073  1.0000
  C   C1418     1.0  0.78597  0.50937  0.23257  1.0000
  H   H1694     1.0  0.86883  0.45427  0.35353  1.0000
  H   H1695     1.0  0.91885  0.44875  0.38406  1.0000
  C   C1419     1.0  0.75660  0.46557  0.20798  1.0000
  H   H1696     1.0  0.85728  0.44302  0.49132  1.0000
  H   H1697     1.0  0.87805  0.49928  0.30695  1.0000
  C   C1420     1.0  0.90504  0.44484  0.37474  1.0000
  C   C1421     1.0  0.00089  0.39023  0.19597  1.0000
  Fe  Fe186     1.0  0.00272  0.33982  0.16972  1.0000
  C   C1422     1.0  0.92981  0.50636  0.28755  1.0000
  H   H1698     1.0  0.74647  0.28326  0.47055  1.0000
  C   C1423     1.0  0.80790  0.49766  0.45600  1.0000
  H   H1699     1.0  0.72759  0.38546  0.46650  1.0000
  H   H1700     1.0  0.90668  0.48324  0.28206  1.0000
  C   C1424     1.0  0.76543  0.44824  0.06070  1.0000
  H   H1701     1.0  0.97510  0.45906  0.30472  1.0000
  H   H1702     1.0  0.77640  0.45627  0.24198  1.0000
  S   S373      1.0  0.78004  0.49070  0.31836  1.0000
  H   H1703     1.0  0.82893  0.47949  0.43412  1.0000
  C   C1425     1.0  0.00901  0.26671  0.37213  1.0000
  N   N97       1.0  0.74663  0.43490  0.06440  1.0000
  C   C1426     1.0  0.80928  0.42799  0.01735  1.0000
  C   C1427     1.0  0.81847  0.46513  0.48771  1.0000
  C   C1428     1.0  0.74422  0.37832  0.46384  1.0000
  S   S374      1.0  0.84926  0.37141  0.49490  1.0000
  C   C1429     1.0  0.74501  0.50235  0.21197  1.0000
  C   C1430     1.0  0.81865  0.42686  0.49627  1.0000
  H   H1704     1.0  0.00235  0.36314  0.49575  1.0000
  C   C1431     1.0  0.70552  0.32026  0.49554  1.0000
  C   C1432     1.0  0.94730  0.30025  0.50760  1.0000
  H   H1705     1.0  0.82153  0.41370  0.50862  1.0000
  H   H1706     1.0  0.92972  0.49404  0.34536  1.0000
  H   H1707     1.0  0.68954  0.26199  0.03399  1.0000
  H   H1708     1.0  0.00579  0.31863  0.48066  1.0000
  C   C1433     1.0  0.69853  0.46418  0.02369  1.0000
  H   H1709     1.0  0.96258  0.49232  0.32258  1.0000
  H   H1710     1.0  0.83905  0.29582  0.50764  1.0000
  C   C1434     1.0  0.82966  0.28225  0.50339  1.0000
  C   C1435     1.0  0.70784  0.50930  0.12281  1.0000
  H   H1711     1.0  0.89258  0.49393  0.35197  1.0000
  H   H1712     1.0  0.80368  0.50989  0.44375  1.0000
  S   S375      1.0  0.75145  0.48360  0.01382  1.0000
  H   H1713     1.0  0.78110  0.51003  0.18861  1.0000
  H   H1714     1.0  0.00493  0.42720  0.77872  1.0000
  C   C1436     1.0  0.91227  0.48834  0.69231  1.0000
  H   H1715     1.0  0.77753  0.47418  0.76229  1.0000
  Fe  Fe187     1.0  0.84465  0.28224  0.00628  1.0000
  S   S376      1.0  0.87051  0.48831  0.71080  1.0000
  C   C1437     1.0  0.77902  0.48667  0.77347  1.0000
  C   C1438     1.0  0.93058  0.29765  0.94973  1.0000
  S   S377      1.0  0.84197  0.30963  0.98182  1.0000
  Fe  Fe188     1.0  0.87680  0.31438  0.98603  1.0000
  S   S378      1.0  0.89429  0.32556  0.95444  1.0000
  H   H1716     1.0  0.99594  0.42016  0.84765  1.0000
  H   H1717     1.0  0.83466  0.47917  0.77770  1.0000
  S   S379      1.0  0.99127  0.29709  0.83857  1.0000
  C   C1439     1.0  0.99872  0.31683  0.74971  1.0000
  S   S380      1.0  0.97790  0.28575  0.90298  1.0000
  Fe  Fe189     1.0  0.82233  0.47155  0.64855  1.0000
  H   H1718     1.0  0.95543  0.46098  0.75807  1.0000
  S   S381      1.0  0.81140  0.44101  0.63491  1.0000
  Fe  Fe190     1.0  0.80504  0.33398  0.51866  1.0000
  C   C1440     1.0  0.93396  0.31729  0.51584  1.0000
  S   S382      1.0  0.79985  0.37004  0.51740  1.0000
  H   H1719     1.0  0.94505  0.48645  0.67900  1.0000
  S   S383      1.0  0.81878  0.47495  0.68464  1.0000
  C   C1441     1.0  0.89875  0.49052  0.71097  1.0000
  Fe  Fe191     1.0  0.83329  0.37110  0.52854  1.0000
  S   S384      1.0  0.84541  0.39840  0.54681  1.0000
  S   S385      1.0  0.83733  0.33505  0.53317  1.0000
  H   H1720     1.0  0.73862  0.45912  0.73095  1.0000
  C   C1442     1.0  0.80826  0.38359  0.01085  1.0000
  C   C1443     1.0  0.95114  0.40956  0.77846  1.0000
  H   H1721     1.0  0.98191  0.42727  0.71334  1.0000
  H   H1722     1.0  0.89039  0.27825  0.96117  1.0000
  H   H1723     1.0  0.80792  0.38908  0.94762  1.0000
  H   H1724     1.0  0.79118  0.26115  0.52152  1.0000
  Fe  Fe192     1.0  0.83511  0.33107  0.00980  1.0000
  H   H1725     1.0  0.97866  0.44797  0.73197  1.0000
  H   H1726     1.0  0.99585  0.38059  0.84518  1.0000
  C   C1444     1.0  0.82070  0.42976  0.61006  1.0000
  C   C1445     1.0  0.83765  0.43811  0.59719  1.0000
  C   C1446     1.0  0.84496  0.42827  0.57790  1.0000
  C   C1447     1.0  0.83534  0.41009  0.57119  1.0000
  C   C1448     1.0  0.81812  0.40198  0.58382  1.0000
  C   C1449     1.0  0.81093  0.41172  0.60321  1.0000
  H   H1727     1.0  0.84537  0.45191  0.60233  1.0000
  H   H1728     1.0  0.85834  0.43463  0.56828  1.0000
  H   H1729     1.0  0.81057  0.38802  0.57886  1.0000
  H   H1730     1.0  0.79782  0.40514  0.61308  1.0000
  H   H1731     1.0  0.79886  0.48245  0.73139  1.0000
  C   C1450     1.0  0.95325  0.44751  0.76938  1.0000
  C   C1451     1.0  0.90794  0.49352  0.73068  1.0000
  C   C1452     1.0  0.00024  0.38135  0.81052  1.0000
  Fe  Fe193     1.0  0.00505  0.47830  0.78729  1.0000
  H   H1732     1.0  0.94652  0.43865  0.82370  1.0000
  C   C1453     1.0  0.71167  0.32373  0.51621  1.0000
  H   H1733     1.0  0.93965  0.45076  0.72827  1.0000
  H   H1734     1.0  0.78501  0.42153  0.95089  1.0000
  H   H1735     1.0  0.70664  0.43836  0.00255  1.0000
  C   C1454     1.0  0.91813  0.31476  0.94088  1.0000
  C   C1455     1.0  0.92463  0.32367  0.92046  1.0000
  C   C1456     1.0  0.94318  0.31539  0.90885  1.0000
  C   C1457     1.0  0.95540  0.29802  0.91753  1.0000
  H   H1736     1.0  0.91519  0.33697  0.91349  1.0000
  H   H1737     1.0  0.94783  0.32222  0.89306  1.0000
  C   C1458     1.0  0.80986  0.44076  0.96034  1.0000
  Fe  Fe194     1.0  0.80278  0.50710  0.67734  1.0000
  H   H1738     1.0  0.81212  0.46414  0.75049  1.0000
  C   C1459     1.0  0.71172  0.49244  0.68910  1.0000
  H   H1739     1.0  0.76493  0.47680  0.70535  1.0000
  Fe  Fe195     1.0  0.68845  0.50497  0.83848  1.0000
  C   C1460     1.0  0.99486  0.29413  0.78156  1.0000
  H   H1740     1.0  0.97715  0.29439  0.78047  1.0000
  H   H1741     1.0  0.94251  0.39183  0.73935  1.0000
  C   C1461     1.0  0.95386  0.42620  0.76227  1.0000
  C   C1462     1.0  0.00044  0.42646  0.81332  1.0000
  H   H1742     1.0  0.89764  0.49523  0.74521  1.0000
  S   S386      1.0  0.97237  0.48944  0.71403  1.0000
  S   S387      1.0  0.99947  0.45469  0.81584  1.0000
  S   S388      1.0  0.68680  0.47188  0.82594  1.0000
  H   H1743     1.0  0.96077  0.39648  0.71657  1.0000
  H   H1744     1.0  0.99802  0.30765  0.79181  1.0000
  H   H1745     1.0  0.95170  0.39283  0.77481  1.0000
  C   C1463     1.0  0.70485  0.49620  0.90076  1.0000
  H   H1746     1.0  0.69173  0.48898  0.89378  1.0000
  C   C1464     1.0  0.75603  0.48599  0.71764  1.0000
  S   S389      1.0  0.70906  0.47468  0.76468  1.0000
  H   H1747     1.0  0.00460  0.38768  0.77617  1.0000
  H   H1748     1.0  0.69781  0.48248  0.93278  1.0000
  H   H1749     1.0  0.00067  0.33045  0.76034  1.0000
  H   H1750     1.0  0.72174  0.26112  0.53307  1.0000
  H   H1751     1.0  0.74806  0.28242  0.55012  1.0000
  C   C1465     1.0  0.94007  0.43315  0.72688  1.0000
  C   C1466     1.0  0.74788  0.28253  0.53271  1.0000
  C   C1467     1.0  0.93037  0.49431  0.73175  1.0000
  Fe  Fe196     1.0  0.68823  0.48854  0.79286  1.0000
  H   H1752     1.0  0.94704  0.40119  0.81249  1.0000
  S   S390      1.0  0.97439  0.29697  0.51513  1.0000
  H   H1753     1.0  0.81795  0.43730  0.53711  1.0000
  S   S391      1.0  0.85504  0.48512  0.64588  1.0000
  Fe  Fe197     1.0  0.78739  0.48309  0.01223  1.0000
  H   H1754     1.0  0.98141  0.31674  0.74645  1.0000
  C   C1468     1.0  0.95803  0.39895  0.73421  1.0000
  N   N98       1.0  0.00627  0.29608  0.75992  1.0000
  S   S392      1.0  0.88044  0.28546  0.00887  1.0000
  H   H1755     1.0  0.85890  0.50480  0.55021  1.0000
  H   H1756     1.0  0.86448  0.26804  0.96825  1.0000
  C   C1469     1.0  0.81330  0.45066  0.52551  1.0000
  C   C1470     1.0  0.76228  0.48921  0.78936  1.0000
  C   C1471     1.0  0.72873  0.48782  0.74774  1.0000
  H   H1757     1.0  0.84926  0.49124  0.75485  1.0000
  C   C1472     1.0  0.76238  0.50531  0.80412  1.0000
  H   H1758     1.0  0.84093  0.27992  0.54515  1.0000
  H   H1759     1.0  0.78962  0.26941  0.00313  1.0000
  H   H1760     1.0  0.79555  0.45060  0.52488  1.0000
  C   C1473     1.0  0.83529  0.49373  0.76675  1.0000
  C   C1474     1.0  0.74101  0.47602  0.73212  1.0000
  H   H1761     1.0  0.94207  0.43038  0.70926  1.0000
  C   C1475     1.0  0.95032  0.45187  0.79126  1.0000
  N   N99       1.0  0.83500  0.26277  0.51683  1.0000
  S   S393      1.0  0.78040  0.31062  0.53307  1.0000
  H   H1762     1.0  0.81365  0.27458  0.54314  1.0000
  S   S394      1.0  0.80747  0.35607  0.00546  1.0000
  C   C1476     1.0  0.94827  0.41413  0.80033  1.0000
  H   H1763     1.0  0.95855  0.27606  0.94503  1.0000
  C   C1477     1.0  0.79134  0.39792  0.00461  1.0000
  C   C1478     1.0  0.97835  0.43034  0.73075  1.0000
  C   C1479     1.0  0.94393  0.49155  0.71316  1.0000
  S   S395      1.0  0.78995  0.50291  0.98115  1.0000
  N   N100      1.0  0.95750  0.42204  0.73900  1.0000
  H   H1764     1.0  0.90248  0.33385  0.51646  1.0000
  S   S396      1.0  0.99931  0.35326  0.80795  1.0000
  H   H1765     1.0  0.92401  0.42786  0.73296  1.0000
  H   H1766     1.0  0.97129  0.38974  0.74230  1.0000
  H   H1767     1.0  0.90547  0.48593  0.67706  1.0000
  H   H1768     1.0  0.99182  0.42302  0.74000  1.0000
  H   H1769     1.0  0.73353  0.33916  0.53500  1.0000
  C   C1480     1.0  0.93473  0.48866  0.69346  1.0000
  Fe  Fe198     1.0  0.84995  0.49160  0.68138  1.0000
  H   H1770     1.0  0.95062  0.46820  0.79638  1.0000
  H   H1771     1.0  0.79923  0.45497  0.96239  1.0000
  C   C1481     1.0  0.70834  0.49255  0.92289  1.0000
  H   H1772     1.0  0.81764  0.46562  0.53281  1.0000
  C   C1482     1.0  0.94792  0.43522  0.80671  1.0000
  N   N101      1.0  0.85236  0.38397  0.95411  1.0000
  C   C1483     1.0  0.84161  0.36442  0.94888  1.0000
  C   C1484     1.0  0.86908  0.38813  0.93667  1.0000
  C   C1485     1.0  0.86305  0.37897  0.97452  1.0000
  C   C1486     1.0  0.83746  0.40320  0.95637  1.0000
  C   C1487     1.0  0.81535  0.40326  0.95207  1.0000
  C   C1488     1.0  0.84508  0.42285  0.96259  1.0000
  C   C1489     1.0  0.80189  0.42187  0.95391  1.0000
  C   C1490     1.0  0.83137  0.44122  0.96477  1.0000
  Fe  Fe199     1.0  0.00756  0.32851  0.83481  1.0000
  H   H1773     1.0  0.85315  0.35016  0.94792  1.0000
  H   H1774     1.0  0.82897  0.36027  0.96161  1.0000
  H   H1775     1.0  0.83430  0.36633  0.93299  1.0000
  H   H1776     1.0  0.86171  0.39249  0.92110  1.0000
  H   H1777     1.0  0.88027  0.37374  0.93417  1.0000
  H   H1778     1.0  0.87914  0.40142  0.94039  1.0000
  H   H1779     1.0  0.87253  0.39217  0.97945  1.0000
  H   H1780     1.0  0.85101  0.37543  0.98792  1.0000
  H   H1781     1.0  0.87451  0.36470  0.97315  1.0000
  H   H1782     1.0  0.77800  0.39191  0.99687  1.0000
  H   H1783     1.0  0.86165  0.42416  0.96606  1.0000
  H   H1784     1.0  0.82736  0.47804  0.72972  1.0000
  C   C1491     1.0  0.00264  0.27836  0.74573  1.0000
  Fe  Fe200     1.0  0.75358  0.50532  0.98376  1.0000
  C   C1492     1.0  0.73295  0.27035  0.52308  1.0000
  H   H1785     1.0  0.92610  0.29088  0.96558  1.0000
  C   C1493     1.0  0.98901  0.26146  0.75211  1.0000
  C   C1494     1.0  0.76224  0.29514  0.52005  1.0000
  C   C1495     1.0  0.94905  0.28933  0.93807  1.0000
  C   C1496     1.0  0.99803  0.39065  0.83066  1.0000
  H   H1786     1.0  0.74890  0.47882  0.79000  1.0000
  H   H1787     1.0  0.86791  0.27138  0.51849  1.0000
  Fe  Fe201     1.0  0.99273  0.49450  0.74250  1.0000
  C   C1497     1.0  0.81309  0.47977  0.74132  1.0000
  C   C1498     1.0  0.79665  0.50018  0.77211  1.0000
  Fe  Fe202     1.0  0.99830  0.29831  0.87381  1.0000
  H   H1788     1.0  0.93717  0.49662  0.74701  1.0000
  H   H1789     1.0  0.70425  0.31522  0.53005  1.0000
  C   C1499     1.0  0.99805  0.41309  0.83203  1.0000
  C   C1500     1.0  0.83030  0.26767  0.53989  1.0000
  H   H1790     1.0  0.83732  0.45585  0.97035  1.0000
  C   C1501     1.0  0.75867  0.50800  0.71841  1.0000
  N   N102      1.0  0.81490  0.49775  0.75581  1.0000
  S   S397      1.0  0.72867  0.49660  0.96042  1.0000
  S   S398      1.0  0.86971  0.33757  0.01269  1.0000
  H   H1791     1.0  0.94024  0.32793  0.52685  1.0000
  H   H1792     1.0  0.77891  0.43098  0.00266  1.0000
  H   H1793     1.0  0.00774  0.32051  0.73414  1.0000
  C   C1502     1.0  0.72540  0.50167  0.93234  1.0000
  C   C1503     1.0  0.00307  0.41712  0.79321  1.0000
  H   H1794     1.0  0.68696  0.48005  0.70981  1.0000
  C   C1504     1.0  0.79182  0.42005  0.00786  1.0000
  C   C1505     1.0  0.69420  0.49467  0.70414  1.0000
  H   H1795     1.0  0.85268  0.43478  0.51891  1.0000
  H   H1796     1.0  0.00023  0.27916  0.79053  1.0000
  C   C1506     1.0  0.00282  0.39469  0.79182  1.0000
  H   H1797     1.0  0.82861  0.50772  0.57759  1.0000
  H   H1798     1.0  0.87276  0.27275  0.94078  1.0000
  C   C1507     1.0  0.87868  0.26682  0.95654  1.0000
  S   S399      1.0  0.98040  0.50348  0.77579  1.0000
  S   S400      1.0  0.80395  0.50288  0.64133  1.0000
  H   H1799     1.0  0.71730  0.47668  0.68380  1.0000
  C   C1508     1.0  0.72810  0.33727  0.51896  1.0000
  H   H1800     1.0  0.73691  0.50832  0.67067  1.0000
  C   C1509     1.0  0.73213  0.50964  0.74914  1.0000
  H   H1801     1.0  0.83904  0.50736  0.77646  1.0000
  H   H1802     1.0  0.74925  0.50726  0.81631  1.0000
  C   C1510     1.0  0.71833  0.50919  0.88780  1.0000
  H   H1803     1.0  0.98072  0.26030  0.76786  1.0000
  H   H1804     1.0  0.00908  0.35575  0.52326  1.0000
  H   H1805     1.0  0.68724  0.47221  0.01301  1.0000
  H   H1806     1.0  0.78166  0.65028  0.04730  1.0000
  S   S401      1.0  0.78762  0.51143  0.03316  1.0000
  S   S402      1.0  0.98023  0.70228  0.17509  1.0000
  C   C1511     1.0  0.80847  0.59405  0.06013  1.0000
  H   H1807     1.0  0.99005  0.61606  0.24006  1.0000
  C   C1512     1.0  0.99590  0.68192  0.02139  1.0000
  Fe  Fe203     1.0  0.99372  0.70100  0.14070  1.0000
  S   S403      1.0  0.97649  0.70970  0.10973  1.0000
  C   C1513     1.0  0.77648  0.61666  0.05380  1.0000
  Fe  Fe204     1.0  0.87433  0.69262  0.04248  1.0000
  H   H1808     1.0  0.83801  0.61045  0.05895  1.0000
  S   S404      1.0  0.88898  0.68137  0.07420  1.0000
  H   H1809     1.0  0.92117  0.53635  0.24378  1.0000
  H   H1810     1.0  0.92783  0.68733  0.48205  1.0000
  C   C1514     1.0  0.78584  0.59580  0.05825  1.0000
  H   H1811     1.0  0.93267  0.72576  0.13641  1.0000
  C   C1515     1.0  0.96427  0.75403  0.14651  1.0000
  S   S405      1.0  0.83829  0.69681  0.04071  1.0000
  S   S406      1.0  0.82551  0.67518  0.48756  1.0000
  H   H1812     1.0  0.89091  0.67863  0.49540  1.0000
  Fe  Fe205     1.0  0.82651  0.63895  0.48838  1.0000
  S   S407      1.0  0.83914  0.61964  0.45962  1.0000
  H   H1813     1.0  0.69874  0.56962  0.21982  1.0000
  Fe  Fe206     1.0  0.81000  0.52942  0.38224  1.0000
  S   S408      1.0  0.79386  0.54982  0.40899  1.0000
  S   S409      1.0  0.87725  0.53650  0.33393  1.0000
  S   S410      1.0  0.81298  0.53750  0.34631  1.0000
  C   C1516     1.0  0.72783  0.51252  0.08773  1.0000
  H   H1814     1.0  0.96507  0.74717  0.46914  1.0000
  C   C1517     1.0  0.72663  0.71887  0.49980  1.0000
  Fe  Fe207     1.0  0.84646  0.52167  0.34760  1.0000
  C   C1518     1.0  0.99066  0.74652  0.40005  1.0000
  C   C1519     1.0  0.91724  0.53368  0.31277  1.0000
  S   S411      1.0  0.84394  0.51622  0.38369  1.0000
  H   H1815     1.0  0.92020  0.54782  0.32130  1.0000
  C   C1520     1.0  0.82615  0.60015  0.44601  1.0000
  C   C1521     1.0  0.83772  0.58923  0.42931  1.0000
  C   C1522     1.0  0.82822  0.57350  0.41811  1.0000
  C   C1523     1.0  0.80699  0.56851  0.42350  1.0000
  C   C1524     1.0  0.79549  0.57921  0.44042  1.0000
  C   C1525     1.0  0.80496  0.59501  0.45158  1.0000
  H   H1816     1.0  0.85412  0.59307  0.42487  1.0000
  H   H1817     1.0  0.83722  0.56547  0.40506  1.0000
  H   H1818     1.0  0.77900  0.57555  0.44458  1.0000
  H   H1819     1.0  0.79578  0.60324  0.46433  1.0000
  C   C1526     1.0  0.68042  0.59209  0.25139  1.0000
  Fe  Fe208     1.0  0.98705  0.73173  0.50904  1.0000
  S   S412      1.0  0.00471  0.52797  0.26867  1.0000
  H   H1820     1.0  0.77429  0.57067  0.02684  1.0000
  H   H1821     1.0  0.00176  0.72920  0.44066  1.0000
  H   H1822     1.0  0.97827  0.75634  0.15621  1.0000
  H   H1823     1.0  0.69273  0.59634  0.20913  1.0000
  S   S413      1.0  0.99430  0.64951  0.20733  1.0000
  H   H1824     1.0  0.75951  0.61923  0.05159  1.0000
  H   H1825     1.0  0.67846  0.57391  0.20101  1.0000
  C   C1527     1.0  0.95238  0.70106  0.10002  1.0000
  C   C1528     1.0  0.94525  0.71022  0.08043  1.0000
  C   C1529     1.0  0.92608  0.70417  0.07214  1.0000
  C   C1530     1.0  0.91371  0.68893  0.08345  1.0000
  C   C1531     1.0  0.92083  0.67980  0.10307  1.0000
  C   C1532     1.0  0.94006  0.68580  0.11132  1.0000
  H   H1826     1.0  0.95458  0.72215  0.07163  1.0000
  H   H1827     1.0  0.92076  0.71143  0.05711  1.0000
  H   H1828     1.0  0.91136  0.66803  0.11195  1.0000
  H   H1829     1.0  0.94531  0.67861  0.12639  1.0000
  S   S414      1.0  0.72889  0.52313  0.06073  1.0000
  C   C1533     1.0  0.71691  0.73983  0.50058  1.0000
  C   C1534     1.0  0.74050  0.53078  0.28209  1.0000
  H   H1830     1.0  0.74373  0.59416  0.07401  1.0000
  H   H1831     1.0  0.83208  0.56319  0.47372  1.0000
  H   H1832     1.0  0.69358  0.51316  0.13300  1.0000
  S   S415      1.0  0.99785  0.75643  0.19682  1.0000
  Fe  Fe209     1.0  0.75192  0.51352  0.03240  1.0000
  H   H1833     1.0  0.69964  0.74231  0.50058  1.0000
  Fe  Fe210     1.0  0.79335  0.67293  0.50610  1.0000
  H   H1834     1.0  0.81483  0.54467  0.48798  1.0000
  H   H1835     1.0  0.79904  0.57515  0.50810  1.0000
  H   H1836     1.0  0.93927  0.72883  0.17242  1.0000
  H   H1837     1.0  0.00150  0.57736  0.24137  1.0000
  C   C1535     1.0  0.78893  0.63459  0.05151  1.0000
  C   C1536     1.0  0.97245  0.75112  0.41435  1.0000
  C   C1537     1.0  0.98566  0.72252  0.44008  1.0000
  C   C1538     1.0  0.70955  0.51750  0.10130  1.0000
  C   C1539     1.0  0.72961  0.75748  0.50106  1.0000
  Fe  Fe211     1.0  0.84383  0.72722  0.02084  1.0000
  S   S416      1.0  0.69194  0.52635  0.19574  1.0000
  H   H1838     1.0  0.94518  0.72002  0.45215  1.0000
  C   C1540     1.0  0.82071  0.61214  0.05804  1.0000
  H   H1839     1.0  0.79684  0.55246  0.05293  1.0000
  H   H1840     1.0  0.86708  0.56182  0.50398  1.0000
  H   H1841     1.0  0.80371  0.52738  0.25360  1.0000
  H   H1842     1.0  0.00316  0.73460  0.40395  1.0000
  H   H1843     1.0  0.75229  0.58880  0.03476  1.0000
  H   H1844     1.0  0.91210  0.55475  0.22264  1.0000
  H   H1845     1.0  0.87965  0.75514  0.10406  1.0000
  S   S417      1.0  0.76041  0.68843  0.49829  1.0000
  C   C1541     1.0  0.97505  0.68988  0.02674  1.0000
  H   H1846     1.0  0.93869  0.53201  0.19840  1.0000
  C   C1542     1.0  0.85333  0.57342  0.50752  1.0000
  H   H1847     1.0  0.81725  0.57886  0.06267  1.0000
  H   H1848     1.0  0.69650  0.52764  0.09511  1.0000
  H   H1849     1.0  0.98650  0.71000  0.42784  1.0000
  H   H1850     1.0  0.71664  0.70538  0.49926  1.0000
  C   C1543     1.0  0.94789  0.72954  0.43667  1.0000
  H   H1851     1.0  0.95996  0.53556  0.25216  1.0000
  H   H1852     1.0  0.76218  0.58366  0.09346  1.0000
  C   C1544     1.0  0.76179  0.73287  0.50028  1.0000
  H   H1853     1.0  0.73730  0.54784  0.27943  1.0000
  S   S418      1.0  0.95979  0.71229  0.49829  1.0000
  H   H1854     1.0  0.92449  0.75006  0.18615  1.0000
  C   C1545     1.0  0.89234  0.75640  0.11503  1.0000
  H   H1855     1.0  0.75100  0.56087  0.04158  1.0000
  C   C1546     1.0  0.68545  0.58115  0.21488  1.0000
  H   H1856     1.0  0.82066  0.64620  0.05125  1.0000
  C   C1547     1.0  0.89718  0.52453  0.31598  1.0000
  C   C1548     1.0  0.90594  0.73859  0.11961  1.0000
  C   C1549     1.0  0.90017  0.68858  0.50467  1.0000
  H   H1857     1.0  0.94620  0.51701  0.22241  1.0000
  Fe  Fe212     1.0  0.00648  0.72414  0.18109  1.0000
  H   H1858     1.0  0.84337  0.53912  0.48593  1.0000
  C   C1550     1.0  0.93351  0.70652  0.50891  1.0000
  C   C1551     1.0  0.81097  0.63234  0.05374  1.0000
  C   C1552     1.0  0.99856  0.60905  0.22616  1.0000
  C   C1553     1.0  0.83058  0.55207  0.48819  1.0000
  C   C1554     1.0  0.81536  0.58109  0.50923  1.0000
  C   C1555     1.0  0.76199  0.57432  0.04008  1.0000
  H   H1859     1.0  0.76460  0.53460  0.30512  1.0000
  C   C1556     1.0  0.74910  0.71523  0.49976  1.0000
  H   H1860     1.0  0.85446  0.58629  0.49450  1.0000
  C   C1557     1.0  0.99353  0.75778  0.38019  1.0000
  C   C1558     1.0  0.75209  0.75384  0.50083  1.0000
  S   S419      1.0  0.87946  0.72420  0.02526  1.0000
  C   C1559     1.0  0.79805  0.51184  0.25042  1.0000
  H   H1861     1.0  0.79230  0.55730  0.08146  1.0000
  C   C1560     1.0  0.92245  0.74005  0.13356  1.0000
  N   N103      1.0  0.94644  0.55149  0.22432  1.0000
  C   C1561     1.0  0.92439  0.55183  0.23481  1.0000
  C   C1562     1.0  0.94953  0.53160  0.21198  1.0000
  C   C1563     1.0  0.96206  0.55003  0.24132  1.0000
  C   C1564     1.0  0.94977  0.57133  0.21086  1.0000
  C   C1565     1.0  0.95963  0.57111  0.18958  1.0000
  C   C1566     1.0  0.94464  0.59177  0.21956  1.0000
  C   C1567     1.0  0.96361  0.59019  0.17775  1.0000
  C   C1568     1.0  0.94867  0.61072  0.20755  1.0000
  C   C1569     1.0  0.95810  0.60992  0.18669  1.0000
  N   N104      1.0  0.96885  0.73966  0.43556  1.0000
  H   H1862     1.0  0.68615  0.60849  0.24793  1.0000
  H   H1863     1.0  0.92162  0.56423  0.24708  1.0000
  H   H1864     1.0  0.96644  0.52896  0.20543  1.0000
  H   H1865     1.0  0.90375  0.72356  0.11216  1.0000
  C   C1570     1.0  0.75598  0.52332  0.29675  1.0000
  H   H1866     1.0  0.96043  0.56414  0.25168  1.0000
  H   H1867     1.0  0.98239  0.71418  0.45609  1.0000
  H   H1868     1.0  0.97879  0.54908  0.23399  1.0000
  H   H1869     1.0  0.96495  0.55647  0.18185  1.0000
  H   H1870     1.0  0.93815  0.59331  0.23596  1.0000
  H   H1871     1.0  0.97162  0.58970  0.16177  1.0000
  H   H1872     1.0  0.94531  0.62617  0.21469  1.0000
  H   H1873     1.0  0.96190  0.62467  0.17775  1.0000
  N   N105      1.0  0.77469  0.65797  0.43353  1.0000
  C   C1571     1.0  0.75403  0.65633  0.44657  1.0000
  C   C1572     1.0  0.79192  0.65828  0.44888  1.0000
  C   C1573     1.0  0.77370  0.67871  0.42100  1.0000
  C   C1574     1.0  0.77944  0.64023  0.41861  1.0000
  C   C1575     1.0  0.79932  0.63871  0.40622  1.0000
  C   C1576     1.0  0.76474  0.62416  0.41580  1.0000
  C   C1577     1.0  0.80430  0.62201  0.39219  1.0000
  C   C1578     1.0  0.76988  0.60759  0.40163  1.0000
  C   C1579     1.0  0.78960  0.60651  0.38989  1.0000
  H   H1874     1.0  0.75392  0.64123  0.45678  1.0000
  H   H1875     1.0  0.75115  0.66972  0.45788  1.0000
  H   H1876     1.0  0.74007  0.65725  0.43622  1.0000
  H   H1877     1.0  0.79440  0.64235  0.45730  1.0000
  H   H1878     1.0  0.78801  0.67037  0.46138  1.0000
  H   H1879     1.0  0.80767  0.66232  0.44092  1.0000
  H   H1880     1.0  0.76982  0.69243  0.43172  1.0000
  H   H1881     1.0  0.78923  0.68189  0.41203  1.0000
  H   H1882     1.0  0.76118  0.67901  0.40897  1.0000
  H   H1883     1.0  0.81135  0.65022  0.40752  1.0000
  H   H1884     1.0  0.74932  0.62377  0.42458  1.0000
  H   H1885     1.0  0.81983  0.62077  0.38340  1.0000
  H   H1886     1.0  0.75884  0.59505  0.40015  1.0000
  H   H1887     1.0  0.79374  0.59320  0.37949  1.0000
  C   C1580     1.0  0.93993  0.74573  0.17706  1.0000
  H   H1888     1.0  0.78284  0.52339  0.22222  1.0000
  H   H1889     1.0  0.94703  0.71853  0.42319  1.0000
  H   H1890     1.0  0.77365  0.54290  0.06778  1.0000
  H   H1891     1.0  0.74528  0.56618  0.08073  1.0000
  N   N106      1.0  0.77226  0.57707  0.06057  1.0000
  C   C1581     1.0  0.78439  0.55659  0.06598  1.0000
  C   C1582     1.0  0.75516  0.58048  0.07796  1.0000
  H   H1892     1.0  0.96528  0.73681  0.14287  1.0000
  H   H1893     1.0  0.77907  0.73042  0.50008  1.0000
  H   H1894     1.0  0.00660  0.67749  0.03416  1.0000
  C   C1583     1.0  0.92114  0.69359  0.49712  1.0000
  C   C1584     1.0  0.00320  0.62208  0.20760  1.0000
  H   H1895     1.0  0.94892  0.53172  0.29650  1.0000
  H   H1896     1.0  0.00770  0.75436  0.36968  1.0000
  S   S420      1.0  0.70963  0.52677  0.25271  1.0000
  H   H1897     1.0  0.74896  0.51938  0.21263  1.0000
  H   H1898     1.0  0.93411  0.74154  0.43594  1.0000
  Fe  Fe213     1.0  0.00453  0.67504  0.18200  1.0000
  H   H1899     1.0  0.68639  0.75898  0.03600  1.0000
  C   C1585     1.0  0.96857  0.75507  0.45302  1.0000
  C   C1586     1.0  0.72912  0.51638  0.27094  1.0000
  H   H1900     1.0  0.95305  0.74594  0.18842  1.0000
  H   H1901     1.0  0.78761  0.51213  0.48107  1.0000
  N   N107      1.0  0.83229  0.56340  0.50844  1.0000
  C   C1587     1.0  0.93354  0.52460  0.29869  1.0000
  H   H1902     1.0  0.69461  0.58114  0.25503  1.0000
  C   C1588     1.0  0.00492  0.58706  0.22689  1.0000
  S   S421      1.0  0.79375  0.63688  0.50464  1.0000
  H   H1903     1.0  0.81766  0.59301  0.49555  1.0000
  H   H1904     1.0  0.96955  0.69143  0.04355  1.0000
  C   C1589     1.0  0.92586  0.75953  0.14342  1.0000
  H   H1905     1.0  0.94511  0.70233  0.01463  1.0000
  C   C1590     1.0  0.83497  0.61627  0.00512  1.0000
  S   S422      1.0  0.84720  0.71082  0.98924  1.0000
  Fe  Fe214     1.0  0.88248  0.70583  0.99477  1.0000
  S   S423      1.0  0.90997  0.71839  0.97264  1.0000
  Fe  Fe215     1.0  0.78787  0.53168  0.00234  1.0000
  C   C1591     1.0  0.75656  0.74149  0.55302  1.0000
  S   S424      1.0  0.95472  0.68306  0.88525  1.0000
  C   C1592     1.0  0.69372  0.56112  0.89599  1.0000
  H   H1906     1.0  0.74589  0.52845  0.88738  1.0000
  H   H1907     1.0  0.69395  0.74187  0.00026  1.0000
  S   S425      1.0  0.79816  0.61361  0.56315  1.0000
  H   H1908     1.0  0.87101  0.62111  0.55939  1.0000
  C   C1593     1.0  0.68704  0.51509  0.71191  1.0000
  S   S426      1.0  0.80771  0.67120  0.53844  1.0000
  H   H1909     1.0  0.75209  0.52175  0.92635  1.0000
  S   S427      1.0  0.83368  0.52413  0.67548  1.0000
  C   C1594     1.0  0.75255  0.71979  0.55376  1.0000
  S   S428      1.0  0.85048  0.53879  0.61337  1.0000
  C   C1595     1.0  0.87701  0.66130  0.59308  1.0000
  C   C1596     1.0  0.77928  0.51896  0.80308  1.0000
  C   C1597     1.0  0.81299  0.59270  0.57665  1.0000
  C   C1598     1.0  0.80278  0.58108  0.59382  1.0000
  C   C1599     1.0  0.81399  0.56438  0.60510  1.0000
  C   C1600     1.0  0.83557  0.55919  0.59927  1.0000
  C   C1601     1.0  0.84578  0.57076  0.58200  1.0000
  C   C1602     1.0  0.83453  0.58745  0.57071  1.0000
  H   H1910     1.0  0.78610  0.58505  0.59851  1.0000
  H   H1911     1.0  0.80601  0.55562  0.61839  1.0000
  H   H1912     1.0  0.86249  0.56683  0.57747  1.0000
  H   H1913     1.0  0.84250  0.59627  0.55753  1.0000
  C   C1603     1.0  0.81634  0.51768  0.74203  1.0000
  H   H1914     1.0  0.93312  0.61108  0.88013  1.0000
  H   H1915     1.0  0.72338  0.51885  0.76145  1.0000
  S   S429      1.0  0.84357  0.63489  0.51939  1.0000
  H   H1916     1.0  0.68393  0.55301  0.85236  1.0000
  C   C1604     1.0  0.71640  0.53041  0.68913  1.0000
  S   S430      1.0  0.75173  0.53553  0.00261  1.0000
  H   H1917     1.0  0.82895  0.51590  0.72859  1.0000
  C   C1605     1.0  0.83366  0.59380  0.00547  1.0000
  H   H1918     1.0  0.86898  0.66697  0.60845  1.0000
  C   C1606     1.0  0.92176  0.70831  0.94819  1.0000
  C   C1607     1.0  0.93890  0.71900  0.93769  1.0000
  C   C1608     1.0  0.94932  0.71132  0.91856  1.0000
  C   C1609     1.0  0.94238  0.69306  0.90951  1.0000
  C   C1610     1.0  0.92499  0.68257  0.91979  1.0000
  C   C1611     1.0  0.91482  0.69004  0.93916  1.0000
  H   H1919     1.0  0.94427  0.73325  0.94449  1.0000
  H   H1920     1.0  0.96250  0.71969  0.91065  1.0000
  H   H1921     1.0  0.91940  0.66852  0.91283  1.0000
  H   H1922     1.0  0.90161  0.68170  0.94706  1.0000
  C   C1612     1.0  0.83059  0.54785  0.52712  1.0000
  S   S431      1.0  0.71398  0.51548  0.86011  1.0000
  C   C1613     1.0  0.98066  0.63111  0.86240  1.0000
  H   H1923     1.0  0.96413  0.67900  0.94898  1.0000
  H   H1924     1.0  0.69031  0.75783  0.97581  1.0000
  H   H1925     1.0  0.99401  0.60716  0.78487  1.0000
  C   C1614     1.0  0.96386  0.60034  0.85007  1.0000
  H   H1926     1.0  0.86831  0.73931  0.95500  1.0000
  H   H1927     1.0  0.83450  0.74718  0.94503  1.0000
  H   H1928     1.0  0.00718  0.63276  0.80979  1.0000
  H   H1929     1.0  0.76537  0.70798  0.54955  1.0000
  C   C1615     1.0  0.81227  0.53393  0.56058  1.0000
  C   C1616     1.0  0.96132  0.69598  0.01047  1.0000
  C   C1617     1.0  0.88616  0.61498  0.60801  1.0000
  C   C1618     1.0  0.84730  0.61713  0.61221  1.0000
  C   C1619     1.0  0.88677  0.59749  0.62286  1.0000
  C   C1620     1.0  0.84814  0.59981  0.62724  1.0000
  C   C1621     1.0  0.86778  0.58981  0.63231  1.0000
  H   H1930     1.0  0.90132  0.62031  0.60110  1.0000
  H   H1931     1.0  0.90200  0.58958  0.62687  1.0000
  H   H1932     1.0  0.83341  0.59349  0.63440  1.0000
  H   H1933     1.0  0.86820  0.57580  0.64328  1.0000
  H   H1934     1.0  0.72567  0.54403  0.68389  1.0000
  C   C1622     1.0  0.98026  0.67061  0.94898  1.0000
  S   S432      1.0  0.00865  0.71835  0.87365  1.0000
  H   H1935     1.0  0.97832  0.65460  0.95720  1.0000
  H   H1936     1.0  0.80885  0.52755  0.78712  1.0000
  C   C1623     1.0  0.71513  0.72858  0.56374  1.0000
  H   H1937     1.0  0.81558  0.59005  0.52431  1.0000
  S   S433      1.0  0.77536  0.52190  0.69893  1.0000
  H   H1938     1.0  0.94442  0.63499  0.88853  1.0000
  C   C1624     1.0  0.94842  0.61912  0.88126  1.0000
  C   C1625     1.0  0.96832  0.69392  0.98880  1.0000
  Fe  Fe216     1.0  0.98893  0.68943  0.87260  1.0000
  H   H1939     1.0  0.69835  0.57797  0.89672  1.0000
  H   H1940     1.0  0.93070  0.63133  0.84425  1.0000
  C   C1626     1.0  0.84596  0.51685  0.54786  1.0000
  S   S434      1.0  0.69154  0.52112  0.80524  1.0000
  C   C1627     1.0  0.95627  0.59561  0.82978  1.0000
  C   C1628     1.0  0.00878  0.73445  0.74132  1.0000
  C   C1629     1.0  0.86638  0.62509  0.60188  1.0000
  H   H1941     1.0  0.98956  0.63375  0.84658  1.0000
  C   C1630     1.0  0.79780  0.62043  0.99634  1.0000
  C   C1631     1.0  0.97246  0.55950  0.83218  1.0000
  H   H1942     1.0  0.69940  0.72275  0.56774  1.0000
  S   S435      1.0  0.99974  0.68231  0.83805  1.0000
  N   N108      1.0  0.99607  0.68278  0.95963  1.0000
  H   H1943     1.0  0.98516  0.66818  0.93165  1.0000
  H   H1944     1.0  0.79085  0.74406  0.00715  1.0000
  S   S436      1.0  0.87932  0.67364  0.01230  1.0000
  C   C1632     1.0  0.71854  0.75088  0.56274  1.0000
  Fe  Fe217     1.0  0.84012  0.67094  0.51994  1.0000
  H   H1945     1.0  0.97830  0.64690  0.86991  1.0000
  H   H1946     1.0  0.89144  0.75375  0.94830  1.0000
  C   C1633     1.0  0.82883  0.51834  0.56326  1.0000
  C   C1634     1.0  0.69877  0.53288  0.70400  1.0000
  H   H1947     1.0  0.94420  0.65291  0.85424  1.0000
  H   H1948     1.0  0.79598  0.75423  0.94458  1.0000
  H   H1949     1.0  0.95535  0.57232  0.80524  1.0000
  H   H1950     1.0  0.72881  0.69645  0.55919  1.0000
  H   H1951     1.0  0.94738  0.60729  0.82003  1.0000
  H   H1952     1.0  0.77257  0.74644  0.54823  1.0000
  H   H1953     1.0  0.95709  0.69926  0.97687  1.0000
  C   C1635     1.0  0.69350  0.75853  0.99315  1.0000
  H   H1954     1.0  0.98981  0.55129  0.86041  1.0000
  H   H1955     1.0  0.83472  0.65732  0.59401  1.0000
  C   C1636     1.0  0.84678  0.53120  0.52991  1.0000
  H   H1956     1.0  0.69955  0.55193  0.91050  1.0000
  H   H1957     1.0  0.86039  0.52937  0.51844  1.0000
  C   C1637     1.0  0.97592  0.58368  0.86094  1.0000
  S   S437      1.0  0.00126  0.56202  0.78009  1.0000
  H   H1958     1.0  0.98187  0.71387  0.95020  1.0000
  C   C1638     1.0  0.73537  0.51835  0.89723  1.0000
  Fe  Fe218     1.0  0.84357  0.67991  0.00929  1.0000
  Fe  Fe219     1.0  0.81051  0.63546  0.53559  1.0000
  H   H1959     1.0  0.97631  0.54416  0.82496  1.0000
  H   H1960     1.0  0.69469  0.54881  0.70956  1.0000
  H   H1961     1.0  0.98124  0.74896  0.70894  1.0000
  H   H1962     1.0  0.89521  0.63208  0.56701  1.0000
  H   H1963     1.0  0.89697  0.71560  0.55108  1.0000
  H   H1964     1.0  0.79917  0.53524  0.57285  1.0000
  H   H1965     1.0  0.84459  0.66401  0.56725  1.0000
  C   C1639     1.0  0.73892  0.51461  0.91935  1.0000
  C   C1640     1.0  0.81303  0.54854  0.54286  1.0000
  C   C1641     1.0  0.99735  0.70427  0.94870  1.0000
  H   H1966     1.0  0.87680  0.67512  0.58103  1.0000
  H   H1967     1.0  0.95818  0.60960  0.89301  1.0000
  C   C1642     1.0  0.84420  0.65074  0.57980  1.0000
  C   C1643     1.0  0.74682  0.51968  0.73439  1.0000
  H   H1968     1.0  0.80084  0.52200  0.73460  1.0000
  H   H1969     1.0  0.89416  0.65722  0.59600  1.0000
  H   H1970     1.0  0.68505  0.74718  0.59278  1.0000
  H   H1971     1.0  0.00186  0.70314  0.93111  1.0000
  H   H1972     1.0  0.83143  0.62348  0.60853  1.0000
  H   H1973     1.0  0.68683  0.51551  0.75551  1.0000
  C   C1644     1.0  0.96056  0.57544  0.82109  1.0000
  C   C1645     1.0  0.73189  0.71335  0.55910  1.0000
  H   H1974     1.0  0.87691  0.64835  0.55185  1.0000
  C   C1646     1.0  0.94687  0.63716  0.84648  1.0000
  C   C1647     1.0  0.79649  0.59796  0.99671  1.0000
  C   C1648     1.0  0.87782  0.63574  0.56508  1.0000
  Fe  Fe220     1.0  0.83641  0.51679  0.64025  1.0000
  N   N109      1.0  0.86617  0.64289  0.58530  1.0000
  H   H1975     1.0  0.77921  0.53154  0.81456  1.0000
  H   H1976     1.0  0.83527  0.63781  0.57327  1.0000
  C   C1649     1.0  0.87357  0.75518  0.94856  1.0000
  C   C1650     1.0  0.98014  0.56360  0.85207  1.0000
  H   H1977     1.0  0.74885  0.53668  0.73522  1.0000
  N   N110      1.0  0.95990  0.62156  0.85972  1.0000
  H   H1978     1.0  0.84985  0.62317  0.00838  1.0000
  H   H1979     1.0  0.70302  0.55411  0.88194  1.0000
  C   C1651     1.0  0.00303  0.67965  0.99974  1.0000
  H   H1980     1.0  0.99145  0.62098  0.87273  1.0000
  C   C1652     1.0  0.81442  0.58448  0.00138  1.0000
  H   H1981     1.0  0.99196  0.73934  0.74331  1.0000
  C   C1653     1.0  0.98925  0.68525  0.98273  1.0000
  H   H1982     1.0  0.98255  0.58619  0.87622  1.0000
  H   H1983     1.0  0.95512  0.64062  0.83039  1.0000
  H   H1984     1.0  0.82037  0.53161  0.75116  1.0000
  S   S438      1.0  0.81392  0.55599  0.00211  1.0000
  H   H1985     1.0  0.79997  0.56063  0.54233  1.0000
  C   C1654     1.0  0.90367  0.70936  0.53600  1.0000
  H   H1986     1.0  0.86146  0.75362  0.99135  1.0000
  H   H1987     1.0  0.78387  0.63071  0.99268  1.0000
  H   H1988     1.0  0.78172  0.59112  0.99302  1.0000
  C   C1655     1.0  0.89129  0.69647  0.52417  1.0000
  H   H1989     1.0  0.93390  0.72438  0.53767  1.0000
  C   C1656     1.0  0.00471  0.60136  0.79715  1.0000
  C   C1657     1.0  0.81701  0.62974  0.00060  1.0000
  H   H1990     1.0  0.68301  0.54242  0.74474  1.0000
  H   H1991     1.0  0.86916  0.75762  0.93152  1.0000
  H   H1992     1.0  0.84768  0.58355  0.00896  1.0000
  Fe  Fe221     1.0  0.00730  0.52630  0.77393  1.0000
  C   C1658     1.0  0.79617  0.51651  0.78734  1.0000
  S   S439      1.0  0.81751  0.65820  0.00024  1.0000
  H   H1993     1.0  0.85590  0.58078  0.52308  1.0000
  C   C1659     1.0  0.73987  0.75691  0.55725  1.0000
  S   S440      1.0  0.86500  0.69053  0.53461  1.0000
  S   S441      1.0  0.00528  0.73150  0.53945  1.0000
  C   C1660     1.0  0.92464  0.71440  0.52843  1.0000
  H   H1994     1.0  0.98789  0.75111  0.80665  1.0000
  H   H1995     1.0  0.00664  0.71609  0.77159  1.0000
  C   C1661     1.0  0.72277  0.51025  0.68162  1.0000
  C   C1662     1.0  0.99878  0.75991  0.79585  1.0000
  H   H1996     1.0  0.86709  0.97117  0.39823  1.0000
  C   C1663     1.0  0.69984  0.96519  0.06128  1.0000
  H   H1997     1.0  0.71731  0.99197  0.27232  1.0000
  H   H1998     1.0  0.95944  0.78232  0.17706  1.0000
  S   S442      1.0  0.98757  0.83629  0.31254  1.0000
  H   H1999     1.0  0.99972  0.96748  0.29507  1.0000
  Fe  Fe222     1.0  0.71584  0.97458  0.14310  1.0000
  C   C1664     1.0  0.85266  0.93260  0.36596  1.0000
  S   S443      1.0  0.73160  0.94629  0.12504  1.0000
  H   H2000     1.0  0.93122  0.78785  0.17605  1.0000
  H   H2001     1.0  0.69483  0.92099  0.46869  1.0000
  S   S444      1.0  0.71633  0.97691  0.17921  1.0000
  Fe  Fe223     1.0  0.69182  0.86963  0.03684  1.0000
  C   C1665     1.0  0.80203  0.77216  0.02060  1.0000
  H   H2002     1.0  0.86871  0.92564  0.36014  1.0000
  H   H2003     1.0  0.78835  0.98224  0.37866  1.0000
  H   H2004     1.0  0.68595  0.93927  0.12285  1.0000
  C   C1666     1.0  0.71078  0.00552  0.22778  1.0000
  H   H2005     1.0  0.82357  0.96844  0.36523  1.0000
  H   H2006     1.0  0.70785  0.98137  0.08940  1.0000
  Fe  Fe224     1.0  0.87691  0.98310  0.31913  1.0000
  H   H2007     1.0  0.84129  0.91950  0.36742  1.0000
  S   S445      1.0  0.89652  0.95502  0.33413  1.0000
  C   C1667     1.0  0.77199  0.97238  0.16208  1.0000
  H   H2008     1.0  0.76209  0.76736  0.50112  1.0000
  S   S446      1.0  0.84081  0.98310  0.32239  1.0000
  C   C1668     1.0  0.83175  0.95069  0.39496  1.0000
  Fe  Fe225     1.0  0.99336  0.87125  0.30492  1.0000
  S   S447      1.0  0.97236  0.89740  0.28844  1.0000
  H   H2009     1.0  0.96659  0.76320  0.13084  1.0000
  S   S448      1.0  0.98944  0.83071  0.37749  1.0000
  C   C1669     1.0  0.68426  0.91526  0.09905  1.0000
  H   H2010     1.0  0.86107  0.97329  0.37028  1.0000
  H   H2011     1.0  0.86785  0.93518  0.41711  1.0000
  H   H2012     1.0  0.85487  0.91346  0.40564  1.0000
  H   H2013     1.0  0.95622  0.76842  0.45129  1.0000
  H   H2014     1.0  0.83296  0.93734  0.42828  1.0000
  H   H2015     1.0  0.84771  0.94390  0.35263  1.0000
  C   C1670     1.0  0.91795  0.93962  0.32117  1.0000
  C   C1671     1.0  0.92902  0.92345  0.33326  1.0000
  C   C1672     1.0  0.94582  0.91050  0.32354  1.0000
  C   C1673     1.0  0.95163  0.91353  0.30156  1.0000
  C   C1674     1.0  0.94077  0.92990  0.28953  1.0000
  C   C1675     1.0  0.92402  0.94292  0.29927  1.0000
  H   H2016     1.0  0.92445  0.92076  0.35020  1.0000
  H   H2017     1.0  0.95402  0.89795  0.33298  1.0000
  H   H2018     1.0  0.94512  0.93233  0.27251  1.0000
  H   H2019     1.0  0.91562  0.95525  0.28976  1.0000
  C   C1676     1.0  0.82233  0.94890  0.21260  1.0000
  C   C1677     1.0  0.79068  0.96742  0.41038  1.0000
  H   H2020     1.0  0.79068  0.95203  0.12796  1.0000
  H   H2021     1.0  0.77786  0.98841  0.15713  1.0000
  S   S449      1.0  0.82823  0.76101  0.02586  1.0000
  H   H2022     1.0  0.94915  0.79417  0.15277  1.0000
  H   H2023     1.0  0.88048  0.92165  0.39475  1.0000
  C   C1678     1.0  0.86455  0.92769  0.40183  1.0000
  H   H2024     1.0  0.98441  0.76220  0.45340  1.0000
  C   C1679     1.0  0.79800  0.97176  0.38910  1.0000
  H   H2025     1.0  0.77530  0.97437  0.41645  1.0000
  Fe  Fe226     1.0  0.84096  0.99933  0.28915  1.0000
  C   C1680     1.0  0.82817  0.98341  0.19509  1.0000
  H   H2026     1.0  0.80139  0.92900  0.19848  1.0000
  H   H2027     1.0  0.76789  0.93209  0.15269  1.0000
  H   H2028     1.0  0.78210  0.96827  0.24712  1.0000
  H   H2029     1.0  0.84464  0.99617  0.42956  1.0000
  H   H2030     1.0  0.68447  0.99113  0.01454  1.0000
  H   H2031     1.0  0.98308  0.00025  0.33157  1.0000
  C   C1681     1.0  0.80353  0.95488  0.42411  1.0000
  C   C1682     1.0  0.71736  0.92953  0.10934  1.0000
  C   C1683     1.0  0.69498  0.92913  0.11145  1.0000
  C   C1684     1.0  0.69208  0.99255  0.49332  1.0000
  C   C1685     1.0  0.69568  0.90201  0.08407  1.0000
  C   C1686     1.0  0.71806  0.90253  0.08184  1.0000
  C   C1687     1.0  0.72884  0.91612  0.09454  1.0000
  H   H2032     1.0  0.99705  0.92205  0.31664  1.0000
  C   C1688     1.0  0.80858  0.94429  0.19668  1.0000
  H   H2033     1.0  0.72707  0.89230  0.07050  1.0000
  H   H2034     1.0  0.74616  0.91625  0.09285  1.0000
  H   H2035     1.0  0.88392  0.95717  0.37830  1.0000
  C   C1689     1.0  0.71252  0.93401  0.49338  1.0000
  C   C1690     1.0  0.69983  0.91875  0.48502  1.0000
  H   H2036     1.0  0.71745  0.94760  0.48332  1.0000
  H   H2037     1.0  0.70540  0.98065  0.49708  1.0000
  Fe  Fe227     1.0  0.00328  0.84066  0.34378  1.0000
  H   H2038     1.0  0.82510  0.93754  0.22599  1.0000
  H   H2039     1.0  0.94353  0.77239  0.41766  1.0000
  C   C1691     1.0  0.77908  0.93445  0.16562  1.0000
  S   S450      1.0  0.73261  0.00526  0.13593  1.0000
  C   C1692     1.0  0.86697  0.96202  0.38328  1.0000
  C   C1693     1.0  0.00229  0.79854  0.43419  1.0000
  C   C1694     1.0  0.00211  0.81343  0.39701  1.0000
  C   C1695     1.0  0.80132  0.95540  0.14105  1.0000
  C   C1696     1.0  0.78453  0.98376  0.23919  1.0000
  H   H2040     1.0  0.86864  0.98838  0.50645  1.0000
  N   N111      1.0  0.85357  0.94325  0.38678  1.0000
  H   H2041     1.0  0.77229  0.81993  0.02504  1.0000
  H   H2042     1.0  0.94963  0.79220  0.38323  1.0000
  C   C1697     1.0  0.77620  0.80341  0.02116  1.0000
  C   C1698     1.0  0.80052  0.99640  0.24615  1.0000
  H   H2043     1.0  0.94844  0.00193  0.31405  1.0000
  S   S451      1.0  0.68556  0.83551  0.02962  1.0000
  C   C1699     1.0  0.00519  0.79787  0.24469  1.0000
  Fe  Fe228     1.0  0.73107  0.00850  0.17211  1.0000
  C   C1700     1.0  0.77175  0.99086  0.22200  1.0000
  H   H2044     1.0  0.70094  0.78158  0.02644  1.0000
  S   S452      1.0  0.81657  0.98604  0.26752  1.0000
  H   H2045     1.0  0.99538  0.79829  0.45059  1.0000
  N   N112      1.0  0.78941  0.95527  0.16245  1.0000
  H   H2046     1.0  0.98504  0.79559  0.21795  1.0000
  S   S453      1.0  0.72398  0.86907  0.01839  1.0000
  S   S454      1.0  0.68114  0.88545  0.06843  1.0000
  C   C1701     1.0  0.80416  0.95933  0.17942  1.0000
  C   C1702     1.0  0.83133  0.00459  0.42193  1.0000
  H   H2047     1.0  0.75968  0.98079  0.21696  1.0000
  C   C1703     1.0  0.95756  0.76773  0.40755  1.0000
  C   C1704     1.0  0.81827  0.96370  0.38151  1.0000
  C   C1705     1.0  0.69355  0.90066  0.49764  1.0000
  C   C1706     1.0  0.70734  0.93209  0.02818  1.0000
  C   C1707     1.0  0.69302  0.96699  0.03985  1.0000
  H   H2048     1.0  0.70232  0.94974  0.06947  1.0000
  S   S455      1.0  0.81044  0.00165  0.46222  1.0000
  C   C1708     1.0  0.69931  0.00372  0.06359  1.0000
  H   H2049     1.0  0.71165  0.92619  0.04451  1.0000
  H   H2050     1.0  0.00421  0.94532  0.32956  1.0000
  H   H2051     1.0  0.76364  0.97386  0.17831  1.0000
  H   H2052     1.0  0.88443  0.78956  0.12086  1.0000
  H   H2053     1.0  0.83531  0.99882  0.19492  1.0000
  H   H2054     1.0  0.76921  0.93361  0.18116  1.0000
  H   H2055     1.0  0.79799  0.95216  0.44086  1.0000
  C   C1709     1.0  0.82377  0.94656  0.41662  1.0000
  H   H2056     1.0  0.81493  0.94310  0.14077  1.0000
  S   S456      1.0  0.68254  0.99007  0.14157  1.0000
  C   C1710     1.0  0.99789  0.78778  0.22680  1.0000
  H   H2057     1.0  0.84217  0.97215  0.22459  1.0000
  C   C1711     1.0  0.94582  0.78226  0.16624  1.0000
  H   H2058     1.0  0.97892  0.82245  0.42260  1.0000
  S   S457      1.0  0.74645  0.00005  0.48215  1.0000
  S   S458      1.0  0.71850  0.78438  0.50211  1.0000
  Fe  Fe229     1.0  0.68426  0.99543  0.17709  1.0000
  H   H2059     1.0  0.70785  0.99029  0.23709  1.0000
  H   H2060     1.0  0.70440  0.91745  0.01949  1.0000
  H   H2061     1.0  0.99794  0.81321  0.24946  1.0000
  C   C1712     1.0  0.99310  0.81241  0.41833  1.0000
  S   S459      1.0  0.87732  0.99683  0.28500  1.0000
  H   H2062     1.0  0.74748  0.98625  0.29554  1.0000
  C   C1713     1.0  0.69279  0.00611  0.04252  1.0000
  C   C1714     1.0  0.83209  0.96839  0.21181  1.0000
  H   H2063     1.0  0.79113  0.92064  0.16509  1.0000
  C   C1715     1.0  0.70298  0.98327  0.07290  1.0000
  S   S460      1.0  0.00594  0.87606  0.33709  1.0000
  H   H2064     1.0  0.99067  0.94322  0.28501  1.0000
  H   H2065     1.0  0.75982  0.96907  0.15051  1.0000
  Fe  Fe230     1.0  0.68502  0.80170  0.50344  1.0000
  H   H2066     1.0  0.91282  0.79287  0.14527  1.0000
  N   N113      1.0  0.68837  0.94753  0.02860  1.0000
  H   H2067     1.0  0.69901  0.00855  0.49099  1.0000
  H   H2068     1.0  0.68623  0.98859  0.47753  1.0000
  C   C1716     1.0  0.68976  0.98810  0.03067  1.0000
  C   C1717     1.0  0.97865  0.77404  0.37412  1.0000
  H   H2069     1.0  0.80802  0.97120  0.13663  1.0000
  C   C1718     1.0  0.89511  0.77576  0.12450  1.0000
  C   C1719     1.0  0.72944  0.00366  0.27120  1.0000
  C   C1720     1.0  0.96075  0.77905  0.38779  1.0000
  C   C1721     1.0  0.81447  0.97901  0.17909  1.0000
  H   H2070     1.0  0.80804  0.80277  0.03300  1.0000
  C   C1722     1.0  0.00514  0.95254  0.28677  1.0000
  C   C1723     1.0  0.68481  0.77474  0.02705  1.0000
  Fe  Fe231     1.0  0.78116  0.00670  0.48579  1.0000
  C   C1724     1.0  0.79649  0.79362  0.02565  1.0000
  C   C1725     1.0  0.74660  0.00023  0.28460  1.0000
  S   S461      1.0  0.98991  0.76722  0.50164  1.0000
  H   H2071     1.0  0.81163  0.99139  0.16673  1.0000
  H   H2072     1.0  0.69820  0.00747  0.21589  1.0000
  H   H2073     1.0  0.72648  0.00346  0.21852  1.0000
  H   H2074     1.0  0.84816  0.00670  0.39039  1.0000
  C   C1726     1.0  0.91158  0.77741  0.13854  1.0000
  H   H2075     1.0  0.72166  0.93930  0.01989  1.0000
  C   C1727     1.0  0.00704  0.76780  0.22028  1.0000
  H   H2076     1.0  0.98134  0.78328  0.35907  1.0000
  H   H2077     1.0  0.84451  0.99447  0.49291  1.0000
  C   C1728     1.0  0.85147  0.99391  0.50906  1.0000
  N   N114      1.0  0.94359  0.76058  0.15805  1.0000
  C   C1729     1.0  0.81221  0.00958  0.43434  1.0000
  H   H2078     1.0  0.75512  0.76117  0.99922  1.0000
  H   H2079     1.0  0.70432  0.76464  0.60153  1.0000
  C   C1730     1.0  0.92723  0.83967  0.75473  1.0000
  H   H2080     1.0  0.93868  0.82592  0.75881  1.0000
  Fe  Fe232     1.0  0.70355  0.98155  0.86286  1.0000
  C   C1731     1.0  0.76348  0.98802  0.60076  1.0000
  S   S462      1.0  0.70069  0.94719  0.87649  1.0000
  H   H2081     1.0  0.69761  0.89344  0.93672  1.0000
  H   H2082     1.0  0.71722  0.91134  0.54369  1.0000
  S   S463      1.0  0.71045  0.98745  0.82697  1.0000
  C   C1732     1.0  0.86139  0.99668  0.77978  1.0000
  H   H2083     1.0  0.71638  0.96756  0.91366  1.0000
  S   S464      1.0  0.70016  0.84862  0.97892  1.0000
  Fe  Fe233     1.0  0.70510  0.88164  0.99008  1.0000
  S   S465      1.0  0.71502  0.91320  0.97337  1.0000
  Fe  Fe234     1.0  0.85917  0.00162  0.66398  1.0000
  S   S466      1.0  0.85305  0.97919  0.69276  1.0000
  H   H2084     1.0  0.81660  0.98516  0.78533  1.0000
  C   C1733     1.0  0.88983  0.90445  0.71926  1.0000
  C   C1734     1.0  0.99117  0.76314  0.70910  1.0000
  H   H2085     1.0  0.69232  0.80080  0.56787  1.0000
  S   S467      1.0  0.73555  0.80341  0.00455  1.0000
  Fe  Fe235     1.0  0.88542  0.98683  0.70286  1.0000
  S   S468      1.0  0.90722  0.96257  0.72095  1.0000
  H   H2086     1.0  0.89302  0.78998  0.95335  1.0000
  C   C1735     1.0  0.80777  0.79816  0.97060  1.0000
  N   N115      1.0  0.86446  0.77293  0.96208  1.0000
  H   H2087     1.0  0.69553  0.88411  0.52863  1.0000
  S   S469      1.0  0.96401  0.88507  0.67947  1.0000
  H   H2088     1.0  0.75492  0.98008  0.68008  1.0000
  S   S470      1.0  0.99257  0.83005  0.69183  1.0000
  S   S471      1.0  0.00840  0.86600  0.72258  1.0000
  H   H2089     1.0  0.83847  0.80529  0.98017  1.0000
  Fe  Fe236     1.0  0.83975  0.00826  0.71021  1.0000
  H   H2090     1.0  0.84067  0.93695  0.84549  1.0000
  H   H2091     1.0  0.80319  0.97639  0.68968  1.0000
  H   H2092     1.0  0.71271  0.79314  0.54782  1.0000
  H   H2093     1.0  0.86512  0.78100  0.99559  1.0000
  C   C1736     1.0  0.89601  0.88932  0.70397  1.0000
  H   H2094     1.0  0.84801  0.95063  0.75821  1.0000
  H   H2095     1.0  0.87389  0.00230  0.76763  1.0000
  S   S472      1.0  0.78344  0.98652  0.51681  1.0000
  H   H2096     1.0  0.88330  0.98287  0.57878  1.0000
  H   H2097     1.0  0.89385  0.91479  0.75109  1.0000
  C   C1737     1.0  0.92461  0.94283  0.70816  1.0000
  C   C1738     1.0  0.94109  0.93233  0.71974  1.0000
  C   C1739     1.0  0.95405  0.91532  0.71082  1.0000
  C   C1740     1.0  0.95021  0.90819  0.69043  1.0000
  C   C1741     1.0  0.93400  0.91898  0.67871  1.0000
  C   C1742     1.0  0.92141  0.93635  0.68739  1.0000
  H   H2098     1.0  0.94379  0.93733  0.73574  1.0000
  H   H2099     1.0  0.96678  0.90761  0.71985  1.0000
  H   H2100     1.0  0.93096  0.91368  0.66289  1.0000
  H   H2101     1.0  0.90879  0.94424  0.67829  1.0000
  Fe  Fe237     1.0  0.71657  0.83587  0.00873  1.0000
  C   C1743     1.0  0.79450  0.00894  0.75266  1.0000
  C   C1744     1.0  0.68264  0.95183  0.00588  1.0000
  C   C1745     1.0  0.76484  0.99419  0.68092  1.0000
  N   N116      1.0  0.67727  0.77250  0.00506  1.0000
  C   C1746     1.0  0.82661  0.98925  0.59575  1.0000
  H   H2102     1.0  0.71868  0.79300  0.57599  1.0000
  C   C1747     1.0  0.91238  0.88528  0.74482  1.0000
  H   H2103     1.0  0.69590  0.95927  0.99596  1.0000
  C   C1748     1.0  0.81289  0.99824  0.58014  1.0000
  H   H2104     1.0  0.76815  0.98870  0.74962  1.0000
  H   H2105     1.0  0.77830  0.78661  0.96086  1.0000
  H   H2106     1.0  0.83623  0.97733  0.75479  1.0000
  H   H2107     1.0  0.88905  0.96714  0.79540  1.0000
  H   H2108     1.0  0.92537  0.84946  0.76927  1.0000
  S   S473      1.0  0.73273  0.95136  0.52703  1.0000
  C   C1749     1.0  0.79562  0.78389  0.96071  1.0000
  C   C1750     1.0  0.71528  0.94353  0.93991  1.0000
  H   H2109     1.0  0.89030  0.89144  0.68784  1.0000
  C   C1751     1.0  0.70398  0.93840  0.90376  1.0000
  C   C1752     1.0  0.69869  0.91747  0.91049  1.0000
  C   C1753     1.0  0.70159  0.90961  0.93182  1.0000
  C   C1754     1.0  0.71010  0.92255  0.94659  1.0000
  S   S474      1.0  0.68345  0.82876  0.52643  1.0000
  C   C1755     1.0  0.71211  0.95148  0.91865  1.0000
  H   H2110     1.0  0.79155  0.97635  0.81553  1.0000
  C   C1756     1.0  0.77710  0.99073  0.64332  1.0000
  H   H2111     1.0  0.75442  0.00886  0.67774  1.0000
  C   C1757     1.0  0.85130  0.96790  0.75847  1.0000
  C   C1758     1.0  0.95552  0.86141  0.73982  1.0000
  H   H2112     1.0  0.83290  0.97284  0.59450  1.0000
  S   S475      1.0  0.80692  0.00192  0.72717  1.0000
  C   C1759     1.0  0.84418  0.96646  0.79741  1.0000
  C   C1760     1.0  0.91054  0.87220  0.70890  1.0000
  H   H2113     1.0  0.72204  0.95357  0.95115  1.0000
  H   H2114     1.0  0.87022  0.79791  0.93785  1.0000
  H   H2115     1.0  0.68926  0.76581  0.53544  1.0000
  H   H2116     1.0  0.69241  0.80139  0.99375  1.0000
  C   C1761     1.0  0.70641  0.78935  0.56467  1.0000
  C   C1762     1.0  0.82247  0.97454  0.79804  1.0000
  C   C1763     1.0  0.81452  0.95592  0.83228  1.0000
  C   C1764     1.0  0.76391  0.00729  0.63364  1.0000
  C   C1765     1.0  0.70024  0.89791  0.51871  1.0000
  Fe  Fe238     1.0  0.99396  0.86593  0.69044  1.0000
  S   S476      1.0  0.84984  0.98914  0.63195  1.0000
  S   S477      1.0  0.89304  0.00709  0.67271  1.0000
  C   C1766     1.0  0.79816  0.97429  0.67304  1.0000
  H   H2117     1.0  0.74401  0.77343  0.55548  1.0000
  C   C1767     1.0  0.88132  0.96275  0.78067  1.0000
  H   H2118     1.0  0.98733  0.77152  0.72445  1.0000
  C   C1768     1.0  0.85039  0.95259  0.81502  1.0000
  H   H2119     1.0  0.88104  0.94501  0.78027  1.0000
  C   C1769     1.0  0.77527  0.99952  0.75986  1.0000
  C   C1770     1.0  0.91917  0.86962  0.72959  1.0000
  H   H2120     1.0  0.91873  0.88476  0.76063  1.0000
  C   C1771     1.0  0.76658  0.77032  0.00669  1.0000
  C   C1772     1.0  0.80795  0.96946  0.81526  1.0000
  S   S478      1.0  0.72550  0.00647  0.87192  1.0000
  H   H2121     1.0  0.91534  0.86171  0.69591  1.0000
  C   C1773     1.0  0.89801  0.90246  0.73963  1.0000
  H   H2122     1.0  0.78995  0.95896  0.67356  1.0000
  C   C1774     1.0  0.84084  0.77639  0.96146  1.0000
  H   H2123     1.0  0.87015  0.98144  0.54298  1.0000
  H   H2124     1.0  0.86654  0.94569  0.81608  1.0000
  Fe  Fe239     1.0  0.74814  0.98212  0.51432  1.0000
  N   N117      1.0  0.85940  0.97317  0.77947  1.0000
  C   C1775     1.0  0.68310  0.76398  0.55261  1.0000
  H   H2125     1.0  0.75884  0.98731  0.58427  1.0000
  H   H2126     1.0  0.92546  0.82888  0.71359  1.0000
  H   H2127     1.0  0.95210  0.82382  0.72256  1.0000
  H   H2128     1.0  0.94721  0.84493  0.70291  1.0000
  H   H2129     1.0  0.80855  0.98869  0.56717  1.0000
  C   C1776     1.0  0.72358  0.00291  0.97994  1.0000
  N   N118      1.0  0.93512  0.85211  0.73523  1.0000
  H   H2130     1.0  0.72888  0.98653  0.98422  1.0000
  H   H2131     1.0  0.98588  0.77454  0.69590  1.0000
  H   H2132     1.0  0.89220  0.96790  0.76667  1.0000
  H   H2133     1.0  0.76952  0.99496  0.69792  1.0000
  H   H2134     1.0  0.79975  0.81179  0.97853  1.0000
  H   H2135     1.0  0.91141  0.83314  0.75226  1.0000
  H   H2136     1.0  0.96802  0.84877  0.74412  1.0000
  C   C1777     1.0  0.94006  0.83677  0.71777  1.0000
  H   H2137     1.0  0.96195  0.87071  0.72541  1.0000
  H   H2138     1.0  0.71041  0.99443  0.95038  1.0000
  H   H2139     1.0  0.87942  0.91828  0.71497  1.0000
  H   H2140     1.0  0.95372  0.87242  0.75342  1.0000
  H   H2141     1.0  0.80319  0.95216  0.84567  1.0000
  S   S479      1.0  0.99341  0.80864  0.74977  1.0000
  H   H2142     1.0  0.86305  0.97144  0.74471  1.0000
  H   H2143     1.0  0.86581  0.00151  0.79589  1.0000
  C   C1778     1.0  0.83222  0.00128  0.61295  1.0000
  H   H2144     1.0  0.97364  0.78037  0.78206  1.0000
  C   C1779     1.0  0.99074  0.77651  0.78180  1.0000
  H   H2145     1.0  0.81327  0.97269  0.66253  1.0000
  C   C1780     1.0  0.68449  0.99841  0.53091  1.0000
  C   C1781     1.0  0.71860  0.93166  0.51471  1.0000
  C   C1782     1.0  0.00461  0.78815  0.76752  1.0000
  C   C1783     1.0  0.75743  0.00599  0.61261  1.0000
  H   H2146     1.0  0.69248  0.90719  0.89910  1.0000
  H   H2147     1.0  0.75061  0.99618  0.78572  1.0000
  H   H2148     1.0  0.67971  0.93672  0.99790  1.0000
  C   C1784     1.0  0.83566  0.94742  0.83212  1.0000
  C   C1785     1.0  0.76526  0.00373  0.78035  1.0000
  H   H2149     1.0  0.84616  0.00583  0.77610  1.0000
  H   H2150     1.0  0.87156  0.80616  0.96509  1.0000
  C   C1786     1.0  0.76113  0.79184  0.01152  1.0000
  C   C1787     1.0  0.77616  0.97135  0.60982  1.0000
  H   H2151     1.0  0.79346  0.95946  0.63638  1.0000
  H   H2152     1.0  0.69857  0.98745  0.53481  1.0000
  C   C1788     1.0  0.71253  0.91342  0.52722  1.0000
  C   C1789     1.0  0.82998  0.79436  0.97128  1.0000
  H   H2153     1.0  0.78125  0.95763  0.60031  1.0000
  C   C1790     1.0  0.87520  0.79262  0.95424  1.0000
  C   C1791     1.0  0.78308  0.97264  0.63071  1.0000
  N   N119      1.0  0.78395  0.99266  0.66554  1.0000
  H   H2154     1.0  0.84278  0.98157  0.51909  1.0000
  C   C1792     1.0  0.69166  0.76325  0.58991  1.0000
  C   C1793     1.0  0.87600  0.99723  0.57119  1.0000
  C   C1794     1.0  0.86818  0.99665  0.55060  1.0000
  H   H2155     1.0  0.70995  0.76454  0.99359  1.0000
  C   C1795     1.0  0.86998  0.76774  0.98464  1.0000
  C   C1796     1.0  0.71319  0.00728  0.96087  1.0000
  C   C1797     1.0  0.80562  0.76568  0.95158  1.0000
  H   H2156     1.0  0.88750  0.76384  0.98591  1.0000
  N   N120      1.0  0.70041  0.76669  0.56736  1.0000
  H   H2157     1.0  0.67828  0.95992  0.54385  1.0000
  H   H2158     1.0  0.67956  0.95543  0.83823  1.0000
  H   H2159     1.0  0.00874  0.83001  0.58080  1.0000
  C   C1798     1.0  0.82789  0.76185  0.95192  1.0000
  S   S480      1.0  0.00867  0.79429  0.55343  1.0000
  C   C1799     1.0  0.78686  0.76054  0.01117  1.0000
  H   H2160     1.0  0.67825  0.77524  0.59403  1.0000
  Fe  Fe240     1.0  0.00942  0.82983  0.72278  1.0000
  C   C1800     1.0  0.67657  0.79410  0.99423  1.0000
