data_image0
_chemical_formula_structural       FeHSHCSFeSCFeS2FeSFeS3HSCFeSHFeHFeCSHCSCFeSHCH2C6H3SC2H4NCH2C6H5C3H2CHCH2SH5C3SCH2CHCHC2HC2HCHSH2CSHNC9H2CH10CNC9H14NC9H11CH2SH4CH3CH2NH2CH6C3HC2SHFeSHFeHSCHSH4SH2C6H4C6H5SFeS2FeS2FeSFeHS2HSHFeSCFeHFeS2CSCHFe2H3C3SCHC2HC4NHSC2HCHC2HCSH4CHC3HCH5SHCSC2H3C2H2CH2FeC3HNH4NCH2C2HC2H5CHSCHC2HFeHCH3SHFeHC3HCFeSCFeS2FeSFeS3FeS2FeS2FeSFeS3HC2HCH2SHNH2C5H4C4HNHC4HC3HC2H3C4HCH5C3H4SH2CH3C2NCH7C2HC2H6C2H3C2HC2HCHNCH3C3HC2H2SHNCH2CH3NH2C2HC4H2CH2CHC2H4C2H5CH2C5HCNCHC4H2C4H2CH2CH3NH2C2H3C6H7FeCSCHSFeSCFeS2FeSFeS3NSHFeSCFeCFeHSCHSHFeSHC2HC6H4C2HCH2C2H2C6H7CH4C6H2NC4H10SFeHCSCH5CH2CFeC2H2CHCHC2H3CHCNCNCHC3H9C2HCH2NC2HSCHCSC2HCH2CHCH4CH7CH2SHCH3CHSC2H2SC3HC2HSCFeH2C2HCHCHSHFeSHFeS3HSCHCH4C6H4C6H6FeS2FeS2FeSFeCS2CS2FeSCFeHFeS2CHC2HC2HCHCH2SH3CNC3HC3HSCH2NH3C3H7SC3H2CHCHSHSH6CHCH2CH6C2NHNHC7H2CH2CH2CHFe2H2CH3CH2CHCFeHCHCHC3SCHFeH3C2HCFeSHFeS2FeSFeS3FeS2FeS2FeSFeS3H3CH2CSHCH2C4H4C7H2C2NHC4HCHCHC3HSCHC4HC2H3CH2CNCHCHC2NC2H5C2HCH3CH3C6HCHCHNC3NH2CHCHCH3C3HCHCHC3HCH2C2H2CH2SCH2C2H7CH2C3H2CHNH2C6H2C2H7CHC2HC2H3CH3CH3CH2CHCNSHCHCH2C3H4CH3CSCNHFeS2FeS2FeSFeCS2HSHCHSCHFeSH2S2CH3CH2CFeSCFeH2C2H2C3HCH3C4HNHCHC3FeH2C6H4CNC6H3CH11CH4C2SHC3HCHC6H3C2SC3H2C6H2SH3CHNH2C6SH2C3HFeH8CHSCH2CSC2HC2H2C3HSHFeH2C2H2CHC4HCH3CHNCH11C2HNCHFeS2FeS2FeHSCHSCH3C3H6CHCH2SCNC2HC4HNH2Fe2S2FeHSFeS2HCSCH5SCH2CHC4H2CHC2HC6H3NSC2H6SH2C4H3CH2CH3C4HCH2CHCHC4NH2C2HC2H2CHSC2NHNC5H6C2NHCHC2H3CHC2FeHNC7HCH13CH3CH3C3H4C4H5C2HC2HC2HCH2SCH2FeS2FeS2FeSHFeS2FeHFeSHSHSHCS2CSFeSH2FeCSHCSCHFeC4NH2CHCHFeCSC3HC2HNCFeCHC2HSH3C7H4SHSH5C6HSHC2FeH2SC2HC2NCHCHNC8H17FeCSHCHC2HCHSH2CH3CHCSCHC3HCH2CHCH3C3FeH10C3SH5CSH3FeS2FeS2FeHFeHS2CSHC2S2HFeSCSCH3SH2CH4CHCNCH2CH3FeCH2CHC2NCHC2H2C2FeH2C6H5C2FeC2HSCHCHC5FeH2CHCSH4C4HSHNC2HCH2CHNC9H10CH4SC3HC2H5FeH2CH2C2H4SH2C3HCHCHC3HSH5CH2FeS2FeS2FeHSHS2C2HCHCH4NC4HC3NH2CHC2HCH5FeS2FeHSFeS2CHSC4HCHFeC3FeCHCSHC2H3NC6HCNHSHCHC4HC4H7C4HC2HCH2C2HCHSHSC2H3SHCH2C2H2C2HCH7C2H2C2HCHCH3CHC4H8CHC3H12NFeS2FeS2FeSHFeS2FeCFeS3CSHC2SCSFeSHCFeHSCHSC2HC3SH3SCHCHSHC2S2HCH2CHC2H3CH2FeC7H4CH2CHCN2CFeHC4HCH9CHCHC2H2CNFeC2SH6SCH2CH3CHFeH3SHC2HFeC2H3C4HCH2CH5CNH3CHNCH3CHSFeCHCHCSCHC4HCH
_chemical_formula_sum              "Fe128 H1152 S256 C960 N64"
_cell_length_a       32.8135
_cell_length_b       44.4461
_cell_length_c       42.0951
_cell_angle_alpha    89.9779
_cell_angle_beta     90.1866
_cell_angle_gamma    89.9722

_space_group_name_H-M_alt    "P 1"
_space_group_IT_number       1

loop_
  _space_group_symop_operation_xyz
  'x, y, z'

loop_
  _atom_site_type_symbol
  _atom_site_label
  _atom_site_symmetry_multiplicity
  _atom_site_fract_x
  _atom_site_fract_y
  _atom_site_fract_z
  _atom_site_occupancy
  Fe  Fe1       1.0  0.16305  0.34003  0.31363  1.0000
  H   H1        1.0  0.03748  0.05291  0.22253  1.0000
  S   S1        1.0  0.19755  0.34744  0.26703  1.0000
  H   H2        1.0  0.45084  0.24966  0.22638  1.0000
  C   C1        1.0  0.31253  0.07242  0.04337  1.0000
  S   S2        1.0  0.09477  0.33534  0.31517  1.0000
  Fe  Fe2       1.0  0.31198  0.27537  0.06589  1.0000
  S   S3        1.0  0.31487  0.23350  0.09584  1.0000
  C   C2        1.0  0.13695  0.45842  0.30608  1.0000
  Fe  Fe3       1.0  0.38719  0.30032  0.09878  1.0000
  S   S4        1.0  0.39546  0.26009  0.13028  1.0000
  S   S5        1.0  0.42844  0.34068  0.10279  1.0000
  Fe  Fe4       1.0  0.38197  0.23378  0.08586  1.0000
  S   S6        1.0  0.41060  0.18895  0.07267  1.0000
  Fe  Fe5       1.0  0.32771  0.26371  0.13731  1.0000
  S   S7        1.0  0.29932  0.25280  0.18534  1.0000
  S   S8        1.0  0.37857  0.27378  0.05356  1.0000
  S   S9        1.0  0.31993  0.30576  0.10839  1.0000
  H   H3        1.0  0.08772  0.41552  0.28428  1.0000
  S   S10       1.0  0.10801  0.98861  0.05776  1.0000
  C   C3        1.0  0.09938  0.02452  0.25602  1.0000
  Fe  Fe6       1.0  0.17357  0.98514  0.13530  1.0000
  S   S11       1.0  0.17329  0.02573  0.10343  1.0000
  H   H4        1.0  0.47152  0.38843  0.13284  1.0000
  Fe  Fe7       1.0  0.10545  0.01741  0.10164  1.0000
  H   H5        1.0  0.01836  0.36235  0.30676  1.0000
  Fe  Fe8       1.0  0.17617  0.99299  0.06239  1.0000
  C   C4        1.0  0.47680  0.20023  0.30769  1.0000
  S   S12       1.0  0.10569  0.97897  0.13578  1.0000
  H   H6        1.0  0.09613  0.41492  0.01833  1.0000
  C   C5        1.0  0.02653  0.42372  0.06167  1.0000
  S   S13       1.0  0.38390  0.08541  0.30611  1.0000
  C   C6        1.0  0.06497  0.06662  0.22788  1.0000
  Fe  Fe9       1.0  0.31537  0.08425  0.30907  1.0000
  S   S14       1.0  0.27789  0.08810  0.26344  1.0000
  H   H7        1.0  0.14388  0.43151  0.00841  1.0000
  C   C7        1.0  0.01113  0.08161  0.15167  1.0000
  H   H8        1.0  0.20229  0.27523  0.15353  1.0000
  H   H9        1.0  0.44469  0.13156  0.28238  1.0000
  C   C8        1.0  0.22809  0.00936  0.20392  1.0000
  C   C9        1.0  0.22657  0.03886  0.19240  1.0000
  C   C10       1.0  0.24268  0.06264  0.21068  1.0000
  C   C11       1.0  0.26038  0.05717  0.24061  1.0000
  C   C12       1.0  0.26227  0.02763  0.25197  1.0000
  C   C13       1.0  0.24617  0.00386  0.23369  1.0000
  H   H10       1.0  0.21275  0.04342  0.16955  1.0000
  H   H11       1.0  0.24109  0.08542  0.20171  1.0000
  H   H12       1.0  0.27580  0.02313  0.27497  1.0000
  S   S15       1.0  0.41604  0.16764  0.33592  1.0000
  C   C14       1.0  0.45669  0.18706  0.05108  1.0000
  C   C15       1.0  0.06373  0.99954  0.29999  1.0000
  H   H13       1.0  0.13851  0.40331  0.27736  1.0000
  H   H14       1.0  0.29718  0.10030  0.08332  1.0000
  H   H15       1.0  0.46399  0.13952  0.05955  1.0000
  H   H16       1.0  0.44444  0.32849  0.25440  1.0000
  N   N1        1.0  0.10193  0.04747  0.23056  1.0000
  C   C16       1.0  0.00659  0.40852  0.31896  1.0000
  H   H17       1.0  0.05096  0.45855  0.29176  1.0000
  H   H18       1.0  0.13714  0.01994  0.19819  1.0000
  C   C17       1.0  0.22698  0.32071  0.24570  1.0000
  C   C18       1.0  0.25063  0.33063  0.21992  1.0000
  C   C19       1.0  0.27230  0.31007  0.20091  1.0000
  C   C20       1.0  0.27136  0.27934  0.20796  1.0000
  C   C21       1.0  0.24864  0.26946  0.23426  1.0000
  C   C22       1.0  0.22631  0.28999  0.25293  1.0000
  H   H19       1.0  0.25206  0.35437  0.21447  1.0000
  H   H20       1.0  0.28984  0.31805  0.18088  1.0000
  H   H21       1.0  0.24782  0.24576  0.24003  1.0000
  H   H22       1.0  0.20828  0.28203  0.27271  1.0000
  H   H23       1.0  0.45872  0.23407  0.03881  1.0000
  C   C23       1.0  0.47630  0.15915  0.04781  1.0000
  C   C24       1.0  0.45432  0.17335  0.30713  1.0000
  C   C25       1.0  0.46165  0.15240  0.28304  1.0000
  H   H24       1.0  0.33130  0.18153  0.03511  1.0000
  H   H25       1.0  0.43863  0.18781  0.14200  1.0000
  C   C26       1.0  0.02563  0.05427  0.13980  1.0000
  H   H26       1.0  0.01451  0.37628  0.06643  1.0000
  C   C27       1.0  0.46836  0.34009  0.13085  1.0000
  H   H27       1.0  0.10950  0.45456  0.32096  1.0000
  H   H28       1.0  0.00297  0.45296  0.16580  1.0000
  S   S16       1.0  0.21665  0.98983  0.01830  1.0000
  H   H29       1.0  0.20622  0.05544  0.02070  1.0000
  H   H30       1.0  0.40187  0.12788  0.03104  1.0000
  H   H31       1.0  0.47355  0.29186  0.13360  1.0000
  H   H32       1.0  0.25422  0.15774  0.00941  1.0000
  H   H33       1.0  0.16148  0.44411  0.31646  1.0000
  C   C28       1.0  0.48419  0.36750  0.14158  1.0000
  C   C29       1.0  0.37718  0.11202  0.03360  1.0000
  C   C30       1.0  0.13702  0.06770  0.23675  1.0000
  S   S17       1.0  0.26036  0.27204  0.02982  1.0000
  C   C31       1.0  0.48495  0.31312  0.14231  1.0000
  H   H34       1.0  0.28744  0.05695  0.04730  1.0000
  H   H35       1.0  0.47090  0.31751  0.21910  1.0000
  C   C32       1.0  0.47350  0.21242  0.03646  1.0000
  H   H36       1.0  0.05939  0.07965  0.25004  1.0000
  C   C33       1.0  0.49024  0.15879  0.25914  1.0000
  H   H37       1.0  0.06762  0.08334  0.20825  1.0000
  C   C34       1.0  0.13256  0.00467  0.26169  1.0000
  C   C35       1.0  0.10781  0.03239  0.19946  1.0000
  H   H38       1.0  0.13381  0.07937  0.26002  1.0000
  C   C36       1.0  0.16958  0.45304  0.25565  1.0000
  C   C37       1.0  0.31792  0.09685  0.06365  1.0000
  H   H39       1.0  0.30006  0.29272  0.29391  1.0000
  C   C38       1.0  0.09690  0.98051  0.30494  1.0000
  H   H40       1.0  0.08287  0.01603  0.19467  1.0000
  S   S18       1.0  0.06105  0.05540  0.10848  1.0000
  H   H41       1.0  0.03704  0.99747  0.31498  1.0000
  H   H42       1.0  0.22351  0.27555  0.09715  1.0000
  C   C39       1.0  0.13134  0.98320  0.28594  1.0000
  S   S19       1.0  0.07254  0.42171  0.08343  1.0000
  H   H43       1.0  0.03778  0.03509  0.27342  1.0000
  N   N2        1.0  0.41686  0.29151  0.22932  1.0000
  C   C40       1.0  0.43037  0.26423  0.21198  1.0000
  C   C41       1.0  0.39382  0.31052  0.20637  1.0000
  C   C42       1.0  0.45328  0.30874  0.23966  1.0000
  C   C43       1.0  0.39283  0.28268  0.25758  1.0000
  C   C44       1.0  0.35237  0.29293  0.26302  1.0000
  C   C45       1.0  0.41027  0.26373  0.28120  1.0000
  C   C46       1.0  0.33087  0.28449  0.29024  1.0000
  C   C47       1.0  0.38846  0.25539  0.30833  1.0000
  C   C48       1.0  0.34884  0.26576  0.31283  1.0000
  H   H44       1.0  0.40365  0.25046  0.20442  1.0000
  H   H45       1.0  0.24753  0.98111  0.24279  1.0000
  C   C49       1.0  0.33934  0.06759  0.01810  1.0000
  H   H46       1.0  0.38443  0.33231  0.21714  1.0000
  H   H47       1.0  0.29216  0.33189  0.01394  1.0000
  H   H48       1.0  0.35472  0.13551  0.07475  1.0000
  H   H49       1.0  0.10661  0.41429  0.24448  1.0000
  H   H50       1.0  0.41245  0.31633  0.18511  1.0000
  H   H51       1.0  0.47487  0.29487  0.25387  1.0000
  H   H52       1.0  0.33657  0.30763  0.24671  1.0000
  H   H53       1.0  0.44106  0.25540  0.27896  1.0000
  H   H54       1.0  0.44790  0.27012  0.19023  1.0000
  H   H55       1.0  0.16643  0.05540  0.23757  1.0000
  C   C50       1.0  0.06464  0.02119  0.27587  1.0000
  N   N3        1.0  0.33129  0.17703  0.23848  1.0000
  C   C51       1.0  0.33272  0.20399  0.25920  1.0000
  C   C52       1.0  0.28826  0.17265  0.22834  1.0000
  C   C53       1.0  0.34329  0.15033  0.25749  1.0000
  C   C54       1.0  0.35997  0.18078  0.21168  1.0000
  C   C55       1.0  0.34737  0.18012  0.17935  1.0000
  C   C56       1.0  0.40225  0.18478  0.21760  1.0000
  C   C57       1.0  0.37562  0.18256  0.15471  1.0000
  C   C58       1.0  0.43028  0.18715  0.19275  1.0000
  C   C59       1.0  0.41697  0.18594  0.16133  1.0000
  H   H56       1.0  0.32633  0.22484  0.24533  1.0000
  H   H57       1.0  0.30994  0.20266  0.27870  1.0000
  H   H58       1.0  0.36285  0.20668  0.27092  1.0000
  H   H59       1.0  0.27667  0.19247  0.21481  1.0000
  H   H60       1.0  0.26760  0.16963  0.24907  1.0000
  H   H61       1.0  0.28477  0.15195  0.21367  1.0000
  H   H62       1.0  0.37324  0.15317  0.26948  1.0000
  H   H63       1.0  0.32090  0.14559  0.27660  1.0000
  H   H64       1.0  0.34497  0.12977  0.24240  1.0000
  H   H65       1.0  0.31580  0.17803  0.17240  1.0000
  H   H66       1.0  0.41385  0.18598  0.24157  1.0000
  H   H67       1.0  0.36533  0.18194  0.13024  1.0000
  H   H68       1.0  0.46250  0.18989  0.19785  1.0000
  H   H69       1.0  0.10809  0.04877  0.17937  1.0000
  N   N4        1.0  0.17438  0.37913  0.15248  1.0000
  C   C60       1.0  0.15854  0.37572  0.18531  1.0000
  C   C61       1.0  0.20940  0.40020  0.15370  1.0000
  C   C62       1.0  0.14138  0.39290  0.13317  1.0000
  C   C63       1.0  0.18751  0.35041  0.13783  1.0000
  C   C64       1.0  0.18816  0.32264  0.15467  1.0000
  C   C65       1.0  0.20093  0.34979  0.10577  1.0000
  C   C66       1.0  0.20119  0.29605  0.14007  1.0000
  C   C67       1.0  0.21333  0.32300  0.09132  1.0000
  C   C68       1.0  0.21341  0.29619  0.10842  1.0000
  H   H70       1.0  0.18241  0.36731  0.20187  1.0000
  H   H71       1.0  0.14812  0.39758  0.19526  1.0000
  H   H72       1.0  0.13211  0.36003  0.18611  1.0000
  H   H73       1.0  0.22087  0.40603  0.12965  1.0000
  H   H74       1.0  0.23533  0.39031  0.16728  1.0000
  H   H75       1.0  0.20114  0.42189  0.16528  1.0000
  H   H76       1.0  0.11524  0.37715  0.13013  1.0000
  H   H77       1.0  0.12941  0.41394  0.14409  1.0000
  H   H78       1.0  0.15160  0.39939  0.10900  1.0000
  H   H79       1.0  0.17930  0.32082  0.17929  1.0000
  H   H80       1.0  0.20215  0.37005  0.09162  1.0000
  C   C69       1.0  0.37280  0.08723  0.01255  1.0000
  H   H81       1.0  0.22338  0.32299  0.06677  1.0000
  H   H82       1.0  0.02107  0.00597  0.14283  1.0000
  S   S20       1.0  0.20577  0.97903  0.18280  1.0000
  H   H83       1.0  0.44263  0.05658  0.01765  1.0000
  H   H84       1.0  0.36621  0.29867  0.19729  1.0000
  H   H85       1.0  0.15991  0.00575  0.24749  1.0000
  H   H86       1.0  0.14020  0.08516  0.21793  1.0000
  C   C70       1.0  0.35018  0.11665  0.05875  1.0000
  H   H87       1.0  0.02259  0.10260  0.14215  1.0000
  H   H88       1.0  0.45505  0.09586  0.01531  1.0000
  H   H89       1.0  0.01394  0.97258  0.22047  1.0000
  C   C71       1.0  0.11500  0.41983  0.26940  1.0000
  H   H90       1.0  0.15733  0.96859  0.29009  1.0000
  H   H91       1.0  0.32339  0.22024  0.02296  1.0000
  N   N5        1.0  0.12967  0.45133  0.27208  1.0000
  H   H92       1.0  0.49514  0.14272  0.24022  1.0000
  H   H93       1.0  0.28199  0.19877  0.03771  1.0000
  C   C72       1.0  0.30997  0.19722  0.02286  1.0000
  H   H94       1.0  0.19217  0.43693  0.26585  1.0000
  H   H95       1.0  0.47173  0.21637  0.32651  1.0000
  H   H96       1.0  0.47937  0.04979  0.31536  1.0000
  H   H97       1.0  0.16666  0.44745  0.23000  1.0000
  H   H98       1.0  0.40227  0.24071  0.32598  1.0000
  H   H99       1.0  0.33204  0.25939  0.33394  1.0000
  C   C73       1.0  0.01258  0.45088  0.04882  1.0000
  C   C74       1.0  0.01041  0.02720  0.15217  1.0000
  C   C75       1.0  0.00391  0.39739  0.05658  1.0000
  H   H100      1.0  0.09587  0.96355  0.32350  1.0000
  C   C76       1.0  0.99913  0.38164  0.30271  1.0000
  C   C77       1.0  0.40680  0.10546  0.47618  1.0000
  S   S21       1.0  0.10150  0.34739  0.39329  1.0000
  H   H101      1.0  0.37459  0.16386  0.39473  1.0000
  Fe  Fe10      1.0  0.16921  0.34995  0.38590  1.0000
  S   S22       1.0  0.21463  0.36253  0.42467  1.0000
  H   H102      1.0  0.35121  0.08345  0.46515  1.0000
  Fe  Fe11      1.0  0.31542  0.09211  0.38191  1.0000
  H   H103      1.0  0.45994  0.97053  0.39471  1.0000
  S   S23       1.0  0.28031  0.10012  0.42785  1.0000
  C   C78       1.0  0.00748  0.05687  0.63291  1.0000
  H   H104      1.0  0.29084  0.20043  0.53714  1.0000
  S   S24       1.0  0.38374  0.09506  0.38413  1.0000
  H   H105      1.0  0.27562  0.15213  0.46841  1.0000
  H   H106      1.0  0.27225  0.20440  0.45131  1.0000
  H   H107      1.0  0.32082  0.43491  0.40056  1.0000
  H   H108      1.0  0.37398  0.97529  0.46921  1.0000
  S   S25       1.0  0.16591  0.45947  0.59896  1.0000
  H   H109      1.0  0.08061  0.43276  0.52681  1.0000
  H   H110      1.0  0.12413  0.30825  0.47249  1.0000
  C   C79       1.0  0.22105  0.02613  0.48898  1.0000
  C   C80       1.0  0.22212  0.05598  0.49943  1.0000
  C   C81       1.0  0.23952  0.07849  0.48013  1.0000
  C   C82       1.0  0.25587  0.07145  0.45018  1.0000
  C   C83       1.0  0.25390  0.04171  0.43942  1.0000
  C   C84       1.0  0.23689  0.01917  0.45884  1.0000
  H   H111      1.0  0.21002  0.06165  0.52255  1.0000
  H   H112      1.0  0.24050  0.10142  0.48862  1.0000
  H   H113      1.0  0.26566  0.03601  0.41622  1.0000
  H   H114      1.0  0.23602  0.99617  0.45046  1.0000
  C   C85       1.0  0.23121  0.33590  0.45328  1.0000
  C   C86       1.0  0.21417  0.30712  0.45479  1.0000
  C   C87       1.0  0.22654  0.28692  0.47872  1.0000
  C   C88       1.0  0.25643  0.29507  0.50113  1.0000
  C   C89       1.0  0.27379  0.32378  0.49947  1.0000
  C   C90       1.0  0.26101  0.34416  0.47574  1.0000
  H   H115      1.0  0.19110  0.30054  0.43773  1.0000
  H   H116      1.0  0.21269  0.26487  0.47992  1.0000
  H   H117      1.0  0.29675  0.33034  0.51662  1.0000
  H   H118      1.0  0.27432  0.36640  0.47480  1.0000
  H   H119      1.0  0.17606  0.38820  0.52514  1.0000
  S   S26       1.0  0.06701  0.41291  0.59564  1.0000
  Fe  Fe12      1.0  0.32100  0.27174  0.56782  1.0000
  S   S27       1.0  0.32338  0.22966  0.59766  1.0000
  S   S28       1.0  0.27043  0.26859  0.53075  1.0000
  Fe  Fe13      1.0  0.39529  0.29670  0.60188  1.0000
  S   S29       1.0  0.40278  0.25643  0.63326  1.0000
  S   S30       1.0  0.43785  0.33603  0.60789  1.0000
  Fe  Fe14      1.0  0.39075  0.23020  0.58865  1.0000
  S   S31       1.0  0.42140  0.18569  0.57695  1.0000
  Fe  Fe15      1.0  0.33489  0.25990  0.63934  1.0000
  H   H120      1.0  0.16796  0.44051  0.47528  1.0000
  S   S32       1.0  0.38802  0.27029  0.55646  1.0000
  S   S33       1.0  0.32780  0.30208  0.61050  1.0000
  H   H121      1.0  0.44311  0.17643  0.41520  1.0000
  S   S34       1.0  0.09691  0.99469  0.55351  1.0000
  H   H122      1.0  0.24751  0.44028  0.48443  1.0000
  Fe  Fe16      1.0  0.16177  0.99158  0.63153  1.0000
  S   S35       1.0  0.16036  0.03247  0.59993  1.0000
  C   C91       1.0  0.39885  0.05054  0.47569  1.0000
  Fe  Fe17      1.0  0.09278  0.02300  0.59748  1.0000
  H   H123      1.0  0.04223  0.39821  0.50002  1.0000
  Fe  Fe18      1.0  0.16483  0.99994  0.55863  1.0000
  S   S36       1.0  0.20235  0.99646  0.51310  1.0000
  S   S37       1.0  0.09401  0.98424  0.63106  1.0000
  C   C92       1.0  0.38265  0.07995  0.47192  1.0000
  S   S38       1.0  0.42253  0.01636  0.35769  1.0000
  C   C93       1.0  0.46564  0.18220  0.55336  1.0000
  H   H124      1.0  0.42056  0.99270  0.45755  1.0000
  Fe  Fe19      1.0  0.10483  0.30844  0.35973  1.0000
  Fe  Fe20      1.0  0.38204  0.05657  0.34998  1.0000
  H   H125      1.0  0.46832  0.13411  0.55964  1.0000
  H   H126      1.0  0.13401  0.06496  0.66682  1.0000
  H   H127      1.0  0.48232  0.28590  0.63671  1.0000
  C   C94       1.0  0.02134  0.41192  0.57354  1.0000
  C   C95       1.0  0.44048  0.04837  0.48497  1.0000
  C   C96       1.0  0.47374  0.33389  0.63900  1.0000
  S   S39       1.0  0.16241  0.38149  0.34439  1.0000
  C   C97       1.0  0.37816  0.17172  0.41893  1.0000
  H   H128      1.0  0.45575  0.02707  0.48844  1.0000
  C   C98       1.0  0.34736  0.18501  0.47011  1.0000
  C   C99       1.0  0.28295  0.21102  0.47538  1.0000
  H   H129      1.0  0.25517  0.21474  0.49003  1.0000
  C   C100      1.0  0.27233  0.44879  0.47006  1.0000
  C   C101      1.0  0.28848  0.15913  0.49173  1.0000
  C   C102      1.0  0.31926  0.19806  0.52292  1.0000
  C   C103      1.0  0.45895  0.01858  0.38840  1.0000
  N   N6        1.0  0.31041  0.18828  0.48990  1.0000
  H   H130      1.0  0.49166  0.45146  0.42626  1.0000
  S   S40       1.0  0.31202  0.12482  0.34116  1.0000
  C   C104      1.0  0.39435  0.99479  0.47414  1.0000
  C   C105      1.0  0.41677  0.17882  0.43049  1.0000
  H   H131      1.0  0.45147  0.19429  0.47071  1.0000
  C   C106      1.0  0.15278  0.40615  0.52826  1.0000
  H   H132      1.0  0.47286  0.38176  0.64663  1.0000
  C   C107      1.0  0.42134  0.18890  0.46166  1.0000
  C   C108      1.0  0.00828  0.24020  0.40452  1.0000
  H   H133      1.0  0.33793  0.00499  0.43089  1.0000
  C   C109      1.0  0.48428  0.20712  0.53921  1.0000
  S   S41       1.0  0.06681  0.26716  0.36884  1.0000
  H   H134      1.0  0.46643  0.12248  0.48700  1.0000
  H   H135      1.0  0.17919  0.40180  0.46947  1.0000
  H   H136      1.0  0.00885  0.35090  0.48815  1.0000
  H   H137      1.0  0.13614  0.41802  0.44961  1.0000
  C   C110      1.0  0.09971  0.43623  0.50531  1.0000
  H   H138      1.0  0.31797  0.04436  0.48843  1.0000
  C   C111      1.0  0.46437  0.07413  0.48926  1.0000
  C   C112      1.0  0.31350  0.44584  0.42286  1.0000
  C   C113      1.0  0.10666  0.32816  0.47856  1.0000
  H   H139      1.0  0.07959  0.44062  0.48450  1.0000
  C   C114      1.0  0.44768  0.10259  0.48448  1.0000
  H   H140      1.0  0.47150  0.22934  0.54255  1.0000
  H   H141      1.0  0.40568  0.99209  0.49893  1.0000
  H   H142      1.0  0.33880  0.04506  0.43156  1.0000
  H   H143      1.0  0.02522  0.31558  0.40435  1.0000
  H   H144      1.0  0.37368  0.17836  0.63378  1.0000
  S   S42       1.0  0.31361  0.05151  0.35009  1.0000
  H   H145      1.0  0.16964  0.42718  0.53424  1.0000
  C   C115      1.0  0.12669  0.35519  0.48520  1.0000
  S   S43       1.0  0.04551  0.05924  0.60358  1.0000
  C   C116      1.0  0.35746  0.02476  0.43656  1.0000
  C   C117      1.0  0.47226  0.99187  0.40259  1.0000
  H   H146      1.0  0.12790  0.39884  0.65021  1.0000
  H   H147      1.0  0.01379  0.46002  0.57209  1.0000
  H   H148      1.0  0.49632  0.07186  0.49560  1.0000
  C   C118      1.0  0.04182  0.35223  0.48722  1.0000
  C   C119      1.0  0.02650  0.26763  0.39663  1.0000
  H   H149      1.0  0.38310  0.02498  0.41934  1.0000
  H   H150      1.0  0.43798  0.45962  0.38584  1.0000
  C   C120      1.0  0.48260  0.15351  0.54882  1.0000
  H   H151      1.0  0.31740  0.00438  0.48834  1.0000
  H   H152      1.0  0.26446  0.41542  0.43350  1.0000
  Fe  Fe21      1.0  0.38042  0.12390  0.34029  1.0000
  C   C121      1.0  0.48599  0.36050  0.65393  1.0000
  C   C122      1.0  0.06156  0.37944  0.49391  1.0000
  C   C123      1.0  0.34397  0.17465  0.43832  1.0000
  H   H153      1.0  0.31473  0.16867  0.42817  1.0000
  N   N7        1.0  0.12698  0.41012  0.49957  1.0000
  H   H154      1.0  0.39308  0.19998  0.50519  1.0000
  H   H155      1.0  0.34796  0.02433  0.51702  1.0000
  H   H156      1.0  0.13392  0.39989  0.54923  1.0000
  H   H157      1.0  0.39375  0.12754  0.47267  1.0000
  N   N8        1.0  0.37281  0.02391  0.46975  1.0000
  C   C124      1.0  0.47516  0.04610  0.39868  1.0000
  H   H158      1.0  0.15958  0.35513  0.48424  1.0000
  H   H159      1.0  0.29848  0.23324  0.47321  1.0000
  C   C125      1.0  0.33762  0.02426  0.49181  1.0000
  C   C126      1.0  0.28175  0.43484  0.44139  1.0000
  H   H160      1.0  0.26210  0.16023  0.50827  1.0000
  C   C127      1.0  0.15362  0.41794  0.47233  1.0000
  C   C128      1.0  0.49105  0.30648  0.64854  1.0000
  H   H161      1.0  0.06320  0.39903  0.66530  1.0000
  H   H162      1.0  0.46548  0.06683  0.38757  1.0000
  H   H163      1.0  0.33927  0.18172  0.53564  1.0000
  H   H164      1.0  0.33389  0.22065  0.52337  1.0000
  H   H165      1.0  0.30906  0.14079  0.50000  1.0000
  C   C129      1.0  0.38726  0.19206  0.48131  1.0000
  H   H166      1.0  0.01954  0.21957  0.39409  1.0000
  S   S44       1.0  0.17358  0.30874  0.35510  1.0000
  C   C130      1.0  0.10482  0.38176  0.49285  1.0000
  H   H167      1.0  0.08681  0.04462  0.66595  1.0000
  C   C131      1.0  0.00467  0.38415  0.56436  1.0000
  C   C132      1.0  0.06431  0.32668  0.47951  1.0000
  H   H168      1.0  0.21072  0.04876  0.66803  1.0000
  Fe  Fe22      1.0  0.09487  0.37447  0.34857  1.0000
  H   H169      1.0  0.11737  0.45726  0.50964  1.0000
  C   C133      1.0  0.01158  0.29424  0.41038  1.0000
  H   H170      1.0  0.17875  0.39821  0.66487  1.0000
  H   H171      1.0  0.01995  0.36348  0.57100  1.0000
  H   H172      1.0  0.00821  0.00862  0.63844  1.0000
  S   S45       1.0  0.04877  0.41251  0.34487  1.0000
  H   H173      1.0  0.04895  0.30563  0.47432  1.0000
  Fe  Fe23      1.0  0.09774  0.45812  0.60035  1.0000
  H   H174      1.0  0.15005  0.43252  0.66618  1.0000
  C   C134      1.0  0.42339  0.18382  0.66655  1.0000
  C   C135      1.0  0.00157  0.43853  0.56478  1.0000
  C   C136      1.0  0.38253  0.17987  0.65857  1.0000
  H   H175      1.0  0.44604  0.18527  0.64791  1.0000
  C   C137      1.0  0.14791  0.40774  0.66937  1.0000
  Fe  Fe24      1.0  0.09906  0.31507  0.85681  1.0000
  S   S46       1.0  0.10038  0.35558  0.88831  1.0000
  C   C138      1.0  0.37671  0.19323  0.97973  1.0000
  Fe  Fe25      1.0  0.16162  0.33990  0.81014  1.0000
  S   S47       1.0  0.16671  0.38253  0.83862  1.0000
  S   S48       1.0  0.19635  0.34296  0.76336  1.0000
  Fe  Fe26      1.0  0.16822  0.35298  0.88193  1.0000
  S   S49       1.0  0.21302  0.36589  0.92109  1.0000
  Fe  Fe27      1.0  0.09864  0.38121  0.84238  1.0000
  S   S50       1.0  0.06190  0.42414  0.83673  1.0000
  S   S51       1.0  0.16762  0.31020  0.85338  1.0000
  S   S52       1.0  0.09297  0.34080  0.81099  1.0000
  Fe  Fe28      1.0  0.37658  0.12573  0.84040  1.0000
  S   S53       1.0  0.38141  0.08799  0.80556  1.0000
  S   S54       1.0  0.41007  0.17022  0.83572  1.0000
  Fe  Fe29      1.0  0.31792  0.08997  0.88399  1.0000
  S   S55       1.0  0.31810  0.04969  0.85148  1.0000
  S   S56       1.0  0.28592  0.09623  0.93168  1.0000
  Fe  Fe30      1.0  0.38574  0.05880  0.84884  1.0000
  S   S57       1.0  0.43501  0.02408  0.85414  1.0000
  Fe  Fe31      1.0  0.31344  0.08306  0.81092  1.0000
  S   S58       1.0  0.27515  0.08704  0.76550  1.0000
  S   S59       1.0  0.38567  0.09682  0.88343  1.0000
  S   S60       1.0  0.30845  0.12296  0.84393  1.0000
  H   H176      1.0  0.29583  0.29388  0.79763  1.0000
  C   C139      1.0  0.23178  0.00630  0.73322  1.0000
  C   C140      1.0  0.39059  0.31214  0.71080  1.0000
  H   H177      1.0  0.46673  0.18893  0.70457  1.0000
  C   C141      1.0  0.21238  0.44956  0.88021  1.0000
  H   H178      1.0  0.15834  0.40129  0.74917  1.0000
  H   H179      1.0  0.10426  0.35905  0.68600  1.0000
  S   S61       1.0  0.05728  0.27619  0.86753  1.0000
  H   H180      1.0  0.25873  0.24335  0.74434  1.0000
  N   N9        1.0  0.28562  0.45679  0.89695  1.0000
  H   H181      1.0  0.46863  0.21733  0.82608  1.0000
  H   H182      1.0  0.34338  0.12839  0.74360  1.0000
  C   C142      1.0  0.24086  0.07301  0.98107  1.0000
  C   C143      1.0  0.26543  0.06629  0.95466  1.0000
  C   C144      1.0  0.27428  0.03616  0.94796  1.0000
  C   C145      1.0  0.25899  0.01310  0.96763  1.0000
  C   C146      1.0  0.34424  0.26660  0.81657  1.0000
  H   H183      1.0  0.23372  0.09619  0.98647  1.0000
  H   H184      1.0  0.29312  0.03061  0.92774  1.0000
  H   H185      1.0  0.26629  0.98992  0.96230  1.0000
  H   H186      1.0  0.00070  0.99161  0.77579  1.0000
  C   C147      1.0  0.29067  0.17329  0.72930  1.0000
  C   C148      1.0  0.25056  0.02830  0.75248  1.0000
  C   C149      1.0  0.25446  0.05787  0.74151  1.0000
  C   C150      1.0  0.23985  0.06503  0.71095  1.0000
  H   H187      1.0  0.32022  0.14447  0.77811  1.0000
  N   N10       1.0  0.33338  0.17618  0.74079  1.0000
  H   H188      1.0  0.26156  0.02247  0.77595  1.0000
  C   C151      1.0  0.35289  0.17790  0.68224  1.0000
  C   C152      1.0  0.01399  0.42164  0.81749  1.0000
  C   C153      1.0  0.40542  0.18404  0.72222  1.0000
  C   C154      1.0  0.06175  0.00005  0.75956  1.0000
  H   H189      1.0  0.17192  0.43310  0.72429  1.0000
  C   C155      1.0  0.22606  0.31610  0.74262  1.0000
  C   C156      1.0  0.23067  0.28644  0.75314  1.0000
  C   C157      1.0  0.25523  0.26617  0.73591  1.0000
  H   H190      1.0  0.11545  0.36078  0.72782  1.0000
  C   C158      1.0  0.27012  0.30486  0.69730  1.0000
  C   C159      1.0  0.24581  0.32513  0.71460  1.0000
  H   H191      1.0  0.21542  0.27918  0.77457  1.0000
  H   H192      1.0  0.14042  0.97264  0.98400  1.0000
  H   H193      1.0  0.24244  0.34802  0.70623  1.0000
  C   C160      1.0  0.22665  0.33940  0.95081  1.0000
  C   C161      1.0  0.20678  0.31168  0.95326  1.0000
  C   C162      1.0  0.21754  0.29138  0.97760  1.0000
  C   C163      1.0  0.13325  0.37858  0.97719  1.0000
  H   H194      1.0  0.11373  0.96473  0.94808  1.0000
  C   C164      1.0  0.25733  0.34661  0.97294  1.0000
  H   H195      1.0  0.18294  0.30589  0.93652  1.0000
  H   H196      1.0  0.20172  0.27010  0.97939  1.0000
  H   H197      1.0  0.31068  0.20176  0.78066  1.0000
  H   H198      1.0  0.27283  0.36802  0.97130  1.0000
  H   H199      1.0  0.11766  0.36672  0.99693  1.0000
  C   C165      1.0  0.14170  0.42369  0.94677  1.0000
  C   C166      1.0  0.45160  0.17328  0.80929  1.0000
  C   C167      1.0  0.46078  0.15037  0.78772  1.0000
  H   H200      1.0  0.28609  0.23164  0.97326  1.0000
  H   H201      1.0  0.44304  0.12996  0.78746  1.0000
  H   H202      1.0  0.01842  0.32672  0.90164  1.0000
  H   H203      1.0  0.06841  0.10788  0.72131  1.0000
  S   S62       1.0  0.19192  0.98527  0.68009  1.0000
  H   H204      1.0  0.43512  0.44701  0.90038  1.0000
  H   H205      1.0  0.46549  0.97985  0.89693  1.0000
  C   C168      1.0  0.41003  0.19187  0.95907  1.0000
  H   H206      1.0  0.33182  0.22392  0.74899  1.0000
  H   H207      1.0  0.41567  0.18564  0.74653  1.0000
  H   H208      1.0  0.24286  0.08779  0.70217  1.0000
  C   C169      1.0  0.39289  0.05627  0.96604  1.0000
  C   C170      1.0  0.00452  0.03260  0.74901  1.0000
  N   N11       1.0  0.09959  0.06639  0.71043  1.0000
  C   C171      1.0  0.30462  0.45365  0.86524  1.0000
  H   H209      1.0  0.44096  0.32908  0.75971  1.0000
  H   H210      1.0  0.33256  0.30872  0.75050  1.0000
  H   H211      1.0  0.19514  0.39707  0.71879  1.0000
  H   H212      1.0  0.28114  0.19340  0.71533  1.0000
  H   H213      1.0  0.48820  0.14010  0.86855  1.0000
  H   H214      1.0  0.31668  0.41923  0.91927  1.0000
  H   H215      1.0  0.13091  0.44689  0.94143  1.0000
  C   C172      1.0  0.07203  0.04628  0.72844  1.0000
  C   C173      1.0  0.34311  0.14866  0.75918  1.0000
  H   H216      1.0  0.15528  0.05433  0.73546  1.0000
  C   C174      1.0  0.47643  0.00155  0.90492  1.0000
  C   C175      1.0  0.16583  0.40847  0.72453  1.0000
  H   H217      1.0  0.43678  0.25635  0.78321  1.0000
  H   H218      1.0  0.47137  0.29545  0.75811  1.0000
  H   H219      1.0  0.30179  0.13955  0.00016  1.0000
  H   H220      1.0  0.07391  0.97964  0.77013  1.0000
  H   H221      1.0  0.01037  0.41745  0.89305  1.0000
  H   H222      1.0  0.39967  0.25202  0.70821  1.0000
  C   C176      1.0  0.46511  0.02761  0.88857  1.0000
  C   C177      1.0  0.21702  0.01349  0.70273  1.0000
  H   H223      1.0  0.44441  0.27155  0.69470  1.0000
  H   H224      1.0  0.09708  0.44834  0.99470  1.0000
  H   H225      1.0  0.13265  0.36337  0.95615  1.0000
  C   C178      1.0  0.13581  0.07415  0.73006  1.0000
  C   C179      1.0  0.00504  0.30579  0.90948  1.0000
  H   H226      1.0  0.11873  0.01274  0.73964  1.0000
  C   C180      1.0  0.02048  0.00667  0.76278  1.0000
  C   C181      1.0  0.06063  0.41264  0.68649  1.0000
  H   H227      1.0  0.21865  0.42657  0.87348  1.0000
  C   C182      1.0  0.08708  0.43365  0.73546  1.0000
  H   H228      1.0  0.32181  0.17529  0.67422  1.0000
  N   N12       1.0  0.11440  0.40814  0.96960  1.0000
  C   C183      1.0  0.33520  0.20248  0.76246  1.0000
  H   H229      1.0  0.10205  0.11010  0.68789  1.0000
  H   H230      1.0  0.05102  0.37892  0.99895  1.0000
  H   H231      1.0  0.25999  0.20206  0.95241  1.0000
  C   C184      1.0  0.22519  0.04992  0.00054  1.0000
  C   C185      1.0  0.08019  0.09513  0.70050  1.0000
  C   C186      1.0  0.27151  0.20914  0.97611  1.0000
  H   H232      1.0  0.41575  0.05334  0.94676  1.0000
  C   C187      1.0  0.28542  0.42684  0.91275  1.0000
  C   C188      1.0  0.02970  0.05221  0.73207  1.0000
  H   H233      1.0  0.46709  0.31894  0.72408  1.0000
  H   H234      1.0  0.26877  0.17103  0.74933  1.0000
  S   S63       1.0  0.30766  0.24971  0.68797  1.0000
  H   H235      1.0  0.38125  0.33385  0.72175  1.0000
  N   N13       1.0  0.41313  0.29276  0.73369  1.0000
  C   C189      1.0  0.43486  0.18599  0.69835  1.0000
  H   H236      1.0  0.36429  0.20350  0.77597  1.0000
  H   H237      1.0  0.37525  0.11503  0.95631  1.0000
  C   C190      1.0  0.00412  0.38202  0.96421  1.0000
  H   H238      1.0  0.42712  0.10574  0.94638  1.0000
  H   H239      1.0  0.39263  0.03466  0.97940  1.0000
  H   H240      1.0  0.12663  0.08432  0.75312  1.0000
  N   N14       1.0  0.30049  0.18709  0.99006  1.0000
  H   H241      1.0  0.16576  0.38091  0.98451  1.0000
  H   H242      1.0  0.26683  0.42722  0.93483  1.0000
  C   C191      1.0  0.34831  0.29409  0.76696  1.0000
  C   C192      1.0  0.33690  0.18477  0.96949  1.0000
  H   H243      1.0  0.32718  0.26007  0.83749  1.0000
  C   C193      1.0  0.33292  0.17446  0.93773  1.0000
  C   C194      1.0  0.12669  0.36730  0.70381  1.0000
  C   C195      1.0  0.36634  0.17329  0.91731  1.0000
  C   C196      1.0  0.40478  0.18211  0.92785  1.0000
  H   H244      1.0  0.47185  0.07581  0.88594  1.0000
  H   H245      1.0  0.43036  0.18155  0.91161  1.0000
  C   C197      1.0  0.07247  0.40359  0.95733  1.0000
  H   H246      1.0  0.05476  0.09126  0.68344  1.0000
  H   H247      1.0  0.44646  0.25066  0.73061  1.0000
  C   C198      1.0  0.40569  0.10926  0.96651  1.0000
  H   H248      1.0  0.41720  0.12926  0.97951  1.0000
  C   C199      1.0  0.38385  0.25615  0.81221  1.0000
  C   C200      1.0  0.24844  0.29844  0.99957  1.0000
  H   H249      1.0  0.14948  0.44563  0.86538  1.0000
  H   H250      1.0  0.30372  0.16743  0.92828  1.0000
  H   H251      1.0  0.28749  0.43779  0.84974  1.0000
  H   H252      1.0  0.36224  0.16576  0.89302  1.0000
  C   C201      1.0  0.04346  0.38749  0.97563  1.0000
  C   C202      1.0  0.01955  0.40922  0.91625  1.0000
  H   H253      1.0  0.40955  0.31803  0.68972  1.0000
  H   H254      1.0  0.46706  0.07146  0.98310  1.0000
  H   H255      1.0  0.01503  0.07175  0.72193  1.0000
  H   H256      1.0  0.37324  0.15007  0.77115  1.0000
  H   H257      1.0  0.15561  0.35468  0.69984  1.0000
  C   C203      1.0  0.27512  0.27529  0.70795  1.0000
  H   H258      1.0  0.43999  0.19878  0.96731  1.0000
  H   H259      1.0  0.39746  0.24130  0.82978  1.0000
  C   C204      1.0  0.42648  0.26553  0.71618  1.0000
  C   C205      1.0  0.40596  0.26469  0.78532  1.0000
  C   C206      1.0  0.08715  0.01929  0.74229  1.0000
  C   C207      1.0  0.11323  0.05071  0.68130  1.0000
  C   C208      1.0  0.36354  0.17968  0.71494  1.0000
  H   H260      1.0  0.33659  0.44528  0.86705  1.0000
  C   C209      1.0  0.47511  0.19965  0.80919  1.0000
  N   N15       1.0  0.13301  0.40026  0.70170  1.0000
  C   C210      1.0  0.28007  0.15736  0.99235  1.0000
  H   H261      1.0  0.27314  0.40874  0.89723  1.0000
  C   C211      1.0  0.38879  0.28381  0.76173  1.0000
  C   C212      1.0  0.11285  0.42651  0.99897  1.0000
  C   C213      1.0  0.04952  0.44761  0.74078  1.0000
  C   C214      1.0  0.02321  0.42675  0.69204  1.0000
  H   H262      1.0  0.15620  0.09043  0.71777  1.0000
  H   H263      1.0  0.11010  0.43695  0.75351  1.0000
  C   C215      1.0  0.44964  0.30967  0.74443  1.0000
  C   C216      1.0  0.22146  0.04296  0.69156  1.0000
  C   C217      1.0  0.01924  0.27839  0.89705  1.0000
  C   C218      1.0  0.09390  0.41583  0.70790  1.0000
  H   H264      1.0  0.36279  0.05944  0.95411  1.0000
  H   H265      1.0  0.24430  0.21252  0.99150  1.0000
  C   C219      1.0  0.23442  0.01982  0.99404  1.0000
  H   H266      1.0  0.07864  0.42739  0.91166  1.0000
  H   H267      1.0  0.28652  0.15273  0.71451  1.0000
  C   C220      1.0  0.47979  0.05563  0.89888  1.0000
  H   H268      1.0  0.14435  0.41079  0.92417  1.0000
  H   H269      1.0  0.03993  0.98264  0.69013  1.0000
  H   H270      1.0  0.26688  0.14991  0.96929  1.0000
  N   N16       1.0  0.40297  0.08217  0.98699  1.0000
  H   H271      1.0  0.12996  0.02962  0.68678  1.0000
  H   H272      1.0  0.22866  0.98356  0.74207  1.0000
  C   C221      1.0  0.32661  0.28559  0.79408  1.0000
  C   C222      1.0  0.05906  0.41480  0.92738  1.0000
  H   H273      1.0  0.36301  0.30057  0.70133  1.0000
  H   H274      1.0  0.17330  0.42589  0.95625  1.0000
  H   H275      1.0  0.49338  0.44272  0.93749  1.0000
  C   C223      1.0  0.17271  0.46027  0.87538  1.0000
  C   C224      1.0  0.01761  0.44412  0.71920  1.0000
  C   C225      1.0  0.26836  0.32617  0.99715  1.0000
  C   C226      1.0  0.44356  0.07635  0.00140  1.0000
  C   C227      1.0  0.00142  0.25149  0.90723  1.0000
  C   C228      1.0  0.49236  0.15420  0.76562  1.0000
  H   H276      1.0  0.01504  0.37350  0.81212  1.0000
  H   H277      1.0  0.01208  0.23027  0.89776  1.0000
  H   H278      1.0  0.38296  0.20132  0.00347  1.0000
  H   H279      1.0  0.33306  0.04828  0.00329  1.0000
  H   H280      1.0  0.28522  0.31223  0.67588  1.0000
  H   H281      1.0  0.04505  0.46087  0.76208  1.0000
  H   H282      1.0  0.49809  0.13676  0.74830  1.0000
  Fe  Fe32      1.0  0.16911  0.80507  0.30559  1.0000
  C   C229      1.0  0.02806  0.95497  0.20649  1.0000
  S   S64       1.0  0.22290  0.79853  0.27215  1.0000
  C   C230      1.0  0.32084  0.86995  0.01203  1.0000
  H   H283      1.0  0.44624  0.77025  0.26767  1.0000
  S   S65       1.0  0.10260  0.80842  0.29278  1.0000
  Fe  Fe33      1.0  0.31662  0.74044  0.04278  1.0000
  S   S66       1.0  0.30379  0.69816  0.07007  1.0000
  C   C231      1.0  0.33178  0.66785  0.23233  1.0000
  Fe  Fe34      1.0  0.36979  0.76488  0.09625  1.0000
  S   S67       1.0  0.36176  0.72435  0.12733  1.0000
  S   S68       1.0  0.40375  0.80658  0.11065  1.0000
  Fe  Fe35      1.0  0.37051  0.69853  0.08176  1.0000
  S   S69       1.0  0.40444  0.65439  0.07810  1.0000
  Fe  Fe36      1.0  0.29596  0.72801  0.11286  1.0000
  S   S70       1.0  0.24250  0.72047  0.14610  1.0000
  S   S71       1.0  0.38399  0.73899  0.05197  1.0000
  S   S72       1.0  0.30315  0.77039  0.08436  1.0000
  N   N17       1.0  0.19951  0.67743  0.30143  1.0000
  S   S73       1.0  0.10326  0.50591  0.06256  1.0000
  H   H284      1.0  0.43908  0.61624  0.30446  1.0000
  Fe  Fe37      1.0  0.16550  0.49496  0.14122  1.0000
  S   S74       1.0  0.16570  0.53831  0.11411  1.0000
  C   C232      1.0  0.01868  0.87476  0.05980  1.0000
  Fe  Fe38      1.0  0.09795  0.52990  0.10955  1.0000
  C   C233      1.0  0.31653  0.84872  0.06488  1.0000
  Fe  Fe39      1.0  0.17110  0.50972  0.07013  1.0000
  H   H285      1.0  0.25644  0.65350  0.16222  1.0000
  S   S75       1.0  0.09760  0.48870  0.14007  1.0000
  C   C234      1.0  0.45302  0.82978  0.15645  1.0000
  H   H286      1.0  0.23224  0.73360  0.29150  1.0000
  S   S76       1.0  0.36258  0.58369  0.31446  1.0000
  H   H287      1.0  0.40018  0.87431  0.02595  1.0000
  Fe  Fe40      1.0  0.29471  0.58613  0.32132  1.0000
  S   S77       1.0  0.24852  0.59086  0.28107  1.0000
  H   H288      1.0  0.35319  0.59931  0.08570  1.0000
  C   C235      1.0  0.14350  0.92051  0.23524  1.0000
  C   C236      1.0  0.45820  0.63593  0.30270  1.0000
  H   H289      1.0  0.02228  0.94510  0.29387  1.0000
  C   C237      1.0  0.21819  0.51519  0.21032  1.0000
  C   C238      1.0  0.19707  0.54253  0.20945  1.0000
  C   C239      1.0  0.20631  0.56530  0.23158  1.0000
  C   C240      1.0  0.23686  0.56106  0.25464  1.0000
  C   C241      1.0  0.25783  0.53366  0.25563  1.0000
  C   C242      1.0  0.24845  0.51082  0.23358  1.0000
  H   H290      1.0  0.17354  0.54614  0.19179  1.0000
  H   H291      1.0  0.18988  0.58639  0.23063  1.0000
  H   H292      1.0  0.28145  0.53014  0.27325  1.0000
  H   H293      1.0  0.48366  0.66456  0.16373  1.0000
  C   C243      1.0  0.44565  0.65031  0.05149  1.0000
  C   C244      1.0  0.27779  0.57935  0.17230  1.0000
  H   H294      1.0  0.02126  0.84984  0.27774  1.0000
  C   C245      1.0  0.46080  0.67466  0.03407  1.0000
  H   H295      1.0  0.37972  0.77686  0.22076  1.0000
  H   H296      1.0  0.44762  0.69671  0.03695  1.0000
  C   C246      1.0  0.02638  0.89720  0.28779  1.0000
  C   C247      1.0  0.35651  0.82243  0.02619  1.0000
  H   H297      1.0  0.08032  0.88102  0.00698  1.0000
  H   H298      1.0  0.18218  0.89485  0.18940  1.0000
  C   C248      1.0  0.22616  0.77774  0.23631  1.0000
  C   C249      1.0  0.26133  0.78074  0.21759  1.0000
  C   C250      1.0  0.26603  0.76402  0.18944  1.0000
  C   C251      1.0  0.23611  0.74340  0.18020  1.0000
  C   C252      1.0  0.20085  0.74039  0.19885  1.0000
  C   C253      1.0  0.19559  0.75781  0.22657  1.0000
  H   H299      1.0  0.28499  0.79626  0.22483  1.0000
  H   H300      1.0  0.29293  0.76695  0.17500  1.0000
  H   H301      1.0  0.17735  0.72470  0.19168  1.0000
  H   H302      1.0  0.16803  0.75578  0.24039  1.0000
  H   H303      1.0  0.24612  0.61686  0.06335  1.0000
  H   H304      1.0  0.14616  0.48236  0.30917  1.0000
  H   H305      1.0  0.48244  0.67716  0.10657  1.0000
  C   C254      1.0  0.26724  0.60879  0.18004  1.0000
  H   H306      1.0  0.47231  0.71026  0.23674  1.0000
  H   H307      1.0  0.10023  0.85919  0.20100  1.0000
  H   H308      1.0  0.18330  0.47583  0.25793  1.0000
  H   H309      1.0  0.21219  0.63466  0.32366  1.0000
  C   C255      1.0  0.44394  0.80419  0.13849  1.0000
  C   C256      1.0  0.07631  0.51186  0.22200  1.0000
  C   C257      1.0  0.19630  0.73701  0.02810  1.0000
  C   C258      1.0  0.44905  0.66166  0.32037  1.0000
  C   C259      1.0  0.22697  0.67089  0.27432  1.0000
  C   C260      1.0  0.46023  0.72895  0.22190  1.0000
  H   H310      1.0  0.37372  0.81039  0.04520  1.0000
  H   H311      1.0  0.22713  0.57956  0.07047  1.0000
  N   N18       1.0  0.29055  0.58529  0.08212  1.0000
  C   C261      1.0  0.05883  0.47291  0.27207  1.0000
  C   C262      1.0  0.03756  0.51186  0.23540  1.0000
  C   C263      1.0  0.16279  0.69335  0.28944  1.0000
  C   C264      1.0  0.06308  0.90857  0.17131  1.0000
  H   H312      1.0  0.08305  0.52723  0.20265  1.0000
  H   H313      1.0  0.17646  0.56040  0.00675  1.0000
  H   H314      1.0  0.15566  0.92563  0.17112  1.0000
  H   H315      1.0  0.12539  0.92001  0.25755  1.0000
  H   H316      1.0  0.07494  0.89038  0.15705  1.0000
  H   H317      1.0  0.99991  0.60656  0.15100  1.0000
  H   H318      1.0  0.34529  0.73636  0.19956  1.0000
  H   H319      1.0  0.45840  0.72072  0.19696  1.0000
  H   H320      1.0  0.09220  0.87343  0.24035  1.0000
  H   H321      1.0  0.27457  0.53825  0.08471  1.0000
  S   S78       1.0  0.17436  0.46649  0.09783  1.0000
  Fe  Fe41      1.0  0.10629  0.46501  0.09357  1.0000
  H   H322      1.0  0.46060  0.75816  0.12880  1.0000
  C   C265      1.0  0.26464  0.63052  0.15626  1.0000
  S   S79       1.0  0.20632  0.48560  0.18368  1.0000
  C   C266      1.0  0.03832  0.90262  0.06338  1.0000
  H   H323      1.0  0.28001  0.56253  0.19091  1.0000
  H   H324      1.0  0.33410  0.59716  0.04571  1.0000
  H   H325      1.0  0.32846  0.54614  0.08953  1.0000
  H   H326      1.0  0.27035  0.64055  0.10716  1.0000
  H   H327      1.0  0.17333  0.90997  0.24138  1.0000
  C   C267      1.0  0.40883  0.76639  0.21292  1.0000
  H   H328      1.0  0.19706  0.74481  0.07858  1.0000
  H   H329      1.0  0.22555  0.72564  0.02820  1.0000
  C   C268      1.0  0.23625  0.72529  0.31546  1.0000
  Fe  Fe42      1.0  0.11346  0.95045  0.09234  1.0000
  C   C269      1.0  0.49220  0.63564  0.28248  1.0000
  C   C270      1.0  0.02878  0.49233  0.26033  1.0000
  H   H330      1.0  0.30769  0.87045  0.07592  1.0000
  H   H331      1.0  0.43548  0.85016  0.15311  1.0000
  C   C271      1.0  0.35289  0.71712  0.21400  1.0000
  H   H332      1.0  0.31251  0.91030  0.04102  1.0000
  C   C272      1.0  0.32455  0.69358  0.21422  1.0000
  H   H333      1.0  0.39464  0.75867  0.27573  1.0000
  C   C273      1.0  0.15148  0.90296  0.18192  1.0000
  C   C274      1.0  0.38020  0.86954  0.04668  1.0000
  H   H334      1.0  0.26090  0.61460  0.20454  1.0000
  H   H335      1.0  0.39863  0.85658  0.06435  1.0000
  H   H336      1.0  0.14219  0.86162  0.22828  1.0000
  C   C275      1.0  0.10647  0.49234  0.23346  1.0000
  H   H337      1.0  0.07741  0.95058  0.23855  1.0000
  C   C276      1.0  0.30012  0.55299  0.07687  1.0000
  N   N19       1.0  0.34314  0.85278  0.03678  1.0000
  C   C277      1.0  0.18039  0.74792  0.05648  1.0000
  N   N20       1.0  0.42003  0.74009  0.23296  1.0000
  C   C278      1.0  0.46709  0.77793  0.14290  1.0000
  H   H338      1.0  0.02955  0.47135  0.05269  1.0000
  C   C279      1.0  0.42447  0.75104  0.26608  1.0000
  C   C280      1.0  0.38965  0.71542  0.23192  1.0000
  C   C281      1.0  0.39608  0.68876  0.24976  1.0000
  H   H339      1.0  0.40602  0.76006  0.18741  1.0000
  H   H340      1.0  0.37313  0.64553  0.26438  1.0000
  H   H341      1.0  0.09202  0.77765  0.02928  1.0000
  H   H342      1.0  0.16359  0.65124  0.33429  1.0000
  H   H343      1.0  0.16226  0.93432  0.01944  1.0000
  H   H344      1.0  0.33211  0.83555  0.08392  1.0000
  H   H345      1.0  0.43637  0.73337  0.28229  1.0000
  H   H346      1.0  0.01441  0.52721  0.22662  1.0000
  H   H347      1.0  0.42331  0.68580  0.26378  1.0000
  C   C282      1.0  0.27242  0.62279  0.12465  1.0000
  C   C283      1.0  0.25424  0.59262  0.06248  1.0000
  H   H348      1.0  0.31967  0.62769  0.07075  1.0000
  C   C284      1.0  0.32573  0.60309  0.07054  1.0000
  H   H349      1.0  0.30481  0.54784  0.05123  1.0000
  H   H350      1.0  0.26748  0.76587  0.32917  1.0000
  N   N21       1.0  0.12255  0.90429  0.20900  1.0000
  C   C285      1.0  0.08381  0.91867  0.19898  1.0000
  C   C286      1.0  0.11396  0.87327  0.22005  1.0000
  H   H351      1.0  0.33020  0.80776  0.01997  1.0000
  S   S80       1.0  0.05071  0.56561  0.11833  1.0000
  C   C287      1.0  0.28256  0.59285  0.11582  1.0000
  H   H352      1.0  0.25925  0.58712  0.03699  1.0000
  C   C288      1.0  0.47431  0.68701  0.31784  1.0000
  S   S81       1.0  0.08237  0.90515  0.08739  1.0000
  C   C289      1.0  0.36748  0.66547  0.25011  1.0000
  C   C290      1.0  0.02661  0.92179  0.16123  1.0000
  H   H353      1.0  0.29684  0.69541  0.20018  1.0000
  C   C291      1.0  0.06483  0.94211  0.21660  1.0000
  H   H354      1.0  0.30982  0.64966  0.23259  1.0000
  H   H355      1.0  0.14136  0.88745  0.16279  1.0000
  C   C292      1.0  0.28504  0.57127  0.14073  1.0000
  H   H356      1.0  0.29238  0.54792  0.13659  1.0000
  C   C293      1.0  0.00728  0.87175  0.27504  1.0000
  H   H357      1.0  0.03051  0.85515  0.07196  1.0000
  H   H358      1.0  0.23510  0.69144  0.26065  1.0000
  H   H359      1.0  0.45254  0.60304  0.06148  1.0000
  H   H360      1.0  0.48385  0.74697  0.22283  1.0000
  C   C294      1.0  0.30708  0.89970  0.01829  1.0000
  H   H361      1.0  0.25585  0.66030  0.28279  1.0000
  H   H362      1.0  0.14508  0.67923  0.27245  1.0000
  H   H363      1.0  0.17081  0.63384  0.29640  1.0000
  H   H364      1.0  0.21280  0.65495  0.25710  1.0000
  H   H365      1.0  0.13574  0.49367  0.22204  1.0000
  H   H366      1.0  0.14999  0.94426  0.22848  1.0000
  H   H367      1.0  0.03774  0.94934  0.04999  1.0000
  C   C295      1.0  0.49662  0.61788  0.02699  1.0000
  H   H368      1.0  0.13054  0.77101  0.07860  1.0000
  H   H369      1.0  0.17056  0.71440  0.27663  1.0000
  S   S82       1.0  0.22400  0.51135  0.03527  1.0000
  H   H370      1.0  0.26487  0.48972  0.23450  1.0000
  C   C296      1.0  0.02299  0.92778  0.04741  1.0000
  H   H371      1.0  0.25573  0.79483  0.01586  1.0000
  H   H372      1.0  0.28801  0.83660  0.05837  1.0000
  H   H373      1.0  0.43238  0.78443  0.21410  1.0000
  C   C297      1.0  0.46387  0.62198  0.04800  1.0000
  H   H374      1.0  0.37295  0.89132  0.05830  1.0000
  S   S83       1.0  0.07377  0.89520  0.30784  1.0000
  C   C298      1.0  0.00902  0.94485  0.17886  1.0000
  C   C299      1.0  0.09858  0.47219  0.25898  1.0000
  H   H375      1.0  0.11019  0.92467  0.02566  1.0000
  H   H376      1.0  0.37727  0.82382  0.00538  1.0000
  S   S84       1.0  0.16996  0.84924  0.33197  1.0000
  C   C300      1.0  0.13707  0.91971  0.01053  1.0000
  C   C301      1.0  0.00964  0.55910  0.14451  1.0000
  C   C302      1.0  0.49328  0.67048  0.01277  1.0000
  H   H377      1.0  0.01085  0.51066  0.14255  1.0000
  C   C303      1.0  0.12122  0.76647  0.02802  1.0000
  C   C304      1.0  0.14293  0.76269  0.05642  1.0000
  H   H378      1.0  0.46754  0.70695  0.33160  1.0000
  S   S85       1.0  0.18166  0.95270  0.09478  1.0000
  C   C305      1.0  0.00782  0.92540  0.28408  1.0000
  Fe  Fe43      1.0  0.10265  0.85069  0.32200  1.0000
  H   H379      1.0  0.49043  0.84903  0.19324  1.0000
  H   H380      1.0  0.14678  0.89605  0.01475  1.0000
  C   C306      1.0  0.18592  0.64814  0.31473  1.0000
  C   C307      1.0  0.22102  0.69672  0.32476  1.0000
  H   H381      1.0  0.14212  0.69972  0.30931  1.0000
  C   C308      1.0  0.48427  0.82916  0.17916  1.0000
  H   H382      1.0  0.01219  0.91411  0.13949  1.0000
  C   C309      1.0  0.25673  0.74396  0.33690  1.0000
  H   H383      1.0  0.32072  0.54230  0.44055  1.0000
  S   S86       1.0  0.08770  0.82804  0.36813  1.0000
  H   H384      1.0  0.08727  0.89877  0.37797  1.0000
  Fe  Fe44      1.0  0.15509  0.82240  0.37573  1.0000
  S   S87       1.0  0.17932  0.83287  0.42546  1.0000
  H   H385      1.0  0.39533  0.48400  0.49662  1.0000
  Fe  Fe45      1.0  0.30202  0.59377  0.39378  1.0000
  S   S88       1.0  0.29823  0.62667  0.35336  1.0000
  S   S89       1.0  0.27085  0.60325  0.44095  1.0000
  S   S90       1.0  0.07229  0.91111  0.58090  1.0000
  H   H386      1.0  0.14830  0.65977  0.41162  1.0000
  S   S91       1.0  0.37043  0.59273  0.39260  1.0000
  C   C310      1.0  0.11198  0.77133  0.48274  1.0000
  H   H387      1.0  0.10803  0.87884  0.51809  1.0000
  C   C311      1.0  0.43753  0.50781  0.39096  1.0000
  H   H388      1.0  0.32594  0.65287  0.43328  1.0000
  H   H389      1.0  0.33785  0.51077  0.52236  1.0000
  H   H390      1.0  0.36149  0.71901  0.48115  1.0000
  H   H391      1.0  0.00953  0.53342  0.55826  1.0000
  C   C312      1.0  0.20946  0.52733  0.49764  1.0000
  C   C313      1.0  0.21567  0.55562  0.51141  1.0000
  C   C314      1.0  0.23379  0.57891  0.49361  1.0000
  C   C315      1.0  0.24581  0.57411  0.46198  1.0000
  C   C316      1.0  0.23860  0.54605  0.44805  1.0000
  C   C317      1.0  0.22067  0.52280  0.46583  1.0000
  H   H392      1.0  0.20715  0.55939  0.53590  1.0000
  H   H393      1.0  0.23901  0.60060  0.50457  1.0000
  H   H394      1.0  0.24705  0.54212  0.42361  1.0000
  H   H395      1.0  0.21571  0.50109  0.45487  1.0000
  C   C318      1.0  0.21038  0.80743  0.44722  1.0000
  C   C319      1.0  0.22296  0.81492  0.47823  1.0000
  C   C320      1.0  0.24618  0.79457  0.49664  1.0000
  C   C321      1.0  0.25703  0.76656  0.48409  1.0000
  C   C322      1.0  0.24472  0.75929  0.45303  1.0000
  C   C323      1.0  0.22146  0.77950  0.43471  1.0000
  H   H396      1.0  0.21466  0.83650  0.48814  1.0000
  H   H397      1.0  0.25545  0.80046  0.52053  1.0000
  H   H398      1.0  0.25280  0.73764  0.44330  1.0000
  H   H399      1.0  0.21192  0.77339  0.41098  1.0000
  H   H400      1.0  0.36894  0.55587  0.45465  1.0000
  H   H401      1.0  0.01353  0.79879  0.38254  1.0000
  Fe  Fe46      1.0  0.31539  0.74197  0.55479  1.0000
  S   S92       1.0  0.30800  0.69954  0.58354  1.0000
  S   S93       1.0  0.28428  0.73912  0.50620  1.0000
  Fe  Fe47      1.0  0.38038  0.76515  0.60127  1.0000
  S   S94       1.0  0.37780  0.72415  0.63190  1.0000
  S   S95       1.0  0.42080  0.80418  0.61495  1.0000
  Fe  Fe48      1.0  0.37621  0.69889  0.58580  1.0000
  S   S96       1.0  0.40860  0.65440  0.57902  1.0000
  Fe  Fe49      1.0  0.30997  0.72913  0.62689  1.0000
  C   C324      1.0  0.45488  0.53245  0.40685  1.0000
  S   S97       1.0  0.38402  0.73961  0.55520  1.0000
  S   S98       1.0  0.31215  0.77182  0.59827  1.0000
  C   C325      1.0  0.24826  0.70685  0.37815  1.0000
  S   S99       1.0  0.08973  0.49642  0.56635  1.0000
  S   S100      1.0  0.15889  0.77812  0.35028  1.0000
  Fe  Fe50      1.0  0.16202  0.49187  0.63980  1.0000
  S   S101      1.0  0.15995  0.53263  0.60816  1.0000
  C   C326      1.0  0.02811  0.90914  0.55691  1.0000
  Fe  Fe51      1.0  0.09197  0.52533  0.61006  1.0000
  H   H402      1.0  0.28501  0.48366  0.50258  1.0000
  Fe  Fe52      1.0  0.15810  0.49984  0.56720  1.0000
  S   S102      1.0  0.19039  0.49642  0.51957  1.0000
  S   S103      1.0  0.09420  0.48669  0.64402  1.0000
  C   C327      1.0  0.06205  0.90016  0.46779  1.0000
  H   H403      1.0  0.47082  0.84951  0.64108  1.0000
  C   C328      1.0  0.45022  0.65146  0.55265  1.0000
  C   C329      1.0  0.16481  0.72052  0.47647  1.0000
  H   H404      1.0  0.04981  0.72395  0.44216  1.0000
  C   C330      1.0  0.13666  0.88141  0.50425  1.0000
  C   C331      1.0  0.17704  0.91191  0.46946  1.0000
  H   H405      1.0  0.45198  0.69828  0.53972  1.0000
  C   C332      1.0  0.08027  0.89934  0.40314  1.0000
  H   H406      1.0  0.45498  0.58865  0.47464  1.0000
  C   C333      1.0  0.45123  0.47874  0.39798  1.0000
  H   H407      1.0  0.49266  0.60210  0.42596  1.0000
  H   H408      1.0  0.99963  0.89362  0.45314  1.0000
  S   S104      1.0  0.29357  0.55348  0.36231  1.0000
  H   H409      1.0  0.41410  0.52081  0.48602  1.0000
  H   H410      1.0  0.25299  0.69968  0.40248  1.0000
  H   H411      1.0  0.36704  0.52755  0.42496  1.0000
  C   C334      1.0  0.46288  0.80146  0.64119  1.0000
  N   N22       1.0  0.13556  0.90800  0.48294  1.0000
  C   C335      1.0  0.46523  0.67633  0.53599  1.0000
  C   C336      1.0  0.32698  0.48582  0.46187  1.0000
  C   C337      1.0  0.10336  0.90380  0.45856  1.0000
  H   H412      1.0  0.10196  0.70278  0.41428  1.0000
  C   C338      1.0  0.11165  0.90296  0.42541  1.0000
  C   C339      1.0  0.48163  0.47411  0.42089  1.0000
  C   C340      1.0  0.01335  0.56353  0.64808  1.0000
  H   H413      1.0  0.14264  0.78163  0.47962  1.0000
  S   S105      1.0  0.17126  0.95953  0.59076  1.0000
  C   C341      1.0  0.01212  0.75045  0.37853  1.0000
  H   H414      1.0  0.31900  0.62318  0.64480  1.0000
  H   H415      1.0  0.20559  0.65477  0.44968  1.0000
  N   N23       1.0  0.35175  0.51194  0.47223  1.0000
  H   H416      1.0  0.31116  0.68938  0.44776  1.0000
  H   H417      1.0  0.21719  0.66679  0.36631  1.0000
  H   H418      1.0  0.09760  0.93313  0.51556  1.0000
  C   C342      1.0  0.35214  0.53533  0.44707  1.0000
  C   C343      1.0  0.12656  0.93515  0.50217  1.0000
  C   C344      1.0  0.12655  0.70153  0.43145  1.0000
  H   H419      1.0  0.12444  0.95562  0.48695  1.0000
  H   H420      1.0  0.05350  0.90013  0.49252  1.0000
  H   H421      1.0  0.33362  0.64004  0.49103  1.0000
  H   H422      1.0  0.27875  0.74935  0.38469  1.0000
  H   H423      1.0  0.01959  0.86168  0.56500  1.0000
  H   H424      1.0  0.44468  0.55498  0.40142  1.0000
  H   H425      1.0  0.11061  0.76033  0.50647  1.0000
  S   S106      1.0  0.39809  0.51178  0.36273  1.0000
  C   C345      1.0  0.46828  0.62324  0.54800  1.0000
  C   C346      1.0  0.33763  0.67550  0.44002  1.0000
  C   C347      1.0  0.34796  0.66250  0.49468  1.0000
  H   H426      1.0  0.00281  0.70254  0.38011  1.0000
  H   H427      1.0  0.18682  0.89167  0.45586  1.0000
  C   C348      1.0  0.19115  0.69583  0.47432  1.0000
  H   H428      1.0  0.16164  0.88317  0.52214  1.0000
  C   C349      1.0  0.48623  0.52783  0.42936  1.0000
  H   H429      1.0  0.14215  0.90468  0.41603  1.0000
  S   S107      1.0  0.05036  0.56486  0.61794  1.0000
  H   H430      1.0  0.11940  0.61867  0.66778  1.0000
  S   S108      1.0  0.04856  0.74736  0.34787  1.0000
  H   H431      1.0  0.17860  0.93204  0.45376  1.0000
  H   H432      1.0  0.09384  0.75287  0.40591  1.0000
  H   H433      1.0  0.15076  0.93949  0.52022  1.0000
  H   H434      1.0  0.01454  0.51545  0.65494  1.0000
  H   H435      1.0  0.39946  0.61982  0.49368  1.0000
  H   H436      1.0  0.17169  0.73665  0.49491  1.0000
  C   C350      1.0  0.04007  0.89597  0.41307  1.0000
  H   H437      1.0  0.08252  0.78648  0.42704  1.0000
  C   C351      1.0  0.13149  0.72409  0.45507  1.0000
  H   H438      1.0  0.46282  0.75321  0.64669  1.0000
  H   H439      1.0  0.20033  0.91549  0.48842  1.0000
  C   C352      1.0  0.38545  0.70348  0.47208  1.0000
  H   H440      1.0  0.48049  0.58698  0.34885  1.0000
  H   H441      1.0  0.41006  0.70246  0.49027  1.0000
  H   H442      1.0  0.13457  0.77527  0.42143  1.0000
  H   H443      1.0  0.37210  0.62420  0.63619  1.0000
  H   H444      1.0  0.08981  0.79033  0.48318  1.0000
  H   H445      1.0  0.41759  0.67945  0.41292  1.0000
  C   C353      1.0  0.01301  0.93458  0.54127  1.0000
  C   C354      1.0  0.26287  0.73473  0.36816  1.0000
  N   N24       1.0  0.36890  0.67306  0.46546  1.0000
  H   H446      1.0  0.03806  0.75697  0.46398  1.0000
  N   N25       1.0  0.10263  0.74972  0.45679  1.0000
  H   H447      1.0  0.39837  0.71430  0.45056  1.0000
  C   C355      1.0  0.40233  0.65299  0.45498  1.0000
  C   C356      1.0  0.41401  0.62659  0.47186  1.0000
  C   C357      1.0  0.42470  0.65985  0.42710  1.0000
  C   C358      1.0  0.44599  0.60836  0.46118  1.0000
  C   C359      1.0  0.45662  0.64155  0.41672  1.0000
  C   C360      1.0  0.46741  0.61594  0.43380  1.0000
  C   C361      1.0  0.15300  0.67688  0.42960  1.0000
  H   H448      1.0  0.21655  0.69378  0.49079  1.0000
  H   H449      1.0  0.34965  0.68612  0.41805  1.0000
  C   C362      1.0  0.10343  0.76674  0.42652  1.0000
  H   H450      1.0  0.30450  0.53433  0.49871  1.0000
  H   H451      1.0  0.36927  0.66140  0.51529  1.0000
  C   C363      1.0  0.03096  0.89633  0.44536  1.0000
  H   H452      1.0  0.41602  0.66200  0.64691  1.0000
  H   H453      1.0  0.34426  0.65874  0.64307  1.0000
  C   C364      1.0  0.06067  0.73832  0.46202  1.0000
  H   H454      1.0  0.05883  0.72467  0.48415  1.0000
  Fe  Fe53      1.0  0.36210  0.55474  0.35839  1.0000
  Fe  Fe54      1.0  0.09230  0.78560  0.33998  1.0000
  H   H455      1.0  0.47699  0.68784  0.66426  1.0000
  H   H456      1.0  0.02801  0.95600  0.54408  1.0000
  C   C365      1.0  0.22751  0.68806  0.35693  1.0000
  H   H457      1.0  0.47284  0.64731  0.39519  1.0000
  H   H458      1.0  0.45685  0.60387  0.56074  1.0000
  H   H459      1.0  0.32301  0.67809  0.50188  1.0000
  C   C366      1.0  0.18522  0.67400  0.45103  1.0000
  H   H460      1.0  0.36052  0.47825  0.41775  1.0000
  H   H461      1.0  0.26031  0.78362  0.66069  1.0000
  C   C367      1.0  0.34795  0.63494  0.65087  1.0000
  H   H462      1.0  0.22267  0.54459  0.66753  1.0000
  C   C368      1.0  0.33652  0.52640  0.50172  1.0000
  Fe  Fe55      1.0  0.10320  0.95626  0.58748  1.0000
  H   H463      1.0  0.35493  0.54649  0.50835  1.0000
  C   C369      1.0  0.39421  0.50192  0.47815  1.0000
  H   H464      1.0  0.14147  0.86036  0.49036  1.0000
  C   C370      1.0  0.47720  0.77408  0.65366  1.0000
  H   H465      1.0  0.40851  0.49248  0.45643  1.0000
  C   C371      1.0  0.00068  0.53645  0.66202  1.0000
  C   C372      1.0  0.00808  0.88149  0.55302  1.0000
  C   C373      1.0  0.29449  0.47387  0.48032  1.0000
  S   S109      1.0  0.40534  0.66344  0.34453  1.0000
  C   C374      1.0  0.48170  0.82830  0.65050  1.0000
  H   H466      1.0  0.00422  0.61147  0.64633  1.0000
  Fe  Fe56      1.0  0.36605  0.62184  0.34923  1.0000
  H   H467      1.0  0.11171  0.56859  0.66450  1.0000
  H   H468      1.0  0.01600  0.89285  0.39567  1.0000
  H   H469      1.0  0.00683  0.94632  0.62104  1.0000
  C   C375      1.0  0.33594  0.47084  0.43290  1.0000
  C   C376      1.0  0.49765  0.67279  0.51444  1.0000
  H   H470      1.0  0.16595  0.66109  0.66120  1.0000
  C   C377      1.0  0.00092  0.77821  0.39181  1.0000
  Fe  Fe57      1.0  0.09565  0.79209  0.84613  1.0000
  S   S110      1.0  0.09181  0.83243  0.87745  1.0000
  H   H471      1.0  0.45243  0.80749  0.72408  1.0000
  Fe  Fe58      1.0  0.16051  0.81962  0.80339  1.0000
  S   S111      1.0  0.16177  0.86200  0.83293  1.0000
  S   S112      1.0  0.19640  0.82329  0.75715  1.0000
  Fe  Fe59      1.0  0.16003  0.83162  0.87561  1.0000
  S   S113      1.0  0.18972  0.84161  0.92333  1.0000
  Fe  Fe60      1.0  0.09357  0.85882  0.83216  1.0000
  S   S114      1.0  0.05667  0.90151  0.82578  1.0000
  S   S115      1.0  0.16424  0.78930  0.84648  1.0000
  S   S116      1.0  0.09199  0.81841  0.80047  1.0000
  Fe  Fe61      1.0  0.38713  0.60834  0.85007  1.0000
  S   S117      1.0  0.38915  0.56990  0.81567  1.0000
  S   S118      1.0  0.43278  0.64662  0.85187  1.0000
  Fe  Fe62      1.0  0.30758  0.58601  0.88090  1.0000
  S   S119      1.0  0.30335  0.54624  0.84820  1.0000
  S   S120      1.0  0.25830  0.59658  0.91700  1.0000
  Fe  Fe63      1.0  0.37074  0.54212  0.85786  1.0000
  S   S121      1.0  0.39663  0.49679  0.87033  1.0000
  Fe  Fe64      1.0  0.32190  0.57803  0.80922  1.0000
  S   S122      1.0  0.29492  0.58552  0.75997  1.0000
  S   S123      1.0  0.37363  0.57984  0.89294  1.0000
  S   S124      1.0  0.32105  0.61847  0.84127  1.0000
  H   H472      1.0  0.05306  0.75276  0.99122  1.0000
  H   H473      1.0  0.08425  0.80153  0.98196  1.0000
  H   H474      1.0  0.15449  0.86032  0.70714  1.0000
  C   C378      1.0  0.15627  0.91811  0.71497  1.0000
  H   H475      1.0  0.23219  0.48551  0.74799  1.0000
  H   H476      1.0  0.25441  0.51497  0.90783  1.0000
  C   C379      1.0  0.14350  0.62147  0.68513  1.0000
  S   S125      1.0  0.05752  0.75118  0.85669  1.0000
  H   H477      1.0  0.31445  0.65418  0.98564  1.0000
  C   C380      1.0  0.11959  0.55629  0.68660  1.0000
  H   H478      1.0  0.41887  0.68431  0.97234  1.0000
  H   H479      1.0  0.21389  0.83379  0.98857  1.0000
  C   C381      1.0  0.21276  0.57625  0.96726  1.0000
  C   C382      1.0  0.24865  0.57253  0.94955  1.0000
  C   C383      1.0  0.27639  0.55016  0.95841  1.0000
  C   C384      1.0  0.42170  0.66274  0.67215  1.0000
  H   H480      1.0  0.26151  0.91694  0.94785  1.0000
  H   H481      1.0  0.38880  0.59069  0.68171  1.0000
  H   H482      1.0  0.30423  0.54727  0.94505  1.0000
  H   H483      1.0  0.18550  0.53236  0.90020  1.0000
  C   C385      1.0  0.41126  0.73515  0.76387  1.0000
  C   C386      1.0  0.16610  0.91982  0.95850  1.0000
  C   C387      1.0  0.25451  0.56234  0.70843  1.0000
  C   C388      1.0  0.26833  0.55687  0.73954  1.0000
  C   C389      1.0  0.26023  0.52908  0.75371  1.0000
  C   C390      1.0  0.07325  0.88496  0.98227  1.0000
  C   C391      1.0  0.11687  0.95762  0.97327  1.0000
  H   H484      1.0  0.26030  0.58384  0.69736  1.0000
  H   H485      1.0  0.27076  0.52463  0.77763  1.0000
  C   C392      1.0  0.12433  0.87115  0.70265  1.0000
  C   C393      1.0  0.32237  0.65948  0.96059  1.0000
  N   N26       1.0  0.12801  0.92538  0.97645  1.0000
  H   H486      1.0  0.18497  0.90586  0.72089  1.0000
  C   C394      1.0  0.21575  0.79360  0.73340  1.0000
  C   C395      1.0  0.21705  0.76377  0.74400  1.0000
  C   C396      1.0  0.36287  0.60353  0.97222  1.0000
  C   C397      1.0  0.23838  0.50697  0.73687  1.0000
  H   H487      1.0  0.40052  0.71463  0.77501  1.0000
  C   C398      1.0  0.23154  0.80052  0.70325  1.0000
  H   H488      1.0  0.20507  0.75813  0.76717  1.0000
  C   C399      1.0  0.20671  0.63142  0.72837  1.0000
  H   H489      1.0  0.23054  0.82349  0.69477  1.0000
  C   C400      1.0  0.21884  0.81338  0.94227  1.0000
  C   C401      1.0  0.23507  0.78937  0.92505  1.0000
  C   C402      1.0  0.25912  0.76760  0.94044  1.0000
  H   H490      1.0  0.09710  0.92514  0.91557  1.0000
  S   S126      1.0  0.27273  0.71932  0.67135  1.0000
  C   C403      1.0  0.22645  0.81528  0.97508  1.0000
  H   H491      1.0  0.22964  0.78778  0.89975  1.0000
  C   C404      1.0  0.25041  0.79338  0.99055  1.0000
  C   C405      1.0  0.44650  0.59639  0.96227  1.0000
  C   C406      1.0  0.28589  0.91639  0.99539  1.0000
  C   C407      1.0  0.16992  0.64587  0.68113  1.0000
  H   H492      1.0  0.04067  0.89578  0.89435  1.0000
  C   C408      1.0  0.47231  0.64780  0.82347  1.0000
  C   C409      1.0  0.11919  0.89195  0.75542  1.0000
  H   H493      1.0  0.18696  0.59265  0.75279  1.0000
  H   H494      1.0  0.46505  0.60213  0.80745  1.0000
  H   H495      1.0  0.00103  0.94947  0.81358  1.0000
  C   C410      1.0  0.39499  0.64930  0.69463  1.0000
  H   H496      1.0  0.44951  0.54304  0.89862  1.0000
  H   H497      1.0  0.48674  0.59275  0.87524  1.0000
  C   C411      1.0  0.04331  0.89860  0.71433  1.0000
  N   N27       1.0  0.11957  0.89943  0.72111  1.0000
  C   C412      1.0  0.23197  0.53499  0.00211  1.0000
  H   H498      1.0  0.11559  0.91253  0.77026  1.0000
  C   C413      1.0  0.08214  0.90953  0.93140  1.0000
  H   H499      1.0  0.01245  0.85619  0.78887  1.0000
  C   C414      1.0  0.43928  0.78783  0.73509  1.0000
  C   C415      1.0  0.32190  0.64560  0.70272  1.0000
  N   N28       1.0  0.36713  0.65864  0.95540  1.0000
  C   C416      1.0  0.42821  0.62439  0.95710  1.0000
  C   C417      1.0  0.38413  0.75343  0.74692  1.0000
  H   H500      1.0  0.05441  0.56966  0.72308  1.0000
  H   H501      1.0  0.30592  0.47571  0.85270  1.0000
  H   H502      1.0  0.36369  0.55659  0.98539  1.0000
  H   H503      1.0  0.06633  0.60022  0.69754  1.0000
  H   H504      1.0  0.19125  0.59363  0.96059  1.0000
  C   C418      1.0  0.19285  0.50907  0.89483  1.0000
  C   C419      1.0  0.24351  0.46830  0.89286  1.0000
  H   H505      1.0  0.13222  0.49818  0.87892  1.0000
  C   C420      1.0  0.31185  0.47693  0.91644  1.0000
  H   H506      1.0  0.15014  0.54612  0.68305  1.0000
  H   H507      1.0  0.44987  0.66755  0.76133  1.0000
  H   H508      1.0  0.01071  0.80294  0.82610  1.0000
  C   C421      1.0  0.43823  0.49528  0.89699  1.0000
  H   H509      1.0  0.36594  0.59730  0.71972  1.0000
  H   H510      1.0  0.08676  0.79466  0.94039  1.0000
  H   H511      1.0  0.15835  0.92462  0.68945  1.0000
  C   C422      1.0  0.12818  0.55653  0.74299  1.0000
  C   C423      1.0  0.45716  0.67768  0.68182  1.0000
  C   C424      1.0  0.38165  0.57569  0.97771  1.0000
  C   C425      1.0  0.14795  0.60118  0.71102  1.0000
  C   C426      1.0  0.25037  0.74821  0.69462  1.0000
  C   C427      1.0  0.45225  0.74303  0.76628  1.0000
  H   H512      1.0  0.30994  0.82202  0.72278  1.0000
  C   C428      1.0  0.23433  0.74120  0.72469  1.0000
  H   H513      1.0  0.31225  0.78517  0.73838  1.0000
  C   C429      1.0  0.37459  0.66748  0.92191  1.0000
  H   H514      1.0  0.14787  0.88050  0.76292  1.0000
  N   N29       1.0  0.11218  0.75898  0.96915  1.0000
  C   C430      1.0  0.02260  0.75130  0.88846  1.0000
  C   C431      1.0  0.39711  0.78073  0.73260  1.0000
  C   C432      1.0  0.24868  0.77798  0.68394  1.0000
  N   N30       1.0  0.11896  0.57589  0.71508  1.0000
  H   H515      1.0  0.02430  0.79899  0.89763  1.0000
  H   H516      1.0  0.18947  0.73201  0.97847  1.0000
  C   C433      1.0  0.23263  0.49864  0.89946  1.0000
  H   H517      1.0  0.19170  0.93380  0.96779  1.0000
  C   C434      1.0  0.00501  0.94266  0.69842  1.0000
  H   H518      1.0  0.17532  0.89574  0.96014  1.0000
  C   C435      1.0  0.07308  0.74262  0.97285  1.0000
  H   H519      1.0  0.33450  0.58750  0.68683  1.0000
  H   H520      1.0  0.10628  0.53747  0.74500  1.0000
  H   H521      1.0  0.07835  0.71867  0.97950  1.0000
  C   C436      1.0  0.45084  0.46711  0.90813  1.0000
  C   C437      1.0  0.46734  0.67938  0.71390  1.0000
  C   C438      1.0  0.20428  0.55744  0.99337  1.0000
  H   H522      1.0  0.32000  0.83532  0.97462  1.0000
  C   C439      1.0  0.33095  0.80567  0.73442  1.0000
  H   H523      1.0  0.13840  0.72234  0.94231  1.0000
  C   C440      1.0  0.04103  0.86819  0.96949  1.0000
  H   H524      1.0  0.38195  0.67495  0.00211  1.0000
  C   C441      1.0  0.00621  0.91244  0.70689  1.0000
  C   C442      1.0  0.04106  0.95903  0.69660  1.0000
  C   C443      1.0  0.38469  0.82941  0.70529  1.0000
  H   H525      1.0  0.29275  0.63519  0.69485  1.0000
  C   C444      1.0  0.36189  0.60078  0.69371  1.0000
  H   H526      1.0  0.49838  0.77498  0.75306  1.0000
  H   H527      1.0  0.15908  0.54621  0.74108  1.0000
  C   C445      1.0  0.13263  0.74695  0.94035  1.0000
  C   C446      1.0  0.10346  0.79128  0.96320  1.0000
  H   H528      1.0  0.31777  0.49876  0.90434  1.0000
  H   H529      1.0  0.43771  0.55044  0.97653  1.0000
  C   C447      1.0  0.40648  0.65132  0.72709  1.0000
  H   H530      1.0  0.33975  0.76207  0.69078  1.0000
  H   H531      1.0  0.29806  0.48134  0.94010  1.0000
  S   S127      1.0  0.19625  0.48431  0.68598  1.0000
  C   C448      1.0  0.31158  0.85788  0.98155  1.0000
  H   H532      1.0  0.09370  0.87664  0.76172  1.0000
  H   H533      1.0  0.13221  0.80453  0.96177  1.0000
  C   C449      1.0  0.00541  0.72389  0.89771  1.0000
  C   C450      1.0  0.09468  0.90641  0.96357  1.0000
  H   H534      1.0  0.16300  0.92527  0.93285  1.0000
  H   H535      1.0  0.04234  0.87541  0.72202  1.0000
  H   H536      1.0  0.32362  0.64150  0.72873  1.0000
  H   H537      1.0  0.09726  0.53755  0.68861  1.0000
  H   H538      1.0  0.10144  0.85384  0.70911  1.0000
  H   H539      1.0  0.44775  0.64254  0.94938  1.0000
  H   H540      1.0  0.40753  0.67024  0.91654  1.0000
  C   C451      1.0  0.04977  0.89276  0.91895  1.0000
  H   H541      1.0  0.35291  0.74586  0.74486  1.0000
  H   H542      1.0  0.38834  0.64099  0.74555  1.0000
  C   C452      1.0  0.20139  0.65088  0.70275  1.0000
  C   C453      1.0  0.38576  0.62883  0.96169  1.0000
  C   C454      1.0  0.01158  0.77768  0.90462  1.0000
  H   H543      1.0  0.00390  0.85936  0.92835  1.0000
  H   H544      1.0  0.30617  0.64358  0.94450  1.0000
  C   C455      1.0  0.01116  0.90265  0.80328  1.0000
  H   H545      1.0  0.23542  0.71826  0.73321  1.0000
  N   N31       1.0  0.36774  0.79975  0.71485  1.0000
  H   H546      1.0  0.31936  0.67033  0.69890  1.0000
  H   H547      1.0  0.27185  0.74922  0.92683  1.0000
  C   C456      1.0  0.26712  0.76960  0.97314  1.0000
  C   C457      1.0  0.22449  0.51247  0.70580  1.0000
  C   C458      1.0  0.29025  0.87475  0.95887  1.0000
  C   C459      1.0  0.18052  0.60692  0.73260  1.0000
  C   C460      1.0  0.48176  0.62286  0.80460  1.0000
  C   C461      1.0  0.35535  0.78372  0.68557  1.0000
  H   H548      1.0  0.36145  0.84367  0.69315  1.0000
  H   H549      1.0  0.37150  0.70402  0.97352  1.0000
  C   C462      1.0  0.23282  0.54021  0.69156  1.0000
  C   C463      1.0  0.45895  0.52119  0.90713  1.0000
  H   H550      1.0  0.40979  0.82689  0.68778  1.0000
  H   H551      1.0  0.28296  0.86493  0.93591  1.0000
  H   H552      1.0  0.48788  0.69374  0.83436  1.0000
  H   H553      1.0  0.47901  0.59364  0.95847  1.0000
  H   H554      1.0  0.15668  0.93891  0.72969  1.0000
  H   H555      1.0  0.07547  0.60377  0.73945  1.0000
  H   H556      1.0  0.39612  0.84221  0.72622  1.0000
  C   C464      1.0  0.02920  0.87217  0.93798  1.0000
  H   H557      1.0  0.34274  0.46715  0.92048  1.0000
  C   C465      1.0  0.46626  0.76916  0.75171  1.0000
  C   C466      1.0  0.38572  0.68144  0.97670  1.0000
  H   H558      1.0  0.35974  0.68928  0.91587  1.0000
  C   C467      1.0  0.42332  0.57211  0.97264  1.0000
  C   C468      1.0  0.08076  0.91451  0.71254  1.0000
  H   H559      1.0  0.05515  0.74259  0.95046  1.0000
  H   H560      1.0  0.33032  0.60447  0.97574  1.0000
  H   H561      1.0  0.02450  0.85243  0.98428  1.0000
  C   C469      1.0  0.44194  0.66629  0.73643  1.0000
  H   H562      1.0  0.23153  0.63513  0.74505  1.0000
  H   H563      1.0  0.12180  0.87553  0.67666  1.0000
  H   H564      1.0  0.11363  0.75012  0.91855  1.0000
  C   C470      1.0  0.49489  0.67437  0.81980  1.0000
  H   H565      1.0  0.28979  0.51435  0.99143  1.0000
  H   H566      1.0  0.36258  0.65018  0.90517  1.0000
  H   H567      1.0  0.33940  0.81500  0.75807  1.0000
  C   C471      1.0  0.07854  0.94529  0.70335  1.0000
  H   H568      1.0  0.00328  0.46945  0.81952  1.0000
  H   H569      1.0  0.01381  0.70339  0.88548  1.0000
  C   C472      1.0  0.07708  0.58793  0.71901  1.0000
  H   H570      1.0  0.12638  0.56941  0.76562  1.0000
  C   C473      1.0  0.16292  0.48992  0.88287  1.0000
  N   N32       1.0  0.35739  0.63304  0.68538  1.0000
  S   S128      1.0  0.29783  0.74164  0.99099  1.0000
  H   H571      1.0  0.30942  0.68222  0.95565  1.0000
  C   C474      1.0  0.26809  0.53154  0.98462  1.0000
  H   H572      1.0  0.16197  0.75870  0.93579  1.0000
  C   C475      1.0  0.49254  0.51870  0.92803  1.0000
  H   H573      1.0  0.10531  0.95929  0.70130  1.0000
  H   H574      1.0  0.49517  0.69057  0.72132  1.0000
  C   C476      1.0  0.17497  0.74079  0.99952  1.0000
  C   C477      1.0  0.27770  0.90397  0.96568  1.0000
  C   C478      1.0  0.13656  0.75562  0.99865  1.0000
  H   H575      1.0  0.22169  0.66991  0.69957  1.0000
  H   H576      1.0  0.47329  0.72871  0.77920  1.0000
  H   H577      1.0  0.27574  0.93911  0.00076  1.0000
  H   H578      1.0  0.33420  0.79743  0.67074  1.0000
  C   C479      1.0  0.48390  0.46467  0.92914  1.0000
  H   H579      1.0  0.08741  0.96242  0.98537  1.0000
  H   H580      1.0  0.38240  0.77848  0.67070  1.0000
  H   H581      1.0  0.69647  0.14999  0.10744  1.0000
  C   C480      1.0  0.73305  0.01070  0.09917  1.0000
  S   S129      1.0  0.76955  0.34960  0.06605  1.0000
  C   C481      1.0  0.53223  0.37714  0.06386  1.0000
  N   N33       1.0  0.87915  0.05083  0.10717  1.0000
  H   H582      1.0  0.93277  0.27888  0.33005  1.0000
  Fe  Fe65      1.0  0.66744  0.25625  0.19651  1.0000
  S   S130      1.0  0.67034  0.29804  0.22648  1.0000
  S   S131      1.0  0.71077  0.24401  0.15678  1.0000
  Fe  Fe66      1.0  0.58991  0.23308  0.22957  1.0000
  S   S132      1.0  0.58634  0.27324  0.26168  1.0000
  S   S133      1.0  0.54545  0.19400  0.22765  1.0000
  Fe  Fe67      1.0  0.60249  0.29960  0.21782  1.0000
  S   S134      1.0  0.57224  0.34320  0.20381  1.0000
  Fe  Fe68      1.0  0.65434  0.26784  0.26752  1.0000
  C   C482      1.0  0.56018  0.12044  0.14820  1.0000
  S   S135      1.0  0.60098  0.25989  0.18520  1.0000
  S   S136      1.0  0.65665  0.22552  0.23807  1.0000
  H   H583      1.0  0.83344  0.41226  0.15136  1.0000
  S   S137      1.0  0.81820  0.02991  0.22923  1.0000
  H   H584      1.0  0.66898  0.42039  0.08971  1.0000
  C   C483      1.0  0.52910  0.18182  0.01525  1.0000
  H   H585      1.0  0.51817  0.41563  0.03492  1.0000
  S   S138      1.0  0.90010  0.40082  0.24853  1.0000
  C   C484      1.0  0.50959  0.20978  0.01861  1.0000
  H   H586      1.0  0.61194  0.17452  0.05568  1.0000
  Fe  Fe69      1.0  0.88553  0.01986  0.22577  1.0000
  S   S139      1.0  0.93079  0.05733  0.21916  1.0000
  H   H587      1.0  0.52217  0.22755  0.28429  1.0000
  H   H588      1.0  0.88994  0.09883  0.10792  1.0000
  S   S140      1.0  0.87953  0.98306  0.18974  1.0000
  S   S141      1.0  0.59988  0.09695  0.02348  1.0000
  C   C485      1.0  0.63526  0.42127  0.22158  1.0000
  H   H589      1.0  0.95107  0.37761  0.03444  1.0000
  H   H590      1.0  0.96152  0.03876  0.09167  1.0000
  H   H591      1.0  0.52246  0.22952  0.00742  1.0000
  C   C486      1.0  0.68138  0.40120  0.07576  1.0000
  H   H592      1.0  0.74697  0.09381  0.12421  1.0000
  H   H593      1.0  0.77146  0.05283  0.15964  1.0000
  C   C487      1.0  0.66576  0.42486  0.02609  1.0000
  Fe  Fe70      1.0  0.86326  0.44208  0.23582  1.0000
  S   S142      1.0  0.77179  0.98727  0.15154  1.0000
  C   C488      1.0  0.75715  0.04740  0.13718  1.0000
  Fe  Fe71      1.0  0.81224  0.99102  0.19548  1.0000
  H   H594      1.0  0.56439  0.41029  0.11867  1.0000
  H   H595      1.0  0.72918  0.98751  0.09198  1.0000
  C   C489      1.0  0.76239  0.04936  0.32601  1.0000
  C   C490      1.0  0.51710  0.31369  0.16456  1.0000
  H   H596      1.0  0.82870  0.07681  0.08841  1.0000
  H   H597      1.0  0.67378  0.38470  0.18087  1.0000
  C   C491      1.0  0.53603  0.03393  0.33531  1.0000
  C   C492      1.0  0.89963  0.02171  0.10095  1.0000
  C   C493      1.0  0.82347  0.41516  0.32696  1.0000
  H   H598      1.0  0.78856  0.31070  0.25373  1.0000
  C   C494      1.0  0.98062  0.43317  0.31383  1.0000
  H   H599      1.0  0.52937  0.29285  0.17352  1.0000
  H   H600      1.0  0.78176  0.27482  0.29813  1.0000
  H   H601      1.0  0.53914  0.10553  0.16022  1.0000
  C   C495      1.0  0.84167  0.33230  0.27341  1.0000
  C   C496      1.0  0.94115  0.40445  0.27544  1.0000
  C   C497      1.0  0.94832  0.43128  0.29187  1.0000
  C   C498      1.0  0.53264  0.34123  0.17545  1.0000
  H   H602      1.0  0.60525  0.21791  0.09449  1.0000
  N   N34       1.0  0.66330  0.43062  0.19572  1.0000
  H   H603      1.0  0.61900  0.39989  0.21625  1.0000
  C   C499      1.0  0.56300  0.35922  0.07666  1.0000
  H   H604      1.0  0.91860  0.07874  0.07869  1.0000
  C   C500      1.0  0.58731  0.42583  0.12733  1.0000
  C   C501      1.0  0.74303  0.07060  0.11712  1.0000
  C   C502      1.0  0.81011  0.31137  0.27330  1.0000
  Fe  Fe72      1.0  0.81849  0.99519  0.26846  1.0000
  H   H605      1.0  0.77640  0.05454  0.30342  1.0000
  H   H606      1.0  0.70584  0.32597  0.30470  1.0000
  C   C503      1.0  0.75385  0.31970  0.09076  1.0000
  C   C504      1.0  0.73014  0.32634  0.11757  1.0000
  C   C505      1.0  0.71643  0.30326  0.13769  1.0000
  C   C506      1.0  0.72692  0.27335  0.13146  1.0000
  C   C507      1.0  0.75084  0.26669  0.10474  1.0000
  C   C508      1.0  0.76418  0.28979  0.08434  1.0000
  H   H607      1.0  0.72258  0.34942  0.12301  1.0000
  H   H608      1.0  0.69808  0.30862  0.15820  1.0000
  H   H609      1.0  0.75919  0.24360  0.09984  1.0000
  H   H610      1.0  0.78253  0.28445  0.06378  1.0000
  C   C509      1.0  0.86949  0.33310  0.29862  1.0000
  N   N35       1.0  0.87362  0.39379  0.11612  1.0000
  C   C510      1.0  0.84074  0.39032  0.14010  1.0000
  C   C511      1.0  0.85529  0.40874  0.08784  1.0000
  C   C512      1.0  0.88759  0.36347  0.10652  1.0000
  C   C513      1.0  0.90869  0.41056  0.12957  1.0000
  C   C514      1.0  0.92439  0.40325  0.16012  1.0000
  C   C515      1.0  0.92961  0.43333  0.11232  1.0000
  H   H611      1.0  0.98598  0.45401  0.32645  1.0000
  H   H612      1.0  0.81204  0.38141  0.12937  1.0000
  H   H613      1.0  0.84880  0.37423  0.15930  1.0000
  C   C516      1.0  0.98016  0.02773  0.17592  1.0000
  H   H614      1.0  0.82747  0.39683  0.07936  1.0000
  H   H615      1.0  0.87628  0.40875  0.06711  1.0000
  H   H616      1.0  0.90007  0.35053  0.12698  1.0000
  H   H617      1.0  0.86213  0.34994  0.09620  1.0000
  H   H618      1.0  0.91224  0.36495  0.08845  1.0000
  H   H619      1.0  0.91112  0.38563  0.17442  1.0000
  H   H620      1.0  0.92906  0.45058  0.28776  1.0000
  H   H621      1.0  0.58449  0.13399  0.24511  1.0000
  H   H622      1.0  0.84523  0.99433  0.10860  1.0000
  H   H623      1.0  0.65326  0.44522  0.03804  1.0000
  H   H624      1.0  0.68016  0.38085  0.09095  1.0000
  C   C517      1.0  0.94177  0.01937  0.09340  1.0000
  H   H625      1.0  0.63814  0.21875  0.12923  1.0000
  H   H626      1.0  0.65497  0.14982  0.05957  1.0000
  H   H627      1.0  0.96840  0.41303  0.19680  1.0000
  H   H628      1.0  0.96799  0.00699  0.18526  1.0000
  C   C518      1.0  0.64354  0.17273  0.06524  1.0000
  C   C519      1.0  0.63595  0.21188  0.10385  1.0000
  S   S143      1.0  0.68345  0.26286  0.31640  1.0000
  H   H629      1.0  0.62664  0.35098  0.08070  1.0000
  C   C520      1.0  0.52044  0.08629  0.32505  1.0000
  C   C521      1.0  0.58310  0.40885  0.03901  1.0000
  C   C522      1.0  0.97699  0.44119  0.15579  1.0000
  H   H630      1.0  0.82024  0.03742  0.08838  1.0000
  C   C523      1.0  0.60548  0.13158  0.26494  1.0000
  H   H631      1.0  0.59345  0.08447  0.12595  1.0000
  C   C524      1.0  0.66016  0.12591  0.31541  1.0000
  C   C525      1.0  0.54227  0.40188  0.04511  1.0000
  C   C526      1.0  0.61600  0.20375  0.33070  1.0000
  C   C527      1.0  0.68859  0.45574  0.20825  1.0000
  C   C528      1.0  0.97651  0.45159  0.03069  1.0000
  C   C529      1.0  0.93716  0.96509  0.08984  1.0000
  H   H632      1.0  0.60555  0.39653  0.16469  1.0000
  H   H633      1.0  0.93228  0.07661  0.12032  1.0000
  H   H634      1.0  0.67474  0.08262  0.29537  1.0000
  C   C530      1.0  0.72369  0.06398  0.08807  1.0000
  C   C531      1.0  0.80639  0.29111  0.29834  1.0000
  S   S144      1.0  0.87756  0.34407  0.02513  1.0000
  C   C532      1.0  0.51221  0.15649  0.02987  1.0000
  C   C533      1.0  0.51587  0.36807  0.16398  1.0000
  C   C534      1.0  0.50936  0.05610  0.32409  1.0000
  H   H635      1.0  0.70446  0.44948  0.23075  1.0000
  H   H636      1.0  0.52720  0.38943  0.17256  1.0000
  C   C535      1.0  0.63701  0.15278  0.31302  1.0000
  C   C536      1.0  0.65617  0.10272  0.29318  1.0000
  C   C537      1.0  0.96312  0.44839  0.12543  1.0000
  C   C538      1.0  0.69089  0.40519  0.18822  1.0000
  C   C539      1.0  0.61533  0.39102  0.05174  1.0000
  C   C540      1.0  0.87729  0.99439  0.10270  1.0000
  H   H637      1.0  0.62278  0.21419  0.30724  1.0000
  H   H638      1.0  0.71203  0.41121  0.16852  1.0000
  S   S145      1.0  0.77298  0.45526  0.13823  1.0000
  H   H639      1.0  0.57459  0.45910  0.09146  1.0000
  H   H640      1.0  0.53346  0.16060  0.16746  1.0000
  H   H641      1.0  0.59104  0.17462  0.28282  1.0000
  C   C541      1.0  0.68627  0.17348  0.11205  1.0000
  H   H642      1.0  0.52475  0.01111  0.33451  1.0000
  N   N36       1.0  0.64455  0.17927  0.09983  1.0000
  H   H643      1.0  0.84493  0.34786  0.25372  1.0000
  H   H644      1.0  0.92111  0.43963  0.08845  1.0000
  C   C542      1.0  0.50550  0.20658  0.28386  1.0000
  C   C543      1.0  0.61525  0.15955  0.11662  1.0000
  C   C544      1.0  0.58396  0.17087  0.13670  1.0000
  C   C545      1.0  0.61794  0.12781  0.11350  1.0000
  C   C546      1.0  0.55692  0.15146  0.15214  1.0000
  C   C547      1.0  0.59070  0.10863  0.12895  1.0000
  S   S146      1.0  0.79591  0.43753  0.22835  1.0000
  H   H645      1.0  0.55492  0.34001  0.09130  1.0000
  H   H646      1.0  0.97170  0.10345  0.18533  1.0000
  C   C548      1.0  0.83372  0.29199  0.32390  1.0000
  C   C549      1.0  0.86609  0.31329  0.32494  1.0000
  C   C550      1.0  0.96659  0.37964  0.28103  1.0000
  H   H647      1.0  0.66303  0.18854  0.05150  1.0000
  Fe  Fe73      1.0  0.66774  0.09101  0.01896  1.0000
  H   H648      1.0  0.68799  0.17745  0.13817  1.0000
  H   H649      1.0  0.57975  0.19460  0.14108  1.0000
  H   H650      1.0  0.64132  0.11752  0.09911  1.0000
  H   H651      1.0  0.85297  0.41681  0.31421  1.0000
  H   H652      1.0  0.96134  0.35880  0.26836  1.0000
  H   H653      1.0  0.84128  0.03304  0.14474  1.0000
  H   H654      1.0  0.88910  0.04804  0.15758  1.0000
  H   H655      1.0  0.62582  0.08761  0.25068  1.0000
  C   C551      1.0  0.61071  0.41835  0.15400  1.0000
  H   H656      1.0  0.70914  0.18860  0.10080  1.0000
  S   S147      1.0  0.88654  0.98904  0.26805  1.0000
  C   C552      1.0  0.90630  0.07732  0.10327  1.0000
  H   H657      1.0  0.70375  0.02850  0.05696  1.0000
  H   H658      1.0  0.81961  0.39150  0.33522  1.0000
  C   C553      1.0  0.60951  0.15495  0.28697  1.0000
  S   S148      1.0  0.70780  0.09410  0.06333  1.0000
  C   C554      1.0  0.71856  0.03390  0.07925  1.0000
  C   C555      1.0  0.96782  0.39812  0.03852  1.0000
  H   H659      1.0  0.89396  0.34920  0.29705  1.0000
  C   C556      1.0  0.95768  0.41864  0.17309  1.0000
  C   C557      1.0  0.95417  0.42519  0.02526  1.0000
  H   H660      1.0  0.85432  0.05344  0.05982  1.0000
  H   H661      1.0  0.70984  0.39873  0.20914  1.0000
  C   C558      1.0  0.75258  0.01732  0.12812  1.0000
  C   C559      1.0  0.60394  0.36589  0.07064  1.0000
  C   C560      1.0  0.84423  0.05474  0.08501  1.0000
  H   H662      1.0  0.71445  0.40543  0.07170  1.0000
  S   S149      1.0  0.78541  0.99006  0.31565  1.0000
  H   H663      1.0  0.65858  0.22611  0.09110  1.0000
  Fe  Fe74      1.0  0.80918  0.34387  0.02227  1.0000
  H   H664      1.0  0.84841  0.07281  0.14613  1.0000
  H   H665      1.0  0.84599  0.43226  0.09336  1.0000
  C   C561      1.0  0.63974  0.43872  0.16686  1.0000
  C   C562      1.0  0.67696  0.37154  0.02788  1.0000
  H   H666      1.0  0.74370  0.09504  0.33484  1.0000
  H   H667      1.0  0.58305  0.19785  0.33158  1.0000
  C   C563      1.0  0.62875  0.10552  0.26802  1.0000
  H   H668      1.0  0.52691  0.13486  0.02756  1.0000
  C   C564      1.0  0.96008  0.99140  0.08805  1.0000
  C   C565      1.0  0.71932  0.31878  0.32692  1.0000
  C   C566      1.0  0.96625  0.05526  0.18799  1.0000
  C   C567      1.0  0.86378  0.05119  0.14025  1.0000
  H   H669      1.0  0.79961  0.41958  0.30863  1.0000
  C   C568      1.0  0.51183  0.18606  0.25922  1.0000
  H   H670      1.0  0.65182  0.41718  0.24434  1.0000
  H   H671      1.0  0.49927  0.10338  0.31693  1.0000
  H   H672      1.0  0.50048  0.37175  0.06842  1.0000
  C   C569      1.0  0.98216  0.08210  0.17599  1.0000
  H   H673      1.0  0.58840  0.42818  0.02395  1.0000
  N   N37       1.0  0.65893  0.39728  0.04536  1.0000
  C   C570      1.0  0.59293  0.45332  0.11206  1.0000
  H   H674      1.0  0.94805  0.31626  0.31912  1.0000
  H   H675      1.0  0.63101  0.01258  0.31355  1.0000
  H   H676      1.0  0.69428  0.19529  0.31222  1.0000
  H   H677      1.0  0.68182  0.12282  0.33445  1.0000
  H   H678      1.0  0.67770  0.35060  0.04237  1.0000
  H   H679      1.0  0.99231  0.99020  0.08244  1.0000
  H   H680      1.0  0.61182  0.43886  0.22612  1.0000
  H   H681      1.0  0.73450  0.45809  0.07654  1.0000
  H   H682      1.0  0.69884  0.42917  0.02224  1.0000
  H   H683      1.0  0.70921  0.37596  0.02106  1.0000
  H   H684      1.0  0.71295  0.46236  0.19128  1.0000
  C   C571      1.0  0.89584  0.96660  0.09701  1.0000
  C   C572      1.0  0.55857  0.09446  0.33675  1.0000
  H   H685      1.0  0.65958  0.36666  0.00571  1.0000
  N   N38       1.0  0.64237  0.17712  0.33671  1.0000
  C   C573      1.0  0.68535  0.18748  0.33640  1.0000
  H   H686      1.0  0.74853  0.36144  0.33619  1.0000
  Fe  Fe75      1.0  0.87868  0.30193  0.47666  1.0000
  S   S150      1.0  0.88673  0.34494  0.44999  1.0000
  S   S151      1.0  0.91881  0.26230  0.46590  1.0000
  Fe  Fe76      1.0  0.81879  0.34251  0.44357  1.0000
  S   S152      1.0  0.79194  0.35531  0.39551  1.0000
  S   S153      1.0  0.81100  0.29806  0.46796  1.0000
  Fe  Fe77      1.0  0.66599  0.08853  0.44053  1.0000
  H   H687      1.0  0.90651  0.29799  0.39890  1.0000
  S   S154      1.0  0.69912  0.09506  0.39360  1.0000
  C   C574      1.0  0.86834  0.42156  0.43528  1.0000
  H   H688      1.0  0.51006  0.97180  0.43874  1.0000
  S   S155      1.0  0.59827  0.09641  0.44086  1.0000
  C   C575      1.0  0.72510  0.06592  0.37319  1.0000
  H   H689      1.0  0.65675  0.03961  0.33808  1.0000
  H   H690      1.0  0.78872  0.24538  0.62555  1.0000
  H   H691      1.0  0.85419  0.30260  0.38813  1.0000
  C   C576      1.0  0.74527  0.01358  0.36710  1.0000
  C   C577      1.0  0.72637  0.03648  0.38489  1.0000
  C   C578      1.0  0.87411  0.03240  0.61564  1.0000
  H   H692      1.0  0.51736  0.06798  0.43064  1.0000
  H   H693      1.0  0.80190  0.27788  0.57855  1.0000
  H   H694      1.0  0.71287  0.03132  0.40765  1.0000
  H   H695      1.0  0.63660  0.04746  0.39290  1.0000
  H   H696      1.0  0.57843  0.97928  0.33722  1.0000
  H   H697      1.0  0.76849  0.41390  0.37459  1.0000
  C   C579      1.0  0.95868  0.08347  0.66576  1.0000
  H   H698      1.0  0.71292  0.97394  0.59124  1.0000
  C   C580      1.0  0.74359  0.07228  0.34385  1.0000
  H   H699      1.0  0.85607  0.07590  0.55062  1.0000
  H   H700      1.0  0.80484  0.01493  0.57704  1.0000
  S   S156      1.0  0.71208  0.07997  0.55607  1.0000
  C   C581      1.0  0.97854  0.29317  0.43183  1.0000
  N   N39       1.0  0.89660  0.31405  0.35098  1.0000
  C   C582      1.0  0.61696  0.15650  0.62450  1.0000
  C   C583      1.0  0.59889  0.44501  0.51719  1.0000
  H   H701      1.0  0.57234  0.43326  0.50636  1.0000
  C   C584      1.0  0.76130  0.32972  0.37374  1.0000
  C   C585      1.0  0.75473  0.30040  0.38456  1.0000
  C   C586      1.0  0.73060  0.28041  0.36673  1.0000
  C   C587      1.0  0.63264  0.16571  0.36895  1.0000
  H   H702      1.0  0.95621  0.36152  0.53893  1.0000
  N   N40       1.0  0.82033  0.43649  0.35405  1.0000
  H   H703      1.0  0.76826  0.29306  0.40665  1.0000
  H   H704      1.0  0.72586  0.25775  0.37531  1.0000
  Fe  Fe78      1.0  0.66974  0.07926  0.51309  1.0000
  Fe  Fe79      1.0  0.80476  0.32441  0.51350  1.0000
  S   S157      1.0  0.80746  0.36883  0.48814  1.0000
  S   S158      1.0  0.75185  0.32443  0.54830  1.0000
  Fe  Fe80      1.0  0.87472  0.36662  0.49721  1.0000
  H   H705      1.0  0.90277  0.42709  0.34785  1.0000
  S   S159      1.0  0.87176  0.32353  0.52476  1.0000
  Fe  Fe81      1.0  0.60828  0.12403  0.48492  1.0000
  S   S160      1.0  0.60211  0.08542  0.51879  1.0000
  S   S161      1.0  0.58089  0.17045  0.49278  1.0000
  H   H706      1.0  0.75565  0.44114  0.34494  1.0000
  C   C588      1.0  0.71278  0.28945  0.33787  1.0000
  S   S162      1.0  0.67631  0.11993  0.48155  1.0000
  C   C589      1.0  0.66395  0.12249  0.65263  1.0000
  H   H707      1.0  0.72571  0.14780  0.60223  1.0000
  H   H708      1.0  0.59175  0.02991  0.40835  1.0000
  H   H709      1.0  0.66018  0.17475  0.51979  1.0000
  H   H710      1.0  0.89339  0.42114  0.58941  1.0000
  H   H711      1.0  0.73760  0.19866  0.47480  1.0000
  S   S163      1.0  0.66462  0.04741  0.47156  1.0000
  C   C590      1.0  0.83895  0.42638  0.41176  1.0000
  H   H712      1.0  0.94455  0.03289  0.58406  1.0000
  H   H713      1.0  0.84196  0.02662  0.62114  1.0000
  C   C591      1.0  0.58402  0.42808  0.57049  1.0000
  H   H714      1.0  0.53054  0.12743  0.52709  1.0000
  C   C592      1.0  0.93595  0.30236  0.33895  1.0000
  C   C593      1.0  0.65449  0.09929  0.63167  1.0000
  C   C594      1.0  0.53631  0.17448  0.51592  1.0000
  C   C595      1.0  0.51789  0.14966  0.53036  1.0000
  H   H715      1.0  0.76898  0.19339  0.59908  1.0000
  H   H716      1.0  0.53357  0.22259  0.50952  1.0000
  C   C596      1.0  0.74515  0.05580  0.60999  1.0000
  H   H717      1.0  0.77323  0.03744  0.65222  1.0000
  C   C597      1.0  0.79512  0.35955  0.63580  1.0000
  C   C598      1.0  0.94906  0.40969  0.53731  1.0000
  H   H718      1.0  0.92619  0.01097  0.53581  1.0000
  C   C599      1.0  0.74504  0.30173  0.58237  1.0000
  C   C600      1.0  0.70910  0.30500  0.60010  1.0000
  C   C601      1.0  0.70176  0.28686  0.62688  1.0000
  C   C602      1.0  0.73025  0.26509  0.63600  1.0000
  C   C603      1.0  0.76641  0.26204  0.61846  1.0000
  C   C604      1.0  0.77396  0.28042  0.59185  1.0000
  H   H719      1.0  0.68668  0.32158  0.59301  1.0000
  H   H720      1.0  0.67385  0.28947  0.64023  1.0000
  H   H721      1.0  0.95377  0.97545  0.59288  1.0000
  N   N41       1.0  0.59757  0.18649  0.62163  1.0000
  S   S164      1.0  0.90328  0.40966  0.51539  1.0000
  C   C605      1.0  0.54356  0.38310  0.58323  1.0000
  C   C606      1.0  0.74527  0.18968  0.58149  1.0000
  H   H722      1.0  0.75433  0.07864  0.61529  1.0000
  H   H723      1.0  0.77118  0.45386  0.38301  1.0000
  H   H724      1.0  0.93176  0.41442  0.44583  1.0000
  H   H725      1.0  0.59104  0.18586  0.57059  1.0000
  H   H726      1.0  0.55480  0.21346  0.64818  1.0000
  H   H727      1.0  0.66326  0.20223  0.47625  1.0000
  S   S165      1.0  0.76018  0.97276  0.64904  1.0000
  H   H728      1.0  0.62545  0.42944  0.51622  1.0000
  H   H729      1.0  0.92922  0.05995  0.55412  1.0000
  C   C607      1.0  0.61069  0.41996  0.59584  1.0000
  C   C608      1.0  0.81463  0.98285  0.54056  1.0000
  C   C609      1.0  0.57044  0.19124  0.64926  1.0000
  C   C610      1.0  0.92108  0.41980  0.39561  1.0000
  H   H730      1.0  0.55945  0.98717  0.37675  1.0000
  H   H731      1.0  0.60902  0.97134  0.37125  1.0000
  H   H732      1.0  0.65327  0.16775  0.66653  1.0000
  C   C611      1.0  0.90927  0.41824  0.42731  1.0000
  H   H733      1.0  0.89306  0.01234  0.62139  1.0000
  H   H734      1.0  0.93082  0.07019  0.59500  1.0000
  C   C612      1.0  0.92292  0.05147  0.57851  1.0000
  H   H735      1.0  0.66266  0.00045  0.34609  1.0000
  H   H736      1.0  0.67260  0.13888  0.56174  1.0000
  H   H737      1.0  0.61509  0.07994  0.35643  1.0000
  C   C613      1.0  0.51727  0.01992  0.43761  1.0000
  C   C614      1.0  0.96549  0.43737  0.54684  1.0000
  C   C615      1.0  0.96867  0.38301  0.54613  1.0000
  C   C616      1.0  0.74460  0.00282  0.62425  1.0000
  H   H738      1.0  0.51725  0.36883  0.57872  1.0000
  C   C617      1.0  0.72182  0.99681  0.59662  1.0000
  H   H739      1.0  0.88277  0.05057  0.63263  1.0000
  H   H740      1.0  0.87347  0.35576  0.36965  1.0000
  C   C618      1.0  0.83643  0.39356  0.66727  1.0000
  H   H741      1.0  0.89201  0.35463  0.61259  1.0000
  C   C619      1.0  0.89483  0.00395  0.53815  1.0000
  H   H742      1.0  0.54587  0.17468  0.59225  1.0000
  C   C620      1.0  0.90289  0.34536  0.36243  1.0000
  C   C621      1.0  0.74358  0.33882  0.34481  1.0000
  C   C622      1.0  0.84996  0.42850  0.37926  1.0000
  C   C623      1.0  0.57034  0.37576  0.60775  1.0000
  N   N42       1.0  0.59072  0.45489  0.55022  1.0000
  H   H743      1.0  0.79935  0.41951  0.59279  1.0000
  H   H744      1.0  0.96233  0.21762  0.43197  1.0000
  C   C624      1.0  0.58687  0.98783  0.36120  1.0000
  C   C625      1.0  0.76317  0.01986  0.33752  1.0000
  H   H745      1.0  0.88410  0.27115  0.37339  1.0000
  C   C626      1.0  0.57262  0.19007  0.59235  1.0000
  C   C627      1.0  0.85382  0.06867  0.57589  1.0000
  H   H746      1.0  0.66905  0.07750  0.63415  1.0000
  H   H747      1.0  0.62423  0.38834  0.63343  1.0000
  C   C628      1.0  0.97582  0.23910  0.42601  1.0000
  H   H748      1.0  0.63721  0.43309  0.60209  1.0000
  S   S166      1.0  0.55234  0.01942  0.46937  1.0000
  C   C629      1.0  0.77465  0.35043  0.66322  1.0000
  C   C630      1.0  0.89197  0.42505  0.37192  1.0000
  N   N43       1.0  0.87977  0.04192  0.58213  1.0000
  H   H749      1.0  0.78627  0.34913  0.61364  1.0000
  N   N44       1.0  0.84814  0.39028  0.60749  1.0000
  C   C631      1.0  0.88457  0.29563  0.37891  1.0000
  C   C632      1.0  0.86770  0.01716  0.56048  1.0000
  C   C633      1.0  0.61813  0.02658  0.39226  1.0000
  C   C634      1.0  0.60737  0.13210  0.60388  1.0000
  C   C635      1.0  0.60372  0.39415  0.61410  1.0000
  H   H750      1.0  0.61564  0.23320  0.61737  1.0000
  H   H751      1.0  0.88756  0.36959  0.57307  1.0000
  H   H752      1.0  0.58581  0.13411  0.58454  1.0000
  H   H753      1.0  0.92373  0.34612  0.38336  1.0000
  H   H754      1.0  0.96737  0.31365  0.44253  1.0000
  H   H755      1.0  0.54653  0.17350  0.65055  1.0000
  C   C636      1.0  0.55036  0.40872  0.56466  1.0000
  C   C637      1.0  0.62911  0.21049  0.62126  1.0000
  N   N45       1.0  0.60426  0.01867  0.35971  1.0000
  H   H756      1.0  0.83391  0.40930  0.56145  1.0000
  C   C638      1.0  0.82726  0.00580  0.56103  1.0000
  H   H757      1.0  0.55973  0.21317  0.59012  1.0000
  C   C639      1.0  0.81842  0.40088  0.58323  1.0000
  C   C640      1.0  0.96056  0.26546  0.43964  1.0000
  H   H758      1.0  0.86267  0.08812  0.59111  1.0000
  H   H759      1.0  0.78334  0.97495  0.54126  1.0000
  H   H760      1.0  0.63770  0.00873  0.40291  1.0000
  C   C641      1.0  0.82648  0.38155  0.63690  1.0000
  H   H761      1.0  0.74605  0.99085  0.37631  1.0000
  C   C642      1.0  0.88177  0.98102  0.51768  1.0000
  C   C643      1.0  0.71083  0.02024  0.57567  1.0000
  Fe  Fe82      1.0  0.59728  0.05734  0.47446  1.0000
  H   H762      1.0  0.56510  0.35579  0.62198  1.0000
  N   N46       1.0  0.70437  0.22752  0.50654  1.0000
  C   C644      1.0  0.73814  0.22220  0.48393  1.0000
  C   C645      1.0  0.66521  0.22414  0.48900  1.0000
  C   C646      1.0  0.70668  0.25914  0.51786  1.0000
  C   C647      1.0  0.70864  0.20625  0.53348  1.0000
  C   C648      1.0  0.68405  0.18011  0.53645  1.0000
  C   C649      1.0  0.73994  0.21011  0.55651  1.0000
  C   C650      1.0  0.69053  0.15932  0.56086  1.0000
  H   H763      1.0  0.65346  0.14734  0.37659  1.0000
  C   C651      1.0  0.72080  0.16417  0.58349  1.0000
  H   H764      1.0  0.95304  0.41740  0.38939  1.0000
  H   H765      1.0  0.73644  0.23774  0.46319  1.0000
  H   H766      1.0  0.76849  0.22570  0.49529  1.0000
  H   H767      1.0  0.82859  0.27584  0.34260  1.0000
  H   H768      1.0  0.66131  0.24171  0.47036  1.0000
  H   H769      1.0  0.63863  0.22587  0.50530  1.0000
  H   H770      1.0  0.73787  0.26546  0.52561  1.0000
  H   H771      1.0  0.69898  0.27571  0.49889  1.0000
  H   H772      1.0  0.68568  0.26317  0.53815  1.0000
  H   H773      1.0  0.60097  0.15685  0.37004  1.0000
  H   H774      1.0  0.76105  0.22867  0.55518  1.0000
  H   H775      1.0  0.90369  0.40745  0.62841  1.0000
  H   H776      1.0  0.61929  0.08583  0.59114  1.0000
  C   C652      1.0  0.77719  0.43625  0.36481  1.0000
  H   H777      1.0  0.95013  0.45801  0.54041  1.0000
  H   H778      1.0  0.95979  0.30208  0.35785  1.0000
  H   H779      1.0  0.85914  0.42039  0.45992  1.0000
  C   C653      1.0  0.75587  0.03247  0.63099  1.0000
  H   H780      1.0  0.52905  0.41316  0.54559  1.0000
  H   H781      1.0  0.69362  0.01537  0.55431  1.0000
  H   H782      1.0  0.79753  0.38275  0.57505  1.0000
  C   C654      1.0  0.84187  0.97047  0.51891  1.0000
  C   C655      1.0  0.72279  0.04981  0.58219  1.0000
  C   C656      1.0  0.87004  0.36375  0.59482  1.0000
  H   H783      1.0  0.82107  0.06436  0.58074  1.0000
  H   H784      1.0  0.80782  0.42835  0.41971  1.0000
  H   H785      1.0  0.90254  0.97133  0.50050  1.0000
  H   H786      1.0  0.84886  0.34522  0.58830  1.0000
  C   C657      1.0  0.51945  0.20323  0.52051  1.0000
  C   C658      1.0  0.87864  0.41461  0.61220  1.0000
  C   C659      1.0  0.62620  0.10403  0.60747  1.0000
  C   C660      1.0  0.98902  0.08367  0.64254  1.0000
  H   H787      1.0  0.69033  0.20673  0.35289  1.0000
  H   H788      1.0  0.86419  0.43529  0.62181  1.0000
  H   H789      1.0  0.63546  0.18369  0.38724  1.0000
  H   H790      1.0  0.65192  0.20649  0.60221  1.0000
  H   H791      1.0  0.70712  0.16959  0.34374  1.0000
  C   C661      1.0  0.64536  0.15064  0.64931  1.0000
  C   C662      1.0  0.50495  0.04672  0.42285  1.0000
  H   H792      1.0  0.91735  0.36009  0.34440  1.0000
  C   C663      1.0  0.64016  0.01780  0.33843  1.0000
  C   C664      1.0  0.50067  0.99258  0.42747  1.0000
  H   H793      1.0  0.62117  0.22184  0.34859  1.0000
  C   C665      1.0  0.57503  0.04152  0.34785  1.0000
  C   C666      1.0  0.58568  0.07250  0.34782  1.0000
  H   H794      1.0  0.64614  0.21219  0.64404  1.0000
  C   C667      1.0  0.99451  0.02949  0.64613  1.0000
  H   H795      1.0  0.75078  0.33358  0.66167  1.0000
  H   H796      1.0  0.65503  0.46152  0.55921  1.0000
  S   S167      1.0  0.72091  0.24052  0.66820  1.0000
  C   C668      1.0  0.96312  0.02923  0.66906  1.0000
  H   H797      1.0  0.99860  0.10485  0.63226  1.0000
  H   H798      1.0  0.56702  0.11796  0.33724  1.0000
  Fe  Fe83      1.0  0.87551  0.31751  0.97970  1.0000
  S   S168      1.0  0.87740  0.35754  0.94753  1.0000
  S   S169      1.0  0.91478  0.27729  0.96934  1.0000
  Fe  Fe84      1.0  0.80912  0.35436  0.95005  1.0000
  S   S170      1.0  0.77045  0.36221  0.90607  1.0000
  S   S171      1.0  0.80699  0.31274  0.98001  1.0000
  Fe  Fe85      1.0  0.67297  0.25131  0.70531  1.0000
  S   S172      1.0  0.67387  0.29225  0.73663  1.0000
  H   H799      1.0  0.52429  0.38060  0.68974  1.0000
  Fe  Fe86      1.0  0.59773  0.22469  0.73900  1.0000
  S   S173      1.0  0.59298  0.26349  0.77271  1.0000
  S   S174      1.0  0.55556  0.18425  0.73738  1.0000
  Fe  Fe87      1.0  0.60563  0.29148  0.72932  1.0000
  H   H800      1.0  0.77625  0.45413  0.80340  1.0000
  Fe  Fe88      1.0  0.66131  0.26039  0.77702  1.0000
  S   S175      1.0  0.69451  0.25527  0.82432  1.0000
  H   H801      1.0  0.93426  0.43052  0.87229  1.0000
  S   S176      1.0  0.66507  0.21917  0.74609  1.0000
  H   H802      1.0  0.62156  0.07158  0.87853  1.0000
  S   S177      1.0  0.79894  0.02613  0.72066  1.0000
  H   H803      1.0  0.65685  0.19339  0.83562  1.0000
  C   C669      1.0  0.59777  0.07846  0.81588  1.0000
  S   S178      1.0  0.66343  0.05748  0.97872  1.0000
  S   S179      1.0  0.89097  0.41649  0.76538  1.0000
  C   C670      1.0  0.97004  0.25169  0.92969  1.0000
  S   S180      1.0  0.75958  0.99680  0.80892  1.0000
  Fe  Fe89      1.0  0.86711  0.01922  0.72042  1.0000
  S   S181      1.0  0.90779  0.05834  0.70870  1.0000
  H   H804      1.0  0.52529  0.22354  0.78781  1.0000
  H   H805      1.0  0.60417  0.16236  0.83010  1.0000
  Fe  Fe90      1.0  0.66536  0.09750  0.94599  1.0000
  C   C671      1.0  0.85467  0.43533  0.92338  1.0000
  S   S182      1.0  0.70071  0.10300  0.89973  1.0000
  H   H806      1.0  0.60950  0.01000  0.85119  1.0000
  C   C672      1.0  0.75527  0.05668  0.82805  1.0000
  S   S183      1.0  0.59762  0.10510  0.94508  1.0000
  C   C673      1.0  0.72018  0.07300  0.87643  1.0000
  H   H807      1.0  0.77174  0.06221  0.80660  1.0000
  Fe  Fe91      1.0  0.80003  0.99734  0.76479  1.0000
  C   C674      1.0  0.74628  0.02664  0.83493  1.0000
  C   C675      1.0  0.72482  0.01989  0.86294  1.0000
  C   C676      1.0  0.71189  0.04291  0.88364  1.0000
  C   C677      1.0  0.74221  0.07972  0.84869  1.0000
  N   N47       1.0  0.79625  0.42936  0.84469  1.0000
  H   H808      1.0  0.71786  0.99669  0.86854  1.0000
  H   H809      1.0  0.69494  0.03737  0.90486  1.0000
  C   C678      1.0  0.80182  0.45352  0.82084  1.0000
  H   H810      1.0  0.50670  0.16450  0.91964  1.0000
  C   C679      1.0  0.57194  0.08734  0.79033  1.0000
  H   H811      1.0  0.65727  0.08762  0.83693  1.0000
  Fe  Fe92      1.0  0.60611  0.13417  0.98809  1.0000
  C   C680      1.0  0.53304  0.33264  0.68762  1.0000
  S   S184      1.0  0.86860  0.99435  0.76706  1.0000
  C   C681      1.0  0.96054  0.39267  0.79156  1.0000
  C   C682      1.0  0.93850  0.41904  0.78510  1.0000
  C   C683      1.0  0.51519  0.35985  0.67829  1.0000
  H   H812      1.0  0.94895  0.37119  0.78356  1.0000
  C   C684      1.0  0.63154  0.22402  0.88552  1.0000
  C   C685      1.0  0.51603  0.18049  0.76556  1.0000
  H   H813      1.0  0.83595  0.35618  0.76344  1.0000
  N   N48       1.0  0.58711  0.05411  0.83842  1.0000
  C   C686      1.0  0.81702  0.97134  0.87669  1.0000
  Fe  Fe93      1.0  0.79833  0.98303  0.69288  1.0000
  C   C687      1.0  0.95537  0.27883  0.94192  1.0000
  H   H814      1.0  0.58031  0.04790  0.88912  1.0000
  C   C688      1.0  0.90298  0.43118  0.88057  1.0000
  C   C689      1.0  0.83330  0.33796  0.78045  1.0000
  H   H815      1.0  0.91960  0.43653  0.92986  1.0000
  S   S185      1.0  0.80607  0.38548  0.99201  1.0000
  H   H816      1.0  0.96185  0.32699  0.94131  1.0000
  H   H817      1.0  0.68700  0.18865  0.91783  1.0000
  H   H818      1.0  0.52169  0.05975  0.83673  1.0000
  C   C690      1.0  0.59627  0.17667  0.87964  1.0000
  C   C691      1.0  0.74939  0.33222  0.88363  1.0000
  C   C692      1.0  0.75499  0.30219  0.89255  1.0000
  C   C693      1.0  0.73798  0.27892  0.87410  1.0000
  C   C694      1.0  0.71534  0.28542  0.84654  1.0000
  C   C695      1.0  0.70991  0.31543  0.83749  1.0000
  C   C696      1.0  0.72675  0.33872  0.85605  1.0000
  H   H819      1.0  0.77217  0.29684  0.91377  1.0000
  H   H820      1.0  0.74242  0.25577  0.88124  1.0000
  H   H821      1.0  0.69242  0.32071  0.81637  1.0000
  H   H822      1.0  0.72183  0.36186  0.84910  1.0000
  S   S186      1.0  0.67427  0.13063  0.98591  1.0000
  H   H823      1.0  0.66130  0.23572  0.88886  1.0000
  S   S187      1.0  0.54738  0.03195  0.97637  1.0000
  H   H824      1.0  0.56412  0.11617  0.74941  1.0000
  H   H825      1.0  0.57254  0.18871  0.92631  1.0000
  H   H826      1.0  0.54240  0.07732  0.78627  1.0000
  H   H827      1.0  0.78173  0.31759  0.75698  1.0000
  H   H828      1.0  0.64813  0.03574  0.83904  1.0000
  C   C697      1.0  0.58450  0.16286  0.85055  1.0000
  C   C698      1.0  0.61613  0.02881  0.83448  1.0000
  C   C699      1.0  0.75490  0.43333  0.85841  1.0000
  C   C700      1.0  0.94546  0.05640  0.67906  1.0000
  C   C701      1.0  0.79439  0.97619  0.93117  1.0000
  C   C702      1.0  0.95399  0.44673  0.79534  1.0000
  H   H829      1.0  0.77128  0.39718  0.81148  1.0000
  S   S188      1.0  0.57449  0.17932  0.99278  1.0000
  H   H830      1.0  0.69682  0.19381  0.86378  1.0000
  C   C703      1.0  0.78489  0.36281  0.69255  1.0000
  C   C704      1.0  0.99226  0.39270  0.93453  1.0000
  Fe  Fe94      1.0  0.59592  0.06745  0.98025  1.0000
  H   H831      1.0  0.97227  0.03759  0.75140  1.0000
  H   H832      1.0  0.96187  0.38811  0.92571  1.0000
  S   S189      1.0  0.79709  0.45675  0.73100  1.0000
  C   C705      1.0  0.54530  0.04195  0.83383  1.0000
  C   C706      1.0  0.66632  0.18374  0.85892  1.0000
  H   H833      1.0  0.67696  0.12659  0.79940  1.0000
  C   C707      1.0  0.51815  0.15001  0.87173  1.0000
  C   C708      1.0  0.58391  0.10977  0.76893  1.0000
  N   N49       1.0  0.63666  0.19091  0.88447  1.0000
  C   C709      1.0  0.89484  0.43456  0.91284  1.0000
  H   H834      1.0  0.57025  0.08542  0.87512  1.0000
  C   C710      1.0  0.58996  0.06530  0.87160  1.0000
  H   H835      1.0  0.51705  0.07892  0.93343  1.0000
  N   N50       1.0  0.88716  0.30963  0.85559  1.0000
  C   C711      1.0  0.86474  0.30435  0.88570  1.0000
  C   C712      1.0  0.91453  0.28369  0.84979  1.0000
  C   C713      1.0  0.91295  0.33679  0.86036  1.0000
  C   C714      1.0  0.85826  0.31252  0.82864  1.0000
  C   C715      1.0  0.82761  0.29045  0.82355  1.0000
  C   C716      1.0  0.86063  0.33623  0.80598  1.0000
  C   C717      1.0  0.80028  0.29254  0.79811  1.0000
  C   C718      1.0  0.81592  0.38412  0.69460  1.0000
  H   H836      1.0  0.54141  0.03130  0.81010  1.0000
  H   H837      1.0  0.84854  0.28245  0.88618  1.0000
  H   H838      1.0  0.88567  0.30352  0.90655  1.0000
  H   H839      1.0  0.84190  0.32242  0.88995  1.0000
  H   H840      1.0  0.89745  0.26216  0.84788  1.0000
  H   H841      1.0  0.93702  0.28077  0.86943  1.0000
  H   H842      1.0  0.93213  0.28664  0.82743  1.0000
  H   H843      1.0  0.89393  0.35729  0.86380  1.0000
  H   H844      1.0  0.93273  0.33463  0.88175  1.0000
  H   H845      1.0  0.93422  0.34045  0.84016  1.0000
  H   H846      1.0  0.82448  0.27125  0.83910  1.0000
  H   H847      1.0  0.88340  0.35371  0.80727  1.0000
  H   H848      1.0  0.77675  0.27559  0.79503  1.0000
  H   H849      1.0  0.61129  0.23121  0.90525  1.0000
  H   H850      1.0  0.79655  0.38100  0.84535  1.0000
  H   H851      1.0  0.50949  0.98303  0.94463  1.0000
  H   H852      1.0  0.53357  0.28467  0.68028  1.0000
  Fe  Fe95      1.0  0.86273  0.45923  0.74595  1.0000
  C   C719      1.0  0.97289  0.30599  0.93180  1.0000
  S   S190      1.0  0.60595  0.25293  0.69518  1.0000
  H   H853      1.0  0.74875  0.10293  0.84287  1.0000
  C   C720      1.0  0.64747  0.11579  0.79697  1.0000
  H   H854      1.0  0.74715  0.41489  0.87517  1.0000
  C   C721      1.0  0.62139  0.12409  0.77234  1.0000
  C   C722      1.0  0.52070  0.30585  0.67283  1.0000
  H   H855      1.0  0.53804  0.02408  0.85152  1.0000
  C   C723      1.0  0.54608  0.14965  0.84688  1.0000
  H   H856      1.0  0.94521  0.10451  0.67336  1.0000
  S   S191      1.0  0.56914  0.33319  0.71870  1.0000
  H   H857      1.0  0.87871  0.42648  0.83401  1.0000
  H   H858      1.0  0.95682  0.23063  0.93741  1.0000
  C   C724      1.0  0.79746  0.39995  0.82811  1.0000
  H   H859      1.0  0.80605  0.01364  0.90021  1.0000
  H   H860      1.0  0.95318  0.00823  0.67942  1.0000
  H   H861      1.0  0.65559  0.15573  0.91632  1.0000
  C   C725      1.0  0.99143  0.44796  0.81173  1.0000
  H   H862      1.0  0.67083  0.15898  0.85662  1.0000
  C   C726      1.0  0.56658  0.17741  0.90408  1.0000
  S   S192      1.0  0.86628  0.97806  0.68989  1.0000
  C   C727      1.0  0.50590  0.05734  0.92546  1.0000
  H   H863      1.0  0.63840  0.18914  0.93614  1.0000
  C   C728      1.0  0.80300  0.31628  0.77667  1.0000
  C   C729      1.0  0.63587  0.09341  0.81844  1.0000
  C   C730      1.0  0.65501  0.18071  0.91496  1.0000
  H   H864      1.0  0.61816  0.23265  0.86291  1.0000
  C   C731      1.0  0.99817  0.39395  0.80762  1.0000
  H   H865      1.0  0.63016  0.14163  0.75578  1.0000
  H   H866      1.0  0.73075  0.43309  0.83973  1.0000
  C   C732      1.0  0.82955  0.43064  0.86854  1.0000
  H   H867      1.0  0.75208  0.45531  0.87094  1.0000
  C   C733      1.0  0.52842  0.16389  0.90031  1.0000
  H   H868      1.0  0.82560  0.39725  0.81376  1.0000
  H   H869      1.0  0.53761  0.13962  0.82436  1.0000
  H   H870      1.0  0.76865  0.35589  0.71368  1.0000
  C   C734      1.0  0.87090  0.42908  0.85874  1.0000
  C   C735      1.0  0.51667  0.03109  0.94204  1.0000
  C   C736      1.0  0.80610  0.98932  0.90258  1.0000
  Fe  Fe96      1.0  0.87429  0.38397  0.99287  1.0000
  H   H871      1.0  0.61509  0.01971  0.80984  1.0000
  H   H872      1.0  0.58745  0.19043  0.67215  1.0000
  H   H873      1.0  0.98838  0.45465  0.72376  1.0000
  H   H874      1.0  0.82417  0.39355  0.71749  1.0000
  H   H875      1.0  0.98267  0.36936  0.97848  1.0000
  H   H876      1.0  0.68583  0.11864  0.67157  1.0000
  H   H877      1.0  0.82505  0.98309  0.85515  1.0000
  H   H878      1.0  0.78568  0.99026  0.95106  1.0000
  H   H879      1.0  0.84859  0.43748  0.94859  1.0000
  H   H880      1.0  0.65173  0.42289  0.00203  1.0000
  C   C737      1.0  0.50145  0.00335  0.93186  1.0000
  C   C738      1.0  0.82235  0.43328  0.90172  1.0000
  C   C739      1.0  0.50735  0.20319  0.78753  1.0000
  S   S193      1.0  0.90916  0.42692  0.00224  1.0000
  H   H881      1.0  0.82993  0.45036  0.80667  1.0000
  H   H882      1.0  0.79202  0.43355  0.91159  1.0000
  H   H883      1.0  0.99842  0.42398  0.67522  1.0000
  H   H884      1.0  0.85977  0.41038  0.67061  1.0000
  H   H885      1.0  0.75745  0.54091  0.02736  1.0000
  C   C740      1.0  0.80447  0.54120  0.06328  1.0000
  S   S194      1.0  0.78120  0.81425  0.06388  1.0000
  H   H886      1.0  0.92474  0.53397  0.08662  1.0000
  H   H887      1.0  0.78779  0.55797  0.07650  1.0000
  H   H888      1.0  0.78652  0.85101  0.14760  1.0000
  Fe  Fe97      1.0  0.65548  0.72808  0.19246  1.0000
  S   S195      1.0  0.65793  0.77253  0.21768  1.0000
  S   S196      1.0  0.69498  0.71511  0.15017  1.0000
  Fe  Fe98      1.0  0.59508  0.70169  0.24151  1.0000
  S   S197      1.0  0.59399  0.74400  0.27027  1.0000
  S   S198      1.0  0.55967  0.65962  0.25407  1.0000
  Fe  Fe99      1.0  0.58988  0.76632  0.22222  1.0000
  H   H889      1.0  0.78039  0.53165  0.31380  1.0000
  Fe  Fe100     1.0  0.66197  0.74572  0.26309  1.0000
  H   H890      1.0  0.86472  0.90729  0.17306  1.0000
  S   S199      1.0  0.58715  0.72380  0.19388  1.0000
  S   S200      1.0  0.66314  0.70137  0.23732  1.0000
  C   C741      1.0  0.77306  0.86848  0.13180  1.0000
  S   S201      1.0  0.79459  0.50944  0.21179  1.0000
  H   H891      1.0  0.87988  0.51991  0.14860  1.0000
  C   C742      1.0  0.81226  0.76486  0.25268  1.0000
  C   C743      1.0  0.95631  0.58058  0.17739  1.0000
  S   S202      1.0  0.90430  0.90633  0.23474  1.0000
  S   S203      1.0  0.54477  0.80381  0.21425  1.0000
  H   H892      1.0  0.68188  0.63613  0.09407  1.0000
  Fe  Fe101     1.0  0.86259  0.50765  0.21890  1.0000
  S   S204      1.0  0.89918  0.54965  0.21038  1.0000
  C   C744      1.0  0.78645  0.53147  0.03493  1.0000
  S   S205      1.0  0.67105  0.55860  0.07075  1.0000
  C   C745      1.0  0.84232  0.49722  0.02623  1.0000
  H   H893      1.0  0.97647  0.94474  0.01581  1.0000
  H   H894      1.0  0.88951  0.49670  0.06090  1.0000
  H   H895      1.0  0.79656  0.93984  0.10980  1.0000
  S   S206      1.0  0.71318  0.74603  0.29995  1.0000
  H   H896      1.0  0.88727  0.84480  0.19428  1.0000
  H   H897      1.0  0.63789  0.62589  0.05126  1.0000
  C   C746      1.0  0.83817  0.79512  0.14630  1.0000
  H   H898      1.0  0.85605  0.56958  0.14335  1.0000
  H   H899      1.0  0.73712  0.78946  0.25535  1.0000
  H   H900      1.0  0.77335  0.85936  0.10730  1.0000
  H   H901      1.0  0.95715  0.95033  0.26483  1.0000
  C   C747      1.0  0.83991  0.56279  0.12107  1.0000
  H   H902      1.0  0.91903  0.56036  0.11795  1.0000
  C   C748      1.0  0.83931  0.89221  0.12728  1.0000
  N   N51       1.0  0.86267  0.53911  0.10356  1.0000
  C   C749      1.0  0.77840  0.91871  0.11058  1.0000
  H   H903      1.0  0.84302  0.82173  0.23379  1.0000
  H   H904      1.0  0.66968  0.47585  0.21386  1.0000
  C   C750      1.0  0.94201  0.55190  0.18518  1.0000
  H   H905      1.0  0.60898  0.64056  0.15824  1.0000
  H   H906      1.0  0.95465  0.88069  0.10615  1.0000
  H   H907      1.0  0.95093  0.50424  0.17851  1.0000
  Fe  Fe102     1.0  0.82239  0.81119  0.02043  1.0000
  C   C751      1.0  0.51038  0.66903  0.11740  1.0000
  H   H908      1.0  0.79845  0.89399  0.18530  1.0000
  H   H909      1.0  0.80885  0.47426  0.32339  1.0000
  C   C752      1.0  0.58224  0.64824  0.14561  1.0000
  H   H910      1.0  0.97363  0.84492  0.33438  1.0000
  C   C753      1.0  0.95148  0.90305  0.25494  1.0000
  C   C754      1.0  0.81393  0.78991  0.20124  1.0000
  N   N52       1.0  0.78737  0.77607  0.22560  1.0000
  C   C755      1.0  0.86643  0.82703  0.18712  1.0000
  H   H911      1.0  0.82934  0.87502  0.07919  1.0000
  C   C756      1.0  0.98952  0.58415  0.15697  1.0000
  C   C757      1.0  0.51127  0.64205  0.00909  1.0000
  H   H912      1.0  0.69348  0.49796  0.04973  1.0000
  H   H913      1.0  0.62652  0.49484  0.11141  1.0000
  C   C758      1.0  0.62207  0.47344  0.12340  1.0000
  C   C759      1.0  0.73902  0.51181  0.13370  1.0000
  Fe  Fe103     1.0  0.79072  0.48088  0.25570  1.0000
  H   H914      1.0  0.74427  0.73981  0.23257  1.0000
  H   H915      1.0  0.90115  0.86900  0.06638  1.0000
  C   C760      1.0  0.75671  0.78585  0.08648  1.0000
  C   C761      1.0  0.72883  0.79466  0.11003  1.0000
  C   C762      1.0  0.70968  0.77324  0.12955  1.0000
  C   C763      1.0  0.71810  0.74264  0.12568  1.0000
  C   C764      1.0  0.74584  0.73372  0.10207  1.0000
  C   C765      1.0  0.76515  0.75522  0.08255  1.0000
  H   H916      1.0  0.72144  0.81817  0.11293  1.0000
  H   H917      1.0  0.68801  0.78040  0.14731  1.0000
  H   H918      1.0  0.75260  0.71008  0.09893  1.0000
  H   H919      1.0  0.78663  0.74812  0.06460  1.0000
  H   H920      1.0  0.61180  0.63851  0.31109  1.0000
  C   C766      1.0  0.72852  0.50318  0.32236  1.0000
  C   C767      1.0  0.75480  0.52708  0.32921  1.0000
  Fe  Fe104     1.0  0.80383  0.46641  0.18517  1.0000
  C   C768      1.0  0.51696  0.66118  0.27939  1.0000
  C   C769      1.0  0.86072  0.50689  0.05444  1.0000
  H   H921      1.0  0.80012  0.88206  0.31751  1.0000
  S   S207      1.0  0.57579  0.55595  0.01577  1.0000
  C   C770      1.0  0.76315  0.75020  0.21352  1.0000
  H   H922      1.0  0.79320  0.75282  0.27054  1.0000
  C   C771      1.0  0.69953  0.52941  0.08833  1.0000
  H   H923      1.0  0.82757  0.78322  0.26602  1.0000
  C   C772      1.0  0.81289  0.78132  0.16867  1.0000
  C   C773      1.0  0.75844  0.79907  0.23750  1.0000
  C   C774      1.0  0.91187  0.89450  0.14194  1.0000
  C   C775      1.0  0.50787  0.68693  0.29713  1.0000
  C   C776      1.0  0.72905  0.47922  0.08844  1.0000
  Fe  Fe105     1.0  0.87544  0.95270  0.23226  1.0000
  H   H924      1.0  0.96875  0.85060  0.03792  1.0000
  H   H925      1.0  0.96612  0.47266  0.02061  1.0000
  C   C777      1.0  0.70596  0.50178  0.07319  1.0000
  H   H926      1.0  0.95521  0.85493  0.24895  1.0000
  C   C778      1.0  0.74547  0.48415  0.11885  1.0000
  S   S208      1.0  0.89076  0.81184  0.02569  1.0000
  H   H927      1.0  0.74646  0.92518  0.11640  1.0000
  H   H928      1.0  0.90188  0.56994  0.07870  1.0000
  H   H929      1.0  0.78305  0.73204  0.20403  1.0000
  H   H930      1.0  0.75106  0.51596  0.15704  1.0000
  C   C779      1.0  0.71615  0.53429  0.11856  1.0000
  C   C780      1.0  0.92281  0.88384  0.11205  1.0000
  C   C781      1.0  0.84243  0.52929  0.07382  1.0000
  C   C782      1.0  0.85155  0.88092  0.09725  1.0000
  H   H931      1.0  0.89423  0.92711  0.30655  1.0000
  S   S209      1.0  0.73641  0.47918  0.28923  1.0000
  H   H932      1.0  0.83633  0.58356  0.10654  1.0000
  N   N53       1.0  0.79560  0.89727  0.13414  1.0000
  C   C783      1.0  0.86514  0.81768  0.15554  1.0000
  C   C784      1.0  0.86711  0.51301  0.12520  1.0000
  H   H933      1.0  0.71116  0.55557  0.13043  1.0000
  C   C785      1.0  0.51100  0.66200  0.14962  1.0000
  H   H934      1.0  0.93521  0.89946  0.15952  1.0000
  H   H935      1.0  0.54331  0.67100  0.07406  1.0000
  C   C786      1.0  0.98823  0.92513  0.02805  1.0000
  H   H936      1.0  0.68602  0.80763  0.31443  1.0000
  N   N54       1.0  0.61924  0.65125  0.09248  1.0000
  C   C787      1.0  0.63113  0.68097  0.07941  1.0000
  C   C788      1.0  0.65502  0.63893  0.10992  1.0000
  C   C789      1.0  0.61029  0.63044  0.06577  1.0000
  C   C790      1.0  0.58251  0.65480  0.11252  1.0000
  C   C791      1.0  0.98371  0.87213  0.04053  1.0000
  C   C792      1.0  0.54546  0.66542  0.09901  1.0000
  C   C793      1.0  0.78812  0.90972  0.16632  1.0000
  C   C794      1.0  0.99571  0.53013  0.15233  1.0000
  C   C795      1.0  0.87084  0.89881  0.14953  1.0000
  H   H937      1.0  0.63664  0.69752  0.09888  1.0000
  H   H938      1.0  0.65964  0.67954  0.06521  1.0000
  H   H939      1.0  0.60736  0.69058  0.06351  1.0000
  H   H940      1.0  0.64844  0.61621  0.11984  1.0000
  H   H941      1.0  0.66493  0.65426  0.12943  1.0000
  H   H942      1.0  0.51735  0.75745  0.16840  1.0000
  H   H943      1.0  0.88493  0.82796  0.13809  1.0000
  H   H944      1.0  0.59911  0.60832  0.07467  1.0000
  H   H945      1.0  0.58696  0.63947  0.04911  1.0000
  H   H946      1.0  0.75516  0.91430  0.17047  1.0000
  C   C796      1.0  0.96829  0.89739  0.02468  1.0000
  H   H947      1.0  0.77417  0.81809  0.24946  1.0000
  H   H948      1.0  0.80393  0.93161  0.16949  1.0000
  H   H949      1.0  0.52694  0.70665  0.29520  1.0000
  H   H950      1.0  0.80926  0.55471  0.12850  1.0000
  S   S210      1.0  0.85812  0.48354  0.26584  1.0000
  C   C797      1.0  0.96164  0.52651  0.17250  1.0000
  C   C798      1.0  0.90374  0.55129  0.09632  1.0000
  C   C799      1.0  0.89269  0.87714  0.08974  1.0000
  H   H951      1.0  0.95137  0.94349  0.08548  1.0000
  C   C800      1.0  0.84110  0.81352  0.20965  1.0000
  C   C801      1.0  0.82274  0.89999  0.31221  1.0000
  H   H952      1.0  0.88795  0.49554  0.11568  1.0000
  H   H953      1.0  0.74145  0.75712  0.19451  1.0000
  H   H954      1.0  0.77766  0.90926  0.08612  1.0000
  H   H955      1.0  0.87806  0.94613  0.09802  1.0000
  H   H956      1.0  0.83608  0.74885  0.24442  1.0000
  Fe  Fe106     1.0  0.64374  0.55478  0.02156  1.0000
  H   H957      1.0  0.73963  0.80843  0.21778  1.0000
  H   H958      1.0  0.83751  0.89448  0.28912  1.0000
  C   C802      1.0  0.70974  0.80134  0.33106  1.0000
  H   H959      1.0  0.79284  0.76397  0.15974  1.0000
  H   H960      1.0  0.66701  0.48313  0.15791  1.0000
  C   C803      1.0  0.97067  0.92836  0.26773  1.0000
  C   C804      1.0  0.96990  0.87470  0.25865  1.0000
  H   H961      1.0  0.94141  0.60029  0.18704  1.0000
  H   H962      1.0  0.74035  0.87117  0.13816  1.0000
  H   H963      1.0  0.83674  0.78826  0.12153  1.0000
  H   H964      1.0  0.83705  0.50219  0.12966  1.0000
  S   S211      1.0  0.87204  0.46634  0.18963  1.0000
  H   H965      1.0  0.50975  0.59582  0.02418  1.0000
  H   H966      1.0  0.80507  0.92123  0.30888  1.0000
  C   C805      1.0  0.80530  0.50955  0.01645  1.0000
  C   C806      1.0  0.50760  0.80318  0.18378  1.0000
  C   C807      1.0  0.54683  0.65165  0.16366  1.0000
  H   H967      1.0  0.98045  0.95474  0.17117  1.0000
  C   C808      1.0  0.64520  0.46640  0.15039  1.0000
  H   H968      1.0  0.54726  0.64633  0.18880  1.0000
  C   C809      1.0  0.87919  0.92968  0.33007  1.0000
  H   H969      1.0  0.86060  0.95067  0.32857  1.0000
  C   C810      1.0  0.60482  0.65146  0.33310  1.0000
  C   C811      1.0  0.91988  0.87295  0.33506  1.0000
  C   C812      1.0  0.72736  0.77273  0.32933  1.0000
  H   H970      1.0  0.62606  0.67099  0.33405  1.0000
  S   S212      1.0  0.80743  0.95677  0.23477  1.0000
  H   H971      1.0  0.86130  0.46922  0.33366  1.0000
  H   H972      1.0  0.57382  0.66098  0.33005  1.0000
  H   H973      1.0  0.93772  0.89216  0.32782  1.0000
  H   H974      1.0  0.97894  0.46544  0.11175  1.0000
  H   H975      1.0  0.85699  0.48016  0.01177  1.0000
  C   C813      1.0  0.49931  0.77756  0.16529  1.0000
  H   H976      1.0  0.49924  0.61554  0.26905  1.0000
  H   H977      1.0  0.99860  0.49241  0.27078  1.0000
  Fe  Fe107     1.0  0.88242  0.79231  0.47213  1.0000
  S   S213      1.0  0.88085  0.83278  0.44030  1.0000
  S   S214      1.0  0.92296  0.75241  0.46212  1.0000
  Fe  Fe108     1.0  0.81289  0.82919  0.44610  1.0000
  S   S215      1.0  0.76893  0.84052  0.40568  1.0000
  S   S216      1.0  0.81401  0.78685  0.47549  1.0000
  Fe  Fe109     1.0  0.65706  0.55964  0.44650  1.0000
  H   H978      1.0  0.58035  0.68608  0.53795  1.0000
  S   S217      1.0  0.70677  0.56410  0.40919  1.0000
  H   H979      1.0  0.64065  0.69741  0.61124  1.0000
  S   S218      1.0  0.79636  0.47121  0.63730  1.0000
  S   S219      1.0  0.59013  0.56628  0.43703  1.0000
  C   C814      1.0  0.71447  0.54001  0.37616  1.0000
  C   C815      1.0  0.83459  0.54173  0.58950  1.0000
  H   H980      1.0  0.91690  0.57517  0.62311  1.0000
  C   C816      1.0  0.93043  0.89458  0.62207  1.0000
  H   H981      1.0  0.93704  0.79876  0.35059  1.0000
  C   C817      1.0  0.68826  0.51602  0.36939  1.0000
  H   H982      1.0  0.82531  0.51868  0.58215  1.0000
  H   H983      1.0  0.49980  0.54678  0.44148  1.0000
  H   H984      1.0  0.78709  0.75400  0.56047  1.0000
  H   H985      1.0  0.66256  0.51162  0.38474  1.0000
  N   N55       1.0  0.60810  0.63215  0.36174  1.0000
  C   C818      1.0  0.51312  0.58382  0.35148  1.0000
  C   C819      1.0  0.99458  0.72405  0.39028  1.0000
  C   C820      1.0  0.96870  0.90752  0.62743  1.0000
  C   C821      1.0  0.82970  0.46728  0.34282  1.0000
  H   H986      1.0  0.71220  0.78115  0.65879  1.0000
  C   C822      1.0  0.96703  0.72515  0.41562  1.0000
  C   C823      1.0  0.70198  0.53124  0.58768  1.0000
  C   C824      1.0  0.94674  0.95316  0.60167  1.0000
  N   N56       1.0  0.87813  0.54266  0.59924  1.0000
  H   H987      1.0  0.83213  0.95272  0.50287  1.0000
  H   H988      1.0  0.65666  0.61110  0.38820  1.0000
  C   C825      1.0  0.70628  0.70309  0.50263  1.0000
  H   H989      1.0  0.85786  0.91267  0.55071  1.0000
  C   C826      1.0  0.75310  0.81389  0.37675  1.0000
  C   C827      1.0  0.77085  0.78535  0.37485  1.0000
  H   H990      1.0  0.85430  0.91013  0.38843  1.0000
  C   C828      1.0  0.64854  0.83567  0.65764  1.0000
  H   H991      1.0  0.86170  0.52158  0.53704  1.0000
  H   H992      1.0  0.82485  0.84710  0.35379  1.0000
  H   H993      1.0  0.79431  0.77894  0.39167  1.0000
  H   H994      1.0  0.82637  0.48406  0.36231  1.0000
  H   H995      1.0  0.95428  0.70449  0.42488  1.0000
  Fe  Fe110     1.0  0.81922  0.81694  0.51853  1.0000
  S   S220      1.0  0.81293  0.85909  0.48923  1.0000
  S   S221      1.0  0.78490  0.81998  0.56568  1.0000
  Fe  Fe111     1.0  0.88109  0.85877  0.48617  1.0000
  H   H996      1.0  0.55868  0.49534  0.53643  1.0000
  S   S222      1.0  0.88776  0.81848  0.51775  1.0000
  Fe  Fe112     1.0  0.58973  0.59593  0.48026  1.0000
  S   S223      1.0  0.57739  0.55864  0.51441  1.0000
  S   S224      1.0  0.55680  0.64071  0.48285  1.0000
  C   C829      1.0  0.58172  0.60532  0.35788  1.0000
  H   H997      1.0  0.61504  0.66932  0.39444  1.0000
  S   S225      1.0  0.65756  0.59337  0.48656  1.0000
  C   C830      1.0  0.96320  0.52098  0.52443  1.0000
  C   C831      1.0  0.82547  0.91894  0.60914  1.0000
  C   C832      1.0  0.85482  0.89182  0.56509  1.0000
  C   C833      1.0  0.88651  0.57336  0.61157  1.0000
  H   H998      1.0  0.88681  0.95338  0.58237  1.0000
  C   C834      1.0  0.75871  0.49366  0.61886  1.0000
  H   H999      1.0  0.79464  0.90856  0.60736  1.0000
  Fe  Fe113     1.0  0.58256  0.52876  0.47205  1.0000
  C   C835      1.0  0.66446  0.72475  0.55551  1.0000
  C   C836      1.0  0.85080  0.86887  0.61657  1.0000
  C   C837      1.0  0.85724  0.84760  0.34937  1.0000
  Fe  Fe114     1.0  0.64518  0.55403  0.51849  1.0000
  C   C838      1.0  0.50092  0.61980  0.52679  1.0000
  H   H1000     1.0  0.74564  0.52004  0.66041  1.0000
  C   C839      1.0  0.52917  0.55482  0.35194  1.0000
  S   S226      1.0  0.64963  0.51988  0.47919  1.0000
  H   H1001     1.0  0.88528  0.59035  0.59213  1.0000
  C   C840      1.0  0.65966  0.69396  0.54724  1.0000
  C   C841      1.0  0.62558  0.47386  0.56069  1.0000
  H   H1002     1.0  0.87776  0.49737  0.61720  1.0000
  H   H1003     1.0  0.96180  0.54489  0.60044  1.0000
  H   H1004     1.0  0.76448  0.47152  0.57348  1.0000
  N   N57       1.0  0.63261  0.67424  0.56619  1.0000
  C   C842      1.0  0.76589  0.79039  0.58980  1.0000
  C   C843      1.0  0.74481  0.79780  0.61777  1.0000
  C   C844      1.0  0.72825  0.77520  0.63736  1.0000
  C   C845      1.0  0.73274  0.74486  0.62926  1.0000
  C   C846      1.0  0.75426  0.73741  0.60150  1.0000
  C   C847      1.0  0.77082  0.76004  0.58185  1.0000
  H   H1005     1.0  0.74130  0.82118  0.62431  1.0000
  C   C848      1.0  0.64508  0.67496  0.60014  1.0000
  N   N58       1.0  0.85826  0.89771  0.59963  1.0000
  H   H1006     1.0  0.62139  0.48222  0.58542  1.0000
  S   S227      1.0  0.53721  0.49148  0.46543  1.0000
  H   H1007     1.0  0.82819  0.55766  0.56968  1.0000
  C   C849      1.0  0.92150  0.51775  0.51900  1.0000
  H   H1008     1.0  0.62723  0.65886  0.61479  1.0000
  C   C850      1.0  0.69528  0.49773  0.34259  1.0000
  C   C851      1.0  0.97671  0.93680  0.61753  1.0000
  C   C852      1.0  0.72123  0.50810  0.57093  1.0000
  C   C853      1.0  0.68111  0.68372  0.51996  1.0000
  H   H1009     1.0  0.54507  0.48064  0.57483  1.0000
  C   C854      1.0  0.53892  0.60875  0.35417  1.0000
  C   C855      1.0  0.83241  0.90958  0.36816  1.0000
  C   C856      1.0  0.87717  0.87472  0.34069  1.0000
  C   C857      1.0  0.97242  0.77939  0.41683  1.0000
  H   H1010     1.0  0.85499  0.87142  0.64266  1.0000
  H   H1011     1.0  0.50905  0.53554  0.34992  1.0000
  H   H1012     1.0  0.92660  0.87163  0.62986  1.0000
  H   H1013     1.0  0.64908  0.73426  0.57583  1.0000
  H   H1014     1.0  0.51385  0.59786  0.52317  1.0000
  H   H1015     1.0  0.81918  0.86045  0.61259  1.0000
  H   H1016     1.0  0.71466  0.50490  0.54595  1.0000
  C   C858      1.0  0.95812  0.90475  0.51795  1.0000
  C   C859      1.0  0.97708  0.53090  0.55390  1.0000
  C   C860      1.0  0.49952  0.49855  0.43645  1.0000
  C   C861      1.0  0.90667  0.53525  0.57317  1.0000
  H   H1017     1.0  0.69604  0.55317  0.63301  1.0000
  C   C862      1.0  0.74938  0.48923  0.58657  1.0000
  C   C863      1.0  0.71057  0.73309  0.51163  1.0000
  H   H1018     1.0  0.70886  0.84391  0.35587  1.0000
  C   C864      1.0  0.73917  0.51665  0.63552  1.0000
  H   H1019     1.0  0.60546  0.46442  0.50129  1.0000
  H   H1020     1.0  0.75797  0.71403  0.59500  1.0000
  C   C865      1.0  0.71096  0.53535  0.61998  1.0000
  C   C866      1.0  0.51575  0.64450  0.50981  1.0000
  H   H1021     1.0  0.73034  0.74799  0.49829  1.0000
  C   C867      1.0  0.63309  0.64226  0.55583  1.0000
  H   H1022     1.0  0.62924  0.57038  0.36053  1.0000
  S   S228      1.0  0.91447  0.90305  0.49328  1.0000
  H   H1023     1.0  0.98482  0.51556  0.50588  1.0000
  S   S229      1.0  0.66644  0.55568  0.56967  1.0000
  C   C868      1.0  0.59480  0.64966  0.38992  1.0000
  C   C869      1.0  0.97838  0.93232  0.52172  1.0000
  H   H1024     1.0  0.86261  0.52540  0.64554  1.0000
  H   H1025     1.0  0.72265  0.69482  0.48205  1.0000
  H   H1026     1.0  0.50886  0.69207  0.50142  1.0000
  S   S230      1.0  0.71174  0.71575  0.65307  1.0000
  H   H1027     1.0  0.66429  0.63244  0.55722  1.0000
  C   C870      1.0  0.72275  0.82187  0.35458  1.0000
  H   H1028     1.0  0.87093  0.85052  0.60772  1.0000
  H   H1029     1.0  0.82982  0.92669  0.63406  1.0000
  C   C871      1.0  0.75819  0.76499  0.35115  1.0000
  C   C872      1.0  0.88372  0.52077  0.62545  1.0000
  H   H1030     1.0  0.60875  0.88626  0.65041  1.0000
  H   H1031     1.0  0.99284  0.89450  0.63852  1.0000
  C   C873      1.0  0.95568  0.75273  0.42896  1.0000
  C   C874      1.0  0.64178  0.88929  0.65582  1.0000
  H   H1032     1.0  0.82401  0.93926  0.59385  1.0000
  C   C875      1.0  0.68949  0.74393  0.53789  1.0000
  H   H1033     1.0  0.81392  0.54791  0.60942  1.0000
  H   H1034     1.0  0.81613  0.93160  0.36738  1.0000
  H   H1035     1.0  0.80886  0.89246  0.37399  1.0000
  H   H1036     1.0  0.96762  0.95203  0.50926  1.0000
  H   H1037     1.0  0.76807  0.56398  0.36093  1.0000
  H   H1038     1.0  0.71231  0.91244  0.66353  1.0000
  H   H1039     1.0  0.86280  0.80043  0.36044  1.0000
  C   C876      1.0  0.65188  0.62473  0.36633  1.0000
  C   C877      1.0  0.89347  0.52472  0.54290  1.0000
  H   H1040     1.0  0.86421  0.58013  0.63016  1.0000
  H   H1041     1.0  0.95809  0.85786  0.53076  1.0000
  C   C878      1.0  0.74772  0.54541  0.35594  1.0000
  C   C879      1.0  0.97313  0.87930  0.53367  1.0000
  H   H1042     1.0  0.65785  0.89120  0.63262  1.0000
  C   C880      1.0  0.94937  0.53770  0.57797  1.0000
  H   H1043     1.0  0.67800  0.66925  0.60291  1.0000
  C   C881      1.0  0.59006  0.68524  0.56335  1.0000
  H   H1044     1.0  0.67899  0.66085  0.51146  1.0000
  H   H1045     1.0  0.56818  0.67033  0.57602  1.0000
  H   H1046     1.0  0.96399  0.80079  0.42711  1.0000
  C   C882      1.0  0.89887  0.91085  0.60641  1.0000
  H   H1047     1.0  0.82502  0.88130  0.55883  1.0000
  C   C883      1.0  0.90851  0.94036  0.59588  1.0000
  C   C884      1.0  0.59717  0.57539  0.35783  1.0000
  C   C885      1.0  0.87869  0.82064  0.35300  1.0000
  C   C886      1.0  0.94104  0.84578  0.33862  1.0000
  H   H1048     1.0  0.91084  0.50963  0.49614  1.0000
  H   H1049     1.0  0.69321  0.76725  0.54497  1.0000
  H   H1050     1.0  0.91514  0.52131  0.63534  1.0000
  H   H1051     1.0  0.87929  0.87629  0.55692  1.0000
  H   H1052     1.0  0.62123  0.63978  0.53117  1.0000
  H   H1053     1.0  0.90286  0.93362  0.34859  1.0000
  H   H1054     1.0  0.62910  0.49427  0.54556  1.0000
  H   H1055     1.0  0.58623  0.70823  0.57330  1.0000
  C   C887      1.0  0.92052  0.81973  0.34766  1.0000
  H   H1056     1.0  0.61321  0.62784  0.57089  1.0000
  C   C888      1.0  0.55381  0.47425  0.55021  1.0000
  C   C889      1.0  0.57108  0.55062  0.35498  1.0000
  C   C890      1.0  0.99474  0.59049  0.65710  1.0000
  H   H1057     1.0  0.59501  0.63545  0.41176  1.0000
  H   H1058     1.0  0.58346  0.52799  0.35546  1.0000
  H   H1059     1.0  0.77211  0.74294  0.34997  1.0000
  H   H1060     1.0  0.67097  0.64528  0.36910  1.0000
  H   H1061     1.0  0.56349  0.65885  0.38720  1.0000
  H   H1062     1.0  0.66667  0.83376  0.63541  1.0000
  H   H1063     1.0  0.52511  0.63080  0.35313  1.0000
  H   H1064     1.0  0.61561  0.83429  0.65115  1.0000
  H   H1065     1.0  0.66450  0.61220  0.34567  1.0000
  H   H1066     1.0  0.67480  0.47926  0.33752  1.0000
  H   H1067     1.0  0.64427  0.91111  0.66867  1.0000
  H   H1068     1.0  0.52717  0.46323  0.53874  1.0000
  N   N59       1.0  0.85364  0.90308  0.33780  1.0000
  Fe  Fe115     1.0  0.89065  0.78567  0.97993  1.0000
  S   S231      1.0  0.89411  0.82603  0.94841  1.0000
  S   S232      1.0  0.93168  0.74610  0.97056  1.0000
  Fe  Fe116     1.0  0.82574  0.82356  0.94826  1.0000
  S   S233      1.0  0.79393  0.83453  0.90135  1.0000
  S   S234      1.0  0.82221  0.78109  0.97717  1.0000
  Fe  Fe117     1.0  0.67425  0.72513  0.69750  1.0000
  S   S235      1.0  0.67521  0.76750  0.72656  1.0000
  H   H1069     1.0  0.64385  0.88392  0.72018  1.0000
  Fe  Fe118     1.0  0.60873  0.69618  0.74041  1.0000
  S   S236      1.0  0.60397  0.73699  0.77134  1.0000
  S   S237      1.0  0.57467  0.65261  0.74938  1.0000
  Fe  Fe119     1.0  0.60676  0.76244  0.72520  1.0000
  C   C891      1.0  0.52616  0.67619  0.79707  1.0000
  Fe  Fe120     1.0  0.67253  0.73766  0.76991  1.0000
  S   S238      1.0  0.70831  0.73414  0.81631  1.0000
  S   S239      1.0  0.60605  0.72161  0.69421  1.0000
  S   S240      1.0  0.67703  0.69536  0.74071  1.0000
  C   C892      1.0  0.99603  0.87724  0.78760  1.0000
  S   S241      1.0  0.80450  0.52738  0.71030  1.0000
  H   H1070     1.0  0.73653  0.59926  0.69308  1.0000
  C   C893      1.0  0.79040  0.60416  0.72073  1.0000
  C   C894      1.0  0.94997  0.56359  0.69307  1.0000
  S   S242      1.0  0.89376  0.90841  0.74395  1.0000
  C   C895      1.0  0.86840  0.76191  0.88988  1.0000
  S   S243      1.0  0.73153  0.50631  0.78224  1.0000
  Fe  Fe121     1.0  0.86994  0.52392  0.72572  1.0000
  S   S244      1.0  0.90900  0.56504  0.71993  1.0000
  H   H1071     1.0  0.92611  0.72774  0.86222  1.0000
  C   C896      1.0  0.58729  0.61376  0.86960  1.0000
  Fe  Fe122     1.0  0.65918  0.56114  0.95019  1.0000
  H   H1072     1.0  0.54294  0.69686  0.79430  1.0000
  S   S245      1.0  0.71285  0.56811  0.91717  1.0000
  C   C897      1.0  0.74296  0.58955  0.77351  1.0000
  H   H1073     1.0  0.50850  0.53868  0.93570  1.0000
  S   S246      1.0  0.59246  0.56390  0.93833  1.0000
  C   C898      1.0  0.71865  0.54852  0.88100  1.0000
  C   C899      1.0  0.76066  0.53694  0.83474  1.0000
  H   H1074     1.0  0.97601  0.95338  0.69338  1.0000
  C   C900      1.0  0.72829  0.52115  0.82102  1.0000
  C   C901      1.0  0.69149  0.51840  0.83773  1.0000
  C   C902      1.0  0.68680  0.53175  0.86781  1.0000
  S   S247      1.0  0.54690  0.48576  0.96513  1.0000
  H   H1075     1.0  0.83491  0.79381  0.84186  1.0000
  H   H1076     1.0  0.66637  0.50606  0.82730  1.0000
  H   H1077     1.0  0.65833  0.52958  0.88051  1.0000
  S   S248      1.0  0.65392  0.52112  0.98265  1.0000
  C   C903      1.0  0.65914  0.60894  0.72251  1.0000
  H   H1078     1.0  0.66210  0.62982  0.73692  1.0000
  C   C904      1.0  0.72387  0.84231  0.69616  1.0000
  H   H1079     1.0  0.93755  0.95306  0.78151  1.0000
  S   S249      1.0  0.79416  0.95439  0.73672  1.0000
  H   H1080     1.0  0.65890  0.59652  0.78468  1.0000
  C   C905      1.0  0.95346  0.93186  0.78330  1.0000
  C   C906      1.0  0.93824  0.90648  0.76768  1.0000
  S   S250      1.0  0.82085  0.85363  0.99102  1.0000
  S   S251      1.0  0.88211  0.48068  0.70015  1.0000
  H   H1081     1.0  0.60167  0.65848  0.82902  1.0000
  C   C907      1.0  0.95938  0.87907  0.77023  1.0000
  H   H1082     1.0  0.67128  0.61385  0.69848  1.0000
  H   H1083     1.0  0.80182  0.90267  0.91147  1.0000
  C   C908      1.0  0.97785  0.72266  0.92302  1.0000
  H   H1084     1.0  0.57860  0.65728  0.91520  1.0000
  C   C909      1.0  0.96638  0.74895  0.93891  1.0000
  C   C910      1.0  0.72558  0.89269  0.67442  1.0000
  H   H1085     1.0  0.86845  0.88350  0.84075  1.0000
  H   H1086     1.0  0.62117  0.68537  0.85710  1.0000
  H   H1087     1.0  0.63043  0.66913  0.91473  1.0000
  C   C911      1.0  0.74880  0.59824  0.71690  1.0000
  H   H1088     1.0  0.97478  0.79694  0.94196  1.0000
  H   H1089     1.0  0.63442  0.58208  0.85358  1.0000
  Fe  Fe123     1.0  0.58645  0.52625  0.97355  1.0000
  C   C912      1.0  0.76693  0.89469  0.68239  1.0000
  C   C913      1.0  0.76726  0.80702  0.87899  1.0000
  C   C914      1.0  0.76392  0.77731  0.88956  1.0000
  C   C915      1.0  0.74532  0.75545  0.87017  1.0000
  C   C916      1.0  0.72940  0.76306  0.84017  1.0000
  C   C917      1.0  0.73211  0.79288  0.82975  1.0000
  C   C918      1.0  0.75104  0.81474  0.84908  1.0000
  H   H1090     1.0  0.77586  0.77108  0.91262  1.0000
  H   H1091     1.0  0.74325  0.73246  0.87847  1.0000
  H   H1092     1.0  0.72003  0.79899  0.80670  1.0000
  H   H1093     1.0  0.75338  0.83763  0.84066  1.0000
  C   C919      1.0  0.84219  0.93602  0.82345  1.0000
  H   H1094     1.0  0.52751  0.84917  0.67965  1.0000
  H   H1095     1.0  0.62492  0.57225  0.76374  1.0000
  C   C920      1.0  0.97388  0.83488  0.85131  1.0000
  H   H1096     1.0  0.84083  0.60635  0.75340  1.0000
  C   C921      1.0  0.57661  0.56113  0.85359  1.0000
  N   N60       1.0  0.61376  0.64022  0.87545  1.0000
  N   N61       1.0  0.88356  0.76432  0.85674  1.0000
  C   C922      1.0  0.84892  0.77185  0.83553  1.0000
  Fe  Fe124     1.0  0.86243  0.95334  0.73637  1.0000
  H   H1097     1.0  0.69325  0.53689  0.72839  1.0000
  C   C923      1.0  0.91472  0.78833  0.85432  1.0000
  C   C924      1.0  0.90692  0.81752  0.86664  1.0000
  C   C925      1.0  0.95276  0.78401  0.83889  1.0000
  C   C926      1.0  0.52867  0.80099  0.68473  1.0000
  H   H1098     1.0  0.81863  0.87267  0.70376  1.0000
  C   C927      1.0  0.85854  0.89765  0.86116  1.0000
  H   H1099     1.0  0.82426  0.75465  0.83683  1.0000
  H   H1100     1.0  0.66320  0.62831  0.84413  1.0000
  H   H1101     1.0  0.85884  0.77349  0.81033  1.0000
  H   H1102     1.0  0.87561  0.71629  0.85125  1.0000
  H   H1103     1.0  0.85069  0.92044  0.80383  1.0000
  H   H1104     1.0  0.87796  0.82296  0.87734  1.0000
  H   H1105     1.0  0.85135  0.78214  0.89765  1.0000
  H   H1106     1.0  0.88586  0.90948  0.87072  1.0000
  H   H1107     1.0  0.58888  0.53981  0.84556  1.0000
  C   C928      1.0  0.78464  0.59535  0.77702  1.0000
  H   H1108     1.0  0.96166  0.76279  0.82853  1.0000
  C   C929      1.0  0.65780  0.57695  0.76821  1.0000
  H   H1109     1.0  0.70837  0.82190  0.70272  1.0000
  C   C930      1.0  0.65767  0.63441  0.86937  1.0000
  C   C931      1.0  0.60998  0.64987  0.90908  1.0000
  H   H1110     1.0  0.66964  0.61617  0.88499  1.0000
  H   H1111     1.0  0.67031  0.55673  0.78049  1.0000
  C   C932      1.0  0.53564  0.65124  0.77823  1.0000
  N   N62       1.0  0.82663  0.91957  0.85165  1.0000
  Fe  Fe125     1.0  0.81549  0.48261  0.68769  1.0000
  C   C933      1.0  0.98158  0.80711  0.83729  1.0000
  C   C934      1.0  0.51042  0.77382  0.67523  1.0000
  S   S252      1.0  0.65386  0.59460  0.98992  1.0000
  H   H1112     1.0  0.52060  0.60507  0.76786  1.0000
  H   H1113     1.0  0.79875  0.59398  0.80031  1.0000
  H   H1114     1.0  0.89397  0.75850  0.90690  1.0000
  H   H1115     1.0  0.84684  0.74279  0.89291  1.0000
  H   H1116     1.0  0.78040  0.56383  0.87460  1.0000
  H   H1117     1.0  0.81868  0.95130  0.81333  1.0000
  S   S253      1.0  0.56838  0.80296  0.71316  1.0000
  C   C935      1.0  0.78956  0.90296  0.84173  1.0000
  H   H1118     1.0  0.72665  0.58380  0.79488  1.0000
  H   H1119     1.0  0.64451  0.84351  0.72036  1.0000
  C   C936      1.0  0.98313  0.77657  0.92958  1.0000
  H   H1120     1.0  0.96514  0.70124  0.93019  1.0000
  H   H1121     1.0  0.67672  0.65466  0.87426  1.0000
  H   H1122     1.0  0.60281  0.86281  0.70245  1.0000
  C   C937      1.0  0.72376  0.59060  0.74318  1.0000
  H   H1123     1.0  0.78912  0.53917  0.82206  1.0000
  Fe  Fe126     1.0  0.58647  0.59352  0.98141  1.0000
  H   H1124     1.0  0.99697  0.85232  0.85096  1.0000
  H   H1125     1.0  0.77752  0.88843  0.86109  1.0000
  H   H1126     1.0  0.61787  0.63114  0.92560  1.0000
  S   S254      1.0  0.85544  0.50259  0.77286  1.0000
  H   H1127     1.0  0.94781  0.85932  0.75819  1.0000
  C   C938      1.0  0.70266  0.86626  0.68112  1.0000
  C   C939      1.0  0.89902  0.73411  0.84762  1.0000
  H   H1128     1.0  0.97801  0.89978  0.70818  1.0000
  Fe  Fe127     1.0  0.79076  0.50164  0.75499  1.0000
  C   C940      1.0  0.54471  0.61554  0.87533  1.0000
  C   C941      1.0  0.93654  0.84013  0.86583  1.0000
  H   H1129     1.0  0.93711  0.46719  0.79079  1.0000
  H   H1130     1.0  0.50461  0.68937  0.99920  1.0000
  H   H1131     1.0  0.90733  0.73306  0.82204  1.0000
  C   C942      1.0  0.60094  0.66536  0.85448  1.0000
  C   C943      1.0  0.80835  0.60245  0.75069  1.0000
  C   C944      1.0  0.75563  0.55091  0.86445  1.0000
  C   C945      1.0  0.60252  0.58576  0.85832  1.0000
  H   H1132     1.0  0.84783  0.88172  0.87968  1.0000
  C   C946      1.0  0.67664  0.55634  0.71772  1.0000
  H   H1133     1.0  0.52120  0.75276  0.68500  1.0000
  H   H1134     1.0  0.56946  0.67312  0.85969  1.0000
  C   C947      1.0  0.78675  0.87070  0.69708  1.0000
  H   H1135     1.0  0.76476  0.91888  0.83484  1.0000
  H   H1136     1.0  0.53068  0.63614  0.88348  1.0000
  H   H1137     1.0  0.93072  0.86175  0.87674  1.0000
  H   H1138     1.0  0.78063  0.82575  0.71528  1.0000
  H   H1139     1.0  0.79560  0.88800  0.82106  1.0000
  C   C948      1.0  0.50512  0.49033  0.93900  1.0000
  N   N63       1.0  0.65825  0.86392  0.67499  1.0000
  H   H1140     1.0  0.62588  0.60467  0.71942  1.0000
  H   H1141     1.0  0.95894  0.51558  0.69504  1.0000
  H   H1142     1.0  0.86988  0.94938  0.82934  1.0000
  C   C949      1.0  0.96365  0.59057  0.67977  1.0000
  H   H1143     1.0  0.64432  0.54942  0.71427  1.0000
  N   N64       1.0  0.68010  0.58334  0.73826  1.0000
  C   C950      1.0  0.51349  0.62452  0.78226  1.0000
  H   H1144     1.0  0.78344  0.91531  0.67778  1.0000
  H   H1145     1.0  0.80340  0.47604  0.83239  1.0000
  H   H1146     1.0  0.51514  0.54440  0.85640  1.0000
  C   C951      1.0  0.96881  0.53647  0.68444  1.0000
  H   H1147     1.0  0.79117  0.50217  0.99447  1.0000
  S   S255      1.0  0.55149  0.63747  0.98166  1.0000
  Fe  Fe128     1.0  0.88907  0.85213  0.99373  1.0000
  C   C952      1.0  0.53506  0.56360  0.85982  1.0000
  H   H1148     1.0  0.80909  0.60959  0.70032  1.0000
  C   C953      1.0  0.51917  0.59075  0.87066  1.0000
  H   H1149     1.0  0.68959  0.56010  0.69369  1.0000
  C   C954      1.0  0.63650  0.86361  0.70580  1.0000
  S   S256      1.0  0.92402  0.89551  0.00087  1.0000
  C   C955      1.0  0.76529  0.84444  0.70374  1.0000
  H   H1150     1.0  0.94942  0.61161  0.68645  1.0000
  C   C956      1.0  0.98960  0.92984  0.80124  1.0000
  C   C957      1.0  0.80399  0.92678  0.90823  1.0000
  C   C958      1.0  0.81641  0.93939  0.87878  1.0000
  C   C959      1.0  0.51396  0.82810  0.67233  1.0000
  H   H1151     1.0  0.65416  0.81519  0.67214  1.0000
  C   C960      1.0  0.79342  0.94497  0.93401  1.0000
  H   H1152     1.0  0.78411  0.93473  0.95623  1.0000
