data_image0
_chemical_formula_structural       FeSHFeS2FeHFeS3FeS2FeS2FeSFeCS2CHFeS2CHFeS3C2NC6H4C6H4C6H4CH3CH2CHCHCHCHSCH3CNFeHSC2H5CH2SC3H2CH2CHCH7CH4CNHCH2C3H2CH7C2HC2S2CH2CHFeH2C2HNCH2CH4C2SC2H2CH2CHCSHNC2H2CHC2H5C3HC3HC2HNHCHC3H5C3H3CH3CH2CH3CHC2HCNHCH3CH4CHC4HC5HCH5FeS2FeS2FeSFeS3FeS2FeS2FeSFeS3FeS2FeS2H2CH4C7H4SCH3C6H4C6H12NC4HCH2CHCHSC2SHFeH5C2NC8H5CH4CH2CNH3CHC2H6SCHCH2CSH3C2HFeSFeSFeS3FeS2FeS2C4H2C6H4C6H4NHS2FeS2FeSFeS2C2H2C5H4C4HC2HC2HNC4NC2H2CH2CH2CH2CH6C2H4CHNC5HC2H11CHC2H3NC6HCH11C2H3C3HC2HCHCH2C3H2CH5CHCNC3HCHCHCH3CH2C3NHCHC2H5C4HFeS2FeSFeS3FeS2FeHFeS3CHC5H3C5H5C5H4FeS2FeS2H2C2H3C6H2CHC6H2CH4C2HCH3NHCHCHNC6HCH10CHCH4CHC6NH2C3H4CHNC5H7C2SH2CH3CH6C4H3C2HCHCHFeS2FeS2FeSFeS3FeS2FeS2FeSFeS3H3CFeS2H3CFeS2CH5C6H4C6H4C6H4CH5CHC2H6CH2C2H3CHNHC3SCNHCNH3NHFeC2H3C3H5CHCHNCHCHCH2C2H2C2HC2H3CH4C2HSHC5HCH4CH6NHCH2C5FeHSCH3C2H2CH6C5H2CHCHCHC5HCHCHCH4C2HCHCH2C2HC3H5CHCH2CFeS2FeS2FeSFeS3FeS2FeS2FeSFeHS2FeS2HCH2C2FeS2C2H3CHFeHC5HC8H5SH3C6H6NC9H14CHNH2NH2SC3H2C2HCSH6CHFeHNC9H7FeH2CH2CHCHCHC3HCH2SHNC
_chemical_formula_sum              "Fe64 S128 H576 C480 N32"
_cell_length_a       48.1243
_cell_length_b       44.5549
_cell_length_c       34.2584
_cell_angle_alpha    89.3297
_cell_angle_beta     90.0365
_cell_angle_gamma    90.2918

_space_group_name_H-M_alt    "P 1"
_space_group_IT_number       1

loop_
  _space_group_symop_operation_xyz
  'x, y, z'

loop_
  _atom_site_type_symbol
  _atom_site_label
  _atom_site_symmetry_multiplicity
  _atom_site_fract_x
  _atom_site_fract_y
  _atom_site_fract_z
  _atom_site_occupancy
  Fe  Fe1       1.0  0.24968  0.45368  0.32583  1.0000
  S   S1        1.0  0.25961  0.46309  0.26228  1.0000
  H   H1        1.0  0.20140  0.39903  0.39605  1.0000
  Fe  Fe2       1.0  0.25719  0.38539  0.31518  1.0000
  S   S2        1.0  0.26781  0.39009  0.25170  1.0000
  S   S3        1.0  0.25632  0.34226  0.35165  1.0000
  Fe  Fe3       1.0  0.29445  0.42945  0.26930  1.0000
  H   H2        1.0  0.14012  0.47424  0.05017  1.0000
  Fe  Fe4       1.0  0.23193  0.42307  0.24931  1.0000
  S   S4        1.0  0.20124  0.41877  0.19804  1.0000
  S   S5        1.0  0.28584  0.42267  0.33361  1.0000
  S   S6        1.0  0.21998  0.41575  0.31209  1.0000
  Fe  Fe5       1.0  0.27750  0.10512  0.35298  1.0000
  S   S7        1.0  0.27165  0.07598  0.30048  1.0000
  S   S8        1.0  0.27761  0.08713  0.41658  1.0000
  Fe  Fe6       1.0  0.27512  0.16361  0.30287  1.0000
  S   S9        1.0  0.26793  0.13698  0.24834  1.0000
  S   S10       1.0  0.28089  0.21248  0.28286  1.0000
  Fe  Fe7       1.0  0.23808  0.10880  0.28303  1.0000
  S   S11       1.0  0.19681  0.08790  0.26323  1.0000
  Fe  Fe8       1.0  0.30219  0.10704  0.26996  1.0000
  C   C1        1.0  0.20212  0.41745  0.41779  1.0000
  S   S12       1.0  0.24264  0.13707  0.33654  1.0000
  S   S13       1.0  0.31060  0.13437  0.32351  1.0000
  C   C2        1.0  0.07065  0.29053  0.13100  1.0000
  H   H3        1.0  0.07380  0.38108  0.23754  1.0000
  Fe  Fe9       1.0  0.05303  0.13316  0.14536  1.0000
  S   S14       1.0  0.09408  0.14866  0.17349  1.0000
  S   S15       1.0  0.05143  0.13788  0.07999  1.0000
  C   C3        1.0  0.11629  0.22096  0.13289  1.0000
  H   H4        1.0  0.05486  0.33556  0.13544  1.0000
  Fe  Fe10      1.0  0.03689  0.43716  0.13959  1.0000
  S   S16       1.0  0.07191  0.45012  0.18178  1.0000
  S   S17       1.0  0.03786  0.40786  0.08665  1.0000
  S   S18       1.0  0.33177  0.09301  0.22098  1.0000
  C   C4        1.0  0.18341  0.03230  0.41232  1.0000
  C   C5        1.0  0.03637  0.40296  0.25565  1.0000
  N   N1        1.0  0.09061  0.23864  0.12600  1.0000
  C   C6        1.0  0.16841  0.10520  0.23837  1.0000
  C   C7        1.0  0.14522  0.08759  0.22792  1.0000
  C   C8        1.0  0.12235  0.10031  0.20791  1.0000
  C   C9        1.0  0.12233  0.13092  0.19822  1.0000
  C   C10       1.0  0.14559  0.14846  0.20856  1.0000
  C   C11       1.0  0.16849  0.13573  0.22839  1.0000
  H   H5        1.0  0.14494  0.06392  0.23530  1.0000
  H   H6        1.0  0.10467  0.08649  0.20022  1.0000
  H   H7        1.0  0.14586  0.17216  0.20138  1.0000
  H   H8        1.0  0.18610  0.14962  0.23620  1.0000
  C   C12       1.0  0.10714  0.43845  0.18719  1.0000
  C   C13       1.0  0.12199  0.44728  0.22063  1.0000
  C   C14       1.0  0.15047  0.44047  0.22517  1.0000
  C   C15       1.0  0.16462  0.42498  0.19602  1.0000
  C   C16       1.0  0.14960  0.41561  0.16292  1.0000
  C   C17       1.0  0.12103  0.42212  0.15858  1.0000
  H   H9        1.0  0.11154  0.45997  0.24294  1.0000
  H   H10       1.0  0.16166  0.44797  0.25068  1.0000
  H   H11       1.0  0.16033  0.40374  0.14011  1.0000
  H   H12       1.0  0.11004  0.41523  0.13264  1.0000
  C   C18       1.0  0.26107  0.30600  0.33161  1.0000
  C   C19       1.0  0.26722  0.30215  0.29209  1.0000
  C   C20       1.0  0.27261  0.27327  0.27767  1.0000
  C   C21       1.0  0.27141  0.24779  0.30230  1.0000
  C   C22       1.0  0.26468  0.25153  0.34166  1.0000
  C   C23       1.0  0.25972  0.28053  0.35625  1.0000
  H   H13       1.0  0.26812  0.32143  0.27269  1.0000
  H   H14       1.0  0.27793  0.27064  0.24723  1.0000
  H   H15       1.0  0.26391  0.23219  0.36103  1.0000
  H   H16       1.0  0.25502  0.28324  0.38687  1.0000
  C   C24       1.0  0.25736  0.06447  0.19835  1.0000
  H   H17       1.0  0.30967  0.34859  0.30860  1.0000
  H   H18       1.0  0.17455  0.09202  0.34814  1.0000
  H   H19       1.0  0.09981  0.24810  0.06555  1.0000
  C   C25       1.0  0.27762  0.05102  0.44059  1.0000
  H   H20       1.0  0.19719  0.03142  0.06521  1.0000
  H   H21       1.0  0.32825  0.24907  0.33480  1.0000
  C   C26       1.0  0.21446  0.05254  0.36304  1.0000
  H   H22       1.0  0.14976  0.07775  0.38262  1.0000
  C   C27       1.0  0.16781  0.47704  0.09831  1.0000
  H   H23       1.0  0.13782  0.32217  0.17777  1.0000
  C   C28       1.0  0.23173  0.06908  0.13781  1.0000
  H   H24       1.0  0.09432  0.45797  0.04839  1.0000
  C   C29       1.0  0.20852  0.08539  0.15168  1.0000
  H   H25       1.0  0.04978  0.33341  0.22144  1.0000
  S   S19       1.0  0.34143  0.43587  0.25986  1.0000
  C   C30       1.0  0.28149  0.05407  0.13905  1.0000
  H   H26       1.0  0.28515  0.48074  0.41507  1.0000
  H   H27       1.0  0.13426  0.23045  0.11640  1.0000
  H   H28       1.0  0.19189  0.46489  0.45543  1.0000
  C   C31       1.0  0.17177  0.48581  0.13679  1.0000
  N   N2        1.0  0.22593  0.41400  0.44512  1.0000
  Fe  Fe11      1.0  0.02305  0.09746  0.07935  1.0000
  H   H29       1.0  0.04704  0.42384  0.26212  1.0000
  S   S20       1.0  0.01548  0.16248  0.15480  1.0000
  C   C32       1.0  0.06797  0.22405  0.14872  1.0000
  C   C33       1.0  0.08382  0.23657  0.08382  1.0000
  H   H30       1.0  0.07224  0.22469  0.18065  1.0000
  H   H31       1.0  0.04752  0.23472  0.14347  1.0000
  H   H32       1.0  0.13550  0.26934  0.16140  1.0000
  H   H33       1.0  0.21874  0.07789  0.43312  1.0000
  H   H34       1.0  0.25474  0.43632  0.40679  1.0000
  C   C34       1.0  0.17821  0.06299  0.10369  1.0000
  H   H35       1.0  0.18444  0.46562  0.08327  1.0000
  H   H36       1.0  0.21990  0.07209  0.34407  1.0000
  S   S21       1.0  0.02706  0.09096  0.14475  1.0000
  C   C35       1.0  0.11990  0.49600  0.09933  1.0000
  C   C36       1.0  0.26832  0.10461  0.15279  1.0000
  C   C37       1.0  0.33149  0.35692  0.30984  1.0000
  H   H37       1.0  0.11373  0.19725  0.12332  1.0000
  H   H38       1.0  0.06340  0.24669  0.07651  1.0000
  C   C38       1.0  0.28002  0.02402  0.42028  1.0000
  H   H39       1.0  0.28305  0.02457  0.38901  1.0000
  H   H40       1.0  0.08216  0.21278  0.07423  1.0000
  C   C39       1.0  0.09665  0.33221  0.15748  1.0000
  H   H41       1.0  0.32308  0.30299  0.33187  1.0000
  C   C40       1.0  0.00910  0.34978  0.23615  1.0000
  H   H42       1.0  0.12156  0.21955  0.16453  1.0000
  H   H43       1.0  0.28489  0.05979  0.10771  1.0000
  H   H44       1.0  0.33593  0.42167  0.17624  1.0000
  H   H45       1.0  0.31775  0.20746  0.21366  1.0000
  H   H46       1.0  0.31527  0.33872  0.23815  1.0000
  H   H47       1.0  0.20928  0.03346  0.34361  1.0000
  H   H48       1.0  0.06018  0.47214  0.05577  1.0000
  C   C41       1.0  0.15028  0.49961  0.15685  1.0000
  H   H49       1.0  0.24376  0.07986  0.21477  1.0000
  H   H50       1.0  0.22103  0.36584  0.44307  1.0000
  H   H51       1.0  0.30188  0.05766  0.15400  1.0000
  H   H52       1.0  0.25388  0.12015  0.16760  1.0000
  C   C42       1.0  0.02102  0.03715  0.99905  1.0000
  N   N3        1.0  0.25931  0.07280  0.15640  1.0000
  H   H53       1.0  0.18314  0.08903  0.43744  1.0000
  C   C43       1.0  0.16806  0.07144  0.36472  1.0000
  H   H54       1.0  0.21044  0.10046  0.17607  1.0000
  H   H55       1.0  0.27664  0.02971  0.14213  1.0000
  C   C44       1.0  0.03796  0.35219  0.23233  1.0000
  C   C45       1.0  0.22695  0.04950  0.10596  1.0000
  C   C46       1.0  0.33748  0.29321  0.31153  1.0000
  H   H56       1.0  0.09804  0.35579  0.16492  1.0000
  H   H57       1.0  0.19121  0.48094  0.15161  1.0000
  C   C47       1.0  0.12463  0.50456  0.13869  1.0000
  H   H58       1.0  0.05144  0.28276  0.11831  1.0000
  H   H59       1.0  0.18191  0.41696  0.43352  1.0000
  H   H60       1.0  0.25080  0.39677  0.39818  1.0000
  H   H61       1.0  0.06657  0.50261  0.13033  1.0000
  H   H62       1.0  0.33028  0.38177  0.30655  1.0000
  H   H63       1.0  0.26964  0.11182  0.12164  1.0000
  H   H64       1.0  0.15770  0.06060  0.09091  1.0000
  C   C48       1.0  0.09313  0.27056  0.13731  1.0000
  C   C49       1.0  0.08117  0.47029  0.06939  1.0000
  H   H65       1.0  0.34001  0.35226  0.33948  1.0000
  C   C50       1.0  0.11744  0.28277  0.15487  1.0000
  C   C51       1.0  0.27295  0.49819  0.42831  1.0000
  S   S22       1.0  0.23469  0.49060  0.36738  1.0000
  S   S23       1.0  0.03263  0.05580  0.04221  1.0000
  C   C52       1.0  0.07243  0.32085  0.14083  1.0000
  H   H66       1.0  0.20524  0.10483  0.39988  1.0000
  H   H67       1.0  0.24877  0.04140  0.20242  1.0000
  C   C53       1.0  0.14233  0.48206  0.07972  1.0000
  H   H68       1.0  0.22365  0.02806  0.44112  1.0000
  Fe  Fe12      1.0  0.01297  0.16532  0.08955  1.0000
  H   H69       1.0  0.01563  0.26964  0.02470  1.0000
  H   H70       1.0  0.28912  0.10833  0.16628  1.0000
  C   C54       1.0  0.18225  0.08238  0.13475  1.0000
  C   C55       1.0  0.19980  0.08381  0.41611  1.0000
  H   H71       1.0  0.27801  0.06524  0.21301  1.0000
  N   N4        1.0  0.19101  0.05953  0.38939  1.0000
  C   C56       1.0  0.11905  0.31320  0.16462  1.0000
  H   H72       1.0  0.06542  0.20005  0.14071  1.0000
  H   H73       1.0  0.08747  0.07252  0.96826  1.0000
  C   C57       1.0  0.25163  0.41410  0.42134  1.0000
  H   H74       1.0  0.07921  0.45593  0.09608  1.0000
  H   H75       1.0  0.23368  0.04665  0.37930  1.0000
  H   H76       1.0  0.16486  0.09504  0.14606  1.0000
  H   H77       1.0  0.20373  0.43879  0.40056  1.0000
  C   C58       1.0  0.15687  0.01822  0.40988  1.0000
  C   C59       1.0  0.20309  0.01876  0.43780  1.0000
  S   S24       1.0  0.01137  0.20952  0.05551  1.0000
  C   C60       1.0  0.20049  0.04659  0.08932  1.0000
  C   C61       1.0  0.05153  0.37886  0.24159  1.0000
  H   H78       1.0  0.33530  0.24924  0.17230  1.0000
  H   H79       1.0  0.27054  0.40932  0.43886  1.0000
  C   C62       1.0  0.33829  0.20622  0.20063  1.0000
  H   H80       1.0  0.14057  0.02670  0.39119  1.0000
  H   H81       1.0  0.24323  0.03608  0.09351  1.0000
  C   C63       1.0  0.33573  0.35035  0.24075  1.0000
  H   H82       1.0  0.16155  0.05501  0.34218  1.0000
  C   C64       1.0  0.00881  0.27121  0.05470  1.0000
  S   S25       1.0  0.01505  0.45907  0.99737  1.0000
  H   H83       1.0  0.33197  0.37486  0.23688  1.0000
  N   N5        1.0  0.09282  0.50008  0.07936  1.0000
  C   C65       1.0  0.03528  0.01140  0.98665  1.0000
  C   C66       1.0  0.34031  0.26201  0.31370  1.0000
  H   H84       1.0  0.06944  0.48046  0.95911  1.0000
  H   H85       1.0  0.11708  0.03117  0.85485  1.0000
  C   C67       1.0  0.10039  0.03313  0.83257  1.0000
  H   H86       1.0  0.10084  0.05647  0.82062  1.0000
  C   C68       1.0  0.27393  0.04944  0.48143  1.0000
  C   C69       1.0  0.12942  0.49443  0.90980  1.0000
  H   H87       1.0  0.33757  0.00883  0.78646  1.0000
  H   H88       1.0  0.02561  0.06328  0.85336  1.0000
  H   H89       1.0  0.05143  0.04686  0.80017  1.0000
  H   H90       1.0  0.11516  0.45745  0.94567  1.0000
  H   H91       1.0  0.26495  0.42039  0.50319  1.0000
  C   C70       1.0  0.06482  0.04730  0.87912  1.0000
  C   C71       1.0  0.24934  0.43772  0.50291  1.0000
  C   C72       1.0  0.11033  0.47946  0.93373  1.0000
  H   H92       1.0  0.26889  0.46026  0.55130  1.0000
  C   C73       1.0  0.22767  0.43795  0.47471  1.0000
  C   C74       1.0  0.08470  0.49247  0.94143  1.0000
  C   C75       1.0  0.23252  0.48352  0.53166  1.0000
  H   H93       1.0  0.19656  0.50303  0.50478  1.0000
  C   C76       1.0  0.25173  0.46029  0.53076  1.0000
  C   C77       1.0  0.05280  0.02470  0.81532  1.0000
  H   H94       1.0  0.10052  0.03790  0.91665  1.0000
  N   N6        1.0  0.07257  0.02554  0.84863  1.0000
  H   H95       1.0  0.27206  0.07001  0.49765  1.0000
  C   C78       1.0  0.07475  0.07085  0.94222  1.0000
  H   H96       1.0  0.26944  0.02090  0.53291  1.0000
  C   C79       1.0  0.08186  0.05093  0.91265  1.0000
  C   C80       1.0  0.21093  0.48436  0.50462  1.0000
  C   C81       1.0  0.20851  0.46212  0.47631  1.0000
  H   H97       1.0  0.03160  0.01771  0.82508  1.0000
  H   H98       1.0  0.20444  0.38356  0.48395  1.0000
  H   H99       1.0  0.14920  0.48403  0.90334  1.0000
  H   H100      1.0  0.24145  0.37858  0.48293  1.0000
  H   H101      1.0  0.33563  0.00917  0.71449  1.0000
  C   C82       1.0  0.27242  0.02151  0.50162  1.0000
  C   C83       1.0  0.05074  0.08799  0.93913  1.0000
  C   C84       1.0  0.04033  0.06501  0.87702  1.0000
  H   H102      1.0  0.10629  0.01771  0.80849  1.0000
  H   H103      1.0  0.01454  0.09791  0.90488  1.0000
  H   H104      1.0  0.23493  0.50147  0.55257  1.0000
  C   C85       1.0  0.03363  0.08514  0.90658  1.0000
  H   H105      1.0  0.05932  0.00816  0.79292  1.0000
  H   H106      1.0  0.04491  0.10277  0.96267  1.0000
  H   H107      1.0  0.00927  0.47341  0.91549  1.0000
  C   C86       1.0  0.22307  0.38426  0.46470  1.0000
  H   H108      1.0  0.30158  0.50456  0.47618  1.0000
  H   H109      1.0  0.10862  0.51415  0.15665  1.0000
  C   C87       1.0  0.26052  0.60134  0.38300  1.0000
  H   H110      1.0  0.28012  0.97551  0.42426  1.0000
  H   H111      1.0  0.10617  0.54012  0.04904  1.0000
  H   H112      1.0  0.24244  0.61541  0.38028  1.0000
  C   C88       1.0  0.23277  0.53039  0.42855  1.0000
  H   H113      1.0  0.30628  0.67176  0.45078  1.0000
  C   C89       1.0  0.25674  0.65218  0.43294  1.0000
  C   C90       1.0  0.07184  0.51578  0.10343  1.0000
  H   H114      1.0  0.21345  0.53765  0.41544  1.0000
  C   C91       1.0  0.28197  0.60691  0.41066  1.0000
  N   N7        1.0  0.28148  0.63262  0.43770  1.0000
  H   H115      1.0  0.13033  0.98191  0.42970  1.0000
  C   C92       1.0  0.09657  0.51789  0.04284  1.0000
  H   H116      1.0  0.32604  0.63947  0.43876  1.0000
  H   H117      1.0  0.07923  0.53845  0.11208  1.0000
  H   H118      1.0  0.05190  0.51896  0.08739  1.0000
  C   C93       1.0  0.30654  0.65164  0.43166  1.0000
  H   H119      1.0  0.30800  0.65961  0.40081  1.0000
  H   H120      1.0  0.23715  0.63955  0.43900  1.0000
  H   H121      1.0  0.32205  0.54561  0.38920  1.0000
  H   H122      1.0  0.25575  0.66230  0.40313  1.0000
  C   C94       1.0  0.27839  0.99611  0.44046  1.0000
  H   H123      1.0  0.07634  0.52190  0.02776  1.0000
  C   C95       1.0  0.15068  0.99233  0.43185  1.0000
  C   C96       1.0  0.24795  0.50720  0.41096  1.0000
  C   C97       1.0  0.17059  0.97967  0.45653  1.0000
  C   C98       1.0  0.19678  0.99285  0.45942  1.0000
  H   H124      1.0  0.24471  0.57207  0.33820  1.0000
  C   C99       1.0  0.26160  0.57657  0.35830  1.0000
  C   C100      1.0  0.28235  0.51195  0.46290  1.0000
  C   C101      1.0  0.28388  0.55680  0.36024  1.0000
  C   C102      1.0  0.30430  0.58619  0.41191  1.0000
  C   C103      1.0  0.30518  0.56158  0.38700  1.0000
  H   H125      1.0  0.28415  0.53714  0.34183  1.0000
  C   C104      1.0  0.24227  0.54430  0.46301  1.0000
  H   H126      1.0  0.05292  0.00349  0.00336  1.0000
  H   H127      1.0  0.32099  0.58846  0.43281  1.0000
  H   H128      1.0  0.11000  0.50641  0.02137  1.0000
  H   H129      1.0  0.25710  0.67121  0.45389  1.0000
  H   H130      1.0  0.15319  0.50539  0.18726  1.0000
  Fe  Fe13      1.0  0.26820  0.93641  0.56641  1.0000
  S   S26       1.0  0.25216  0.95665  0.62240  1.0000
  S   S27       1.0  0.27175  0.95829  0.50470  1.0000
  Fe  Fe14      1.0  0.27587  0.87344  0.60559  1.0000
  S   S28       1.0  0.26014  0.89023  0.66281  1.0000
  S   S29       1.0  0.29239  0.82590  0.61506  1.0000
  Fe  Fe15      1.0  0.22669  0.91402  0.62945  1.0000
  S   S30       1.0  0.18093  0.90367  0.64366  1.0000
  Fe  Fe16      1.0  0.28719  0.93059  0.65161  1.0000
  S   S31       1.0  0.31372  0.94297  0.70458  1.0000
  S   S32       1.0  0.24087  0.89485  0.57210  1.0000
  S   S33       1.0  0.30463  0.91291  0.59577  1.0000
  Fe  Fe17      1.0  0.26701  0.58912  0.56585  1.0000
  S   S34       1.0  0.25586  0.58250  0.62973  1.0000
  S   S35       1.0  0.27971  0.55061  0.52519  1.0000
  Fe  Fe18      1.0  0.26498  0.65784  0.57274  1.0000
  S   S36       1.0  0.25419  0.65615  0.63613  1.0000
  S   S37       1.0  0.26507  0.70053  0.53588  1.0000
  Fe  Fe19      1.0  0.28693  0.61995  0.64073  1.0000
  S   S38       1.0  0.31691  0.62402  0.69252  1.0000
  Fe  Fe20      1.0  0.22411  0.61935  0.62058  1.0000
  S   S39       1.0  0.17753  0.62652  0.63144  1.0000
  S   S40       1.0  0.29977  0.62451  0.57793  1.0000
  S   S41       1.0  0.23336  0.62305  0.55613  1.0000
  Fe  Fe21      1.0  0.04250  0.61150  0.77382  1.0000
  S   S42       1.0  0.03401  0.63764  0.82848  1.0000
  S   S43       1.0  0.08815  0.59783  0.76570  1.0000
  Fe  Fe22      1.0  0.05234  0.93253  0.78774  1.0000
  S   S44       1.0  0.04655  0.92182  0.85165  1.0000
  S   S45       1.0  0.09562  0.95058  0.77243  1.0000
  H   H131      1.0  0.12604  0.79195  0.74532  1.0000
  H   H132      1.0  0.26350  0.60600  0.48384  1.0000
  C   C105      1.0  0.19326  0.70884  0.66238  1.0000
  H   H133      1.0  0.10556  0.79043  0.80570  1.0000
  H   H134      1.0  0.06000  0.83227  0.77745  1.0000
  H   H135      1.0  0.04722  0.54875  0.86676  1.0000
  H   H136      1.0  0.05948  0.57901  0.83704  1.0000
  C   C106      1.0  0.10439  0.81310  0.81872  1.0000
  C   C107      1.0  0.15333  0.61868  0.66970  1.0000
  C   C108      1.0  0.12576  0.62872  0.66548  1.0000
  C   C109      1.0  0.10564  0.62292  0.69464  1.0000
  C   C110      1.0  0.11279  0.60675  0.72839  1.0000
  C   C111      1.0  0.14041  0.59686  0.73273  1.0000
  C   C112      1.0  0.16060  0.60286  0.70369  1.0000
  H   H137      1.0  0.11977  0.64076  0.63924  1.0000
  H   H138      1.0  0.08449  0.63055  0.69074  1.0000
  H   H139      1.0  0.14622  0.58427  0.75862  1.0000
  H   H140      1.0  0.18165  0.59492  0.70739  1.0000
  S   S46       1.0  0.01015  0.57571  0.78690  1.0000
  C   C113      1.0  0.07812  0.52048  0.92525  1.0000
  H   H141      1.0  0.11840  0.56717  0.83425  1.0000
  H   H142      1.0  0.30048  0.60847  0.48613  1.0000
  H   H143      1.0  0.10455  0.60225  0.84737  1.0000
  C   C114      1.0  0.15750  0.91764  0.67925  1.0000
  C   C115      1.0  0.13045  0.90546  0.68131  1.0000
  C   C116      1.0  0.11126  0.91525  0.70953  1.0000
  C   C117      1.0  0.11888  0.93746  0.73605  1.0000
  C   C118      1.0  0.14593  0.94960  0.73408  1.0000
  C   C119      1.0  0.16515  0.93976  0.70591  1.0000
  H   H144      1.0  0.12432  0.88832  0.66088  1.0000
  H   H145      1.0  0.09052  0.90582  0.71044  1.0000
  H   H146      1.0  0.15209  0.96679  0.75441  1.0000
  H   H147      1.0  0.18585  0.94931  0.70475  1.0000
  C   C120      1.0  0.28280  0.79157  0.59310  1.0000
  C   C121      1.0  0.28958  0.76462  0.61254  1.0000
  C   C122      1.0  0.28365  0.73666  0.59567  1.0000
  C   C123      1.0  0.27138  0.73538  0.55873  1.0000
  C   C124      1.0  0.26422  0.76229  0.53947  1.0000
  C   C125      1.0  0.26965  0.79031  0.55674  1.0000
  H   H148      1.0  0.29956  0.76533  0.64081  1.0000
  H   H149      1.0  0.28918  0.71611  0.61086  1.0000
  H   H150      1.0  0.25459  0.76152  0.51095  1.0000
  H   H151      1.0  0.26433  0.81090  0.54148  1.0000
  H   H152      1.0  0.14356  0.88407  0.77914  1.0000
  H   H153      1.0  0.23017  0.75599  0.63293  1.0000
  H   H154      1.0  0.19188  0.84181  0.62078  1.0000
  H   H155      1.0  0.16898  0.79246  0.70705  1.0000
  H   H156      1.0  0.23352  0.81075  0.63154  1.0000
  H   H157      1.0  0.14599  0.81783  0.61253  1.0000
  H   H158      1.0  0.22414  0.71294  0.59862  1.0000
  H   H159      1.0  0.14100  0.76353  0.61382  1.0000
  N   N8        1.0  0.10385  0.83742  0.78874  1.0000
  C   C126      1.0  0.18012  0.83753  0.72210  1.0000
  C   C127      1.0  0.08028  0.83185  0.76180  1.0000
  C   C128      1.0  0.09822  0.86599  0.80916  1.0000
  C   C129      1.0  0.13028  0.83778  0.76653  1.0000
  H   H160      1.0  0.31320  0.85433  0.68711  1.0000
  C   C130      1.0  0.26710  0.53503  0.48062  1.0000
  H   H161      1.0  0.07839  0.86491  0.82583  1.0000
  H   H162      1.0  0.19156  0.68388  0.66412  1.0000
  C   C131      1.0  0.11135  0.58026  0.85992  1.0000
  H   H163      1.0  0.23010  0.56176  0.47630  1.0000
  C   C132      1.0  0.32987  0.85468  0.70972  1.0000
  H   H164      1.0  0.12934  0.58487  0.87936  1.0000
  S   S47       1.0  0.01270  0.63908  0.73822  1.0000
  C   C133      1.0  0.02032  0.80177  0.83561  1.0000
  C   C134      1.0  0.02607  0.77445  0.85490  1.0000
  S   S48       1.0  0.02989  0.89118  0.76784  1.0000
  H   H165      1.0  0.03621  0.77466  0.88309  1.0000
  Fe  Fe23      1.0  0.02141  0.88216  0.83112  1.0000
  H   H166      1.0  0.19983  0.68352  0.59092  1.0000
  H   H167      1.0  0.07964  0.97803  0.84385  1.0000
  H   H168      1.0  0.08139  0.80953  0.74782  1.0000
  H   H169      1.0  0.11478  0.87135  0.83069  1.0000
  H   H170      1.0  0.07318  0.54227  0.83009  1.0000
  C   C135      1.0  0.06612  0.55830  0.85269  1.0000
  C   C136      1.0  0.09687  0.53627  0.90038  1.0000
  N   N9        1.0  0.18365  0.72062  0.62401  1.0000
  C   C137      1.0  0.15514  0.70875  0.61729  1.0000
  C   C138      1.0  0.20180  0.70840  0.59307  1.0000
  C   C139      1.0  0.18529  0.75387  0.62355  1.0000
  C   C140      1.0  0.16163  0.77253  0.61799  1.0000
  C   C141      1.0  0.21125  0.76860  0.62875  1.0000
  C   C142      1.0  0.16413  0.80387  0.61717  1.0000
  C   C143      1.0  0.21344  0.79993  0.62797  1.0000
  C   C144      1.0  0.18999  0.81751  0.62190  1.0000
  H   H171      1.0  0.14695  0.71592  0.58829  1.0000
  H   H172      1.0  0.14053  0.71569  0.64062  1.0000
  H   H173      1.0  0.15472  0.68374  0.61749  1.0000
  H   H174      1.0  0.19675  0.71827  0.56392  1.0000
  H   H175      1.0  0.16582  0.95958  0.47346  1.0000
  C   C145      1.0  0.13863  0.81210  0.74537  1.0000
  H   H176      1.0  0.21545  0.71427  0.66810  1.0000
  H   H177      1.0  0.18069  0.71805  0.68666  1.0000
  H   H178      1.0  0.03807  0.97580  0.94429  1.0000
  H   H179      1.0  0.07959  0.84921  0.73813  1.0000
  C   C146      1.0  0.16317  0.81210  0.72345  1.0000
  H   H180      1.0  0.34104  0.79645  0.71280  1.0000
  H   H181      1.0  0.05790  0.57825  0.92431  1.0000
  C   C147      1.0  0.14823  0.86325  0.76476  1.0000
  N   N10       1.0  0.08840  0.56478  0.88124  1.0000
  H   H182      1.0  0.19885  0.83786  0.70450  1.0000
  H   H183      1.0  0.33342  0.87861  0.71740  1.0000
  H   H184      1.0  0.07207  0.60816  0.89675  1.0000
  C   C148      1.0  0.02698  0.99569  0.95291  1.0000
  H   H185      1.0  0.09301  0.59029  0.93391  1.0000
  C   C149      1.0  0.07754  0.58614  0.91046  1.0000
  C   C150      1.0  0.17277  0.86289  0.74293  1.0000
  H   H186      1.0  0.12245  0.81579  0.83871  1.0000
  H   H187      1.0  0.05776  0.52925  0.93132  1.0000
  H   H188      1.0  0.09620  0.88514  0.78818  1.0000
  H   H189      1.0  0.08518  0.81300  0.83696  1.0000
  H   H190      1.0  0.18581  0.88281  0.74111  1.0000
  H   H191      1.0  0.05284  0.98816  0.87751  1.0000
  S   S49       1.0  0.02971  0.83609  0.85799  1.0000
  C   C151      1.0  0.01830  0.74678  0.83833  1.0000
  H   H192      1.0  0.02240  0.72593  0.85375  1.0000
  C   C152      1.0  0.27458  0.99451  0.48129  1.0000
  H   H193      1.0  0.32124  0.84314  0.73592  1.0000
  H   H194      1.0  0.08871  0.99291  0.89017  1.0000
  C   C153      1.0  0.28145  0.62133  0.47851  1.0000
  S   S50       1.0  0.01393  0.96120  0.78433  1.0000
  H   H195      1.0  0.13824  0.53227  0.87388  1.0000
  H   H196      1.0  0.28014  0.64005  0.49966  1.0000
  H   H197      1.0  0.33536  0.80573  0.66292  1.0000
  C   C154      1.0  0.07355  0.99491  0.86589  1.0000
  C   C155      1.0  0.12286  0.52235  0.89307  1.0000
  H   H198      1.0  0.21241  0.98289  0.47846  1.0000
  Fe  Fe24      1.0  0.51663  0.09298  0.07128  1.0000
  S   S51       1.0  0.51969  0.04951  0.03522  1.0000
  Fe  Fe25      1.0  0.50443  0.15974  0.08349  1.0000
  S   S52       1.0  0.48566  0.20352  0.06127  1.0000
  Fe  Fe26      1.0  0.48983  0.11459  0.14828  1.0000
  S   S53       1.0  0.46341  0.11152  0.20392  1.0000
  S   S54       1.0  0.47714  0.11827  0.08529  1.0000
  S   S55       1.0  0.50695  0.46271  0.11100  1.0000
  Fe  Fe27      1.0  0.52478  0.37845  0.09212  1.0000
  S   S56       1.0  0.51044  0.39509  0.15027  1.0000
  S   S57       1.0  0.54250  0.33108  0.09000  1.0000
  Fe  Fe28      1.0  0.47857  0.42218  0.11718  1.0000
  S   S58       1.0  0.43079  0.42301  0.12221  1.0000
  S   S59       1.0  0.49127  0.40267  0.05922  1.0000
  C   C156      1.0  0.50117  0.23888  0.07111  1.0000
  C   C157      1.0  0.52804  0.24114  0.08636  1.0000
  C   C158      1.0  0.54016  0.26958  0.09234  1.0000
  C   C159      1.0  0.52540  0.29605  0.08390  1.0000
  H   H199      1.0  0.53978  0.22098  0.09254  1.0000
  H   H200      1.0  0.56126  0.27102  0.10304  1.0000
  C   C160      1.0  0.36838  0.09857  0.21699  1.0000
  C   C161      1.0  0.38474  0.10767  0.24855  1.0000
  C   C162      1.0  0.41376  0.11123  0.24409  1.0000
  C   C163      1.0  0.42678  0.10620  0.20795  1.0000
  C   C164      1.0  0.41038  0.09745  0.17627  1.0000
  C   C165      1.0  0.38142  0.09351  0.18087  1.0000
  H   H201      1.0  0.37510  0.11150  0.27658  1.0000
  H   H202      1.0  0.42618  0.11791  0.26887  1.0000
  H   H203      1.0  0.42006  0.09324  0.14837  1.0000
  H   H204      1.0  0.36906  0.08634  0.15627  1.0000
  C   C166      1.0  0.40648  0.42565  0.16134  1.0000
  C   C167      1.0  0.41456  0.43216  0.19956  1.0000
  C   C168      1.0  0.39433  0.43521  0.22912  1.0000
  C   C169      1.0  0.66220  0.35108  0.26768  1.0000
  C   C170      1.0  0.35774  0.42450  0.18301  1.0000
  C   C171      1.0  0.37795  0.42175  0.15336  1.0000
  H   H205      1.0  0.43634  0.43537  0.20623  1.0000
  H   H206      1.0  0.47441  0.48748  0.03863  1.0000
  H   H207      1.0  0.58515  0.15635  0.26534  1.0000
  H   H208      1.0  0.37141  0.41674  0.12392  1.0000
  N   N11       1.0  0.43036  0.48638  0.02836  1.0000
  H   H209      1.0  0.52446  0.08130  0.30719  1.0000
  S   S60       1.0  0.52761  0.08650  0.13538  1.0000
  S   S61       1.0  0.51470  0.15729  0.14683  1.0000
  Fe  Fe29      1.0  0.55168  0.12974  0.12986  1.0000
  S   S62       1.0  0.59207  0.14598  0.15895  1.0000
  S   S63       1.0  0.54308  0.13504  0.06519  1.0000
  Fe  Fe30      1.0  0.52053  0.44231  0.05409  1.0000
  S   S64       1.0  0.52400  0.46453  0.99283  1.0000
  Fe  Fe31      1.0  0.54035  0.43358  0.13926  1.0000
  S   S65       1.0  0.56932  0.44425  0.19085  1.0000
  S   S66       1.0  0.55565  0.41604  0.08215  1.0000
  C   C172      1.0  0.49820  0.29382  0.06977  1.0000
  C   C173      1.0  0.48625  0.26534  0.06309  1.0000
  H   H210      1.0  0.48670  0.31401  0.06290  1.0000
  H   H211      1.0  0.46550  0.26383  0.05109  1.0000
  C   C174      1.0  0.36580  0.43156  0.22108  1.0000
  C   C175      1.0  0.64332  0.08711  0.21672  1.0000
  C   C176      1.0  0.62097  0.09882  0.19469  1.0000
  C   C177      1.0  0.61955  0.12962  0.18666  1.0000
  C   C178      1.0  0.64092  0.14841  0.20059  1.0000
  H   H212      1.0  0.61587  0.06214  0.32991  1.0000
  H   H213      1.0  0.39283  0.15905  0.19581  1.0000
  H   H214      1.0  0.60499  0.08398  0.18377  1.0000
  H   H215      1.0  0.64008  0.17227  0.19446  1.0000
  C   C179      1.0  0.37282  0.26357  0.26027  1.0000
  C   C180      1.0  0.60633  0.44336  0.19610  1.0000
  C   C181      1.0  0.61791  0.44128  0.23382  1.0000
  C   C182      1.0  0.64700  0.44141  0.23964  1.0000
  H   H216      1.0  0.40087  0.44075  0.25840  1.0000
  C   C183      1.0  0.65352  0.44610  0.16998  1.0000
  C   C184      1.0  0.62441  0.44537  0.16412  1.0000
  H   H217      1.0  0.60423  0.43975  0.25882  1.0000
  C   C185      1.0  0.58164  0.08424  0.30093  1.0000
  C   C186      1.0  0.61697  0.13398  0.29635  1.0000
  H   H218      1.0  0.61594  0.44720  0.13493  1.0000
  N   N12       1.0  0.54357  0.11124  0.26461  1.0000
  C   C187      1.0  0.53623  0.14062  0.24650  1.0000
  C   C188      1.0  0.54166  0.08832  0.23373  1.0000
  C   C189      1.0  0.52235  0.10435  0.29488  1.0000
  C   C190      1.0  0.57175  0.11067  0.28205  1.0000
  N   N13       1.0  0.34897  0.34351  0.27891  1.0000
  C   C191      1.0  0.59032  0.13560  0.28015  1.0000
  C   C192      1.0  0.42329  0.50096  0.06587  1.0000
  H   H219      1.0  0.38971  0.35360  0.25462  1.0000
  H   H220      1.0  0.42193  0.48426  0.09037  1.0000
  C   C193      1.0  0.60846  0.08278  0.31653  1.0000
  H   H221      1.0  0.51485  0.14029  0.23395  1.0000
  H   H222      1.0  0.53681  0.15900  0.26816  1.0000
  C   C194      1.0  0.66464  0.10591  0.23071  1.0000
  H   H223      1.0  0.35933  0.22293  0.28948  1.0000
  H   H224      1.0  0.45676  0.45562  0.05960  1.0000
  C   C195      1.0  0.66341  0.13667  0.22231  1.0000
  H   H225      1.0  0.50084  0.10563  0.28270  1.0000
  H   H226      1.0  0.55744  0.09270  0.21053  1.0000
  C   C196      1.0  0.64085  0.33035  0.27363  1.0000
  H   H227      1.0  0.55044  0.14646  0.22183  1.0000
  H   H228      1.0  0.54504  0.06517  0.24504  1.0000
  H   H229      1.0  0.52074  0.08823  0.21975  1.0000
  H   H230      1.0  0.64033  0.31729  0.30054  1.0000
  H   H231      1.0  0.56887  0.06428  0.30306  1.0000
  H   H232      1.0  0.46329  0.45716  0.00854  1.0000
  C   C197      1.0  0.66331  0.36779  0.23317  1.0000
  C   C198      1.0  0.35463  0.18095  0.20699  1.0000
  H   H233      1.0  0.63258  0.09827  0.07755  1.0000
  H   H234      1.0  0.38816  0.35197  0.30718  1.0000
  H   H235      1.0  0.58578  0.29490  0.19327  1.0000
  H   H236      1.0  0.37459  0.38351  0.28042  1.0000
  C   C199      1.0  0.45732  0.47104  0.03392  1.0000
  H   H237      1.0  0.65540  0.43997  0.26889  1.0000
  N   N14       1.0  0.42073  0.20080  0.15100  1.0000
  C   C200      1.0  0.43025  0.22863  0.13059  1.0000
  C   C201      1.0  0.44111  0.19425  0.18252  1.0000
  C   C202      1.0  0.42150  0.17600  0.12253  1.0000
  C   C203      1.0  0.39235  0.20310  0.16750  1.0000
  C   C204      1.0  0.37488  0.22835  0.16084  1.0000
  H   H238      1.0  0.64719  0.10613  0.32529  1.0000
  C   C205      1.0  0.66879  0.07109  0.08822  1.0000
  C   C206      1.0  0.65295  0.09704  0.09111  1.0000
  H   H239      1.0  0.38150  0.30643  0.23491  1.0000
  H   H240      1.0  0.41773  0.23342  0.10391  1.0000
  H   H241      1.0  0.42981  0.24837  0.15014  1.0000
  H   H242      1.0  0.45209  0.22668  0.12029  1.0000
  H   H243      1.0  0.44025  0.21145  0.20574  1.0000
  H   H244      1.0  0.46278  0.19366  0.17107  1.0000
  H   H245      1.0  0.43767  0.17190  0.19650  1.0000
  H   H246      1.0  0.41709  0.15381  0.13640  1.0000
  H   H247      1.0  0.40605  0.17950  0.09874  1.0000
  H   H248      1.0  0.44233  0.17417  0.10854  1.0000
  H   H249      1.0  0.38122  0.24725  0.14290  1.0000
  C   C207      1.0  0.51686  0.03692  0.98574  1.0000
  H   H250      1.0  0.66716  0.44836  0.14504  1.0000
  C   C208      1.0  0.36998  0.29476  0.25755  1.0000
  C   C209      1.0  0.37656  0.35859  0.28035  1.0000
  H   H251      1.0  0.60432  0.31006  0.25186  1.0000
  H   H252      1.0  0.38641  0.25190  0.24042  1.0000
  H   H253      1.0  0.64424  0.37829  0.17880  1.0000
  N   N15       1.0  0.59922  0.34004  0.17899  1.0000
  C   C210      1.0  0.58542  0.36924  0.17153  1.0000
  C   C211      1.0  0.61265  0.33011  0.14239  1.0000
  C   C212      1.0  0.57715  0.31782  0.18909  1.0000
  C   C213      1.0  0.62055  0.34350  0.20982  1.0000
  C   C214      1.0  0.62026  0.32644  0.24524  1.0000
  C   C215      1.0  0.64275  0.36429  0.20471  1.0000
  H   H254      1.0  0.52380  0.12040  0.31946  1.0000
  C   C216      1.0  0.66506  0.44420  0.20776  1.0000
  H   H255      1.0  0.66072  0.05219  0.07198  1.0000
  H   H256      1.0  0.59975  0.38641  0.15907  1.0000
  H   H257      1.0  0.56817  0.36720  0.15008  1.0000
  H   H258      1.0  0.57658  0.37858  0.19885  1.0000
  H   H259      1.0  0.59711  0.32629  0.11882  1.0000
  H   H260      1.0  0.62413  0.30876  0.14707  1.0000
  H   H261      1.0  0.62751  0.34709  0.13061  1.0000
  H   H262      1.0  0.56559  0.32452  0.21571  1.0000
  H   H263      1.0  0.56135  0.31600  0.16543  1.0000
  H   H264      1.0  0.64403  0.06328  0.22307  1.0000
  H   H265      1.0  0.40618  0.44758  0.04598  1.0000
  C   C217      1.0  0.38117  0.17930  0.19055  1.0000
  C   C218      1.0  0.62610  0.10759  0.31420  1.0000
  H   H266      1.0  0.63106  0.15297  0.29377  1.0000
  H   H267      1.0  0.65056  0.14147  0.11412  1.0000
  H   H268      1.0  0.41390  0.44922  0.99521  1.0000
  C   C219      1.0  0.40870  0.46337  0.02066  1.0000
  C   C220      1.0  0.66316  0.12141  0.11179  1.0000
  C   C221      1.0  0.35224  0.31059  0.28318  1.0000
  H   H269      1.0  0.38822  0.47401  0.01487  1.0000
  C   C222      1.0  0.51603  0.49939  0.96866  1.0000
  C   C223      1.0  0.34830  0.22976  0.17739  1.0000
  H   H270      1.0  0.34881  0.34351  0.21571  1.0000
  C   C224      1.0  0.35779  0.24720  0.28805  1.0000
  H   H271      1.0  0.34660  0.16239  0.22459  1.0000
  C   C225      1.0  0.52007  0.00609  0.97796  1.0000
  H   H272      1.0  0.58223  0.49802  0.99388  1.0000
  H   H273      1.0  0.45599  0.03948  0.83309  1.0000
  C   C226      1.0  0.43531  0.03805  0.81834  1.0000
  C   C227      1.0  0.51307  0.01439  0.90801  1.0000
  C   C228      1.0  0.40575  0.01355  0.72646  1.0000
  H   H274      1.0  0.38216  0.01086  0.82053  1.0000
  H   H275      1.0  0.43100  0.06028  0.80453  1.0000
  C   C229      1.0  0.35668  0.01083  0.76988  1.0000
  H   H276      1.0  0.37892  0.01158  0.67605  1.0000
  H   H277      1.0  0.59844  0.47963  0.93022  1.0000
  H   H278      1.0  0.52204  0.48087  0.91146  1.0000
  H   H279      1.0  0.42006  0.03435  0.84224  1.0000
  H   H280      1.0  0.44321  0.47341  0.95223  1.0000
  C   C230      1.0  0.51168  0.05641  0.95420  1.0000
  H   H281      1.0  0.45734  0.03991  0.74605  1.0000
  C   C231      1.0  0.50984  0.04521  0.91573  1.0000
  N   N16       1.0  0.43464  0.01381  0.78893  1.0000
  C   C232      1.0  0.51712  0.50090  0.92755  1.0000
  C   C233      1.0  0.40771  0.01364  0.76792  1.0000
  C   C234      1.0  0.38233  0.01202  0.78903  1.0000
  H   H282      1.0  0.50595  0.06065  0.89178  1.0000
  C   C235      1.0  0.37996  0.01248  0.70765  1.0000
  H   H283      1.0  0.61810  0.00998  0.86560  1.0000
  C   C236      1.0  0.35551  0.01113  0.72928  1.0000
  H   H284      1.0  0.47881  0.01943  0.77969  1.0000
  C   C237      1.0  0.45898  0.01848  0.76284  1.0000
  H   H285      1.0  0.42380  0.01342  0.70777  1.0000
  H   H286      1.0  0.65023  0.01467  0.69203  1.0000
  H   H287      1.0  0.66104  0.01426  0.82765  1.0000
  C   C238      1.0  0.43910  0.49690  0.95709  1.0000
  H   H288      1.0  0.50918  0.08013  0.95944  1.0000
  H   H289      1.0  0.66273  0.05361  0.74050  1.0000
  C   C239      1.0  0.64221  0.00821  0.81243  1.0000
  C   C240      1.0  0.61777  0.00585  0.83446  1.0000
  C   C241      1.0  0.59345  0.50318  0.93339  1.0000
  N   N17       1.0  0.66837  0.00615  0.74884  1.0000
  H   H290      1.0  0.50914  0.52520  0.02043  1.0000
  C   C242      1.0  0.58443  0.51352  0.96938  1.0000
  H   H291      1.0  0.40276  0.51227  0.06433  1.0000
  C   C243      1.0  0.50964  0.52561  0.98890  1.0000
  C   C244      1.0  0.50472  0.55280  0.96830  1.0000
  H   H292      1.0  0.43954  0.51749  0.07452  1.0000
  H   H293      1.0  0.50001  0.57288  0.98440  1.0000
  H   H294      1.0  0.52405  0.99071  0.00195  1.0000
  H   H295      1.0  0.42360  0.54938  0.02593  1.0000
  H   H296      1.0  0.56913  0.55114  0.00121  1.0000
  C   C245      1.0  0.42833  0.53903  0.99843  1.0000
  C   C246      1.0  0.57702  0.54349  0.97343  1.0000
  C   C247      1.0  0.43240  0.50757  0.99482  1.0000
  C   C248      1.0  0.43086  0.55837  0.96611  1.0000
  H   H297      1.0  0.42841  0.58238  0.96946  1.0000
  Fe  Fe32      1.0  0.47689  0.61016  0.75611  1.0000
  S   S67       1.0  0.46317  0.63246  0.81111  1.0000
  S   S68       1.0  0.44637  0.59305  0.70988  1.0000
  Fe  Fe33      1.0  0.49340  0.66915  0.79369  1.0000
  S   S69       1.0  0.47796  0.71700  0.78249  1.0000
  Fe  Fe34      1.0  0.49952  0.60853  0.83988  1.0000
  S   S70       1.0  0.49952  0.58960  0.90306  1.0000
  S   S71       1.0  0.50612  0.64742  0.73770  1.0000
  S   S72       1.0  0.51141  0.58360  0.78561  1.0000
  Fe  Fe35      1.0  0.47977  0.92685  0.75974  1.0000
  S   S73       1.0  0.47920  0.92062  0.82519  1.0000
  S   S74       1.0  0.44596  0.93323  0.71349  1.0000
  Fe  Fe36      1.0  0.51295  0.95629  0.82701  1.0000
  H   H298      1.0  0.63286  0.58004  0.87388  1.0000
  Fe  Fe37      1.0  0.51458  0.88831  0.81500  1.0000
  S   S75       1.0  0.52201  0.84304  0.84437  1.0000
  S   S76       1.0  0.51151  0.96378  0.76177  1.0000
  S   S77       1.0  0.51242  0.89172  0.74984  1.0000
  C   C249      1.0  0.38636  0.74651  0.62429  1.0000
  H   H299      1.0  0.42140  0.97980  0.83062  1.0000
  C   C250      1.0  0.50594  0.55434  0.92719  1.0000
  C   C251      1.0  0.49138  0.75165  0.79935  1.0000
  C   C252      1.0  0.48130  0.77848  0.78264  1.0000
  C   C253      1.0  0.49068  0.80661  0.79581  1.0000
  C   C254      1.0  0.50990  0.80818  0.82636  1.0000
  H   H300      1.0  0.46600  0.77751  0.75955  1.0000
  H   H301      1.0  0.48282  0.82704  0.78265  1.0000
  H   H302      1.0  0.57111  0.58579  0.94637  1.0000
  C   C255      1.0  0.36744  0.60072  0.66665  1.0000
  C   C256      1.0  0.39588  0.59378  0.67145  1.0000
  C   C257      1.0  0.40993  0.59998  0.70658  1.0000
  C   C258      1.0  0.39492  0.61256  0.73724  1.0000
  C   C259      1.0  0.36647  0.61938  0.73250  1.0000
  H   H303      1.0  0.35706  0.59603  0.63935  1.0000
  H   H304      1.0  0.40717  0.58387  0.64758  1.0000
  H   H305      1.0  0.40527  0.61724  0.76455  1.0000
  H   H306      1.0  0.44011  0.56229  0.90481  1.0000
  H   H307      1.0  0.63659  0.54682  0.51824  1.0000
  C   C260      1.0  0.36349  0.93486  0.74312  1.0000
  C   C261      1.0  0.39267  0.93262  0.74596  1.0000
  C   C262      1.0  0.40908  0.93484  0.71231  1.0000
  C   C263      1.0  0.39591  0.93849  0.67591  1.0000
  C   C264      1.0  0.36676  0.94032  0.67303  1.0000
  H   H308      1.0  0.44343  0.87102  0.74222  1.0000
  H   H309      1.0  0.40237  0.92927  0.77411  1.0000
  H   H310      1.0  0.40837  0.94020  0.64968  1.0000
  H   H311      1.0  0.65190  0.51697  0.54664  1.0000
  Fe  Fe38      1.0  0.53929  0.62347  0.77205  1.0000
  S   S78       1.0  0.52825  0.64774  0.82736  1.0000
  S   S79       1.0  0.58678  0.62524  0.76447  1.0000
  Fe  Fe39      1.0  0.54416  0.92842  0.75621  1.0000
  S   S80       1.0  0.54846  0.92350  0.82129  1.0000
  S   S81       1.0  0.57622  0.93346  0.70752  1.0000
  H   H312      1.0  0.61848  0.58943  0.82676  1.0000
  H   H313      1.0  0.52071  0.97116  0.93437  1.0000
  C   C265      1.0  0.52010  0.78137  0.84291  1.0000
  C   C266      1.0  0.51109  0.75322  0.82927  1.0000
  H   H314      1.0  0.53491  0.78237  0.86665  1.0000
  H   H315      1.0  0.51887  0.73276  0.84253  1.0000
  H   H316      1.0  0.57288  0.53922  0.83081  1.0000
  C   C267      1.0  0.62431  0.58929  0.66817  1.0000
  C   C268      1.0  0.60385  0.59764  0.69554  1.0000
  C   C269      1.0  0.61110  0.61525  0.72758  1.0000
  C   C270      1.0  0.63896  0.62461  0.73153  1.0000
  C   C271      1.0  0.65932  0.61662  0.70389  1.0000
  C   C272      1.0  0.36087  0.70112  0.63947  1.0000
  H   H317      1.0  0.58259  0.59013  0.69210  1.0000
  H   H318      1.0  0.64488  0.63820  0.75617  1.0000
  C   C273      1.0  0.58765  0.55349  0.90431  1.0000
  H   H319      1.0  0.44738  0.50791  0.89670  1.0000
  C   C274      1.0  0.65543  0.92020  0.67050  1.0000
  C   C275      1.0  0.62657  0.92540  0.67179  1.0000
  C   C276      1.0  0.61210  0.92489  0.70746  1.0000
  C   C277      1.0  0.62666  0.91869  0.74190  1.0000
  C   C278      1.0  0.65541  0.91303  0.74055  1.0000
  C   C279      1.0  0.58156  0.60518  0.87789  1.0000
  H   H320      1.0  0.61545  0.93025  0.64500  1.0000
  H   H321      1.0  0.61586  0.91870  0.76959  1.0000
  C   C280      1.0  0.36317  0.85558  0.65784  1.0000
  H   H322      1.0  0.58112  0.86949  0.73982  1.0000
  H   H323      1.0  0.55630  0.82620  0.71008  1.0000
  H   H324      1.0  0.61848  0.57536  0.64383  1.0000
  H   H325      1.0  0.67031  0.78844  0.66707  1.0000
  C   C281      1.0  0.61221  0.78347  0.72356  1.0000
  C   C282      1.0  0.51195  0.52802  0.90694  1.0000
  H   H326      1.0  0.58309  0.78226  0.79344  1.0000
  C   C283      1.0  0.62705  0.83521  0.71576  1.0000
  H   H327      1.0  0.54009  0.82317  0.75712  1.0000
  H   H328      1.0  0.60173  0.51355  0.87384  1.0000
  H   H329      1.0  0.55522  0.79078  0.73593  1.0000
  N   N18       1.0  0.58866  0.57348  0.86947  1.0000
  H   H330      1.0  0.64892  0.55324  0.56711  1.0000
  C   C284      1.0  0.65300  0.79555  0.68494  1.0000
  H   H331      1.0  0.62529  0.85903  0.72005  1.0000
  C   C285      1.0  0.61690  0.57343  0.85204  1.0000
  H   H332      1.0  0.46129  0.99964  0.74197  1.0000
  N   N19       1.0  0.43365  0.69309  0.68195  1.0000
  C   C286      1.0  0.44199  0.66537  0.66153  1.0000
  C   C287      1.0  0.45833  0.71325  0.68290  1.0000
  C   C288      1.0  0.42654  0.68535  0.72300  1.0000
  C   C289      1.0  0.40918  0.70633  0.66206  1.0000
  C   C290      1.0  0.40961  0.73534  0.64424  1.0000
  C   C291      1.0  0.38401  0.68967  0.65916  1.0000
  H   H333      1.0  0.56900  0.57670  0.81313  1.0000
  C   C292      1.0  0.65217  0.59871  0.67211  1.0000
  H   H334      1.0  0.56718  0.86149  0.78698  1.0000
  H   H335      1.0  0.44745  0.67012  0.63053  1.0000
  H   H336      1.0  0.46019  0.65441  0.67576  1.0000
  H   H337      1.0  0.42526  0.64818  0.66156  1.0000
  H   H338      1.0  0.45397  0.73416  0.69926  1.0000
  H   H339      1.0  0.46581  0.71906  0.65304  1.0000
  H   H340      1.0  0.47613  0.70242  0.69838  1.0000
  H   H341      1.0  0.44408  0.67394  0.73826  1.0000
  H   H342      1.0  0.42146  0.70576  0.73999  1.0000
  H   H343      1.0  0.40857  0.66987  0.72539  1.0000
  C   C293      1.0  0.44148  0.51643  0.92502  1.0000
  H   H344      1.0  0.38206  0.66738  0.67179  1.0000
  C   C294      1.0  0.35253  0.61365  0.69717  1.0000
  H   H345      1.0  0.60401  0.86306  0.78120  1.0000
  H   H346      1.0  0.60771  0.81002  0.80968  1.0000
  H   H347      1.0  0.35700  0.94360  0.64484  1.0000
  H   H348      1.0  0.38722  0.76843  0.61022  1.0000
  C   C295      1.0  0.65343  0.54127  0.53936  1.0000
  H   H349      1.0  0.57117  0.81472  0.81751  1.0000
  C   C296      1.0  0.37780  0.84307  0.72565  1.0000
  C   C297      1.0  0.43736  0.54709  0.92952  1.0000
  C   C298      1.0  0.40352  0.85815  0.71898  1.0000
  C   C299      1.0  0.39472  0.83056  0.79160  1.0000
  C   C300      1.0  0.42407  0.85916  0.74787  1.0000
  C   C301      1.0  0.41970  0.84542  0.78407  1.0000
  N   N20       1.0  0.35583  0.84067  0.69550  1.0000
  H   H350      1.0  0.57269  0.98657  0.76279  1.0000
  H   H351      1.0  0.51243  0.52841  0.87541  1.0000
  C   C302      1.0  0.57833  0.56325  0.94145  1.0000
  C   C303      1.0  0.36210  0.72941  0.62184  1.0000
  C   C304      1.0  0.64925  0.82590  0.69260  1.0000
  H   H352      1.0  0.34430  0.73798  0.60592  1.0000
  H   H353      1.0  0.38204  0.84564  0.64460  1.0000
  H   H354      1.0  0.59833  0.76623  0.73466  1.0000
  H   H355      1.0  0.39143  0.81987  0.81984  1.0000
  C   C305      1.0  0.59212  0.99282  0.77664  1.0000
  H   H356      1.0  0.43569  0.84639  0.80638  1.0000
  N   N21       1.0  0.58485  0.82308  0.75824  1.0000
  C   C306      1.0  0.58687  0.80677  0.79619  1.0000
  C   C307      1.0  0.58444  0.85571  0.76678  1.0000
  C   C308      1.0  0.55802  0.81538  0.73946  1.0000
  C   C309      1.0  0.60806  0.81416  0.73252  1.0000
  C   C310      1.0  0.66500  0.99911  0.70681  1.0000
  H   H357      1.0  0.61414  0.99042  0.72361  1.0000
  H   H358      1.0  0.40826  0.86977  0.69191  1.0000
  H   H359      1.0  0.58315  0.61969  0.85123  1.0000
  H   H360      1.0  0.59582  0.61492  0.89998  1.0000
  H   H361      1.0  0.63732  0.75076  0.69401  1.0000
  H   H362      1.0  0.36978  0.79675  0.67935  1.0000
  H   H363      1.0  0.34614  0.85348  0.63590  1.0000
  C   C311      1.0  0.37401  0.82942  0.76296  1.0000
  C   C312      1.0  0.35038  0.93875  0.70666  1.0000
  S   S82       1.0  0.51052  0.00175  0.85853  1.0000
  H   H364      1.0  0.62267  0.55118  0.84036  1.0000
  H   H365      1.0  0.66371  0.84241  0.68063  1.0000
  C   C313      1.0  0.61638  0.99518  0.75430  1.0000
  H   H366      1.0  0.45815  0.98392  0.82597  1.0000
  H   H367      1.0  0.55971  0.60728  0.88832  1.0000
  H   H368      1.0  0.54703  0.56293  0.85186  1.0000
  C   C314      1.0  0.56857  0.56252  0.84008  1.0000
  H   H369      1.0  0.42775  0.74967  0.64493  1.0000
  H   H370      1.0  0.35517  0.62923  0.75640  1.0000
  H   H371      1.0  0.66641  0.92128  0.64296  1.0000
  H   H372      1.0  0.35098  0.93369  0.76932  1.0000
  H   H373      1.0  0.36658  0.88007  0.66154  1.0000
  H   H374      1.0  0.43855  0.96590  0.78811  1.0000
  C   C315      1.0  0.63442  0.77438  0.70021  1.0000
  C   C316      1.0  0.51818  0.99489  0.93952  1.0000
  C   C317      1.0  0.43828  0.98461  0.80933  1.0000
  C   C318      1.0  0.64229  0.00296  0.77160  1.0000
  H   H375      1.0  0.66654  0.90833  0.76737  1.0000
  H   H376      1.0  0.66624  0.59221  0.50070  1.0000
  H   H377      1.0  0.57379  0.99639  0.83368  1.0000
  C   C319      1.0  0.35032  0.80853  0.68740  1.0000
  C   C320      1.0  0.67006  0.91442  0.70501  1.0000
  H   H378      1.0  0.65740  0.97579  0.70296  1.0000
  C   C321      1.0  0.59517  0.52280  0.90131  1.0000
  H   H379      1.0  0.35497  0.81768  0.77022  1.0000
  C   C322      1.0  0.59276  0.99819  0.81657  1.0000
  H   H380      1.0  0.34198  0.68771  0.63765  1.0000
  Fe  Fe40      1.0  0.75647  0.43285  0.34645  1.0000
  S   S83       1.0  0.76683  0.45472  0.28813  1.0000
  S   S84       1.0  0.75719  0.45352  0.40837  1.0000
  Fe  Fe41      1.0  0.74403  0.37140  0.30925  1.0000
  S   S85       1.0  0.75325  0.39000  0.24980  1.0000
  S   S86       1.0  0.72848  0.32308  0.30355  1.0000
  Fe  Fe42      1.0  0.79072  0.41224  0.27552  1.0000
  S   S87       1.0  0.82824  0.39882  0.23824  1.0000
  Fe  Fe43      1.0  0.72854  0.43038  0.26564  1.0000
  S   S88       1.0  0.70202  0.44612  0.21352  1.0000
  S   S89       1.0  0.78276  0.39147  0.33490  1.0000
  S   S90       1.0  0.71680  0.41079  0.32422  1.0000
  Fe  Fe44      1.0  0.77775  0.08569  0.34087  1.0000
  S   S91       1.0  0.76920  0.07626  0.27734  1.0000
  S   S92       1.0  0.79442  0.05032  0.38445  1.0000
  Fe  Fe45      1.0  0.76804  0.15319  0.32826  1.0000
  S   S93       1.0  0.75815  0.14853  0.26445  1.0000
  S   S94       1.0  0.77432  0.19622  0.36240  1.0000
  Fe  Fe46      1.0  0.73301  0.10800  0.28321  1.0000
  S   S95       1.0  0.69177  0.08983  0.25937  1.0000
  Fe  Fe47      1.0  0.79503  0.11723  0.26277  1.0000
  S   S96       1.0  0.82309  0.12187  0.20872  1.0000
  S   S97       1.0  0.74016  0.11492  0.34775  1.0000
  S   S98       1.0  0.80632  0.12448  0.32544  1.0000
  H   H381      1.0  0.77311  0.41733  0.12747  1.0000
  H   H382      1.0  0.76448  0.32584  0.22011  1.0000
  H   H383      1.0  0.72363  0.11942  0.19709  1.0000
  C   C323      1.0  0.00476  0.29971  0.07125  1.0000
  Fe  Fe48      1.0  0.98912  0.12073  0.14870  1.0000
  S   S99       1.0  0.95540  0.10669  0.19308  1.0000
  S   S100      1.0  0.98408  0.12532  0.08337  1.0000
  H   H384      1.0  0.85659  0.22171  0.18379  1.0000
  H   H385      1.0  0.98141  0.01241  0.14890  1.0000
  H   H386      1.0  0.74220  0.47382  0.13856  1.0000
  C   C324      1.0  0.80828  0.31746  0.26721  1.0000
  Fe  Fe49      1.0  0.97238  0.44407  0.13473  1.0000
  S   S101      1.0  0.93599  0.46459  0.16805  1.0000
  S   S102      1.0  0.96947  0.41590  0.08089  1.0000
  C   C325      1.0  0.84170  0.23009  0.20474  1.0000
  H   H387      1.0  0.70632  0.04879  0.10318  1.0000
  H   H388      1.0  0.95624  0.06618  0.07435  1.0000
  H   H389      1.0  0.96340  0.35944  0.31206  1.0000
  H   H390      1.0  0.99174  0.22697  0.13267  1.0000
  H   H391      1.0  0.83988  0.32375  0.20379  1.0000
  C   C326      1.0  0.86008  0.11870  0.20555  1.0000
  C   C327      1.0  0.87614  0.10715  0.23625  1.0000
  C   C328      1.0  0.90519  0.10397  0.23190  1.0000
  C   C329      1.0  0.91878  0.11268  0.19712  1.0000
  C   C330      1.0  0.90277  0.12452  0.16650  1.0000
  C   C331      1.0  0.87364  0.12732  0.17066  1.0000
  H   H392      1.0  0.86616  0.10029  0.26322  1.0000
  H   H393      1.0  0.91724  0.09469  0.25579  1.0000
  H   H394      1.0  0.91278  0.13134  0.13954  1.0000
  H   H395      1.0  0.86153  0.13629  0.14665  1.0000
  C   C332      1.0  0.90631  0.44586  0.18772  1.0000
  C   C333      1.0  0.90101  0.41546  0.18095  1.0000
  C   C334      1.0  0.87710  0.40153  0.19685  1.0000
  C   C335      1.0  0.85813  0.41777  0.21958  1.0000
  C   C336      1.0  0.86339  0.44817  0.22633  1.0000
  C   C337      1.0  0.88735  0.46208  0.21046  1.0000
  H   H396      1.0  0.91513  0.40287  0.16293  1.0000
  H   H397      1.0  0.87314  0.37808  0.19113  1.0000
  H   H398      1.0  0.84909  0.46099  0.24376  1.0000
  H   H399      1.0  0.89118  0.48564  0.21574  1.0000
  C   C338      1.0  0.74107  0.28824  0.32172  1.0000
  C   C339      1.0  0.73049  0.26163  0.30559  1.0000
  C   C340      1.0  0.74058  0.23336  0.31758  1.0000
  C   C341      1.0  0.76103  0.23137  0.34649  1.0000
  C   C342      1.0  0.77133  0.25795  0.36311  1.0000
  C   C343      1.0  0.76155  0.28629  0.35062  1.0000
  H   H400      1.0  0.71454  0.26289  0.28335  1.0000
  H   H401      1.0  0.73237  0.21312  0.30468  1.0000
  H   H402      1.0  0.78708  0.25663  0.38561  1.0000
  H   H403      1.0  0.76973  0.30657  0.36350  1.0000
  C   C344      1.0  0.94809  0.40087  0.25791  1.0000
  H   H404      1.0  0.68003  0.38388  0.22876  1.0000
  H   H405      1.0  0.91993  0.06083  0.08421  1.0000
  H   H406      1.0  0.84625  0.12485  0.44477  1.0000
  H   H407      1.0  0.80186  0.34147  0.26669  1.0000
  H   H408      1.0  0.98448  0.27704  0.16192  1.0000
  C   C345      1.0  0.78071  0.03192  0.42697  1.0000
  H   H409      1.0  0.94158  0.08074  0.11802  1.0000
  C   C346      1.0  0.75291  0.03461  0.43832  1.0000
  C   C347      1.0  0.76192  0.48869  0.43278  1.0000
  H   H410      1.0  0.75256  0.06818  0.10059  1.0000
  H   H411      1.0  0.75227  0.06196  0.19200  1.0000
  H   H412      1.0  0.93189  0.34872  0.28735  1.0000
  H   H413      1.0  0.80306  0.17502  0.44929  1.0000
  H   H414      1.0  0.90519  0.03053  0.14205  1.0000
  H   H415      1.0  0.95701  0.33585  0.20901  1.0000
  C   C348      1.0  0.82872  0.43751  0.12715  1.0000
  H   H416      1.0  0.96334  0.32821  0.27949  1.0000
  H   H417      1.0  0.71502  0.06280  0.19397  1.0000
  C   C349      1.0  0.83336  0.26019  0.20325  1.0000
  C   C350      1.0  0.68898  0.48891  0.44713  1.0000
  H   H418      1.0  0.77556  0.14103  0.41262  1.0000
  H   H419      1.0  0.83061  0.31674  0.27556  1.0000
  H   H420      1.0  0.73897  0.04839  0.42110  1.0000
  C   C351      1.0  0.75503  0.08840  0.11899  1.0000
  H   H421      1.0  0.75220  0.42691  0.16854  1.0000
  N   N22       1.0  0.73275  0.09067  0.14866  1.0000
  H   H422      1.0  0.82451  0.09747  0.42177  1.0000
  C   C352      1.0  0.73313  0.06324  0.17375  1.0000
  C   C353      1.0  0.82535  0.12112  0.43198  1.0000
  C   C354      1.0  0.99602  0.30196  0.11002  1.0000
  S   S103      1.0  0.00079  0.41249  0.16559  1.0000
  C   C355      1.0  0.76407  0.47640  0.12806  1.0000
  N   N23       1.0  0.80346  0.30286  0.22903  1.0000
  H   H423      1.0  0.99713  0.42059  0.27007  1.0000
  C   C356      1.0  0.85586  0.44117  0.11318  1.0000
  N   N24       1.0  0.96210  0.37167  0.25126  1.0000
  H   H424      1.0  0.75995  0.11346  0.18910  1.0000
  H   H425      1.0  0.76155  0.47024  0.20611  1.0000
  H   H426      1.0  0.78697  0.41469  0.17670  1.0000
  N   N25       1.0  0.94688  0.03267  0.11872  1.0000
  H   H427      1.0  0.77285  0.10220  0.42579  1.0000
  Fe  Fe50      1.0  0.99972  0.38482  0.11131  1.0000
  C   C357      1.0  0.99280  0.37432  0.24887  1.0000
  C   C358      1.0  0.81371  0.27153  0.23034  1.0000
  H   H428      1.0  0.92949  0.04932  0.17245  1.0000
  H   H429      1.0  0.95694  0.37296  0.18878  1.0000
  H   H430      1.0  0.79776  0.46093  0.21297  1.0000
  C   C359      1.0  0.80338  0.25101  0.25886  1.0000
  C   C360      1.0  0.81184  0.22105  0.26013  1.0000
  C   C361      1.0  0.83088  0.21054  0.23301  1.0000
  H   H431      1.0  0.78843  0.25797  0.28030  1.0000
  H   H432      1.0  0.80348  0.20587  0.28228  1.0000
  H   H433      1.0  0.83725  0.18718  0.23387  1.0000
  H   H434      1.0  0.86821  0.42173  0.10589  1.0000
  H   H435      1.0  0.92501  0.39868  0.25739  1.0000
  C   C362      1.0  0.78274  0.47253  0.19319  1.0000
  H   H436      1.0  0.82414  0.13605  0.40575  1.0000
  C   C363      1.0  0.95483  0.35109  0.28397  1.0000
  H   H437      1.0  0.81327  0.31318  0.16881  1.0000
  N   N26       1.0  0.78380  0.45975  0.15349  1.0000
  C   C364      1.0  0.82499  0.49143  0.13357  1.0000
  H   H438      1.0  0.84254  0.27398  0.18055  1.0000
  C   C365      1.0  0.99127  0.27553  0.13192  1.0000
  H   H439      1.0  0.95369  0.41764  0.23470  1.0000
  C   C366      1.0  0.73961  0.11654  0.17395  1.0000
  H   H440      1.0  0.76493  0.46818  0.09752  1.0000
  H   H441      1.0  0.80893  0.34527  0.19876  1.0000
  C   C367      1.0  0.95044  0.35926  0.21457  1.0000
  C   C368      1.0  0.77319  0.30272  0.22081  1.0000
  H   H442      1.0  0.95333  0.41037  0.28688  1.0000
  H   H443      1.0  0.79612  0.30684  0.29120  1.0000
  C   C369      1.0  0.99542  0.24710  0.11544  1.0000
  C   C370      1.0  0.68895  0.11979  0.13057  1.0000
  H   H444      1.0  0.98668  0.06641  0.98634  1.0000
  C   C371      1.0  0.79834  0.01355  0.44971  1.0000
  C   C372      1.0  0.81709  0.32189  0.19864  1.0000
  H   H445      1.0  0.74160  0.13783  0.15688  1.0000
  H   H446      1.0  0.77599  0.08707  0.13286  1.0000
  H   H447      1.0  0.75505  0.10837  0.09913  1.0000
  C   C373      1.0  0.94091  0.06128  0.09788  1.0000
  H   H448      1.0  0.73242  0.04223  0.15672  1.0000
  H   H449      1.0  0.92733  0.35877  0.21482  1.0000
  H   H450      1.0  0.76854  0.29189  0.19244  1.0000
  H   H451      1.0  0.76119  0.29035  0.24358  1.0000
  C   C374      1.0  0.70546  0.09342  0.12885  1.0000
  C   C375      1.0  0.99801  0.04678  0.97731  1.0000
  H   H452      1.0  0.69512  0.13930  0.14686  1.0000
  S   S104      1.0  0.99162  0.33695  0.13320  1.0000
  H   H453      1.0  0.78781  0.49685  0.19354  1.0000
  C   C376      1.0  0.92719  0.03012  0.15204  1.0000
  C   C377      1.0  0.77374  0.42822  0.15651  1.0000
  C   C378      1.0  0.00438  0.24479  0.07679  1.0000
  C   C379      1.0  0.97538  0.03419  0.13519  1.0000
  C   C380      1.0  0.81241  0.46266  0.13784  1.0000
  H   H454      1.0  0.97716  0.05175  0.15798  1.0000
  C   C381      1.0  0.69477  0.06932  0.10646  1.0000
  H   H455      1.0  0.99131  0.03989  0.11273  1.0000
  H   H456      1.0  0.99968  0.32867  0.22815  1.0000
  H   H457      1.0  0.82129  0.41471  0.13005  1.0000
  H   H458      1.0  0.67950  0.15147  0.23303  1.0000
  C   C382      1.0  0.77597  0.12506  0.43791  1.0000
  H   H459      1.0  0.70056  0.49405  0.38685  1.0000
  H   H460      1.0  0.88910  0.47224  0.10047  1.0000
  H   H461      1.0  0.76842  0.50092  0.12727  1.0000
  H   H462      1.0  0.81987  0.01118  0.44126  1.0000
  H   H463      1.0  0.97843  0.02388  0.05327  1.0000
  H   H464      1.0  0.75781  0.13078  0.45641  1.0000
  N   N27       1.0  0.80252  0.12714  0.45989  1.0000
  H   H465      1.0  0.67792  0.35427  0.28993  1.0000
  C   C383      1.0  0.86769  0.46967  0.10998  1.0000
  H   H466      1.0  0.68845  0.46459  0.44572  1.0000
  H   H467      1.0  0.93095  0.00942  0.16969  1.0000
  C   C384      1.0  0.85227  0.49476  0.12006  1.0000
  C   C385      1.0  0.94494  0.00754  0.09092  1.0000
  C   C386      1.0  0.96298  0.00658  0.05821  1.0000
  C   C387      1.0  0.00749  0.40077  0.25981  1.0000
  C   C388      1.0  0.00786  0.49375  0.97226  1.0000
  Fe  Fe51      1.0  0.00766  0.44189  0.06041  1.0000
  H   H468      1.0  0.00845  0.31985  0.05405  1.0000
  S   S105      1.0  0.00859  0.47203  0.11260  1.0000
  C   C389      1.0  0.82874  0.10439  0.51648  1.0000
  H   H469      1.0  0.76737  0.05151  0.54370  1.0000
  H   H470      1.0  0.85018  0.08300  0.56460  1.0000
  H   H471      1.0  0.75642  0.46861  0.48980  1.0000
  C   C390      1.0  0.83108  0.08415  0.54783  1.0000
  C   C391      1.0  0.76014  0.48936  0.47388  1.0000
  H   H472      1.0  0.84642  0.11867  0.51017  1.0000
  H   H473      1.0  0.69787  0.04098  0.73352  1.0000
  C   C392      1.0  0.78445  0.06650  0.53611  1.0000
  H   H474      1.0  0.80777  0.50268  0.55790  1.0000
  H   H475      1.0  0.78897  0.16352  0.49575  1.0000
  H   H476      1.0  0.76247  0.08582  0.48888  1.0000
  H   H477      1.0  0.83872  0.48302  0.57249  1.0000
  H   H478      1.0  0.81095  0.04916  0.58148  1.0000
  H   H479      1.0  0.97192  0.03882  0.92701  1.0000
  C   C393      1.0  0.80902  0.06513  0.55749  1.0000
  C   C394      1.0  0.80420  0.10593  0.49347  1.0000
  C   C395      1.0  0.80528  0.15842  0.47379  1.0000
  C   C396      1.0  0.78194  0.08648  0.50450  1.0000
  C   C397      1.0  0.98968  0.03103  0.94357  1.0000
  H   H480      1.0  0.82582  0.16277  0.48747  1.0000
  H   H481      1.0  0.72142  0.02138  0.48016  1.0000
  C   C398      1.0  0.68390  0.50340  0.48238  1.0000
  H   H482      1.0  0.81817  0.50269  0.60767  1.0000
  C   C399      1.0  0.74301  0.01919  0.47187  1.0000
  H   H483      1.0  0.67920  0.48945  0.50753  1.0000
  C   C400      1.0  0.67870  0.03749  0.75129  1.0000
  H   H484      1.0  0.68403  0.04385  0.78167  1.0000
  C   C401      1.0  0.00418  0.00551  0.93086  1.0000
  C   C402      1.0  0.00704  0.49424  0.93109  1.0000
  C   C403      1.0  0.82633  0.50368  0.57732  1.0000
  C   C404      1.0  0.75852  0.90930  0.42603  1.0000
  C   C405      1.0  0.92400  0.96057  0.06769  1.0000
  H   H485      1.0  0.76787  0.86755  0.39521  1.0000
  C   C406      1.0  0.75789  0.94087  0.42020  1.0000
  H   H486      1.0  0.76443  0.97837  0.38085  1.0000
  C   C407      1.0  0.76644  0.89170  0.39352  1.0000
  H   H487      1.0  0.77767  0.94665  0.32520  1.0000
  C   C408      1.0  0.69298  0.55139  0.45080  1.0000
  H   H488      1.0  0.73554  0.85401  0.44482  1.0000
  H   H489      1.0  0.77301  0.56376  0.41751  1.0000
  H   H490      1.0  0.94097  0.94254  0.01472  1.0000
  H   H491      1.0  0.75248  0.95565  0.44367  1.0000
  C   C409      1.0  0.77226  0.93625  0.35295  1.0000
  C   C410      1.0  0.92528  0.98374  0.09493  1.0000
  H   H492      1.0  0.70830  0.90275  0.45728  1.0000
  C   C411      1.0  0.76471  0.95409  0.38426  1.0000
  H   H493      1.0  0.91069  0.98249  0.11880  1.0000
  C   C412      1.0  0.76945  0.54303  0.43352  1.0000
  H   H494      1.0  0.00553  0.52120  0.02337  1.0000
  H   H495      1.0  0.76832  0.51589  0.38129  1.0000
  C   C413      1.0  0.94203  0.96044  0.03586  1.0000
  C   C414      1.0  0.76683  0.51581  0.41279  1.0000
  H   H496      1.0  0.77915  0.89136  0.33313  1.0000
  C   C415      1.0  0.77308  0.90514  0.35754  1.0000
  C   C416      1.0  0.96149  0.98341  0.03115  1.0000
  C   C417      1.0  0.00180  0.54818  0.97049  1.0000
  H   H497      1.0  0.90890  0.94260  0.07121  1.0000
  H   H498      1.0  0.77198  0.85292  0.45893  1.0000
  H   H499      1.0  0.69572  0.57545  0.45027  1.0000
  H   H500      1.0  0.86175  0.51685  0.11791  1.0000
  H   H501      1.0  0.99990  0.56906  0.98607  1.0000
  C   C418      1.0  0.00498  0.52099  0.99182  1.0000
  H   H502      1.0  0.97552  0.98333  0.00633  1.0000
  C   C419      1.0  0.69779  0.53664  0.41563  1.0000
  H   H503      1.0  0.70391  0.54935  0.38983  1.0000
  H   H504      1.0  0.81399  0.51159  0.14126  1.0000
  C   C420      1.0  0.69583  0.50550  0.41381  1.0000
  Fe  Fe52      1.0  0.76194  0.94724  0.58229  1.0000
  S   S106      1.0  0.76254  0.95759  0.64665  1.0000
  S   S107      1.0  0.74650  0.98142  0.53609  1.0000
  Fe  Fe53      1.0  0.77491  0.88098  0.59818  1.0000
  S   S108      1.0  0.77681  0.88643  0.66322  1.0000
  S   S109      1.0  0.78099  0.83842  0.56271  1.0000
  Fe  Fe54      1.0  0.73839  0.91484  0.65621  1.0000
  S   S110      1.0  0.70670  0.91095  0.70593  1.0000
  Fe  Fe55      1.0  0.80095  0.92877  0.65034  1.0000
  S   S111      1.0  0.83374  0.94519  0.69360  1.0000
  S   S112      1.0  0.73469  0.90625  0.59185  1.0000
  S   S113      1.0  0.80218  0.92155  0.58523  1.0000
  Fe  Fe56      1.0  0.76426  0.59819  0.56091  1.0000
  S   S114      1.0  0.75571  0.56879  0.61320  1.0000
  S   S115      1.0  0.77037  0.57917  0.49893  1.0000
  Fe  Fe57      1.0  0.76113  0.65649  0.61040  1.0000
  S   S116      1.0  0.75165  0.62935  0.66479  1.0000
  S   S117      1.0  0.76372  0.70530  0.63039  1.0000
  Fe  Fe58      1.0  0.78591  0.59906  0.64483  1.0000
  S   S118      1.0  0.81749  0.58255  0.69008  1.0000
  Fe  Fe59      1.0  0.72233  0.60240  0.62811  1.0000
  H   H505      1.0  0.77075  0.89528  0.52208  1.0000
  S   S119      1.0  0.79658  0.62683  0.59188  1.0000
  S   S120      1.0  0.72979  0.63094  0.57443  1.0000
  Fe  Fe60      1.0  0.97921  0.60601  0.75586  1.0000
  S   S121      1.0  0.96756  0.63050  0.81043  1.0000
  S   S122      1.0  0.94938  0.59506  0.70543  1.0000
  H   H506      1.0  0.76730  0.81498  0.64051  1.0000
  C   C421      1.0  0.91691  0.53193  0.64200  1.0000
  H   H507      1.0  0.76062  0.76292  0.66551  1.0000
  H   H508      1.0  0.72510  0.93134  0.48569  1.0000
  C   C422      1.0  0.76777  0.74195  0.61002  1.0000
  C   C423      1.0  0.77412  0.74713  0.57066  1.0000
  Fe  Fe61      1.0  0.99059  0.91875  0.76994  1.0000
  S   S123      1.0  0.98107  0.90757  0.83278  1.0000
  S   S124      1.0  0.96100  0.90946  0.71924  1.0000
  C   C424      1.0  0.68989  0.98569  0.76499  1.0000
  C   C425      1.0  0.77809  0.77678  0.55659  1.0000
  H   H509      1.0  0.77610  0.72836  0.55114  1.0000
  H   H510      1.0  0.82965  0.86687  0.72123  1.0000
  H   H511      1.0  0.85958  0.55389  0.51849  1.0000
  C   C426      1.0  0.77563  0.80149  0.58160  1.0000
  H   H512      1.0  0.93509  0.53364  0.66064  1.0000
  Fe  Fe62      1.0  0.00184  0.66295  0.79365  1.0000
  H   H513      1.0  0.78310  0.78057  0.52615  1.0000
  C   C427      1.0  0.76926  0.79625  0.62091  1.0000
  C   C428      1.0  0.72495  0.90693  0.47913  1.0000
  C   C429      1.0  0.00338  0.52137  0.90978  1.0000
  C   C430      1.0  0.76549  0.76666  0.63500  1.0000
  C   C431      1.0  0.91480  0.87304  0.80414  1.0000
  H   H514      1.0  0.72366  0.54746  0.54127  1.0000
  C   C432      1.0  0.77410  0.90563  0.49279  1.0000
  C   C433      1.0  0.91951  0.53511  0.60167  1.0000
  C   C434      1.0  0.85381  0.58962  0.69488  1.0000
  C   C435      1.0  0.86700  0.58241  0.73043  1.0000
  C   C436      1.0  0.89604  0.58554  0.73485  1.0000
  C   C437      1.0  0.91238  0.59562  0.70352  1.0000
  C   C438      1.0  0.89911  0.60333  0.66813  1.0000
  C   C439      1.0  0.87000  0.60065  0.66391  1.0000
  H   H515      1.0  0.85475  0.57372  0.75455  1.0000
  H   H516      1.0  0.90591  0.57904  0.76202  1.0000
  H   H517      1.0  0.91157  0.61071  0.64353  1.0000
  H   H518      1.0  0.86031  0.60598  0.63625  1.0000
  H   H519      1.0  0.89950  0.53726  0.54678  1.0000
  S   S125      1.0  0.99259  0.98681  0.88770  1.0000
  H   H520      1.0  0.92460  0.89021  0.78474  1.0000
  H   H521      1.0  0.71874  0.89563  0.50698  1.0000
  H   H522      1.0  0.68504  0.00069  0.69059  1.0000
  C   C440      1.0  0.86934  0.93563  0.69941  1.0000
  C   C441      1.0  0.88364  0.91848  0.67212  1.0000
  C   C442      1.0  0.91180  0.91117  0.67836  1.0000
  C   C443      1.0  0.92602  0.92096  0.71181  1.0000
  C   C444      1.0  0.91188  0.93866  0.73872  1.0000
  C   C445      1.0  0.88370  0.94585  0.73256  1.0000
  H   H523      1.0  0.87299  0.91079  0.64627  1.0000
  H   H524      1.0  0.92259  0.89768  0.65722  1.0000
  H   H525      1.0  0.92260  0.94670  0.76435  1.0000
  H   H526      1.0  0.87292  0.95945  0.75361  1.0000
  H   H527      1.0  0.00338  0.82197  0.78355  1.0000
  H   H528      1.0  0.89421  0.88178  0.81285  1.0000
  N   N28       1.0  0.84165  0.69640  0.68717  1.0000
  C   C446      1.0  0.84067  0.72258  0.65989  1.0000
  C   C447      1.0  0.83387  0.66939  0.66468  1.0000
  C   C448      1.0  0.82029  0.70111  0.71768  1.0000
  C   C449      1.0  0.86921  0.69190  0.70560  1.0000
  C   C450      1.0  0.87358  0.66747  0.73186  1.0000
  C   C451      1.0  0.89239  0.71113  0.69807  1.0000
  C   C452      1.0  0.89947  0.66255  0.74931  1.0000
  C   C453      1.0  0.91823  0.70584  0.71560  1.0000
  C   C454      1.0  0.92177  0.68156  0.74100  1.0000
  H   H529      1.0  0.84511  0.74399  0.67513  1.0000
  H   H530      1.0  0.85544  0.71996  0.63520  1.0000
  H   H531      1.0  0.81971  0.72524  0.64648  1.0000
  H   H532      1.0  0.85017  0.66380  0.64296  1.0000
  H   H533      1.0  0.81395  0.67267  0.64872  1.0000
  H   H534      1.0  0.83060  0.64929  0.68370  1.0000
  H   H535      1.0  0.82569  0.72067  0.73615  1.0000
  H   H536      1.0  0.79939  0.70530  0.70457  1.0000
  H   H537      1.0  0.81779  0.68119  0.73725  1.0000
  H   H538      1.0  0.85712  0.65165  0.73868  1.0000
  H   H539      1.0  0.89126  0.73022  0.67849  1.0000
  H   H540      1.0  0.90251  0.64352  0.76886  1.0000
  H   H541      1.0  0.93587  0.72039  0.70936  1.0000
  H   H542      1.0  0.94196  0.67736  0.75404  1.0000
  C   C455      1.0  0.68570  0.53514  0.48535  1.0000
  H   H543      1.0  0.68061  0.62400  0.70748  1.0000
  N   N29       1.0  0.68107  0.54982  0.52338  1.0000
  H   H544      1.0  0.77452  0.93037  0.49685  1.0000
  H   H545      1.0  0.83915  0.57870  0.57573  1.0000
  N   N30       1.0  0.84330  0.53104  0.56964  1.0000
  H   H546      1.0  0.98876  0.77336  0.75488  1.0000
  H   H547      1.0  0.93994  0.53883  0.58912  1.0000
  S   S126      1.0  0.99915  0.58425  0.90424  1.0000
  C   C456      1.0  0.86706  0.52715  0.63497  1.0000
  C   C457      1.0  0.99920  0.77359  0.78285  1.0000
  C   C458      1.0  0.76719  0.54376  0.47455  1.0000
  H   H548      1.0  0.88878  0.52612  0.69006  1.0000
  H   H549      1.0  0.92757  0.87178  0.83121  1.0000
  C   C459      1.0  0.00115  0.54872  0.92931  1.0000
  C   C460      1.0  0.00732  0.80118  0.79913  1.0000
  H   H550      1.0  0.89518  0.83288  0.65014  1.0000
  C   C461      1.0  0.82681  0.55773  0.58007  1.0000
  S   S127      1.0  0.99216  0.71251  0.78130  1.0000
  H   H551      1.0  0.74576  0.85370  0.49508  1.0000
  H   H552      1.0  0.80769  0.55966  0.56189  1.0000
  H   H553      1.0  0.84696  0.85103  0.65696  1.0000
  H   H554      1.0  0.69640  0.99171  0.79499  1.0000
  H   H555      1.0  0.00261  0.52111  0.87823  1.0000
  H   H556      1.0  0.70333  0.51522  0.55528  1.0000
  C   C462      1.0  0.89077  0.52767  0.65855  1.0000
  H   H557      1.0  0.87986  0.82818  0.82198  1.0000
  Fe  Fe63      1.0  0.00713  0.94850  0.84774  1.0000
  H   H558      1.0  0.70310  0.59135  0.51182  1.0000
  N   N31       1.0  0.91317  0.84362  0.78436  1.0000
  C   C463      1.0  0.90075  0.82126  0.81169  1.0000
  C   C464      1.0  0.94216  0.83415  0.77634  1.0000
  C   C465      1.0  0.89595  0.53428  0.57767  1.0000
  C   C466      1.0  0.89560  0.84598  0.74889  1.0000
  C   C467      1.0  0.90500  0.83738  0.71127  1.0000
  C   C468      1.0  0.86773  0.85616  0.75157  1.0000
  C   C469      1.0  0.88743  0.83885  0.67871  1.0000
  C   C470      1.0  0.85051  0.85792  0.71874  1.0000
  C   C471      1.0  0.86027  0.84909  0.68243  1.0000
  H   H559      1.0  0.89842  0.79903  0.79745  1.0000
  H   H560      1.0  0.91390  0.81792  0.83817  1.0000
  H   H561      1.0  0.82005  0.55714  0.61111  1.0000
  H   H562      1.0  0.95278  0.85016  0.75591  1.0000
  H   H563      1.0  0.94299  0.81120  0.76392  1.0000
  H   H564      1.0  0.95496  0.83352  0.80346  1.0000
  H   H565      1.0  0.76154  0.51629  0.52607  1.0000
  Fe  Fe64      1.0  0.00083  0.60253  0.84066  1.0000
  H   H566      1.0  0.86098  0.51319  0.51692  1.0000
  H   H567      1.0  0.92599  0.83004  0.70601  1.0000
  C   C472      1.0  0.76284  0.51654  0.49461  1.0000
  H   H568      1.0  0.69942  0.54955  0.58075  1.0000
  H   H569      1.0  0.85902  0.86318  0.77901  1.0000
  C   C473      1.0  0.86889  0.53039  0.59374  1.0000
  H   H570      1.0  0.80238  0.98426  0.50040  1.0000
  C   C474      1.0  0.84863  0.53270  0.52691  1.0000
  H   H571      1.0  0.82888  0.53271  0.50977  1.0000
  C   C475      1.0  0.70278  0.53997  0.55132  1.0000
  H   H572      1.0  0.70909  0.98564  0.74678  1.0000
  C   C476      1.0  0.68218  0.58314  0.52114  1.0000
  C   C477      1.0  0.78846  0.99816  0.48332  1.0000
  C   C478      1.0  0.00448  0.74625  0.80240  1.0000
  H   H573      1.0  0.84719  0.52534  0.64960  1.0000
  C   C479      1.0  0.76064  0.00083  0.49463  1.0000
  H   H574      1.0  0.67818  0.59342  0.55014  1.0000
  H   H575      1.0  0.79512  0.89876  0.48284  1.0000
  S   S128      1.0  0.67726  0.58663  0.63735  1.0000
  H   H576      1.0  0.68219  0.96215  0.76613  1.0000
  N   N32       1.0  0.75228  0.89614  0.46497  1.0000
  C   C480      1.0  0.75132  0.86277  0.46557  1.0000
