data_image0
_chemical_formula_structural       CFeC2HCHSHCHNH4SFeHCHSHC2SCH2CH2CFeC2H2CHSCFeH6CSFeS2FeC3HFeSHSFeHS2HFe2S2H4SCFeS2HSH3FeS2CS2HCHC4H3CHCHC7H4C2SHC3H2C7H5C2SH2CH2C2SC2NC5HCHSH7CNH2NHCNC9HCH12NFeH5C3HCHSHC2SHCHC3NC4H4C5HCH5CH2CH2CSHCH2CH2NH3C2SH4FeC2H2C2HCH2CH2FeSH2FeHFeC2HSHS2C2HFeCH2CHFeHCH2CH2CH3C2H3CHC2FeS2FeS2FeSFeS3FeS2FeS2FeSFeS3H3SH4C8H4C6H4CHNHCH3C6H5CSCH2CHC3H4CH2FeH2CH2CHCH3CHNC6SHCH6CNHCH4CHCHNH4C2HCH3CHCNHCH3SC3H3C2H2C2HNCHFeC3H3CHSH6CHCH4C5HC2HCH2CNHC3HCHCH2C2SHC4NHC2FeHCHCHSH2SH4C4H2CHCHC3HFeC2H3C2SH2CHSC4HFeH2CS2C4H2CH2C2SC2H2CHCHC2H5CH3CH4C3HSHS2CH4CHCNHCHCFeCH2CHSCH4CH3C5FeHNCH4CHCH4SCHC2FeS2FeS2C2HC3H2C2H2C6H4C2H3C2HSFeS2FeS2FeS2FeS2FeS2FeCSH3C2HCHC4H2CHC2HCHCHC5H2C3HNC2HCHCHSCH2C2SFeH7SCHNC3HSCHCNHNH7C4HCH2CHSCFeCH4CH5C2H6C3HFeHCHC2HCFeH2SHNCH2C2H5CH3C3HCFeC2H2CHCH5C2H2CSCHCH4C2HSH7SH2NSH2NHSCHC4HCFeS2FeS3FeS2FeS3C4H3C4H4NHC3H4S2H3SFeS2FeS2FeSFeS2C2H2C7H3C4H2C6H5CH2CHC2H2C4HC3HCHCHC3HCHFeH2C4HNH4CH2CH3C2HCHC3H2CH2CHCH4CHCSCH3C4HFeHC4NCH3SHCH6CH6NCH2SHCH4S2HC2H3CNC4H4NCNCH3SH4CHCHC2HCH5CHCH2Fe2CHCHCH3C2H4C3HC3SC2H2FeS2H5CHCH2CH2CH2C2HNC2FeHC5HNHNHSHC2HCH3CH2CHCHFeH3SC2HCFe2S2CHC2FeC5H2CH4C2H3C3HNC2HCH3CH2CHCH2C3HCSH2CHC2HCHFeS2FeS2FeSFeS3HCH4FeS2FeS2FeSFeS3C6H3CH2C6H4C6H4C6H5C3H4C2H2CH2CHCSC2HCH3C2SC4H3C3HCSHCH2CHC3H2CH3CFeH5CHCH6CSHCHCHCHCHC2H2CNHSCHCHCHC2H2C2H5FeH5CNHNSC2HNC2HCHC4HCFeH2C2H7SCNSH3NC3SHC2H3CHFeS2HS2FeSCHSCFeSHCSCFeS2FeS2FeSFeHS2CH3FeS2HSHSFeH2SC6H4C6H4CFeCHCFeCH3C2H4CH2SC2H2C4H6C3HC2HCNCFeC2H2CH4C2SHC2H2C2H2CH2CH2C2H2Fe2C2SH3C2HCHCH3SNC9H14CNC2NC9H8CHFeSCHNH2CH3SC2H3CH2CHCS2CH2CHSHSH2CHC3HC2HSCFeS2H2CHCH2CHNC3H5CHC2FeHCSFeCHSH2C3FeHSCH2SHCHFeCH3C2HSC
_chemical_formula_sum              "C720 Fe96 H864 S192 N48"
_cell_length_a       46.9492
_cell_length_b       52.7424
_cell_length_c       33.3594
_cell_angle_alpha    89.6915
_cell_angle_beta     90.0263
_cell_angle_gamma    90.0307

_space_group_name_H-M_alt    "P 1"
_space_group_IT_number       1

loop_
  _space_group_symop_operation_xyz
  'x, y, z'

loop_
  _atom_site_type_symbol
  _atom_site_label
  _atom_site_symmetry_multiplicity
  _atom_site_fract_x
  _atom_site_fract_y
  _atom_site_fract_z
  _atom_site_occupancy
  C   C1        1.0  0.22204  0.37513  0.19238  1.0000
  Fe  Fe1       1.0  0.36391  0.43745  0.39310  1.0000
  C   C2        1.0  0.27584  0.43779  0.29173  1.0000
  C   C3        1.0  0.27004  0.38954  0.20608  1.0000
  H   H1        1.0  0.05009  0.37660  0.25575  1.0000
  C   C4        1.0  0.17774  0.36047  0.13875  1.0000
  H   H2        1.0  0.18148  0.38688  0.07193  1.0000
  S   S1        1.0  0.06057  0.44110  0.27221  1.0000
  H   H3        1.0  0.35620  0.36712  0.49857  1.0000
  C   C5        1.0  0.12586  0.40010  0.04890  1.0000
  H   H4        1.0  0.29579  0.39834  0.15481  1.0000
  N   N1        1.0  0.20485  0.36936  0.12043  1.0000
  H   H5        1.0  0.12731  0.44078  0.05351  1.0000
  H   H6        1.0  0.19924  0.34210  0.07300  1.0000
  H   H7        1.0  0.29007  0.43356  0.31633  1.0000
  H   H8        1.0  0.28632  0.39505  0.22745  1.0000
  S   S2        1.0  0.12075  0.39413  0.10044  1.0000
  Fe  Fe2       1.0  0.15912  0.43641  0.22192  1.0000
  H   H9        1.0  0.23929  0.38055  0.25159  1.0000
  C   C6        1.0  0.22852  0.43539  0.26204  1.0000
  H   H10       1.0  0.23934  0.42108  0.32073  1.0000
  S   S3        1.0  0.12303  0.40956  0.21081  1.0000
  H   H11       1.0  0.20178  0.36982  0.20526  1.0000
  C   C7        1.0  0.22679  0.37645  0.15029  1.0000
  C   C8        1.0  0.24712  0.43062  0.29408  1.0000
  S   S4        1.0  0.19314  0.42470  0.26585  1.0000
  C   C9        1.0  0.21569  0.34858  0.09480  1.0000
  H   H12       1.0  0.16744  0.37570  0.15672  1.0000
  H   H13       1.0  0.22213  0.33191  0.11332  1.0000
  C   C10       1.0  0.19810  0.39153  0.09458  1.0000
  H   H14       1.0  0.16180  0.35501  0.11557  1.0000
  H   H15       1.0  0.18976  0.40755  0.11269  1.0000
  C   C11       1.0  0.24355  0.38130  0.21962  1.0000
  Fe  Fe3       1.0  0.12382  0.42472  0.14760  1.0000
  C   C12       1.0  0.04214  0.95212  0.06355  1.0000
  C   C13       1.0  0.25407  0.38493  0.13752  1.0000
  H   H16       1.0  0.18103  0.34351  0.15816  1.0000
  H   H17       1.0  0.25916  0.38676  0.10606  1.0000
  C   C14       1.0  0.27526  0.39147  0.16511  1.0000
  H   H18       1.0  0.05088  0.37074  0.32921  1.0000
  S   S5        1.0  0.35875  0.40359  0.43451  1.0000
  C   C15       1.0  0.23875  0.44750  0.22751  1.0000
  Fe  Fe4       1.0  0.09407  0.44217  0.22387  1.0000
  H   H19       1.0  0.27853  0.95324  0.45343  1.0000
  H   H20       1.0  0.03711  0.97147  0.07171  1.0000
  H   H21       1.0  0.23442  0.35447  0.07665  1.0000
  H   H22       1.0  0.21683  0.39859  0.07758  1.0000
  H   H23       1.0  0.20857  0.95036  0.49657  1.0000
  H   H24       1.0  0.32583  0.43741  0.51664  1.0000
  C   C16       1.0  0.13213  0.42853  0.99204  1.0000
  S   S6        1.0  0.19835  0.01977  0.62971  1.0000
  Fe  Fe5       1.0  0.28253  0.13156  0.71038  1.0000
  S   S7        1.0  0.28943  0.10200  0.75746  1.0000
  S   S8        1.0  0.26661  0.12250  0.64878  1.0000
  Fe  Fe6       1.0  0.29892  0.17491  0.76545  1.0000
  C   C17       1.0  0.32624  0.03002  0.67959  1.0000
  C   C18       1.0  0.23125  0.24197  0.64308  1.0000
  C   C19       1.0  0.12757  0.37941  0.02276  1.0000
  H   H25       1.0  0.20483  0.26940  0.88307  1.0000
  Fe  Fe7       1.0  0.26763  0.12910  0.79831  1.0000
  S   S9        1.0  0.23458  0.11626  0.84203  1.0000
  H   H26       1.0  0.06163  0.29814  0.75918  1.0000
  S   S10       1.0  0.25713  0.15718  0.74992  1.0000
  Fe  Fe8       1.0  0.04154  0.12522  0.83832  1.0000
  H   H27       1.0  0.14350  0.19601  0.69274  1.0000
  S   S11       1.0  0.32381  0.15192  0.72114  1.0000
  S   S12       1.0  0.11948  0.38285  0.80905  1.0000
  H   H28       1.0  0.23874  0.16965  0.64472  1.0000
  Fe  Fe9       1.0  0.13352  0.37877  0.87360  1.0000
  Fe  Fe10      1.0  0.08300  0.15110  0.78230  1.0000
  S   S13       1.0  0.12353  0.14645  0.74779  1.0000
  S   S14       1.0  0.07666  0.15321  0.84888  1.0000
  H   H29       1.0  0.13384  0.44761  0.98018  1.0000
  H   H30       1.0  0.28455  0.34494  0.70752  1.0000
  H   H31       1.0  0.30301  0.27062  0.76310  1.0000
  H   H32       1.0  0.32434  0.06666  0.89146  1.0000
  S   S15       1.0  0.13653  0.41313  0.91375  1.0000
  C   C20       1.0  0.33786  0.05263  0.69341  1.0000
  Fe  Fe11      1.0  0.15331  0.35326  0.79708  1.0000
  S   S16       1.0  0.18339  0.34759  0.74475  1.0000
  S   S17       1.0  0.16957  0.35202  0.86028  1.0000
  H   H33       1.0  0.05017  0.31799  0.98798  1.0000
  S   S18       1.0  0.05070  0.12063  0.77291  1.0000
  H   H34       1.0  0.06413  0.06340  0.80663  1.0000
  H   H35       1.0  0.30466  0.02961  0.66796  1.0000
  H   H36       1.0  0.20570  0.03935  0.73785  1.0000
  Fe  Fe12      1.0  0.26214  0.96225  0.71494  1.0000
  S   S19       1.0  0.03527  0.21900  0.86490  1.0000
  S   S20       1.0  0.31271  0.38135  0.76027  1.0000
  C   C21       1.0  0.06648  0.01497  0.70430  1.0000
  S   S21       1.0  0.22425  0.98671  0.72707  1.0000
  S   S22       1.0  0.34869  0.35659  0.65892  1.0000
  H   H37       1.0  0.32607  0.08344  0.84488  1.0000
  C   C22       1.0  0.21964  0.35559  0.75101  1.0000
  H   H38       1.0  0.23608  0.28878  0.87785  1.0000
  C   C23       1.0  0.31519  0.44500  0.54285  1.0000
  C   C24       1.0  0.27740  0.36992  0.75737  1.0000
  C   C25       1.0  0.25701  0.37953  0.78401  1.0000
  C   C26       1.0  0.22829  0.37220  0.78115  1.0000
  H   H39       1.0  0.26338  0.39296  0.80673  1.0000
  H   H40       1.0  0.21271  0.38006  0.80148  1.0000
  H   H41       1.0  0.24485  0.21464  0.73341  1.0000
  C   C27       1.0  0.24009  0.34564  0.72466  1.0000
  H   H42       1.0  0.23874  0.25492  0.87423  1.0000
  C   C28       1.0  0.13339  0.40780  0.96583  1.0000
  H   H43       1.0  0.32818  0.41427  0.57993  1.0000
  C   C29       1.0  0.26898  0.35255  0.72809  1.0000
  C   C30       1.0  0.15336  0.13672  0.77534  1.0000
  C   C31       1.0  0.15409  0.13840  0.81719  1.0000
  C   C32       1.0  0.17862  0.13093  0.83824  1.0000
  C   C33       1.0  0.20243  0.12214  0.81729  1.0000
  C   C34       1.0  0.20141  0.12004  0.77560  1.0000
  C   C35       1.0  0.17699  0.12744  0.75468  1.0000
  H   H44       1.0  0.13615  0.14602  0.83329  1.0000
  H   H45       1.0  0.17956  0.13292  0.87049  1.0000
  H   H46       1.0  0.21956  0.11280  0.75931  1.0000
  H   H47       1.0  0.17646  0.12576  0.72244  1.0000
  C   C36       1.0  0.31763  0.23511  0.73898  1.0000
  C   C37       1.0  0.33386  0.22358  0.70904  1.0000
  S   S23       1.0  0.05295  0.18275  0.76760  1.0000
  H   H48       1.0  0.14169  0.99324  0.62879  1.0000
  C   C38       1.0  0.32958  0.27643  0.71150  1.0000
  C   C39       1.0  0.31548  0.26154  0.74009  1.0000
  C   C40       1.0  0.35333  0.97150  0.78081  1.0000
  H   H49       1.0  0.30719  0.02898  0.78049  1.0000
  H   H50       1.0  0.32727  0.29680  0.71199  1.0000
  C   C41       1.0  0.33416  0.42392  0.66463  1.0000
  C   C42       1.0  0.21791  0.04788  0.63580  1.0000
  C   C43       1.0  0.21139  0.06882  0.61159  1.0000
  C   C44       1.0  0.22668  0.09149  0.61557  1.0000
  C   C45       1.0  0.24801  0.09365  0.64463  1.0000
  C   C46       1.0  0.25444  0.07274  0.66913  1.0000
  C   C47       1.0  0.23962  0.04976  0.66443  1.0000
  H   H51       1.0  0.19480  0.06738  0.58918  1.0000
  H   H52       1.0  0.22189  0.10740  0.59613  1.0000
  H   H53       1.0  0.27134  0.07398  0.69085  1.0000
  H   H54       1.0  0.24503  0.03355  0.68284  1.0000
  H   H55       1.0  0.05042  0.39140  0.85348  1.0000
  C   C48       1.0  0.04024  0.00839  0.72142  1.0000
  C   C49       1.0  0.18680  0.20839  0.68231  1.0000
  S   S24       1.0  0.25628  0.96453  0.64799  1.0000
  H   H56       1.0  0.33560  0.20324  0.70788  1.0000
  H   H57       1.0  0.23351  0.33277  0.70127  1.0000
  C   C50       1.0  0.04468  0.38403  0.93371  1.0000
  H   H58       1.0  0.26881  0.40234  0.63704  1.0000
  H   H59       1.0  0.32210  0.06026  0.78207  1.0000
  C   C51       1.0  0.05467  0.96460  0.72468  1.0000
  C   C52       1.0  0.34235  0.00787  0.68102  1.0000
  S   S25       1.0  0.29918  0.21711  0.77483  1.0000
  C   C53       1.0  0.19599  0.15921  0.65481  1.0000
  C   C54       1.0  0.20398  0.25048  0.80964  1.0000
  N   N2        1.0  0.11626  0.00255  0.68061  1.0000
  C   C55       1.0  0.12030  0.02995  0.67166  1.0000
  C   C56       1.0  0.13864  0.99493  0.70963  1.0000
  C   C57       1.0  0.12074  0.98846  0.64275  1.0000
  C   C58       1.0  0.08788  0.99635  0.69744  1.0000
  C   C59       1.0  0.34827  0.23853  0.68063  1.0000
  H   H60       1.0  0.28380  0.96036  0.85695  1.0000
  C   C60       1.0  0.31626  0.43181  0.57928  1.0000
  H   H61       1.0  0.33620  0.41416  0.69420  1.0000
  S   S26       1.0  0.04298  0.34292  0.81382  1.0000
  H   H62       1.0  0.11824  0.04161  0.69913  1.0000
  H   H63       1.0  0.14197  0.03389  0.65935  1.0000
  H   H64       1.0  0.10490  0.03679  0.64865  1.0000
  H   H65       1.0  0.16026  0.00105  0.69976  1.0000
  H   H66       1.0  0.13974  0.97404  0.71365  1.0000
  H   H67       1.0  0.13461  0.00308  0.73974  1.0000
  H   H68       1.0  0.34488  0.44269  0.66698  1.0000
  C   C61       1.0  0.30246  0.44111  0.61413  1.0000
  N   N3        1.0  0.30396  0.42668  0.65230  1.0000
  H   H69       1.0  0.30306  0.38986  0.62380  1.0000
  H   H70       1.0  0.31964  0.95217  0.90991  1.0000
  N   N4        1.0  0.04326  0.40845  0.91158  1.0000
  H   H71       1.0  0.08373  0.05039  0.87023  1.0000
  C   C62       1.0  0.32138  0.04175  0.79799  1.0000
  N   N5        1.0  0.10905  0.06088  0.81857  1.0000
  C   C63       1.0  0.11072  0.08748  0.83272  1.0000
  C   C64       1.0  0.08432  0.05832  0.79126  1.0000
  C   C65       1.0  0.10355  0.04455  0.85421  1.0000
  C   C66       1.0  0.13545  0.05435  0.79669  1.0000
  C   C67       1.0  0.14439  0.06929  0.76343  1.0000
  C   C68       1.0  0.15280  0.03320  0.80711  1.0000
  C   C69       1.0  0.16938  0.06375  0.74247  1.0000
  C   C70       1.0  0.17784  0.02793  0.78602  1.0000
  C   C71       1.0  0.18619  0.04328  0.75397  1.0000
  H   H72       1.0  0.11009  0.10144  0.80768  1.0000
  C   C72       1.0  0.29148  0.40110  0.64665  1.0000
  H   H73       1.0  0.13068  0.09083  0.84996  1.0000
  H   H74       1.0  0.08594  0.07104  0.76470  1.0000
  H   H75       1.0  0.04366  0.26987  0.89118  1.0000
  H   H76       1.0  0.08211  0.03848  0.78049  1.0000
  H   H77       1.0  0.12125  0.04583  0.87633  1.0000
  H   H78       1.0  0.28331  0.22469  0.65999  1.0000
  H   H79       1.0  0.10033  0.02435  0.84573  1.0000
  H   H80       1.0  0.13227  0.08564  0.75364  1.0000
  H   H81       1.0  0.14758  0.02038  0.83137  1.0000
  H   H82       1.0  0.17607  0.07564  0.71752  1.0000
  H   H83       1.0  0.19070  0.01164  0.79447  1.0000
  H   H84       1.0  0.29010  0.42718  0.71410  1.0000
  N   N6        1.0  0.23802  0.22056  0.67045  1.0000
  Fe  Fe13      1.0  0.21603  0.98574  0.66161  1.0000
  H   H85       1.0  0.35309  0.98622  0.93008  1.0000
  H   H86       1.0  0.03503  0.28652  0.82106  1.0000
  H   H87       1.0  0.29219  0.38977  0.67490  1.0000
  H   H88       1.0  0.21156  0.25215  0.65212  1.0000
  H   H89       1.0  0.22802  0.23514  0.61186  1.0000
  C   C73       1.0  0.33698  0.98995  0.90747  1.0000
  C   C74       1.0  0.22524  0.27152  0.86628  1.0000
  C   C75       1.0  0.04829  0.33629  0.97328  1.0000
  H   H90       1.0  0.05066  0.38072  0.74966  1.0000
  C   C76       1.0  0.29575  0.99941  0.84907  1.0000
  H   H91       1.0  0.25956  0.24366  0.71421  1.0000
  S   S27       1.0  0.14658  0.28331  0.89420  1.0000
  H   H92       1.0  0.10377  0.99293  0.62052  1.0000
  C   C77       1.0  0.08902  0.27588  0.89256  1.0000
  C   C78       1.0  0.21849  0.17657  0.65525  1.0000
  S   S28       1.0  0.29896  0.97517  0.75354  1.0000
  H   H93       1.0  0.06946  0.03473  0.69685  1.0000
  C   C79       1.0  0.05826  0.38138  0.97166  1.0000
  H   H94       1.0  0.08720  0.29536  0.90194  1.0000
  C   C80       1.0  0.06438  0.26144  0.88647  1.0000
  C   C81       1.0  0.16904  0.16636  0.66791  1.0000
  C   C82       1.0  0.20457  0.29742  0.81449  1.0000
  N   N7        1.0  0.21994  0.27329  0.82256  1.0000
  C   C83       1.0  0.17492  0.25141  0.79749  1.0000
  C   C84       1.0  0.16026  0.22944  0.78642  1.0000
  C   C85       1.0  0.08109  0.97095  0.70813  1.0000
  C   C86       1.0  0.24774  0.27499  0.80149  1.0000
  H   H95       1.0  0.18479  0.29889  0.83260  1.0000
  H   H96       1.0  0.32534  0.06991  0.69215  1.0000
  H   H97       1.0  0.23859  0.22364  0.82154  1.0000
  H   H98       1.0  0.25963  0.29251  0.80978  1.0000
  C   C87       1.0  0.20203  0.20428  0.79998  1.0000
  C   C88       1.0  0.21695  0.22613  0.81110  1.0000
  C   C89       1.0  0.17381  0.20598  0.78747  1.0000
  C   C90       1.0  0.06650  0.23623  0.87408  1.0000
  C   C91       1.0  0.05927  0.40626  0.87346  1.0000
  H   H99       1.0  0.19969  0.13996  0.64475  1.0000
  C   C92       1.0  0.13132  0.38322  0.98140  1.0000
  H   H100      1.0  0.16221  0.18901  0.77932  1.0000
  H   H101      1.0  0.26219  0.25894  0.80885  1.0000
  H   H102      1.0  0.21754  0.31438  0.82238  1.0000
  H   H103      1.0  0.24471  0.27554  0.76846  1.0000
  H   H104      1.0  0.21219  0.18580  0.80183  1.0000
  C   C93       1.0  0.11808  0.23952  0.87592  1.0000
  H   H105      1.0  0.18212  0.22717  0.69322  1.0000
  H   H106      1.0  0.12083  0.96757  0.64746  1.0000
  C   C94       1.0  0.21463  0.20172  0.66930  1.0000
  H   H107      1.0  0.34321  0.03365  0.79649  1.0000
  H   H108      1.0  0.16274  0.26879  0.79741  1.0000
  C   C95       1.0  0.05553  0.43011  0.93411  1.0000
  S   S29       1.0  0.12257  0.32101  0.80502  1.0000
  H   H109      1.0  0.15172  0.15274  0.66798  1.0000
  C   C96       1.0  0.32957  0.06452  0.85912  1.0000
  H   H110      1.0  0.09256  0.09249  0.85258  1.0000
  H   H111      1.0  0.19891  0.29943  0.78222  1.0000
  C   C97       1.0  0.33516  0.01400  0.88974  1.0000
  H   H112      1.0  0.06583  0.25707  0.78583  1.0000
  H   H113      1.0  0.35279  0.06072  0.85573  1.0000
  N   N8        1.0  0.31186  0.04453  0.84011  1.0000
  H   H114      1.0  0.22216  0.24106  0.72198  1.0000
  H   H115      1.0  0.07867  0.42727  0.94005  1.0000
  H   H116      1.0  0.13245  0.36711  0.96156  1.0000
  C   C98       1.0  0.16446  0.19084  0.68181  1.0000
  C   C99       1.0  0.29788  0.97542  0.86672  1.0000
  S   S30       1.0  0.10235  0.34797  0.88801  1.0000
  H   H117      1.0  0.09514  0.20586  0.85884  1.0000
  H   H118      1.0  0.13884  0.23098  0.87206  1.0000
  H   H119      1.0  0.34699  0.98570  0.80224  1.0000
  H   H120      1.0  0.27282  0.19420  0.67830  1.0000
  Fe  Fe14      1.0  0.13682  0.32160  0.86874  1.0000
  C   C100      1.0  0.11589  0.26489  0.88763  1.0000
  C   C101      1.0  0.26614  0.21013  0.65830  1.0000
  H   H121      1.0  0.09626  0.95574  0.70415  1.0000
  H   H122      1.0  0.13794  0.23048  0.77816  1.0000
  C   C102      1.0  0.09336  0.22531  0.86844  1.0000
  C   C103      1.0  0.28851  0.43877  0.68605  1.0000
  H   H123      1.0  0.26593  0.20330  0.62678  1.0000
  C   C104      1.0  0.28183  0.05354  0.84063  1.0000
  H   H124      1.0  0.27282  0.05282  0.87149  1.0000
  H   H125      1.0  0.24872  0.25630  0.64242  1.0000
  C   C105      1.0  0.33356  0.96241  0.75290  1.0000
  H   H126      1.0  0.28008  0.00183  0.82558  1.0000
  H   H127      1.0  0.26767  0.04239  0.82067  1.0000
  Fe  Fe15      1.0  0.32862  0.12422  0.77198  1.0000
  S   S31       1.0  0.18772  0.95165  0.66541  1.0000
  H   H128      1.0  0.34668  0.41257  0.64299  1.0000
  H   H129      1.0  0.11888  0.96362  0.83105  1.0000
  Fe  Fe16      1.0  0.09028  0.35007  0.82291  1.0000
  H   H130      1.0  0.08192  0.40131  0.87931  1.0000
  Fe  Fe17      1.0  0.04344  0.18229  0.83346  1.0000
  C   C106      1.0  0.31408  0.01955  0.86032  1.0000
  C   C107      1.0  0.24117  0.23044  0.71173  1.0000
  H   H131      1.0  0.05397  0.44820  0.91691  1.0000
  S   S32       1.0  0.16842  0.95502  0.78327  1.0000
  H   H132      1.0  0.27978  0.07354  0.83020  1.0000
  S   S33       1.0  0.30736  0.14890  0.81746  1.0000
  S   S34       1.0  0.03531  0.09168  0.87895  1.0000
  C   C108      1.0  0.34641  0.26499  0.68221  1.0000
  C   C109      1.0  0.03271  0.36176  0.91689  1.0000
  H   H133      1.0  0.04441  0.43298  0.96319  1.0000
  Fe  Fe18      1.0  0.34911  0.36441  0.72496  1.0000
  C   C110      1.0  0.05982  0.35782  0.99105  1.0000
  H   H134      1.0  0.05919  0.42431  0.85604  1.0000
  H   H135      1.0  0.03431  0.95857  0.00069  1.0000
  C   C111      1.0  0.31828  0.97074  0.89612  1.0000
  H   H136      1.0  0.26536  0.44070  0.67951  1.0000
  Fe  Fe19      1.0  0.19867  0.95108  0.73087  1.0000
  H   H137      1.0  0.06833  0.39705  0.98682  1.0000
  C   C112      1.0  0.04188  0.29306  0.74245  1.0000
  H   H138      1.0  0.33296  0.99021  0.67095  1.0000
  H   H139      1.0  0.07052  0.35622  0.01979  1.0000
  C   C113      1.0  0.03471  0.33827  0.93628  1.0000
  H   H140      1.0  0.35058  0.02789  0.89945  1.0000
  H   H141      1.0  0.05478  0.24346  0.73893  1.0000
  C   C114      1.0  0.04695  0.25093  0.76804  1.0000
  H   H142      1.0  0.36114  0.22963  0.65778  1.0000
  H   H143      1.0  0.03738  0.23510  0.78550  1.0000
  H   H144      1.0  0.04796  0.28811  0.71123  1.0000
  C   C115      1.0  0.03440  0.98328  0.73155  1.0000
  C   C116      1.0  0.12843  0.42471  0.03354  1.0000
  H   H145      1.0  0.12582  0.36030  0.03449  1.0000
  H   H146      1.0  0.08806  0.58709  0.10176  1.0000
  H   H147      1.0  0.24523  0.50536  0.23298  1.0000
  C   C117      1.0  0.28266  0.93186  0.50822  1.0000
  H   H148      1.0  0.18662  0.75897  0.36715  1.0000
  C   C118      1.0  0.29834  0.89135  0.45962  1.0000
  C   C119      1.0  0.06213  0.85002  0.28027  1.0000
  Fe  Fe20      1.0  0.21534  0.88207  0.38953  1.0000
  S   S35       1.0  0.20429  0.88032  0.32362  1.0000
  S   S36       1.0  0.20942  0.91664  0.42872  1.0000
  Fe  Fe21      1.0  0.23215  0.82684  0.39345  1.0000
  S   S37       1.0  0.22219  0.81984  0.32887  1.0000
  S   S38       1.0  0.24853  0.80013  0.44057  1.0000
  Fe  Fe22      1.0  0.24446  0.85705  0.31810  1.0000
  S   S39       1.0  0.27384  0.85864  0.26421  1.0000
  Fe  Fe23      1.0  0.18300  0.84341  0.33925  1.0000
  S   S40       1.0  0.13974  0.82804  0.32102  1.0000
  S   S41       1.0  0.25730  0.86227  0.38236  1.0000
  S   S42       1.0  0.19117  0.84690  0.40522  1.0000
  Fe  Fe24      1.0  0.27128  0.67523  0.33047  1.0000
  S   S43       1.0  0.26657  0.70248  0.27916  1.0000
  S   S44       1.0  0.27566  0.68676  0.39463  1.0000
  Fe  Fe25      1.0  0.27122  0.62898  0.27651  1.0000
  S   S45       1.0  0.26705  0.65244  0.22069  1.0000
  S   S46       1.0  0.27380  0.58685  0.26862  1.0000
  Fe  Fe26      1.0  0.29918  0.67800  0.24952  1.0000
  S   S47       1.0  0.33685  0.69401  0.21652  1.0000
  Fe  Fe27      1.0  0.23486  0.67414  0.25614  1.0000
  S   S48       1.0  0.19264  0.68559  0.22998  1.0000
  S   S49       1.0  0.30621  0.65244  0.30235  1.0000
  S   S50       1.0  0.23682  0.64890  0.31044  1.0000
  H   H149      1.0  0.09734  0.90514  0.26162  1.0000
  H   H150      1.0  0.06988  0.50635  0.34602  1.0000
  H   H151      1.0  0.34006  0.75064  0.20962  1.0000
  S   S51       1.0  0.09515  0.61302  0.29212  1.0000
  H   H152      1.0  0.18136  0.55497  0.27983  1.0000
  H   H153      1.0  0.08509  0.91088  0.36676  1.0000
  H   H154      1.0  0.12335  0.81771  0.45749  1.0000
  H   H155      1.0  0.08292  0.49423  0.29901  1.0000
  C   C120      1.0  0.32341  0.79832  0.21583  1.0000
  C   C121      1.0  0.16516  0.75890  0.35290  1.0000
  C   C122      1.0  0.16553  0.66498  0.24587  1.0000
  C   C123      1.0  0.17210  0.64084  0.26078  1.0000
  C   C124      1.0  0.15052  0.62512  0.27594  1.0000
  C   C125      1.0  0.12218  0.63323  0.27507  1.0000
  C   C126      1.0  0.11543  0.65701  0.25884  1.0000
  C   C127      1.0  0.13712  0.67289  0.24430  1.0000
  H   H156      1.0  0.19374  0.63405  0.26003  1.0000
  H   H157      1.0  0.15572  0.60656  0.28776  1.0000
  H   H158      1.0  0.09349  0.66318  0.25751  1.0000
  H   H159      1.0  0.13188  0.69138  0.23212  1.0000
  C   C128      1.0  0.29222  0.57172  0.30763  1.0000
  C   C129      1.0  0.30027  0.58493  0.34211  1.0000
  C   C130      1.0  0.31615  0.57265  0.37215  1.0000
  C   C131      1.0  0.32379  0.54716  0.36774  1.0000
  C   C132      1.0  0.31532  0.53395  0.33353  1.0000
  C   C133      1.0  0.29959  0.54619  0.30356  1.0000
  H   H160      1.0  0.29418  0.60454  0.34578  1.0000
  H   H161      1.0  0.32245  0.58287  0.39876  1.0000
  H   H162      1.0  0.32027  0.51409  0.33039  1.0000
  H   H163      1.0  0.29322  0.53577  0.27721  1.0000
  C   C134      1.0  0.21308  0.91100  0.48073  1.0000
  H   H164      1.0  0.34642  0.86926  0.52520  1.0000
  N   N9        1.0  0.16348  0.74049  0.31953  1.0000
  H   H165      1.0  0.21337  0.56757  0.25677  1.0000
  C   C135      1.0  0.21729  0.88644  0.49550  1.0000
  H   H166      1.0  0.04561  0.85440  0.13724  1.0000
  H   H167      1.0  0.17483  0.50701  0.28312  1.0000
  H   H168      1.0  0.21778  0.87063  0.47508  1.0000
  C   C136      1.0  0.25398  0.76845  0.42703  1.0000
  C   C137      1.0  0.24776  0.75965  0.38847  1.0000
  C   C138      1.0  0.25380  0.73438  0.37827  1.0000
  C   C139      1.0  0.26622  0.71803  0.40654  1.0000
  C   C140      1.0  0.27187  0.72681  0.44519  1.0000
  C   C141      1.0  0.26576  0.75192  0.45541  1.0000
  H   H169      1.0  0.23891  0.77238  0.36634  1.0000
  H   H170      1.0  0.24916  0.72771  0.34854  1.0000
  H   H171      1.0  0.28131  0.71421  0.46719  1.0000
  H   H172      1.0  0.27050  0.75860  0.48528  1.0000
  H   H173      1.0  0.13786  0.87944  0.28745  1.0000
  C   C142      1.0  0.08489  0.83579  0.29607  1.0000
  S   S52       1.0  0.03803  0.89387  0.24994  1.0000
  C   C143      1.0  0.09381  0.88577  0.27124  1.0000
  H   H174      1.0  0.04112  0.84166  0.27813  1.0000
  H   H175      1.0  0.33720  0.85391  0.47912  1.0000
  C   C144      1.0  0.06644  0.87516  0.26824  1.0000
  H   H176      1.0  0.20656  0.74658  0.29845  1.0000
  C   C145      1.0  0.04763  0.55763  0.16076  1.0000
  C   C146      1.0  0.11220  0.84642  0.29939  1.0000
  C   C147      1.0  0.11672  0.87133  0.28620  1.0000
  H   H177      1.0  0.06281  0.56048  0.27587  1.0000
  H   H178      1.0  0.18127  0.76820  0.27819  1.0000
  H   H179      1.0  0.20004  0.48722  0.25791  1.0000
  H   H180      1.0  0.31107  0.80896  0.36508  1.0000
  C   C148      1.0  0.32740  0.86744  0.23488  1.0000
  H   H181      1.0  0.03687  0.56747  0.33620  1.0000
  H   H182      1.0  0.17877  0.50855  0.22949  1.0000
  Fe  Fe28      1.0  0.13031  0.47845  0.17501  1.0000
  H   H183      1.0  0.32978  0.60952  0.22496  1.0000
  H   H184      1.0  0.03776  0.85989  0.08556  1.0000
  C   C149      1.0  0.29213  0.91498  0.44259  1.0000
  H   H185      1.0  0.04973  0.94117  0.12363  1.0000
  H   H186      1.0  0.28848  0.84013  0.46621  1.0000
  C   C150      1.0  0.32760  0.79950  0.30672  1.0000
  H   H187      1.0  0.35497  0.61656  0.18590  1.0000
  C   C151      1.0  0.14127  0.89668  0.37303  1.0000
  H   H188      1.0  0.22460  0.52540  0.20080  1.0000
  H   H189      1.0  0.08119  0.81654  0.30615  1.0000
  H   H190      1.0  0.07494  0.89554  0.41300  1.0000
  C   C152      1.0  0.21196  0.93131  0.50774  1.0000
  H   H191      1.0  0.31493  0.81568  0.23036  1.0000
  N   N10       1.0  0.13266  0.61823  0.12926  1.0000
  C   C153      1.0  0.15466  0.63642  0.11479  1.0000
  C   C154      1.0  0.13236  0.61867  0.17357  1.0000
  C   C155      1.0  0.14156  0.59250  0.11626  1.0000
  C   C156      1.0  0.10395  0.62545  0.11467  1.0000
  C   C157      1.0  0.08357  0.60715  0.10210  1.0000
  C   C158      1.0  0.09462  0.65106  0.11640  1.0000
  S   S53       1.0  0.32252  0.45764  0.25303  1.0000
  H   H192      1.0  0.12866  0.57732  0.13067  1.0000
  C   C159      1.0  0.33201  0.85489  0.51161  1.0000
  H   H193      1.0  0.15296  0.65532  0.12925  1.0000
  H   H194      1.0  0.17664  0.62992  0.12210  1.0000
  H   H195      1.0  0.15324  0.63912  0.08173  1.0000
  H   H196      1.0  0.12704  0.63785  0.18484  1.0000
  H   H197      1.0  0.15335  0.61328  0.18658  1.0000
  H   H198      1.0  0.11593  0.60562  0.18603  1.0000
  C   C160      1.0  0.05337  0.90204  0.04213  1.0000
  N   N11       1.0  0.30173  0.86152  0.51855  1.0000
  H   H199      1.0  0.16392  0.58814  0.12502  1.0000
  C   C161      1.0  0.06590  0.89958  0.15485  1.0000
  H   H200      1.0  0.10803  0.66588  0.12824  1.0000
  H   H201      1.0  0.27571  0.46333  0.19799  1.0000
  H   H202      1.0  0.18188  0.73596  0.26095  1.0000
  H   H203      1.0  0.13705  0.90948  0.34707  1.0000
  C   C162      1.0  0.14011  0.88884  0.47437  1.0000
  H   H204      1.0  0.33579  0.56948  0.24910  1.0000
  C   C163      1.0  0.18410  0.74817  0.28794  1.0000
  H   H205      1.0  0.16100  0.77865  0.34268  1.0000
  N   N12       1.0  0.05012  0.52273  0.29374  1.0000
  H   H206      1.0  0.19513  0.71585  0.34647  1.0000
  H   H207      1.0  0.14135  0.87688  0.36188  1.0000
  H   H208      1.0  0.06009  0.67755  0.10780  1.0000
  H   H209      1.0  0.11119  0.56105  0.20977  1.0000
  C   C164      1.0  0.17277  0.71539  0.33525  1.0000
  C   C165      1.0  0.12295  0.76250  0.28416  1.0000
  H   H210      1.0  0.17211  0.70068  0.31142  1.0000
  C   C166      1.0  0.33611  0.78008  0.27989  1.0000
  H   H211      1.0  0.14923  0.75439  0.37658  1.0000
  H   H212      1.0  0.21956  0.56350  0.32385  1.0000
  H   H213      1.0  0.30513  0.78500  0.21269  1.0000
  C   C167      1.0  0.09513  0.55427  0.18914  1.0000
  H   H214      1.0  0.29296  0.91753  0.41032  1.0000
  C   C168      1.0  0.33277  0.75465  0.29347  1.0000
  N   N13       1.0  0.12024  0.90014  0.40547  1.0000
  H   H215      1.0  0.07191  0.88456  0.17694  1.0000
  C   C169      1.0  0.13415  0.74043  0.30297  1.0000
  H   H216      1.0  0.12216  0.70138  0.31939  1.0000
  H   H217      1.0  0.32804  0.81924  0.29786  1.0000
  H   H218      1.0  0.24369  0.55811  0.38742  1.0000
  S   S54       1.0  0.13506  0.52024  0.16502  1.0000
  C   C170      1.0  0.25444  0.51905  0.37782  1.0000
  C   C171      1.0  0.11574  0.71903  0.30554  1.0000
  C   C172      1.0  0.12092  0.85546  0.43267  1.0000
  H   H219      1.0  0.15944  0.70902  0.36096  1.0000
  H   H220      1.0  0.34337  0.52429  0.23732  1.0000
  H   H221      1.0  0.03726  0.53007  0.11562  1.0000
  C   C173      1.0  0.04938  0.93437  0.09317  1.0000
  C   C174      1.0  0.06841  0.56596  0.18774  1.0000
  H   H222      1.0  0.13538  0.77970  0.28189  1.0000
  H   H223      1.0  0.33739  0.83602  0.52471  1.0000
  C   C175      1.0  0.28353  0.84233  0.49856  1.0000
  C   C176      1.0  0.10105  0.53381  0.16413  1.0000
  H   H224      1.0  0.14577  0.83151  0.52094  1.0000
  N   N14       1.0  0.06304  0.88930  0.11366  1.0000
  C   C177      1.0  0.09545  0.76291  0.26797  1.0000
  H   H225      1.0  0.26355  0.48096  0.35915  1.0000
  Fe  Fe29      1.0  0.34732  0.45847  0.31112  1.0000
  C   C178      1.0  0.08825  0.71966  0.28921  1.0000
  C   C179      1.0  0.09124  0.89590  0.38879  1.0000
  C   C180      1.0  0.12653  0.88171  0.43797  1.0000
  H   H226      1.0  0.06401  0.58141  0.20769  1.0000
  H   H227      1.0  0.04902  0.48456  0.31750  1.0000
  H   H228      1.0  0.08956  0.87788  0.37174  1.0000
  C   C181      1.0  0.07151  0.54349  0.29150  1.0000
  H   H229      1.0  0.34725  0.63942  0.22409  1.0000
  S   S55       1.0  0.34417  0.53179  0.40457  1.0000
  H   H230      1.0  0.08749  0.77998  0.25357  1.0000
  H   H231      1.0  0.25081  0.53894  0.23378  1.0000
  H   H232      1.0  0.33056  0.80394  0.18523  1.0000
  H   H233      1.0  0.05696  0.74174  0.25732  1.0000
  H   H234      1.0  0.08259  0.91451  0.15652  1.0000
  H   H235      1.0  0.11535  0.94038  0.39445  1.0000
  C   C182      1.0  0.06358  0.50110  0.31499  1.0000
  H   H236      1.0  0.15726  0.87674  0.53129  1.0000
  C   C183      1.0  0.23943  0.50135  0.31452  1.0000
  H   H237      1.0  0.34419  0.69260  0.30271  1.0000
  H   H238      1.0  0.16318  0.90068  0.38381  1.0000
  H   H239      1.0  0.10781  0.93039  0.44496  1.0000
  H   H240      1.0  0.07469  0.70304  0.29096  1.0000
  C   C184      1.0  0.29597  0.88702  0.50154  1.0000
  C   C185      1.0  0.22625  0.52446  0.30289  1.0000
  C   C186      1.0  0.22110  0.88227  0.53679  1.0000
  C   C187      1.0  0.09060  0.87729  0.10309  1.0000
  C   C188      1.0  0.04067  0.86950  0.11487  1.0000
  H   H241      1.0  0.30765  0.87680  0.33170  1.0000
  C   C189      1.0  0.07819  0.74147  0.27025  1.0000
  C   C190      1.0  0.04350  0.51501  0.25197  1.0000
  H   H242      1.0  0.30863  0.76439  0.38826  1.0000
  C   C191      1.0  0.31776  0.79384  0.34530  1.0000
  H   H243      1.0  0.14410  0.93256  0.42662  1.0000
  H   H244      1.0  0.18691  0.55230  0.22696  1.0000
  C   C192      1.0  0.30971  0.86825  0.26878  1.0000
  N   N15       1.0  0.34679  0.78658  0.23932  1.0000
  H   H245      1.0  0.32063  0.72965  0.34210  1.0000
  C   C193      1.0  0.06701  0.65798  0.10504  1.0000
  C   C194      1.0  0.05331  0.53675  0.13634  1.0000
  C   C195      1.0  0.22792  0.54488  0.33050  1.0000
  H   H246      1.0  0.23970  0.48523  0.29477  1.0000
  C   C196      1.0  0.32309  0.74919  0.33223  1.0000
  H   H247      1.0  0.31864  0.86181  0.20628  1.0000
  C   C197      1.0  0.24181  0.54206  0.36740  1.0000
  H   H248      1.0  0.34504  0.60231  0.29261  1.0000
  H   H249      1.0  0.09084  0.53768  0.27454  1.0000
  C   C198      1.0  0.25321  0.49872  0.35144  1.0000
  C   C199      1.0  0.32110  0.87595  0.30549  1.0000
  S   S56       1.0  0.05395  0.63231  0.19846  1.0000
  H   H250      1.0  0.26061  0.84741  0.50054  1.0000
  C   C200      1.0  0.23417  0.52396  0.23127  1.0000
  C   C201      1.0  0.12187  0.92699  0.41869  1.0000
  C   C202      1.0  0.19789  0.55152  0.25658  1.0000
  C   C203      1.0  0.19064  0.50656  0.25829  1.0000
  N   N16       1.0  0.21239  0.52678  0.26311  1.0000
  H   H251      1.0  0.04538  0.90751  0.16592  1.0000
  C   C204      1.0  0.05541  0.90871  0.08324  1.0000
  C   C205      1.0  0.28412  0.93515  0.46683  1.0000
  Fe  Fe30      1.0  0.05418  0.62579  0.26455  1.0000
  H   H252      1.0  0.26601  0.51724  0.40583  1.0000
  C   C206      1.0  0.07998  0.52471  0.13821  1.0000
  H   H253      1.0  0.08450  0.50884  0.11881  1.0000
  C   C207      1.0  0.35057  0.61882  0.21846  1.0000
  H   H254      1.0  0.06317  0.51140  0.23419  1.0000
  S   S57       1.0  0.13013  0.46785  0.23981  1.0000
  H   H255      1.0  0.33717  0.73866  0.27452  1.0000
  H   H256      1.0  0.30455  0.87636  0.43952  1.0000
  S   S58       1.0  0.32717  0.46151  0.37193  1.0000
  H   H257      1.0  0.09770  0.86359  0.12661  1.0000
  H   H258      1.0  0.14671  0.90806  0.48034  1.0000
  H   H259      1.0  0.11245  0.84827  0.40479  1.0000
  H   H260      1.0  0.07908  0.54935  0.32168  1.0000
  C   C208      1.0  0.34999  0.88285  0.30817  1.0000
  C   C209      1.0  0.12748  0.83767  0.46252  1.0000
  C   C210      1.0  0.04772  0.63963  0.09242  1.0000
  C   C211      1.0  0.05596  0.61429  0.09106  1.0000
  H   H261      1.0  0.13989  0.59047  0.08315  1.0000
  H   H262      1.0  0.10762  0.89184  0.09949  1.0000
  C   C212      1.0  0.31603  0.76875  0.35825  1.0000
  H   H263      1.0  0.08935  0.86635  0.07477  1.0000
  C   C213      1.0  0.28838  0.90819  0.52554  1.0000
  H   H264      1.0  0.04051  0.59991  0.08282  1.0000
  C   C214      1.0  0.14022  0.84538  0.49815  1.0000
  C   C215      1.0  0.14657  0.87088  0.50400  1.0000
  C   C216      1.0  0.35640  0.87388  0.23772  1.0000
  H   H265      1.0  0.28593  0.82308  0.51203  1.0000
  Fe  Fe31      1.0  0.35724  0.49401  0.38027  1.0000
  C   C217      1.0  0.26765  0.45444  0.22500  1.0000
  C   C218      1.0  0.35656  0.56350  0.23900  1.0000
  H   H266      1.0  0.35864  0.88906  0.33653  1.0000
  H   H267      1.0  0.03116  0.49705  0.25055  1.0000
  H   H268      1.0  0.30009  0.47815  0.51176  1.0000
  C   C219      1.0  0.36064  0.53764  0.23207  1.0000
  C   C220      1.0  0.35742  0.76436  0.21648  1.0000
  S   S59       1.0  0.09151  0.45539  0.15988  1.0000
  H   H269      1.0  0.03116  0.53003  0.23603  1.0000
  H   H270      1.0  0.22461  0.45090  0.20245  1.0000
  C   C221      1.0  0.28624  0.44961  0.25715  1.0000
  H   H271      1.0  0.27593  0.94750  0.52694  1.0000
  S   S60       1.0  0.16265  0.44901  0.15781  1.0000
  C   C222      1.0  0.22148  0.90266  0.56358  1.0000
  C   C223      1.0  0.31865  0.89705  0.88948  1.0000
  C   C224      1.0  0.29055  0.89946  0.87598  1.0000
  C   C225      1.0  0.12847  0.92018  0.75741  1.0000
  H   H272      1.0  0.31046  0.87243  0.57974  1.0000
  Fe  Fe32      1.0  0.22849  0.93012  0.65687  1.0000
  H   H273      1.0  0.14433  0.91370  0.73629  1.0000
  H   H274      1.0  0.35194  0.91048  0.80051  1.0000
  C   C226      1.0  0.28690  0.47766  0.57364  1.0000
  S   S61       1.0  0.23729  0.92624  0.72349  1.0000
  S   S62       1.0  0.23036  0.89691  0.61430  1.0000
  C   C227      1.0  0.28498  0.90568  0.83610  1.0000
  C   C228      1.0  0.13479  0.94010  0.78343  1.0000
  C   C229      1.0  0.04635  0.91999  0.01279  1.0000
  C   C230      1.0  0.21634  0.92719  0.54907  1.0000
  H   H275      1.0  0.21644  0.94306  0.56949  1.0000
  H   H276      1.0  0.09719  0.89225  0.74007  1.0000
  C   C231      1.0  0.28766  0.46454  0.61023  1.0000
  H   H277      1.0  0.30301  0.91482  0.77874  1.0000
  H   H278      1.0  0.27660  0.47318  0.63499  1.0000
  C   C232      1.0  0.30063  0.46791  0.54005  1.0000
  C   C233      1.0  0.29625  0.85966  0.56237  1.0000
  S   S63       1.0  0.04806  0.90012  0.78959  1.0000
  C   C234      1.0  0.08118  0.91599  0.78737  1.0000
  C   C235      1.0  0.33567  0.90704  0.82271  1.0000
  H   H279      1.0  0.27564  0.49556  0.57126  1.0000
  H   H280      1.0  0.22419  0.86318  0.54795  1.0000
  C   C236      1.0  0.30748  0.90957  0.80964  1.0000
  H   H281      1.0  0.32181  0.89275  0.92087  1.0000
  C   C237      1.0  0.34214  0.90051  0.86315  1.0000
  H   H282      1.0  0.32689  0.93711  0.70333  1.0000
  C   C238      1.0  0.10181  0.90801  0.75968  1.0000
  C   C239      1.0  0.08730  0.93638  0.81257  1.0000
  H   H283      1.0  0.27292  0.89659  0.89654  1.0000
  H   H284      1.0  0.26319  0.90771  0.82565  1.0000
  H   H285      1.0  0.07167  0.94261  0.83409  1.0000
  H   H286      1.0  0.29984  0.84011  0.57406  1.0000
  H   H287      1.0  0.05656  0.88274  0.03239  1.0000
  C   C240      1.0  0.04070  0.94496  0.02348  1.0000
  H   H288      1.0  0.29757  0.45771  0.69325  1.0000
  H   H289      1.0  0.27377  0.86454  0.56966  1.0000
  H   H290      1.0  0.04419  0.91438  0.98168  1.0000
  C   C241      1.0  0.34201  0.94412  0.72511  1.0000
  H   H291      1.0  0.28575  0.90688  0.55766  1.0000
  H   H292      1.0  0.36345  0.87384  0.92919  1.0000
  H   H293      1.0  0.36250  0.92009  0.93222  1.0000
  H   H294      1.0  0.04991  0.94505  0.73258  1.0000
  C   C242      1.0  0.11409  0.94825  0.81081  1.0000
  C   C243      1.0  0.48651  0.36717  0.36397  1.0000
  C   C244      1.0  0.51093  0.42889  0.25087  1.0000
  H   H295      1.0  0.43829  0.43054  0.38325  1.0000
  S   S64       1.0  0.60795  0.41282  0.16723  1.0000
  H   H296      1.0  0.65451  0.38116  0.10185  1.0000
  S   S65       1.0  0.67623  0.40705  0.23230  1.0000
  S   S66       1.0  0.53420  0.41022  0.22225  1.0000
  C   C245      1.0  0.52803  0.38750  0.33516  1.0000
  H   H297      1.0  0.47613  0.96647  0.18165  1.0000
  H   H298      1.0  0.40404  0.38410  0.38526  1.0000
  H   H299      1.0  0.51895  0.34780  0.32998  1.0000
  H   H300      1.0  0.44435  0.42731  0.29205  1.0000
  C   C246      1.0  0.48351  0.42001  0.26010  1.0000
  H   H301      1.0  0.41838  0.41842  0.42476  1.0000
  C   C247      1.0  0.38490  0.42628  0.49938  1.0000
  N   N17       1.0  0.69611  0.39808  0.10887  1.0000
  H   H302      1.0  0.47650  0.40190  0.24866  1.0000
  C   C248      1.0  0.48850  0.95956  0.20692  1.0000
  H   H303      1.0  0.54720  0.38657  0.31707  1.0000
  C   C249      1.0  0.47621  0.39064  0.37879  1.0000
  Fe  Fe33      1.0  0.63921  0.43057  0.20976  1.0000
  C   C250      1.0  0.42576  0.38167  0.37234  1.0000
  H   H304      1.0  0.42810  0.37756  0.45288  1.0000
  H   H305      1.0  0.45295  0.35618  0.43067  1.0000
  C   C251      1.0  0.51914  0.41063  0.35065  1.0000
  H   H306      1.0  0.60596  0.40370  0.08254  1.0000
  S   S67       1.0  0.38171  0.43139  0.33104  1.0000
  C   C252      1.0  0.49363  0.41235  0.37210  1.0000
  H   H307      1.0  0.46573  0.38343  0.45727  1.0000
  H   H308      1.0  0.67583  0.36916  0.04354  1.0000
  H   H309      1.0  0.47465  0.34982  0.36837  1.0000
  H   H310      1.0  0.48767  0.43110  0.38187  1.0000
  C   C253      1.0  0.36693  0.38379  0.50984  1.0000
  H   H311      1.0  0.42816  0.36105  0.36686  1.0000
  H   H312      1.0  0.66899  0.37812  0.15094  1.0000
  H   H313      1.0  0.45478  0.42664  0.43199  1.0000
  C   C254      1.0  0.51192  0.36575  0.34219  1.0000
  C   C255      1.0  0.43970  0.41806  0.41019  1.0000
  C   C256      1.0  0.67479  0.37811  0.11846  1.0000
  C   C257      1.0  0.37103  0.40482  0.48451  1.0000
  C   C258      1.0  0.44884  0.37656  0.43653  1.0000
  Fe  Fe34      1.0  0.57465  0.43077  0.20624  1.0000
  H   H314      1.0  0.57159  0.95166  0.17680  1.0000
  N   N18       1.0  0.44820  0.39190  0.39916  1.0000
  C   C259      1.0  0.46531  0.43436  0.28460  1.0000
  H   H315      1.0  0.42612  0.39145  0.34267  1.0000
  H   H316      1.0  0.58176  0.96145  0.22626  1.0000
  H   H317      1.0  0.45596  0.96816  0.25013  1.0000
  H   H318      1.0  0.68308  0.35886  0.11161  1.0000
  C   C260      1.0  0.61260  0.40656  0.05189  1.0000
  H   H319      1.0  0.53157  0.42756  0.34460  1.0000
  C   C261      1.0  0.47711  0.96047  0.24541  1.0000
  H   H320      1.0  0.61383  0.36661  0.03882  1.0000
  H   H321      1.0  0.38789  0.44271  0.48049  1.0000
  H   H322      1.0  0.66468  0.42723  0.09972  1.0000
  H   H323      1.0  0.67586  0.42296  0.15089  1.0000
  S   S68       1.0  0.60580  0.44530  0.25176  1.0000
  C   C262      1.0  0.68331  0.42285  0.11930  1.0000
  H   H324      1.0  0.48343  0.95129  0.30751  1.0000
  C   C263      1.0  0.49264  0.95091  0.27771  1.0000
  C   C264      1.0  0.51534  0.94888  0.20052  1.0000
  Fe  Fe35      1.0  0.51373  0.14523  0.73037  1.0000
  S   S69       1.0  0.47613  0.13725  0.69074  1.0000
  S   S70       1.0  0.50948  0.15081  0.79672  1.0000
  Fe  Fe36      1.0  0.60208  0.37833  0.81479  1.0000
  S   S71       1.0  0.56372  0.39823  0.78857  1.0000
  S   S72       1.0  0.59983  0.34466  0.85572  1.0000
  C   C265      1.0  0.47811  0.35680  0.78262  1.0000
  C   C266      1.0  0.56325  0.39098  0.90732  1.0000
  H   H325      1.0  0.38182  0.22686  0.76481  1.0000
  C   C267      1.0  0.53139  0.38133  0.78531  1.0000
  C   C268      1.0  0.51028  0.38949  0.75836  1.0000
  C   C269      1.0  0.48378  0.37707  0.75666  1.0000
  H   H326      1.0  0.51439  0.40554  0.73885  1.0000
  H   H327      1.0  0.46762  0.38344  0.73576  1.0000
  C   C270      1.0  0.59995  0.25141  0.77218  1.0000
  C   C271      1.0  0.57631  0.23572  0.77831  1.0000
  H   H328      1.0  0.61487  0.24709  0.74848  1.0000
  H   H329      1.0  0.57339  0.21927  0.75963  1.0000
  C   C272      1.0  0.39794  0.11264  0.76176  1.0000
  C   C273      1.0  0.42508  0.11001  0.77843  1.0000
  C   C274      1.0  0.44914  0.11723  0.75637  1.0000
  C   C275      1.0  0.44620  0.12697  0.71759  1.0000
  C   C276      1.0  0.41908  0.12897  0.70046  1.0000
  C   C277      1.0  0.39492  0.12189  0.72259  1.0000
  H   H330      1.0  0.42749  0.10264  0.80860  1.0000
  H   H331      1.0  0.46999  0.11499  0.76922  1.0000
  H   H332      1.0  0.41673  0.13623  0.67022  1.0000
  H   H333      1.0  0.68108  0.31806  0.66860  1.0000
  C   C278      1.0  0.50618  0.08211  0.82654  1.0000
  C   C279      1.0  0.48216  0.06663  0.83156  1.0000
  H   H334      1.0  0.50657  0.09626  0.80316  1.0000
  H   H335      1.0  0.46383  0.06928  0.81244  1.0000
  H   H336      1.0  0.41983  0.07179  0.71426  1.0000
  C   C280      1.0  0.62866  0.41346  0.97165  1.0000
  C   C281      1.0  0.61656  0.43111  0.03700  1.0000
  H   H337      1.0  0.63530  0.41622  0.94090  1.0000
  S   S73       1.0  0.45211  0.02793  0.86629  1.0000
  Fe  Fe37      1.0  0.55083  0.12953  0.80001  1.0000
  S   S74       1.0  0.55307  0.12118  0.73417  1.0000
  S   S75       1.0  0.55980  0.09860  0.84493  1.0000
  Fe  Fe38      1.0  0.53664  0.18496  0.78653  1.0000
  S   S76       1.0  0.53761  0.18141  0.71986  1.0000
  S   S77       1.0  0.52655  0.22219  0.81487  1.0000
  Fe  Fe39      1.0  0.57681  0.15803  0.73039  1.0000
  S   S78       1.0  0.61579  0.16448  0.69253  1.0000
  S   S79       1.0  0.57786  0.16458  0.79670  1.0000
  Fe  Fe40      1.0  0.63477  0.36399  0.88993  1.0000
  S   S80       1.0  0.63460  0.39913  0.85167  1.0000
  S   S81       1.0  0.63104  0.36178  0.95738  1.0000
  Fe  Fe41      1.0  0.63484  0.32877  0.81820  1.0000
  S   S82       1.0  0.63458  0.36095  0.77437  1.0000
  S   S83       1.0  0.63618  0.28966  0.79183  1.0000
  Fe  Fe42      1.0  0.66729  0.37841  0.81467  1.0000
  C   C282      1.0  0.38274  0.03098  0.71033  1.0000
  S   S84       1.0  0.67010  0.34472  0.85589  1.0000
  H   H338      1.0  0.66265  0.31487  0.71589  1.0000
  H   H339      1.0  0.69388  0.18115  0.83943  1.0000
  H   H340      1.0  0.66021  0.17915  0.86304  1.0000
  C   C283      1.0  0.67284  0.17046  0.70555  1.0000
  C   C284      1.0  0.45625  0.28203  0.71289  1.0000
  H   H341      1.0  0.63983  0.10182  0.61254  1.0000
  C   C285      1.0  0.48473  0.27448  0.70529  1.0000
  H   H342      1.0  0.40648  0.29909  0.80915  1.0000
  C   C286      1.0  0.55636  0.24161  0.80792  1.0000
  C   C287      1.0  0.56026  0.26308  0.83169  1.0000
  C   C288      1.0  0.58451  0.27828  0.82647  1.0000
  C   C289      1.0  0.60441  0.27244  0.79673  1.0000
  H   H343      1.0  0.54499  0.26754  0.85490  1.0000
  H   H344      1.0  0.58815  0.29393  0.84638  1.0000
  C   C290      1.0  0.67859  0.19214  0.85784  1.0000
  H   H345      1.0  0.58532  0.39359  0.91870  1.0000
  C   C291      1.0  0.48118  0.41667  0.84183  1.0000
  C   C292      1.0  0.43813  0.26984  0.81513  1.0000
  H   H346      1.0  0.49481  0.33319  0.83003  1.0000
  C   C293      1.0  0.57003  0.02547  0.81742  1.0000
  H   H347      1.0  0.48646  0.29891  0.77779  1.0000
  C   C294      1.0  0.64918  0.10030  0.64311  1.0000
  H   H348      1.0  0.56333  0.00732  0.72054  1.0000
  C   C295      1.0  0.49902  0.39107  0.91079  1.0000
  C   C296      1.0  0.48206  0.04755  0.86085  1.0000
  C   C297      1.0  0.50608  0.04398  0.88511  1.0000
  C   C298      1.0  0.52975  0.06008  0.88093  1.0000
  C   C299      1.0  0.52979  0.07916  0.85157  1.0000
  H   H349      1.0  0.50611  0.02921  0.90775  1.0000
  H   H350      1.0  0.54805  0.05767  0.90030  1.0000
  C   C300      1.0  0.62503  0.38889  0.98687  1.0000
  C   C301      1.0  0.61689  0.38556  0.02697  1.0000
  C   C302      1.0  0.64726  0.16026  0.71999  1.0000
  H   H351      1.0  0.68991  0.31027  0.77765  1.0000
  N   N19       1.0  0.43269  0.20064  0.78384  1.0000
  C   C303      1.0  0.40842  0.18503  0.76943  1.0000
  C   C304      1.0  0.45570  0.19914  0.75355  1.0000
  H   H352      1.0  0.50528  0.38013  0.93680  1.0000
  C   C305      1.0  0.42509  0.22757  0.79037  1.0000
  H   H353      1.0  0.61044  0.06651  0.79755  1.0000
  C   C306      1.0  0.44499  0.24444  0.80808  1.0000
  H   H354      1.0  0.62024  0.96861  0.82120  1.0000
  S   S85       1.0  0.38994  0.38669  0.72339  1.0000
  C   C307      1.0  0.47261  0.38550  0.89349  1.0000
  H   H355      1.0  0.42889  0.05050  0.67465  1.0000
  H   H356      1.0  0.63798  0.19850  0.80026  1.0000
  C   C308      1.0  0.65018  0.05396  0.77437  1.0000
  C   C309      1.0  0.67567  0.14519  0.61193  1.0000
  S   S86       1.0  0.49734  0.96565  0.89782  1.0000
  Fe  Fe43      1.0  0.39126  0.37601  0.65819  1.0000
  H   H357      1.0  0.67582  0.34479  0.70112  1.0000
  H   H358      1.0  0.40532  0.44335  0.55050  1.0000
  H   H359      1.0  0.46193  0.17914  0.74753  1.0000
  H   H360      1.0  0.52058  0.43594  0.84264  1.0000
  H   H361      1.0  0.46603  0.23808  0.81669  1.0000
  H   H362      1.0  0.65224  0.22807  0.78183  1.0000
  H   H363      1.0  0.37124  0.27097  0.77691  1.0000
  S   S87       1.0  0.40293  0.40709  0.61432  1.0000
  C   C310      1.0  0.46530  0.24138  0.66135  1.0000
  H   H364      1.0  0.46869  0.22563  0.64112  1.0000
  N   N20       1.0  0.41193  0.03205  0.72725  1.0000
  C   C311      1.0  0.42854  0.05272  0.70782  1.0000
  C   C312      1.0  0.41011  0.03712  0.77083  1.0000
  C   C313      1.0  0.42838  0.00823  0.72186  1.0000
  H   H365      1.0  0.68506  0.07775  0.58876  1.0000
  S   S88       1.0  0.37120  0.32825  0.74169  1.0000
  C   C314      1.0  0.44304  0.18897  0.82179  1.0000
  H   H366      1.0  0.68829  0.23166  0.71675  1.0000
  C   C315      1.0  0.50851  0.31516  0.70910  1.0000
  N   N21       1.0  0.50874  0.28852  0.72362  1.0000
  H   H367      1.0  0.69062  0.37223  0.97434  1.0000
  N   N22       1.0  0.66959  0.21618  0.83823  1.0000
  H   H368      1.0  0.37410  0.12313  0.70899  1.0000
  H   H369      1.0  0.65328  0.14628  0.61919  1.0000
  H   H370      1.0  0.43156  0.03772  0.78502  1.0000
  H   H371      1.0  0.37319  0.07096  0.72015  1.0000
  H   H372      1.0  0.41883  0.99214  0.73872  1.0000
  H   H373      1.0  0.42985  0.00292  0.68968  1.0000
  H   H374      1.0  0.45053  0.00996  0.73351  1.0000
  C   C316      1.0  0.46373  0.39826  0.85905  1.0000
  C   C317      1.0  0.54340  0.42029  0.95494  1.0000
  C   C318      1.0  0.67248  0.14299  0.77746  1.0000
  C   C319      1.0  0.56184  0.43532  0.89215  1.0000
  H   H375      1.0  0.48834  0.32509  0.71669  1.0000
  C   C320      1.0  0.64712  0.14647  0.75592  1.0000
  H   H376      1.0  0.56971  0.98814  0.76468  1.0000
  H   H377      1.0  0.54176  0.35428  0.83160  1.0000
  C   C321      1.0  0.38140  0.96254  0.78101  1.0000
  H   H378      1.0  0.41169  0.27595  0.70166  1.0000
  S   S89       1.0  0.44521  0.34081  0.78209  1.0000
  C   C322      1.0  0.62078  0.05181  0.78033  1.0000
  Fe  Fe44      1.0  0.46554  0.98747  0.86137  1.0000
  C   C323      1.0  0.65031  0.01422  0.73900  1.0000
  H   H379      1.0  0.62757  0.13810  0.76683  1.0000
  H   H380      1.0  0.53502  0.40414  0.97291  1.0000
  H   H381      1.0  0.50942  0.24624  0.67161  1.0000
  H   H382      1.0  0.67610  0.26743  0.86086  1.0000
  C   C324      1.0  0.69413  0.25906  0.84580  1.0000
  H   H383      1.0  0.53860  0.25756  0.72460  1.0000
  H   H384      1.0  0.41954  0.24044  0.65511  1.0000
  H   H385      1.0  0.52600  0.32654  0.72272  1.0000
  H   H386      1.0  0.58247  0.00914  0.82942  1.0000
  H   H387      1.0  0.55418  0.37450  0.92385  1.0000
  C   C325      1.0  0.56072  0.00636  0.75365  1.0000
  C   C326      1.0  0.37657  0.38421  0.54979  1.0000
  H   H388      1.0  0.62827  0.21357  0.86673  1.0000
  H   H389      1.0  0.61124  0.99488  0.73295  1.0000
  H   H390      1.0  0.56595  0.06877  0.77568  1.0000
  H   H391      1.0  0.56449  0.42492  0.96847  1.0000
  H   H392      1.0  0.67231  0.13229  0.80524  1.0000
  H   H393      1.0  0.44366  0.39332  0.84492  1.0000
  C   C327      1.0  0.64634  0.22709  0.86295  1.0000
  C   C328      1.0  0.55903  0.05146  0.75968  1.0000
  C   C329      1.0  0.51741  0.40970  0.89398  1.0000
  H   H394      1.0  0.47533  0.20923  0.76324  1.0000
  Fe  Fe45      1.0  0.51404  0.95301  0.83793  1.0000
  H   H395      1.0  0.56253  0.05487  0.72711  1.0000
  C   C330      1.0  0.41162  0.27932  0.80395  1.0000
  H   H396      1.0  0.45096  0.05330  0.71871  1.0000
  C   C331      1.0  0.50567  0.28845  0.76787  1.0000
  C   C332      1.0  0.68773  0.16684  0.59437  1.0000
  H   H397      1.0  0.65399  0.23215  0.89346  1.0000
  C   C333      1.0  0.61423  0.95293  0.80217  1.0000
  Fe  Fe46      1.0  0.37410  0.32206  0.67538  1.0000
  H   H398      1.0  0.47458  0.42592  0.81423  1.0000
  H   H399      1.0  0.57690  0.04258  0.83421  1.0000
  S   S90       1.0  0.41694  0.34065  0.66918  1.0000
  H   H400      1.0  0.45342  0.28235  0.82927  1.0000
  N   N23       1.0  0.57429  0.02840  0.77362  1.0000
  C   C334      1.0  0.66491  0.03513  0.75388  1.0000
  H   H401      1.0  0.41450  0.16479  0.76646  1.0000
  H   H402      1.0  0.51076  0.31613  0.67592  1.0000
  C   C335      1.0  0.48862  0.25352  0.67913  1.0000
  C   C336      1.0  0.53712  0.27762  0.71427  1.0000
  H   H403      1.0  0.44882  0.20760  0.72456  1.0000
  H   H404      1.0  0.45150  0.29787  0.73211  1.0000
  H   H405      1.0  0.68898  0.19582  0.88723  1.0000
  H   H406      1.0  0.64105  0.08246  0.65700  1.0000
  H   H407      1.0  0.68458  0.08296  0.69968  1.0000
  C   C337      1.0  0.65760  0.21035  0.79827  1.0000
  H   H408      1.0  0.54180  0.27849  0.68160  1.0000
  H   H409      1.0  0.53748  0.00533  0.76011  1.0000
  H   H410      1.0  0.64050  0.11592  0.66187  1.0000
  C   C338      1.0  0.43764  0.24952  0.66932  1.0000
  C   C339      1.0  0.49919  0.34868  0.80956  1.0000
  C   C340      1.0  0.52587  0.36065  0.81052  1.0000
  H   H411      1.0  0.45918  0.37080  0.90623  1.0000
  C   C341      1.0  0.62092  0.01189  0.74462  1.0000
  Fe  Fe47      1.0  0.41215  0.34974  0.73453  1.0000
  C   C342      1.0  0.39180  0.26345  0.78581  1.0000
  C   C343      1.0  0.69432  0.23336  0.83297  1.0000
  H   H412      1.0  0.50407  0.26877  0.77978  1.0000
  H   H413      1.0  0.56666  0.43105  0.86013  1.0000
  C   C344      1.0  0.60519  0.03074  0.76544  1.0000
  H   H414      1.0  0.52407  0.29779  0.78289  1.0000
  C   C345      1.0  0.43318  0.26961  0.69539  1.0000
  H   H415      1.0  0.67297  0.18140  0.67803  1.0000
  H   H416      1.0  0.39978  0.05562  0.77729  1.0000
  H   H417      1.0  0.55462  0.28809  0.72962  1.0000
  H   H418      1.0  0.54725  0.02206  0.82512  1.0000
  H   H419      1.0  0.53567  0.05005  0.76514  1.0000
  C   C346      1.0  0.39055  0.40566  0.56450  1.0000
  C   C347      1.0  0.37018  0.00818  0.69613  1.0000
  H   H420      1.0  0.68777  0.03648  0.74987  1.0000
  H   H421      1.0  0.39645  0.97032  0.80196  1.0000
  C   C348      1.0  0.68093  0.32414  0.70050  1.0000
  S   S91       1.0  0.48408  0.97729  0.80194  1.0000
  C   C349      1.0  0.39827  0.23796  0.77899  1.0000
  H   H422      1.0  0.66167  0.07008  0.78638  1.0000
  C   C350      1.0  0.62437  0.43453  0.99669  1.0000
  H   H423      1.0  0.39013  0.18561  0.79068  1.0000
  H   H424      1.0  0.39770  0.02210  0.78662  1.0000
  H   H425      1.0  0.46382  0.19694  0.83173  1.0000
  H   H426      1.0  0.67507  0.27573  0.72815  1.0000
  C   C351      1.0  0.50771  0.42231  0.85872  1.0000
  C   C352      1.0  0.36551  0.05309  0.70896  1.0000
  H   H427      1.0  0.56470  0.38568  0.87521  1.0000
  S   S92       1.0  0.36598  0.28370  0.64865  1.0000
  H   H428      1.0  0.66201  0.99953  0.72332  1.0000
  H   H429      1.0  0.67292  0.19989  0.77934  1.0000
  H   H430      1.0  0.44671  0.16819  0.81859  1.0000
  H   H431      1.0  0.42736  0.19166  0.84644  1.0000
  H   H432      1.0  0.68008  0.05994  0.63447  1.0000
  H   H433      1.0  0.38120  0.99022  0.69680  1.0000
  H   H434      1.0  0.58289  0.43857  0.90671  1.0000
  S   S93       1.0  0.43335  0.95630  0.86234  1.0000
  H   H435      1.0  0.67460  0.18335  0.58846  1.0000
  H   H436      1.0  0.63701  0.24426  0.84863  1.0000
  N   N24       1.0  0.54593  0.41423  0.91167  1.0000
  S   S94       1.0  0.56184  0.95795  0.83609  1.0000
  H   H437      1.0  0.37337  0.36789  0.56906  1.0000
  H   H438      1.0  0.68349  0.11695  0.70037  1.0000
  N   N25       1.0  0.68083  0.10078  0.64161  1.0000
  H   H439      1.0  0.40104  0.19113  0.73916  1.0000
  S   S95       1.0  0.36823  0.10337  0.78981  1.0000
  C   C353      1.0  0.69238  0.38273  0.03666  1.0000
  H   H440      1.0  0.52905  0.43680  0.95962  1.0000
  C   C354      1.0  0.69024  0.07719  0.62130  1.0000
  C   C355      1.0  0.69678  0.27185  0.71948  1.0000
  C   C356      1.0  0.69146  0.10039  0.68338  1.0000
  C   C357      1.0  0.69249  0.12344  0.62089  1.0000
  H   H441      1.0  0.65622  0.94928  0.77678  1.0000
  C   C358      1.0  0.39468  0.42665  0.53917  1.0000
  Fe  Fe48      1.0  0.43555  0.87469  0.23442  1.0000
  S   S96       1.0  0.43079  0.86617  0.16885  1.0000
  S   S97       1.0  0.40389  0.89041  0.27880  1.0000
  Fe  Fe49      1.0  0.45207  0.82915  0.18438  1.0000
  S   S98       1.0  0.43272  0.79107  0.17178  1.0000
  S   S99       1.0  0.45358  0.83687  0.25000  1.0000
  S   S100      1.0  0.52008  0.69695  0.26930  1.0000
  Fe  Fe50      1.0  0.50739  0.62559  0.24993  1.0000
  S   S101      1.0  0.51065  0.64147  0.31191  1.0000
  S   S102      1.0  0.49688  0.58415  0.24176  1.0000
  Fe  Fe51      1.0  0.48322  0.67285  0.28795  1.0000
  S   S103      1.0  0.44687  0.68825  0.32437  1.0000
  S   S104      1.0  0.47695  0.65525  0.22756  1.0000
  S   S105      1.0  0.61046  0.51975  0.23675  1.0000
  C   C359      1.0  0.52803  0.56566  0.24225  1.0000
  C   C360      1.0  0.57838  0.53685  0.23933  1.0000
  C   C361      1.0  0.57944  0.56283  0.24728  1.0000
  C   C362      1.0  0.55438  0.57709  0.24930  1.0000
  H   H442      1.0  0.59965  0.57209  0.25185  1.0000
  H   H443      1.0  0.55557  0.59696  0.25640  1.0000
  H   H444      1.0  0.60295  0.62051  0.10018  1.0000
  C   C363      1.0  0.39421  0.69672  0.22944  1.0000
  C   C364      1.0  0.41870  0.69539  0.25341  1.0000
  C   C365      1.0  0.41633  0.69230  0.29487  1.0000
  C   C366      1.0  0.38939  0.69174  0.31266  1.0000
  H   H445      1.0  0.45037  0.79734  0.30833  1.0000
  H   H446      1.0  0.60426  0.50508  0.11505  1.0000
  H   H447      1.0  0.43945  0.69680  0.23989  1.0000
  H   H448      1.0  0.38740  0.69009  0.34489  1.0000
  N   N26       1.0  0.37417  0.60841  0.24318  1.0000
  H   H449      1.0  0.45920  0.87217  0.07572  1.0000
  C   C367      1.0  0.45784  0.76670  0.16606  1.0000
  C   C368      1.0  0.47042  0.72231  0.17400  1.0000
  C   C369      1.0  0.45038  0.74191  0.17685  1.0000
  H   H450      1.0  0.46452  0.70314  0.18177  1.0000
  H   H451      1.0  0.42911  0.73789  0.18760  1.0000
  H   H452      1.0  0.38299  0.61645  0.40679  1.0000
  H   H453      1.0  0.63655  0.72674  0.33277  1.0000
  S   S106      1.0  0.64263  0.46673  0.17440  1.0000
  S   S107      1.0  0.67902  0.85337  0.37554  1.0000
  H   H454      1.0  0.56151  0.63428  0.14011  1.0000
  H   H455      1.0  0.38995  0.50870  0.21355  1.0000
  H   H456      1.0  0.41804  0.61839  0.25489  1.0000
  S   S108      1.0  0.37519  0.49268  0.31831  1.0000
  Fe  Fe52      1.0  0.49673  0.85321  0.23816  1.0000
  S   S109      1.0  0.49697  0.84245  0.17331  1.0000
  S   S110      1.0  0.53018  0.84466  0.28515  1.0000
  Fe  Fe53      1.0  0.47595  0.88040  0.16323  1.0000
  S   S111      1.0  0.49346  0.90897  0.11870  1.0000
  S   S112      1.0  0.47891  0.89199  0.22791  1.0000
  Fe  Fe54      1.0  0.51628  0.67710  0.21064  1.0000
  S   S113      1.0  0.52307  0.70280  0.15785  1.0000
  Fe  Fe55      1.0  0.54726  0.66407  0.28739  1.0000
  S   S114      1.0  0.58636  0.67100  0.32485  1.0000
  S   S115      1.0  0.54638  0.64574  0.22689  1.0000
  C   C370      1.0  0.52678  0.53956  0.23454  1.0000
  C   C371      1.0  0.55196  0.52513  0.23326  1.0000
  H   H457      1.0  0.50641  0.53050  0.22959  1.0000
  H   H458      1.0  0.55086  0.50497  0.22790  1.0000
  C   C372      1.0  0.57914  0.94467  0.20646  1.0000
  C   C373      1.0  0.67015  0.67565  0.29806  1.0000
  C   C374      1.0  0.64422  0.67489  0.31891  1.0000
  C   C375      1.0  0.61856  0.67160  0.29814  1.0000
  C   C376      1.0  0.61895  0.66934  0.25639  1.0000
  C   C377      1.0  0.64486  0.67015  0.23552  1.0000
  C   C378      1.0  0.43625  0.62208  0.33867  1.0000
  H   H459      1.0  0.64407  0.67681  0.35121  1.0000
  H   H460      1.0  0.59932  0.66741  0.24000  1.0000
  H   H461      1.0  0.64504  0.66828  0.20323  1.0000
  C   C379      1.0  0.48080  0.90795  0.06898  1.0000
  C   C380      1.0  0.48530  0.77178  0.15175  1.0000
  C   C381      1.0  0.50516  0.75200  0.14802  1.0000
  C   C382      1.0  0.49781  0.72730  0.15966  1.0000
  H   H462      1.0  0.49103  0.79079  0.14269  1.0000
  H   H463      1.0  0.52627  0.75588  0.13653  1.0000
  C   C383      1.0  0.56707  0.84775  0.27679  1.0000
  C   C384      1.0  0.57862  0.84899  0.23818  1.0000
  C   C385      1.0  0.60826  0.85170  0.23305  1.0000
  C   C386      1.0  0.62648  0.85301  0.26641  1.0000
  C   C387      1.0  0.61481  0.85156  0.30489  1.0000
  C   C388      1.0  0.58528  0.84883  0.31003  1.0000
  H   H464      1.0  0.54106  0.45925  0.25870  1.0000
  H   H465      1.0  0.57650  0.84783  0.34000  1.0000
  H   H466      1.0  0.37454  0.75417  0.23312  1.0000
  H   H467      1.0  0.42770  0.53923  0.41233  1.0000
  H   H468      1.0  0.62574  0.79694  0.33588  1.0000
  C   C389      1.0  0.67053  0.67295  0.25636  1.0000
  H   H469      1.0  0.68429  0.74458  0.47399  1.0000
  H   H470      1.0  0.59806  0.54213  0.04682  1.0000
  C   C390      1.0  0.66799  0.56651  0.22901  1.0000
  H   H471      1.0  0.57805  0.93038  0.28321  1.0000
  C   C391      1.0  0.60067  0.52547  0.12204  1.0000
  C   C392      1.0  0.54453  0.59657  0.14653  1.0000
  H   H472      1.0  0.68622  0.75931  0.30071  1.0000
  H   H473      1.0  0.47627  0.55503  0.38564  1.0000
  C   C393      1.0  0.55579  0.76709  0.35309  1.0000
  C   C394      1.0  0.63753  0.60376  0.30744  1.0000
  C   C395      1.0  0.66668  0.75639  0.28233  1.0000
  C   C396      1.0  0.69392  0.83781  0.51145  1.0000
  H   H474      1.0  0.36984  0.87324  0.21142  1.0000
  C   C397      1.0  0.65181  0.58169  0.29372  1.0000
  C   C398      1.0  0.46892  0.54728  0.35646  1.0000
  C   C399      1.0  0.68785  0.50211  0.37599  1.0000
  H   H475      1.0  0.44134  0.55314  0.28722  1.0000
  C   C400      1.0  0.54771  0.57093  0.13708  1.0000
  H   H476      1.0  0.40634  0.54501  0.30541  1.0000
  C   C401      1.0  0.50836  0.73570  0.34422  1.0000
  H   H477      1.0  0.50940  0.48425  0.30266  1.0000
  C   C402      1.0  0.47056  0.79110  0.32276  1.0000
  C   C403      1.0  0.55519  0.90479  0.19596  1.0000
  C   C404      1.0  0.40536  0.57178  0.21941  1.0000
  H   H478      1.0  0.43124  0.51350  0.37830  1.0000
  C   C405      1.0  0.40914  0.54587  0.21210  1.0000
  H   H479      1.0  0.58008  0.51263  0.04891  1.0000
  Fe  Fe56      1.0  0.40761  0.46617  0.34383  1.0000
  H   H480      1.0  0.54653  0.91114  0.16656  1.0000
  H   H481      1.0  0.57394  0.77950  0.35711  1.0000
  C   C406      1.0  0.50802  0.75987  0.32519  1.0000
  C   C407      1.0  0.53227  0.77552  0.33102  1.0000
  C   C408      1.0  0.40005  0.61085  0.38675  1.0000
  C   C409      1.0  0.37883  0.58136  0.23339  1.0000
  H   H482      1.0  0.50019  0.94360  0.05274  1.0000
  N   N27       1.0  0.48340  0.76926  0.30163  1.0000
  H   H483      1.0  0.50358  0.76172  0.24505  1.0000
  H   H484      1.0  0.40969  0.64918  0.36871  1.0000
  H   H485      1.0  0.53238  0.70831  0.37850  1.0000
  H   H486      1.0  0.42959  0.53892  0.20172  1.0000
  C   C410      1.0  0.61913  0.55660  0.33568  1.0000
  H   H487      1.0  0.64334  0.62256  0.29763  1.0000
  H   H488      1.0  0.46917  0.73287  0.28028  1.0000
  C   C411      1.0  0.57306  0.91535  0.26100  1.0000
  H   H489      1.0  0.60064  0.93630  0.20148  1.0000
  H   H490      1.0  0.54934  0.75040  0.20792  1.0000
  H   H491      1.0  0.68239  0.48255  0.37029  1.0000
  C   C412      1.0  0.55042  0.51899  0.11391  1.0000
  C   C413      1.0  0.58460  0.73289  0.23810  1.0000
  H   H492      1.0  0.53185  0.55825  0.14935  1.0000
  C   C414      1.0  0.57394  0.77750  0.24161  1.0000
  H   H493      1.0  0.66649  0.54607  0.23697  1.0000
  C   C415      1.0  0.41487  0.62928  0.36517  1.0000
  C   C416      1.0  0.59091  0.58097  0.10060  1.0000
  C   C417      1.0  0.57832  0.53291  0.05801  1.0000
  H   H494      1.0  0.38851  0.79695  0.26045  1.0000
  H   H495      1.0  0.57558  0.89488  0.18948  1.0000
  C   C418      1.0  0.40697  0.58520  0.38252  1.0000
  H   H496      1.0  0.59360  0.90574  0.25394  1.0000
  H   H497      1.0  0.55934  0.90074  0.27562  1.0000
  C   C419      1.0  0.63797  0.74716  0.34045  1.0000
  H   H498      1.0  0.57959  0.71414  0.22681  1.0000
  C   C420      1.0  0.46469  0.88744  0.05533  1.0000
  H   H499      1.0  0.66289  0.79153  0.33990  1.0000
  H   H500      1.0  0.48132  0.55668  0.33216  1.0000
  H   H501      1.0  0.39424  0.57192  0.39965  1.0000
  H   H502      1.0  0.49069  0.72271  0.34250  1.0000
  C   C421      1.0  0.36776  0.88166  0.27440  1.0000
  H   H503      1.0  0.64680  0.50840  0.40321  1.0000
  C   C422      1.0  0.57082  0.56238  0.11308  1.0000
  S   S116      1.0  0.45421  0.47468  0.33459  1.0000
  C   C423      1.0  0.51997  0.45229  0.26567  1.0000
  H   H504      1.0  0.40606  0.62471  0.20411  1.0000
  H   H505      1.0  0.59891  0.52717  0.15515  1.0000
  H   H506      1.0  0.62023  0.53579  0.11275  1.0000
  C   C424      1.0  0.48784  0.92763  0.04225  1.0000
  C   C425      1.0  0.49291  0.77753  0.26117  1.0000
  C   C426      1.0  0.53220  0.72724  0.36555  1.0000
  C   C427      1.0  0.59754  0.78123  0.26657  1.0000
  H   H507      1.0  0.42365  0.58381  0.21414  1.0000
  Fe  Fe57      1.0  0.60667  0.48012  0.21291  1.0000
  H   H508      1.0  0.54797  0.51801  0.14709  1.0000
  C   C428      1.0  0.38689  0.52882  0.21869  1.0000
  C   C429      1.0  0.58748  0.60658  0.11023  1.0000
  C   C430      1.0  0.39964  0.62458  0.23623  1.0000
  C   C431      1.0  0.42356  0.53331  0.38090  1.0000
  N   N28       1.0  0.43765  0.55049  0.35160  1.0000
  C   C432      1.0  0.44345  0.59660  0.33429  1.0000
  H   H509      1.0  0.56480  0.84757  0.21234  1.0000
  H   H510      1.0  0.61716  0.85253  0.20315  1.0000
  H   H511      1.0  0.40018  0.53243  0.37594  1.0000
  S   S117      1.0  0.66360  0.85622  0.25908  1.0000
  H   H512      1.0  0.39618  0.69865  0.19723  1.0000
  C   C433      1.0  0.60528  0.57858  0.34792  1.0000
  H   H513      1.0  0.44310  0.75724  0.27633  1.0000
  H   H514      1.0  0.57415  0.73608  0.38667  1.0000
  H   H515      1.0  0.61877  0.75203  0.35815  1.0000
  H   H516      1.0  0.64905  0.80346  0.29369  1.0000
  H   H517      1.0  0.60150  0.80041  0.27598  1.0000
  H   H518      1.0  0.60954  0.57583  0.08349  1.0000
  C   C434      1.0  0.46072  0.74998  0.29562  1.0000
  H   H519      1.0  0.53313  0.79451  0.31876  1.0000
  H   H520      1.0  0.65670  0.74906  0.36077  1.0000
  H   H521      1.0  0.50780  0.79387  0.26208  1.0000
  H   H522      1.0  0.53008  0.52582  0.10056  1.0000
  H   H523      1.0  0.62843  0.85268  0.33081  1.0000
  H   H524      1.0  0.55342  0.49907  0.10371  1.0000
  N   N29       1.0  0.57477  0.53542  0.10206  1.0000
  C   C435      1.0  0.68122  0.60850  0.24846  1.0000
  H   H525      1.0  0.43451  0.52198  0.30575  1.0000
  H   H526      1.0  0.60379  0.61923  0.34362  1.0000
  S   S118      1.0  0.57283  0.46687  0.17061  1.0000
  H   H527      1.0  0.45078  0.74406  0.32449  1.0000
  C   C436      1.0  0.64459  0.79010  0.31891  1.0000
  H   H528      1.0  0.64703  0.57208  0.21599  1.0000
  H   H529      1.0  0.65205  0.54045  0.30047  1.0000
  H   H530      1.0  0.52285  0.94814  0.16991  1.0000
  H   H531      1.0  0.48503  0.80785  0.32316  1.0000
  S   S119      1.0  0.39211  0.47053  0.40700  1.0000
  S   S120      1.0  0.68356  0.78701  0.42018  1.0000
  H   H532      1.0  0.47467  0.78381  0.24226  1.0000
  C   C437      1.0  0.47478  0.45740  0.30033  1.0000
  C   C438      1.0  0.61464  0.60210  0.33413  1.0000
  H   H533      1.0  0.46548  0.78611  0.35443  1.0000
  H   H534      1.0  0.47523  0.52690  0.35525  1.0000
  H   H535      1.0  0.66901  0.76782  0.25434  1.0000
  C   C439      1.0  0.61534  0.76066  0.27828  1.0000
  N   N30       1.0  0.64059  0.76373  0.30452  1.0000
  C   C440      1.0  0.55587  0.74285  0.36993  1.0000
  C   C441      1.0  0.66704  0.51684  0.39485  1.0000
  C   C442      1.0  0.64231  0.55808  0.30946  1.0000
  C   C443      1.0  0.50200  0.46642  0.29057  1.0000
  H   H536      1.0  0.46004  0.59209  0.31302  1.0000
  H   H537      1.0  0.61144  0.53824  0.34563  1.0000
  H   H538      1.0  0.58703  0.57741  0.36773  1.0000
  H   H539      1.0  0.52994  0.93248  0.29791  1.0000
  N   N31       1.0  0.67522  0.58260  0.26397  1.0000
  C   C444      1.0  0.56421  0.61439  0.13287  1.0000
  N   N32       1.0  0.55924  0.92599  0.22450  1.0000
  C   C445      1.0  0.36489  0.69282  0.28872  1.0000
  H   H540      1.0  0.56073  0.79350  0.23296  1.0000
  H   H541      1.0  0.39548  0.64467  0.24433  1.0000
  H   H542      1.0  0.66660  0.73602  0.27373  1.0000
  S   S121      1.0  0.61186  0.45771  0.06818  1.0000
  H   H543      1.0  0.52674  0.60263  0.16494  1.0000
  H   H544      1.0  0.38194  0.60065  0.30549  1.0000
  H   H545      1.0  0.65595  0.55370  0.41748  1.0000
  H   H546      1.0  0.62118  0.72019  0.26978  1.0000
  C   C446      1.0  0.60824  0.73648  0.26291  1.0000
  H   H547      1.0  0.44741  0.63633  0.32136  1.0000
  C   C447      1.0  0.42958  0.54236  0.31072  1.0000
  H   H548      1.0  0.54004  0.89050  0.20824  1.0000
  C   C448      1.0  0.42950  0.57737  0.35677  1.0000
  C   C449      1.0  0.56746  0.75336  0.22749  1.0000
  H   H549      1.0  0.68982  0.67843  0.31432  1.0000
  C   C450      1.0  0.67213  0.54234  0.40293  1.0000
  H   H550      1.0  0.68431  0.56800  0.20491  1.0000
  H   H551      1.0  0.66228  0.61688  0.23330  1.0000
  H   H552      1.0  0.37963  0.80982  0.21216  1.0000
  H   H553      1.0  0.36531  0.63079  0.29588  1.0000
  H   H554      1.0  0.52174  0.86543  0.04187  1.0000
  C   C451      1.0  0.36726  0.69473  0.24701  1.0000
  H   H555      1.0  0.56627  0.84417  0.06294  1.0000
  C   C452      1.0  0.37076  0.80489  0.24222  1.0000
  H   H556      1.0  0.68386  0.87456  0.53183  1.0000
  H   H557      1.0  0.36676  0.77007  0.18705  1.0000
  Fe  Fe58      1.0  0.60870  0.45026  0.13498  1.0000
  Fe  Fe59      1.0  0.69382  0.85155  0.31186  1.0000
  C   C453      1.0  0.51948  0.94003  0.27163  1.0000
  H   H558      1.0  0.55992  0.54142  0.04172  1.0000
  C   C454      1.0  0.36631  0.61064  0.28608  1.0000
  H   H559      1.0  0.68804  0.62146  0.27282  1.0000
  C   C455      1.0  0.53150  0.93836  0.23255  1.0000
  H   H560      1.0  0.69640  0.84419  0.48065  1.0000
  H   H561      1.0  0.69712  0.45671  0.20929  1.0000
  H   H562      1.0  0.36437  0.82315  0.25587  1.0000
  C   C456      1.0  0.47890  0.92679  0.00202  1.0000
  C   C457      1.0  0.37614  0.87482  0.90115  1.0000
  H   H563      1.0  0.65335  0.89258  0.57716  1.0000
  H   H564      1.0  0.55715  0.91613  0.77878  1.0000
  H   H565      1.0  0.60987  0.91545  0.93029  1.0000
  H   H566      1.0  0.39902  0.92023  0.91786  1.0000
  C   C458      1.0  0.64725  0.85607  0.63274  1.0000
  C   C459      1.0  0.59937  0.91224  0.75340  1.0000
  C   C460      1.0  0.56622  0.85637  0.03667  1.0000
  H   H567      1.0  0.54662  0.87750  0.89503  1.0000
  C   C461      1.0  0.67020  0.89121  0.60053  1.0000
  C   C462      1.0  0.69679  0.86491  0.64573  1.0000
  C   C463      1.0  0.59259  0.90766  0.91111  1.0000
  S   S122      1.0  0.42533  0.93271  0.75352  1.0000
  C   C464      1.0  0.54092  0.88399  0.99086  1.0000
  C   C465      1.0  0.55776  0.93183  0.94698  1.0000
  H   H568      1.0  0.54327  0.90939  0.87630  1.0000
  H   H569      1.0  0.61065  0.85086  0.02428  1.0000
  Fe  Fe60      1.0  0.46708  0.93296  0.89233  1.0000
  S   S123      1.0  0.48579  0.91863  0.83479  1.0000
  S   S124      1.0  0.45400  0.90301  0.93724  1.0000
  H   H570      1.0  0.64919  0.83718  0.64733  1.0000
  H   H571      1.0  0.61130  0.87824  0.96568  1.0000
  H   H572      1.0  0.59113  0.92064  0.88472  1.0000
  H   H573      1.0  0.41564  0.89757  0.85869  1.0000
  H   H574      1.0  0.44423  0.87018  0.00445  1.0000
  C   C466      1.0  0.59120  0.87605  0.98101  1.0000
  H   H575      1.0  0.68543  0.81367  0.62055  1.0000
  C   C467      1.0  0.68638  0.85507  0.54133  1.0000
  H   H576      1.0  0.52096  0.89275  0.98285  1.0000
  H   H577      1.0  0.64002  0.86932  0.65666  1.0000
  C   C468      1.0  0.62744  0.92153  0.75262  1.0000
  H   H578      1.0  0.57318  0.93856  0.96994  1.0000
  H   H579      1.0  0.59919  0.88887  0.89925  1.0000
  C   C469      1.0  0.58623  0.94366  0.80301  1.0000
  H   H580      1.0  0.66328  0.90370  0.62556  1.0000
  H   H581      1.0  0.59361  0.89635  0.73467  1.0000
  C   C470      1.0  0.69533  0.80403  0.56036  1.0000
  C   C471      1.0  0.46340  0.90594  0.98817  1.0000
  H   H582      1.0  0.37056  0.85811  0.88247  1.0000
  N   N33       1.0  0.67440  0.86466  0.61435  1.0000
  C   C472      1.0  0.57870  0.92340  0.77834  1.0000
  C   C473      1.0  0.59117  0.86020  0.01483  1.0000
  Fe  Fe61      1.0  0.69559  0.92684  0.71323  1.0000
  H   H583      1.0  0.63004  0.85489  0.60986  1.0000
  C   C474      1.0  0.68277  0.84712  0.58187  1.0000
  C   C475      1.0  0.68755  0.82105  0.59043  1.0000
  C   C476      1.0  0.56590  0.88849  0.96799  1.0000
  C   C477      1.0  0.45619  0.88638  0.01497  1.0000
  C   C478      1.0  0.54308  0.89754  0.90407  1.0000
  H   H584      1.0  0.53615  0.93266  0.96057  1.0000
  N   N34       1.0  0.37172  0.89885  0.87852  1.0000
  H   H585      1.0  0.37680  0.92098  0.70380  1.0000
  N   N35       1.0  0.56509  0.90597  0.93308  1.0000
  H   H586      1.0  0.69034  0.89944  0.58850  1.0000
  S   S125      1.0  0.65314  0.90690  0.72176  1.0000
  H   H587      1.0  0.52108  0.89892  0.91630  1.0000
  C   C479      1.0  0.37026  0.93508  0.72537  1.0000
  C   C480      1.0  0.37691  0.92045  0.90580  1.0000
  H   H588      1.0  0.48429  0.94209  0.98172  1.0000
  C   C481      1.0  0.63469  0.94206  0.77689  1.0000
  H   H589      1.0  0.39359  0.91816  0.83017  1.0000
  H   H590      1.0  0.39877  0.87262  0.91092  1.0000
  H   H591      1.0  0.54977  0.45343  0.89362  1.0000
  C   C482      1.0  0.39366  0.89972  0.84640  1.0000
  H   H592      1.0  0.39050  0.88432  0.82414  1.0000
  H   H593      1.0  0.69192  0.87890  0.66965  1.0000
  C   C483      1.0  0.39002  0.94423  0.75343  1.0000
  H   H594      1.0  0.55789  0.94582  0.92181  1.0000
  C   C484      1.0  0.54115  0.86828  0.02472  1.0000
  H   H595      1.0  0.62758  0.45348  0.98498  1.0000
  Fe  Fe62      1.0  0.45376  0.94441  0.80500  1.0000
  H   H596      1.0  0.37384  0.93887  0.88991  1.0000
  H   H597      1.0  0.95800  0.40972  0.35898  1.0000
  H   H598      1.0  0.92217  0.36219  0.29136  1.0000
  S   S126      1.0  0.92945  0.43033  0.23346  1.0000
  C   C485      1.0  0.98573  0.43370  0.21261  1.0000
  C   C486      1.0  0.84020  0.41779  0.50641  1.0000
  H   H599      1.0  0.00419  0.37851  0.21966  1.0000
  C   C487      1.0  0.90821  0.44775  0.46931  1.0000
  Fe  Fe63      1.0  0.89738  0.43869  0.28202  1.0000
  Fe  Fe64      1.0  0.86748  0.42228  0.35810  1.0000
  S   S127      1.0  0.85985  0.41317  0.29290  1.0000
  S   S128      1.0  0.87303  0.39019  0.40254  1.0000
  C   C488      1.0  0.86356  0.37805  0.52182  1.0000
  H   H600      1.0  0.01140  0.44423  0.32158  1.0000
  C   C489      1.0  0.00507  0.36984  0.33503  1.0000
  C   C490      1.0  0.71392  0.44670  0.22469  1.0000
  Fe  Fe65      1.0  0.83320  0.44861  0.29232  1.0000
  C   C491      1.0  0.92570  0.37678  0.31479  1.0000
  C   C492      1.0  0.00425  0.44159  0.29105  1.0000
  C   C493      1.0  0.01499  0.43622  0.22065  1.0000
  C   C494      1.0  0.86289  0.39400  0.45306  1.0000
  C   C495      1.0  0.87080  0.37543  0.48118  1.0000
  H   H601      1.0  0.92705  0.39571  0.30005  1.0000
  H   H602      1.0  0.82834  0.43423  0.51612  1.0000
  C   C496      1.0  0.84758  0.41524  0.46576  1.0000
  H   H603      1.0  0.88248  0.35888  0.47153  1.0000
  H   H604      1.0  0.96562  0.34123  0.37849  1.0000
  H   H605      1.0  0.95985  0.44124  0.30683  1.0000
  H   H606      1.0  0.91319  0.41798  0.51132  1.0000
  C   C497      1.0  0.02426  0.43968  0.26006  1.0000
  C   C498      1.0  0.96575  0.43520  0.24377  1.0000
  H   H607      1.0  0.95950  0.37656  0.25535  1.0000
  H   H608      1.0  0.97858  0.43029  0.18226  1.0000
  H   H609      1.0  0.93213  0.39228  0.38762  1.0000
  C   C499      1.0  0.75806  0.42113  0.26468  1.0000
  C   C500      1.0  0.72604  0.41595  0.05292  1.0000
  C   C501      1.0  0.97867  0.37457  0.27303  1.0000
  H   H610      1.0  0.00651  0.36725  0.36710  1.0000
  N   N36       1.0  0.95154  0.37143  0.33914  1.0000
  C   C502      1.0  0.95278  0.39069  0.37144  1.0000
  C   C503      1.0  0.94790  0.34604  0.35772  1.0000
  H   H611      1.0  0.92778  0.34493  0.37549  1.0000
  C   C504      1.0  0.97506  0.43975  0.28283  1.0000
  H   H612      1.0  0.90638  0.43472  0.44438  1.0000
  H   H613      1.0  0.77498  0.41129  0.28035  1.0000
  H   H614      1.0  0.96885  0.38609  0.39477  1.0000
  C   C505      1.0  0.00436  0.37573  0.25190  1.0000
  H   H615      1.0  0.84141  0.42967  0.44433  1.0000
  H   H616      1.0  0.94703  0.33100  0.33444  1.0000
  C   C506      1.0  0.97826  0.37198  0.31551  1.0000
  H   H617      1.0  0.72790  0.39040  0.27066  1.0000
  C   C507      1.0  0.73140  0.40940  0.25926  1.0000
  H   H618      1.0  0.90601  0.37684  0.33343  1.0000
  H   H619      1.0  0.73282  0.37609  0.12603  1.0000
  C   C508      1.0  0.70923  0.42224  0.23946  1.0000
  C   C509      1.0  0.76266  0.44558  0.24968  1.0000
  C   C510      1.0  0.70487  0.39860  0.06622  1.0000
  H   H620      1.0  0.73623  0.42881  0.07357  1.0000
  C   C511      1.0  0.72129  0.39360  0.13497  1.0000
  S   S129      1.0  0.90665  0.44579  0.34696  1.0000
  H   H621      1.0  0.71509  0.39133  0.16706  1.0000
  H   H622      1.0  0.73668  0.40961  0.13432  1.0000
  C   C512      1.0  0.91222  0.43836  0.50823  1.0000
  H   H623      1.0  0.69865  0.43879  0.11634  1.0000
  C   C513      1.0  0.03062  0.37147  0.31362  1.0000
  C   C514      1.0  0.03026  0.37458  0.27216  1.0000
  H   H624      1.0  0.03036  0.43474  0.19661  1.0000
  C   C515      1.0  0.84817  0.39921  0.53454  1.0000
  H   H625      1.0  0.83503  0.00112  0.77197  1.0000
  Fe  Fe66      1.0  0.80704  0.12564  0.69371  1.0000
  S   S130      1.0  0.80706  0.12866  0.76071  1.0000
  S   S131      1.0  0.81650  0.08970  0.66092  1.0000
  Fe  Fe67      1.0  0.79354  0.18119  0.68076  1.0000
  S   S132      1.0  0.79212  0.18927  0.74657  1.0000
  S   S133      1.0  0.78465  0.21313  0.63777  1.0000
  Fe  Fe68      1.0  0.83109  0.16478  0.74995  1.0000
  S   S134      1.0  0.86768  0.17719  0.78862  1.0000
  Fe  Fe69      1.0  0.76818  0.15272  0.75122  1.0000
  S   S135      1.0  0.72951  0.14863  0.79020  1.0000
  S   S136      1.0  0.83450  0.15970  0.68353  1.0000
  S   S137      1.0  0.76603  0.14656  0.68499  1.0000
  H   H626      1.0  0.00340  0.40102  0.88101  1.0000
  C   C516      1.0  0.69828  0.16671  0.72681  1.0000
  H   H627      1.0  0.93892  0.41057  0.56989  1.0000
  H   H628      1.0  0.80640  0.21515  0.85143  1.0000
  H   H629      1.0  0.80648  0.29532  0.87306  1.0000
  H   H630      1.0  0.85490  0.28725  0.70548  1.0000
  Fe  Fe70      1.0  0.85947  0.37717  0.63126  1.0000
  S   S138      1.0  0.87119  0.39382  0.69106  1.0000
  S   S139      1.0  0.83920  0.40324  0.58546  1.0000
  Fe  Fe71      1.0  0.88201  0.32526  0.65339  1.0000
  S   S140      1.0  0.89624  0.33768  0.71426  1.0000
  S   S141      1.0  0.89205  0.28496  0.63713  1.0000
  Fe  Fe72      1.0  0.85384  0.35743  0.71680  1.0000
  S   S142      1.0  0.82768  0.34991  0.77265  1.0000
  Fe  Fe73      1.0  0.91240  0.37264  0.68339  1.0000
  S   S143      1.0  0.95541  0.39179  0.69035  1.0000
  S   S144      1.0  0.83850  0.34260  0.65779  1.0000
  S   S145      1.0  0.90176  0.35843  0.62185  1.0000
  C   C517      1.0  0.97982  0.37864  0.72506  1.0000
  C   C518      1.0  0.92022  0.41779  0.58680  1.0000
  C   C519      1.0  0.75274  0.25887  0.70087  1.0000
  C   C520      1.0  0.80467  0.25479  0.86622  1.0000
  C   C521      1.0  0.99038  0.35113  0.78170  1.0000
  C   C522      1.0  0.97080  0.36126  0.75414  1.0000
  H   H631      1.0  0.98299  0.33802  0.80444  1.0000
  H   H632      1.0  0.94861  0.35591  0.75579  1.0000
  H   H633      1.0  0.82280  0.27094  0.71932  1.0000
  C   C523      1.0  0.73371  0.14660  0.59362  1.0000
  H   H634      1.0  0.83088  0.00592  0.66151  1.0000
  H   H635      1.0  0.84067  0.04324  0.69461  1.0000
  C   C524      1.0  0.90072  0.17182  0.76578  1.0000
  C   C525      1.0  0.92529  0.18297  0.78167  1.0000
  C   C526      1.0  0.95202  0.17759  0.76503  1.0000
  C   C527      1.0  0.95415  0.16105  0.73249  1.0000
  C   C528      1.0  0.92953  0.15056  0.71587  1.0000
  C   C529      1.0  0.90289  0.15563  0.73290  1.0000
  H   H636      1.0  0.92373  0.19548  0.80718  1.0000
  H   H637      1.0  0.97100  0.18603  0.77761  1.0000
  H   H638      1.0  0.93117  0.13761  0.69091  1.0000
  H   H639      1.0  0.88428  0.14619  0.72142  1.0000
  C   C530      1.0  0.81465  0.23283  0.63258  1.0000
  C   C531      1.0  0.84206  0.22291  0.63713  1.0000
  C   C532      1.0  0.86583  0.23893  0.63627  1.0000
  C   C533      1.0  0.86230  0.26509  0.63165  1.0000
  C   C534      1.0  0.83498  0.27502  0.62554  1.0000
  C   C535      1.0  0.81118  0.25887  0.62566  1.0000
  H   H640      1.0  0.84510  0.20282  0.64064  1.0000
  H   H641      1.0  0.88692  0.23104  0.64016  1.0000
  H   H642      1.0  0.83218  0.29506  0.62045  1.0000
  H   H643      1.0  0.79009  0.26662  0.62116  1.0000
  C   C536      1.0  0.74241  0.03472  0.67279  1.0000
  C   C537      1.0  0.74391  0.05602  0.69745  1.0000
  C   C538      1.0  0.76695  0.07276  0.69432  1.0000
  C   C539      1.0  0.78861  0.06807  0.66667  1.0000
  C   C540      1.0  0.78778  0.04617  0.64317  1.0000
  C   C541      1.0  0.76467  0.02942  0.64631  1.0000
  H   H644      1.0  0.72720  0.05968  0.71887  1.0000
  H   H645      1.0  0.76785  0.08938  0.71315  1.0000
  H   H646      1.0  0.80456  0.04260  0.62170  1.0000
  H   H647      1.0  0.76351  0.01296  0.62714  1.0000
  H   H648      1.0  0.95521  0.09654  0.79189  1.0000
  C   C542      1.0  0.01332  0.04390  0.87344  1.0000
  C   C543      1.0  0.71698  0.29171  0.71432  1.0000
  C   C544      1.0  0.71901  0.22497  0.81229  1.0000
  H   H649      1.0  0.81438  0.98129  0.73969  1.0000
  H   H650      1.0  0.89441  0.27193  0.79842  1.0000
  H   H651      1.0  0.83130  0.97254  0.66985  1.0000
  H   H652      1.0  0.75026  0.43086  0.00313  1.0000
  C   C545      1.0  0.78452  0.38171  0.74768  1.0000
  C   C546      1.0  0.72984  0.33689  0.70392  1.0000
  H   H653      1.0  0.96691  0.09814  0.86412  1.0000
  H   H654      1.0  0.99617  0.00619  0.86825  1.0000
  C   C547      1.0  0.74735  0.36626  0.80899  1.0000
  H   H655      1.0  0.90069  0.40806  0.57594  1.0000
  H   H656      1.0  0.94792  0.06007  0.86878  1.0000
  C   C548      1.0  0.86247  0.04079  0.70422  1.0000
  H   H657      1.0  0.98358  0.30302  0.73365  1.0000
  C   C549      1.0  0.99154  0.05197  0.79640  1.0000
  S   S146      1.0  0.71279  0.96090  0.74502  1.0000
  C   C550      1.0  0.86729  0.24337  0.74194  1.0000
  C   C551      1.0  0.01665  0.06751  0.85477  1.0000
  H   H658      1.0  0.73646  0.10967  0.61880  1.0000
  C   C552      1.0  0.90841  0.06037  0.71512  1.0000
  H   H659      1.0  0.76255  0.29795  0.70253  1.0000
  H   H660      1.0  0.85351  0.95378  0.72703  1.0000
  H   H661      1.0  0.92201  0.07698  0.71432  1.0000
  C   C553      1.0  0.88293  0.28157  0.77343  1.0000
  C   C554      1.0  0.83888  0.26246  0.79696  1.0000
  S   S147      1.0  0.00759  0.15436  0.82909  1.0000
  C   C555      1.0  0.79346  0.36348  0.77550  1.0000
  C   C556      1.0  0.74107  0.26628  0.81784  1.0000
  C   C557      1.0  0.86829  0.97031  0.72808  1.0000
  C   C558      1.0  0.72147  0.40158  0.98444  1.0000
  H   H662      1.0  0.87567  0.97174  0.75971  1.0000
  H   H663      1.0  0.83538  0.30238  0.81344  1.0000
  H   H664      1.0  0.79877  0.38783  0.72403  1.0000
  C   C559      1.0  0.71669  0.16758  0.58539  1.0000
  C   C560      1.0  0.91942  0.03700  0.72693  1.0000
  C   C561      1.0  0.74548  0.28437  0.70582  1.0000
  H   H665      1.0  0.75022  0.33658  0.72099  1.0000
  C   C562      1.0  0.00104  0.26464  0.73800  1.0000
  S   S148      1.0  0.01272  0.95382  0.85736  1.0000
  H   H666      1.0  0.87772  0.30119  0.78307  1.0000
  C   C563      1.0  0.81283  0.23421  0.84291  1.0000
  H   H667      1.0  0.87950  0.23112  0.76315  1.0000
  H   H668      1.0  0.71787  0.17489  0.71573  1.0000
  C   C564      1.0  0.98105  0.28333  0.72553  1.0000
  H   H669      1.0  0.01577  0.39941  0.70159  1.0000
  C   C565      1.0  0.95740  0.27703  0.70208  1.0000
  C   C566      1.0  0.70070  0.38430  0.99646  1.0000
  C   C567      1.0  0.95256  0.25195  0.69113  1.0000
  H   H670      1.0  0.01407  0.97820  0.74476  1.0000
  H   H671      1.0  0.83282  0.29994  0.74348  1.0000
  C   C568      1.0  0.71731  0.27512  0.83847  1.0000
  H   H672      1.0  0.72756  0.40284  0.95313  1.0000
  H   H673      1.0  0.00738  0.08993  0.80231  1.0000
  H   H674      1.0  0.96727  0.21344  0.69553  1.0000
  C   C569      1.0  0.81292  0.27922  0.85509  1.0000
  Fe  Fe74      1.0  0.97566  0.96661  0.82002  1.0000
  H   H675      1.0  0.79184  0.25181  0.89284  1.0000
  H   H676      1.0  0.69868  0.34291  0.76965  1.0000
  H   H677      1.0  0.89299  0.44498  0.63838  1.0000
  H   H678      1.0  0.94285  0.29171  0.69186  1.0000
  H   H679      1.0  0.73442  0.33322  0.67172  1.0000
  C   C570      1.0  0.00552  0.07159  0.81643  1.0000
  H   H680      1.0  0.87227  0.44705  0.59333  1.0000
  C   C571      1.0  0.87299  0.01662  0.71588  1.0000
  H   H681      1.0  0.00852  0.22343  0.73582  1.0000
  H   H682      1.0  0.71509  0.10135  0.68472  1.0000
  H   H683      1.0  0.77446  0.25363  0.69383  1.0000
  H   H684      1.0  0.88171  0.24753  0.71622  1.0000
  H   H685      1.0  0.00180  0.29643  0.80057  1.0000
  H   H686      1.0  0.02240  0.36219  0.88794  1.0000
  C   C572      1.0  0.75719  0.39240  0.75081  1.0000
  S   S149      1.0  0.94253  0.95152  0.86173  1.0000
  H   H687      1.0  0.01119  0.43369  0.88761  1.0000
  C   C573      1.0  0.84117  0.28188  0.73127  1.0000
  H   H688      1.0  0.88679  0.96533  0.70880  1.0000
  C   C574      1.0  0.99910  0.02428  0.85351  1.0000
  H   H689      1.0  0.86952  0.36348  0.54315  1.0000
  C   C575      1.0  0.73418  0.41734  0.01263  1.0000
  H   H690      1.0  0.91225  0.99799  0.73727  1.0000
  C   C576      1.0  0.98843  0.02829  0.81485  1.0000
  H   H691      1.0  0.98317  0.05519  0.76661  1.0000
  C   C577      1.0  0.99509  0.23912  0.72704  1.0000
  C   C578      1.0  0.82963  0.28307  0.82091  1.0000
  H   H692      1.0  0.83575  0.95960  0.83852  1.0000
  H   H693      1.0  0.86284  0.98830  0.65179  1.0000
  C   C579      1.0  0.77483  0.35579  0.80618  1.0000
  N   N37       1.0  0.85723  0.26700  0.76153  1.0000
  H   H694      1.0  0.94160  0.03556  0.73545  1.0000
  S   S150      1.0  0.97069  0.00416  0.78941  1.0000
  C   C580      1.0  0.89105  0.02974  0.83015  1.0000
  H   H695      1.0  0.89818  0.28371  0.74802  1.0000
  C   C581      1.0  0.91320  0.07968  0.83707  1.0000
  H   H696      1.0  0.84935  0.23209  0.72933  1.0000
  C   C582      1.0  0.73843  0.38457  0.78120  1.0000
  H   H697      1.0  0.02417  0.02275  0.72694  1.0000
  C   C583      1.0  0.92766  0.05839  0.85369  1.0000
  C   C584      1.0  0.93893  0.11103  0.79935  1.0000
  H   H698      1.0  0.72220  0.35686  0.70622  1.0000
  H   H699      1.0  0.88281  0.01063  0.82730  1.0000
  C   C585      1.0  0.01674  0.28018  0.80232  1.0000
  C   C586      1.0  0.94704  0.10883  0.87045  1.0000
  H   H700      1.0  0.95410  0.12892  0.87326  1.0000
  H   H701      1.0  0.94980  0.12975  0.79937  1.0000
  H   H702      1.0  0.92841  0.01786  0.86237  1.0000
  H   H703      1.0  0.93436  0.24723  0.67255  1.0000
  H   H704      1.0  0.92318  0.11115  0.77446  1.0000
  Fe  Fe75      1.0  0.01982  0.15248  0.76435  1.0000
  H   H705      1.0  0.91182  0.14424  0.84971  1.0000
  H   H706      1.0  0.02929  0.31085  0.74125  1.0000
  H   H707      1.0  0.88799  0.12716  0.81970  1.0000
  H   H708      1.0  0.72615  0.18460  0.57271  1.0000
  H   H709      1.0  0.92323  0.41156  0.61852  1.0000
  C   C587      1.0  0.00865  0.38589  0.72394  1.0000
  N   N38       1.0  0.85419  0.99407  0.71441  1.0000
  H   H710      1.0  0.93867  0.10270  0.90016  1.0000
  N   N39       1.0  0.70867  0.31853  0.72020  1.0000
  S   S151      1.0  0.98746  0.15114  0.71521  1.0000
  C   C588      1.0  0.72195  0.12491  0.61134  1.0000
  C   C589      1.0  0.73211  0.24001  0.70407  1.0000
  H   H711      1.0  0.85696  0.04684  0.79658  1.0000
  N   N40       1.0  0.92529  0.10562  0.83840  1.0000
  C   C590      1.0  0.91663  0.03387  0.85021  1.0000
  C   C591      1.0  0.84442  0.99007  0.67260  1.0000
  H   H712      1.0  0.78176  0.34183  0.82794  1.0000
  C   C592      1.0  0.87995  0.06228  0.70398  1.0000
  H   H713      1.0  0.81559  0.01439  0.73029  1.0000
  C   C593      1.0  0.82883  0.99803  0.74018  1.0000
  C   C594      1.0  0.97121  0.23302  0.70388  1.0000
  C   C595      1.0  0.90275  0.12490  0.84550  1.0000
  C   C596      1.0  0.88762  0.07467  0.81570  1.0000
  H   H714      1.0  0.88992  0.12010  0.87254  1.0000
  C   C597      1.0  0.82953  0.23790  0.80868  1.0000
  Fe  Fe76      1.0  0.72286  0.97555  0.68368  1.0000
  H   H715      1.0  0.87142  0.08047  0.69446  1.0000
  H   H716      1.0  0.87619  0.08951  0.80013  1.0000
  C   C598      1.0  0.90212  0.01538  0.72759  1.0000
  C   C599      1.0  0.87656  0.05011  0.81295  1.0000
  H   H717      1.0  0.75049  0.40667  0.72936  1.0000
  H   H718      1.0  0.02171  0.04076  0.90329  1.0000
  H   H719      1.0  0.83509  0.22115  0.79209  1.0000
  H   H720      1.0  0.73319  0.36041  0.83286  1.0000
  H   H721      1.0  0.00587  0.26448  0.81880  1.0000
  H   H722      1.0  0.73787  0.22034  0.69916  1.0000
  H   H723      1.0  0.75640  0.14746  0.58743  1.0000
  S   S152      1.0  0.71154  0.01623  0.67279  1.0000
  C   C600      1.0  0.02842  0.37540  0.75122  1.0000
  N   N41       1.0  0.02626  0.27189  0.76214  1.0000
  S   S153      1.0  0.76699  0.95940  0.68147  1.0000
  H   H724      1.0  0.72636  0.32013  0.77943  1.0000
  H   H725      1.0  0.99996  0.41482  0.92994  1.0000
  H   H726      1.0  0.71656  0.29466  0.84840  1.0000
  N   N42       1.0  0.91748  0.44576  0.58346  1.0000
  C   C601      1.0  0.69811  0.15291  0.76274  1.0000
  C   C602      1.0  0.01316  0.41474  0.90221  1.0000
  C   C603      1.0  0.01929  0.35788  0.78007  1.0000
  S   S154      1.0  0.70390  0.39772  0.78279  1.0000
  H   H727      1.0  0.75873  0.27892  0.81148  1.0000
  C   C604      1.0  0.70578  0.32316  0.76366  1.0000
  C   C605      1.0  0.70421  0.24645  0.71373  1.0000
  H   H728      1.0  0.02622  0.32143  0.92206  1.0000
  H   H729      1.0  0.76043  0.23440  0.78876  1.0000
  H   H730      1.0  0.72050  0.20588  0.80072  1.0000
  C   C606      1.0  0.74199  0.24122  0.80505  1.0000
  H   H731      1.0  0.71348  0.07372  0.62440  1.0000
  Fe  Fe77      1.0  0.93320  0.87408  0.22109  1.0000
  S   S155      1.0  0.93259  0.83806  0.18603  1.0000
  S   S156      1.0  0.89113  0.89302  0.23435  1.0000
  H   H732      1.0  0.89343  0.84136  0.26431  1.0000
  S   S157      1.0  0.95771  0.78692  0.26191  1.0000
  S   S158      1.0  0.96243  0.85967  0.26930  1.0000
  Fe  Fe78      1.0  0.72033  0.87301  0.38815  1.0000
  S   S159      1.0  0.73363  0.87457  0.32320  1.0000
  C   C607      1.0  0.75482  0.88167  0.53192  1.0000
  H   H733      1.0  0.97205  0.93781  0.04861  1.0000
  S   S160      1.0  0.71649  0.81427  0.31903  1.0000
  C   C608      1.0  0.72720  0.92523  0.50436  1.0000
  Fe  Fe79      1.0  0.75493  0.83720  0.33631  1.0000
  S   S161      1.0  0.79947  0.82324  0.32153  1.0000
  H   H734      1.0  0.70453  0.79915  0.49776  1.0000
  C   C609      1.0  0.02032  0.55323  0.33551  1.0000
  S   S162      1.0  0.74410  0.83720  0.40194  1.0000
  C   C610      1.0  0.81836  0.90814  0.44109  1.0000
  Fe  Fe80      1.0  0.76100  0.66887  0.35562  1.0000
  S   S163      1.0  0.76516  0.69370  0.30124  1.0000
  S   S164      1.0  0.75098  0.68361  0.41686  1.0000
  Fe  Fe81      1.0  0.77337  0.62072  0.30918  1.0000
  S   S165      1.0  0.77830  0.64178  0.25107  1.0000
  S   S166      1.0  0.77398  0.57822  0.30733  1.0000
  Fe  Fe82      1.0  0.80330  0.66965  0.28759  1.0000
  S   S167      1.0  0.84341  0.68835  0.26444  1.0000
  Fe  Fe83      1.0  0.73980  0.66343  0.27101  1.0000
  H   H735      1.0  0.93960  0.75937  0.33572  1.0000
  S   S168      1.0  0.80099  0.64691  0.34466  1.0000
  S   S169      1.0  0.73287  0.64012  0.32638  1.0000
  C   C611      1.0  0.69873  0.74064  0.44955  1.0000
  H   H736      1.0  0.90395  0.85847  0.08898  1.0000
  H   H737      1.0  0.74854  0.45967  0.32752  1.0000
  H   H738      1.0  0.85727  0.81448  0.29764  1.0000
  Fe  Fe84      1.0  0.99052  0.63273  0.27157  1.0000
  S   S170      1.0  0.95540  0.63067  0.31692  1.0000
  S   S171      1.0  0.98433  0.63825  0.20532  1.0000
  H   H739      1.0  0.92218  0.71515  0.34159  1.0000
  S   S172      1.0  0.88257  0.51751  0.36523  1.0000
  H   H740      1.0  0.87233  0.70633  0.35340  1.0000
  S   S173      1.0  0.79491  0.46189  0.25687  1.0000
  Fe  Fe85      1.0  0.87597  0.47813  0.34140  1.0000
  H   H741      1.0  0.88056  0.93143  0.32423  1.0000
  H   H742      1.0  0.88017  0.80535  0.18481  1.0000
  S   S174      1.0  0.01793  0.59845  0.26427  1.0000
  C   C612      1.0  0.87491  0.67306  0.27982  1.0000
  C   C613      1.0  0.90009  0.67649  0.25793  1.0000
  C   C614      1.0  0.92522  0.66413  0.26976  1.0000
  C   C615      1.0  0.92519  0.64826  0.30349  1.0000
  C   C616      1.0  0.90029  0.64541  0.32597  1.0000
  C   C617      1.0  0.87525  0.65774  0.31411  1.0000
  H   H743      1.0  0.90012  0.68824  0.23137  1.0000
  H   H744      1.0  0.94454  0.66685  0.25271  1.0000
  H   H745      1.0  0.90025  0.63343  0.35242  1.0000
  H   H746      1.0  0.85646  0.65559  0.33203  1.0000
  C   C618      1.0  0.80595  0.56328  0.32119  1.0000
  C   C619      1.0  0.82632  0.57499  0.34565  1.0000
  C   C620      1.0  0.85020  0.56116  0.35913  1.0000
  C   C621      1.0  0.85335  0.53560  0.34860  1.0000
  C   C622      1.0  0.83314  0.52433  0.32372  1.0000
  C   C623      1.0  0.81004  0.53824  0.30929  1.0000
  H   H747      1.0  0.82334  0.59438  0.35504  1.0000
  H   H748      1.0  0.86580  0.57008  0.37835  1.0000
  H   H749      1.0  0.83494  0.50472  0.31559  1.0000
  H   H750      1.0  0.79516  0.52931  0.28916  1.0000
  C   C624      1.0  0.73146  0.90486  0.47813  1.0000
  Fe  Fe86      1.0  0.01603  0.60677  0.19880  1.0000
  C   C625      1.0  0.73056  0.47028  0.34137  1.0000
  H   H751      1.0  0.01676  0.75147  0.15505  1.0000
  C   C626      1.0  0.74497  0.88296  0.49222  1.0000
  Fe  Fe87      1.0  0.70396  0.81766  0.38349  1.0000
  C   C627      1.0  0.81217  0.79969  0.21584  1.0000
  H   H752      1.0  0.74790  0.86703  0.47261  1.0000
  H   H753      1.0  0.70771  0.58439  0.30931  1.0000
  H   H754      1.0  0.76295  0.49349  0.39708  1.0000
  C   C628      1.0  0.73563  0.73013  0.38610  1.0000
  C   C629      1.0  0.73213  0.71233  0.41697  1.0000
  H   H755      1.0  0.74595  0.52828  0.30252  1.0000
  H   H756      1.0  0.77270  0.52002  0.36615  1.0000
  H   H757      1.0  0.72431  0.76712  0.36368  1.0000
  H   H758      1.0  0.79626  0.86242  0.45033  1.0000
  C   C630      1.0  0.97631  0.87338  0.05260  1.0000
  H   H759      1.0  0.81743  0.92734  0.42729  1.0000
  H   H760      1.0  0.81484  0.84696  0.41081  1.0000
  S   S175      1.0  0.83741  0.45546  0.35861  1.0000
  C   C631      1.0  0.99133  0.71858  0.23536  1.0000
  C   C632      1.0  0.97645  0.73815  0.25441  1.0000
  H   H761      1.0  0.99137  0.69980  0.24833  1.0000
  H   H762      1.0  0.96537  0.73435  0.28219  1.0000
  C   C633      1.0  0.86538  0.87335  0.25732  1.0000
  C   C634      1.0  0.87225  0.84871  0.26954  1.0000
  C   C635      1.0  0.85178  0.83357  0.28893  1.0000
  C   C636      1.0  0.82426  0.84285  0.29618  1.0000
  H   H763      1.0  0.85517  0.78738  0.35258  1.0000
  H   H764      1.0  0.97098  0.90221  0.09738  1.0000
  H   H765      1.0  0.90588  0.79506  0.34032  1.0000
  H   H766      1.0  0.82956  0.75562  0.42234  1.0000
  H   H767      1.0  0.79393  0.87541  0.36082  1.0000
  H   H768      1.0  0.79408  0.75310  0.40250  1.0000
  C   C637      1.0  0.83777  0.88259  0.26415  1.0000
  C   C638      1.0  0.97521  0.51866  0.33730  1.0000
  C   C639      1.0  0.70171  0.57291  0.28266  1.0000
  H   H769      1.0  0.91004  0.90244  0.06499  1.0000
  C   C640      1.0  0.81119  0.77383  0.22439  1.0000
  C   C641      1.0  0.86574  0.86948  0.38375  1.0000
  H   H770      1.0  0.92967  0.75293  0.17577  1.0000
  C   C642      1.0  0.89594  0.89445  0.33989  1.0000
  N   N43       1.0  0.81919  0.88770  0.41067  1.0000
  C   C643      1.0  0.79418  0.89051  0.38393  1.0000
  Fe  Fe88      1.0  0.97024  0.85418  0.15321  1.0000
  C   C644      1.0  0.90246  0.86267  0.05718  1.0000
  C   C645      1.0  0.84570  0.88964  0.38672  1.0000
  H   H771      1.0  0.69956  0.55293  0.29270  1.0000
  H   H772      1.0  0.74976  0.72624  0.36165  1.0000
  C   C646      1.0  0.74059  0.45822  0.22949  1.0000
  H   H773      1.0  0.71111  0.70406  0.47288  1.0000
  H   H774      1.0  0.87020  0.73462  0.14722  1.0000
  H   H775      1.0  0.79369  0.90907  0.36806  1.0000
  H   H776      1.0  0.72017  0.50552  0.28537  1.0000
  C   C647      1.0  0.89660  0.74536  0.24035  1.0000
  C   C648      1.0  0.71466  0.51261  0.36503  1.0000
  S   S176      1.0  0.97481  0.84752  0.08642  1.0000
  H   H777      1.0  0.91629  0.73363  0.23915  1.0000
  C   C649      1.0  0.71892  0.53877  0.37320  1.0000
  C   C650      1.0  0.83716  0.81047  0.20109  1.0000
  H   H778      1.0  0.91903  0.78210  0.19681  1.0000
  H   H779      1.0  0.72707  0.46165  0.37149  1.0000
  C   C651      1.0  0.02358  0.52984  0.31498  1.0000
  C   C652      1.0  0.00024  0.51271  0.31668  1.0000
  H   H780      1.0  0.72007  0.57370  0.26150  1.0000
  H   H781      1.0  0.75734  0.49785  0.28646  1.0000
  C   C653      1.0  0.74015  0.50785  0.30291  1.0000
  H   H782      1.0  0.98934  0.78566  0.18764  1.0000
  H   H783      1.0  0.90528  0.85635  0.35811  1.0000
  C   C654      1.0  0.72123  0.75337  0.38736  1.0000
  H   H784      1.0  0.86524  0.71675  0.19276  1.0000
  H   H785      1.0  0.90486  0.77251  0.14877  1.0000
  C   C655      1.0  0.00549  0.74771  0.18274  1.0000
  C   C656      1.0  0.81614  0.86311  0.43220  1.0000
  H   H786      1.0  0.89946  0.71817  0.17063  1.0000
  H   H787      1.0  0.77386  0.88922  0.40094  1.0000
  Fe  Fe89      1.0  0.99808  0.87343  0.22976  1.0000
  Fe  Fe90      1.0  0.02285  0.66318  0.21127  1.0000
  C   C657      1.0  0.89051  0.87205  0.36078  1.0000
  C   C658      1.0  0.71386  0.71774  0.44890  1.0000
  S   S177      1.0  0.70288  0.67155  0.23014  1.0000
  H   H788      1.0  0.88032  0.73410  0.25687  1.0000
  H   H789      1.0  0.79171  0.76555  0.23600  1.0000
  H   H790      1.0  0.97296  0.48771  0.21260  1.0000
  C   C659      1.0  0.88005  0.72970  0.17659  1.0000
  C   C660      1.0  0.00630  0.72348  0.19989  1.0000
  H   H791      1.0  0.70183  0.57324  0.39793  1.0000
  C   C661      1.0  0.85192  0.91217  0.36492  1.0000
  H   H792      1.0  0.83801  0.83075  0.19535  1.0000
  C   C662      1.0  0.97376  0.89837  0.06587  1.0000
  H   H793      1.0  0.78173  0.48903  0.35057  1.0000
  H   H794      1.0  0.86262  0.85138  0.39827  1.0000
  H   H795      1.0  0.83232  0.90161  0.25458  1.0000
  S   S178      1.0  0.00218  0.83714  0.19582  1.0000
  N   N44       1.0  0.91288  0.56988  0.25909  1.0000
  C   C663      1.0  0.92056  0.59377  0.23789  1.0000
  C   C664      1.0  0.88219  0.56505  0.25144  1.0000
  C   C665      1.0  0.91699  0.57411  0.30258  1.0000
  C   C666      1.0  0.93006  0.54775  0.24647  1.0000
  C   C667      1.0  0.95302  0.54963  0.21875  1.0000
  C   C668      1.0  0.92412  0.52328  0.26230  1.0000
  C   C669      1.0  0.96823  0.52812  0.20687  1.0000
  C   C670      1.0  0.93947  0.50196  0.25018  1.0000
  C   C671      1.0  0.96138  0.50435  0.22236  1.0000
  H   H796      1.0  0.91801  0.59196  0.20487  1.0000
  H   H797      1.0  0.90689  0.60990  0.24750  1.0000
  H   H798      1.0  0.94285  0.59957  0.24464  1.0000
  H   H799      1.0  0.87377  0.54891  0.26940  1.0000
  H   H800      1.0  0.87834  0.56066  0.21930  1.0000
  H   H801      1.0  0.86875  0.58167  0.25959  1.0000
  H   H802      1.0  0.93980  0.57775  0.30954  1.0000
  H   H803      1.0  0.90465  0.59077  0.31330  1.0000
  H   H804      1.0  0.91001  0.55765  0.32095  1.0000
  H   H805      1.0  0.95963  0.56742  0.20549  1.0000
  H   H806      1.0  0.90743  0.52045  0.28416  1.0000
  H   H807      1.0  0.98526  0.52988  0.18507  1.0000
  H   H808      1.0  0.81607  0.77840  0.38640  1.0000
  H   H809      1.0  0.90171  0.48085  0.43237  1.0000
  C   C672      1.0  0.76464  0.50024  0.36550  1.0000
  N   N45       1.0  0.88681  0.75290  0.19980  1.0000
  C   C673      1.0  0.91096  0.76575  0.17923  1.0000
  C   C674      1.0  0.86142  0.79555  0.19530  1.0000
  N   N46       1.0  0.82762  0.74175  0.36182  1.0000
  C   C675      1.0  0.81233  0.74835  0.32435  1.0000
  C   C676      1.0  0.82070  0.71502  0.37231  1.0000
  C   C677      1.0  0.81654  0.75794  0.39466  1.0000
  C   C678      1.0  0.85850  0.74615  0.35566  1.0000
  C   C679      1.0  0.86922  0.77119  0.35124  1.0000
  C   C680      1.0  0.87847  0.72602  0.35166  1.0000
  C   C681      1.0  0.89815  0.77580  0.34424  1.0000
  C   C682      1.0  0.90737  0.73084  0.34475  1.0000
  C   C683      1.0  0.91721  0.75567  0.34138  1.0000
  H   H810      1.0  0.81930  0.73601  0.29924  1.0000
  H   H811      1.0  0.78890  0.74611  0.32772  1.0000
  H   H812      1.0  0.81614  0.76839  0.31509  1.0000
  H   H813      1.0  0.82543  0.70189  0.34719  1.0000
  H   H814      1.0  0.79767  0.71239  0.37905  1.0000
  H   H815      1.0  0.83256  0.70859  0.39942  1.0000
  H   H816      1.0  0.01968  0.87781  0.12304  1.0000
  H   H817      1.0  0.91467  0.89604  0.32098  1.0000
  C   C684      1.0  0.97617  0.76254  0.23768  1.0000
  H   H818      1.0  0.99268  0.57745  0.36999  1.0000
  Fe  Fe91      1.0  0.96420  0.82464  0.23162  1.0000
  S   S179      1.0  0.96859  0.89164  0.18461  1.0000
  C   C685      1.0  0.99021  0.76716  0.20143  1.0000
  H   H819      1.0  0.95302  0.54647  0.37231  1.0000
  N   N47       1.0  0.73696  0.49783  0.34422  1.0000
  H   H820      1.0  0.79911  0.90664  0.46059  1.0000
  H   H821      1.0  0.90158  0.76236  0.25870  1.0000
  C   C686      1.0  0.83532  0.75873  0.21870  1.0000
  H   H822      1.0  0.79371  0.81153  0.22139  1.0000
  H   H823      1.0  0.02604  0.64497  0.08503  1.0000
  H   H824      1.0  0.95766  0.50526  0.33816  1.0000
  S   S180      1.0  0.87040  0.47313  0.27544  1.0000
  C   C687      1.0  0.97256  0.54187  0.35659  1.0000
  C   C688      1.0  0.86119  0.76909  0.20381  1.0000
  H   H825      1.0  0.83746  0.90740  0.46086  1.0000
  H   H826      1.0  0.83406  0.85988  0.45346  1.0000
  H   H827      1.0  0.74412  0.47711  0.21767  1.0000
  C   C689      1.0  0.87663  0.91441  0.34178  1.0000
  H   H828      1.0  0.79591  0.87456  0.28785  1.0000
  H   H829      1.0  0.93417  0.48340  0.26212  1.0000
  C   C690      1.0  0.81719  0.86734  0.28328  1.0000
  H   H830      1.0  0.83369  0.73889  0.22667  1.0000
  C   C691      1.0  0.99497  0.55918  0.35546  1.0000
  S   S181      1.0  0.02719  0.65968  0.27817  1.0000
  S   S182      1.0  0.72059  0.90768  0.42770  1.0000
  C   C692      1.0  0.90546  0.47371  0.46249  1.0000
  H   H831      1.0  0.71680  0.94227  0.49362  1.0000
  H   H832      1.0  0.73843  0.54835  0.36472  1.0000
  C   C693      1.0  0.90701  0.49045  0.49454  1.0000
  H   H833      1.0  0.00125  0.49447  0.30219  1.0000
  S   S183      1.0  0.01488  0.57357  0.15729  1.0000
  H   H834      1.0  0.83746  0.92810  0.36497  1.0000
  S   S184      1.0  0.02632  0.69960  0.17701  1.0000
  H   H835      1.0  0.71170  0.46646  0.32203  1.0000
  H   H836      1.0  0.90455  0.51063  0.48904  1.0000
  C   C694      1.0  0.70260  0.75853  0.41895  1.0000
  H   H837      1.0  0.69890  0.60874  0.22619  1.0000
  C   C695      1.0  0.69796  0.55332  0.39193  1.0000
  C   C696      1.0  0.69849  0.81240  0.52097  1.0000
  C   C697      1.0  0.97423  0.91852  0.03813  1.0000
  H   H838      1.0  0.89544  0.82395  0.04059  1.0000
  C   C698      1.0  0.91120  0.48130  0.53356  1.0000
  C   C699      1.0  0.90598  0.88746  0.04357  1.0000
  H   H839      1.0  0.89322  0.83286  0.96868  1.0000
  S   S185      1.0  0.90637  0.89450  0.80371  1.0000
  C   C700      1.0  0.90140  0.87347  0.97367  1.0000
  Fe  Fe92      1.0  0.74559  0.92506  0.65537  1.0000
  S   S186      1.0  0.73768  0.90638  0.71514  1.0000
  S   S187      1.0  0.76393  0.89986  0.60735  1.0000
  H   H840      1.0  0.89301  0.91873  0.93121  1.0000
  H   H841      1.0  0.93036  0.91005  0.93045  1.0000
  C   C701      1.0  0.90875  0.90495  0.91926  1.0000
  H   H842      1.0  0.90966  0.91243  0.99425  1.0000
  C   C702      1.0  0.91387  0.45494  0.54168  1.0000
  H   H843      1.0  0.86606  0.85313  0.91769  1.0000
  H   H844      1.0  0.76551  0.86473  0.54254  1.0000
  C   C703      1.0  0.97758  0.91390  0.99701  1.0000
  H   H845      1.0  0.94373  0.86377  0.92294  1.0000
  N   N48       1.0  0.90127  0.87841  0.92990  1.0000
  C   C704      1.0  0.87348  0.91047  0.79927  1.0000
  C   C705      1.0  0.85243  0.90080  0.77363  1.0000
  C   C706      1.0  0.82559  0.91256  0.77078  1.0000
  H   H846      1.0  0.90898  0.90784  0.88626  1.0000
  H   H847      1.0  0.89094  0.47429  0.61138  1.0000
  H   H848      1.0  0.94228  0.47789  0.60385  1.0000
  H   H849      1.0  0.85687  0.88412  0.75596  1.0000
  H   H850      1.0  0.80947  0.90493  0.75101  1.0000
  C   C707      1.0  0.81943  0.93365  0.79445  1.0000
  H   H851      1.0  0.91184  0.49501  0.55749  1.0000
  C   C708      1.0  0.89698  0.84853  0.98869  1.0000
  C   C709      1.0  0.90569  0.89292  0.00251  1.0000
  Fe  Fe93      1.0  0.01042  0.91847  0.82041  1.0000
  H   H852      1.0  0.98215  0.84946  0.00108  1.0000
  C   C710      1.0  0.97994  0.86875  0.01150  1.0000
  S   S188      1.0  0.97554  0.93272  0.78025  1.0000
  Fe  Fe94      1.0  0.94509  0.91624  0.82491  1.0000
  C   C711      1.0  0.75065  0.90203  0.55810  1.0000
  H   H853      1.0  0.87160  0.87716  0.88049  1.0000
  S   S189      1.0  0.97818  0.93985  0.96336  1.0000
  H   H854      1.0  0.71786  0.87004  0.63275  1.0000
  H   H855      1.0  0.85614  0.88533  0.92804  1.0000
  C   C712      1.0  0.87252  0.87323  0.91342  1.0000
  C   C713      1.0  0.86750  0.93197  0.82214  1.0000
  C   C714      1.0  0.98074  0.88896  0.98378  1.0000
  Fe  Fe95      1.0  0.97942  0.93493  0.89599  1.0000
  H   H856      1.0  0.98409  0.88528  0.95232  1.0000
  S   S190      1.0  0.97985  0.89828  0.86197  1.0000
  C   C715      1.0  0.73652  0.92374  0.54439  1.0000
  H   H857      1.0  0.92389  0.86611  0.87696  1.0000
  H   H858      1.0  0.73338  0.93962  0.56432  1.0000
  S   S191      1.0  0.70248  0.94308  0.65170  1.0000
  H   H859      1.0  0.91623  0.84132  0.91141  1.0000
  C   C716      1.0  0.92214  0.86166  0.90960  1.0000
  H   H860      1.0  0.88339  0.93953  0.84217  1.0000
  Fe  Fe96      1.0  0.75575  0.94221  0.74107  1.0000
  C   C717      1.0  0.89785  0.84325  0.02982  1.0000
  H   H861      1.0  0.94740  0.44950  0.63229  1.0000
  H   H862      1.0  0.69894  0.78421  0.56754  1.0000
  H   H863      1.0  0.69926  0.84632  0.66104  1.0000
  C   C718      1.0  0.84046  0.94332  0.82008  1.0000
  C   C719      1.0  0.94354  0.45694  0.60135  1.0000
  H   H864      1.0  0.96268  0.45230  0.58309  1.0000
  S   S192      1.0  0.78573  0.94829  0.79332  1.0000
  C   C720      1.0  0.89245  0.45343  0.60769  1.0000
