data_image0
_chemical_formula_structural       S3HSC3SFeC2SCHFeS2HS2CSC2HC3HCSFeH6CH2NC2H2CHC2H3C6H4C6H4Fe2C2HNSHFeCHCH3CHCH3CFeCH2CH2C2HSC5H3CSH4FeCHSCFeHCNH5SHC3HSCNH2C4H2CHC2H6C2HCFeC2H2CSC2HCH4CSCNHCHC2H2C2H5C3HCSH2SFeHSH3CFeS2FeS2FeSFeS3FeS2FeS2FeSFeS2FeS2FeS2FeSFeS3CFeH3SHCHFeCFeS2FeS2FeSFeS4FeS2FeS2CFeS2FeS2FeSFeS3FeHCFeS2FeSHS2FeSFeS3C4H2CHFeHNHC7H4C6H4C6H4C6H4C4H2CH2C7H4C6H4C6H4CHCFeHC6H4C6H4C6H4C6H4CHC5SC2H2SC3H4C6H4CNC4H7NHCSC3HCH2SH2CHCFeH4NC8H13NC7H3C2SHCHNC9H16SH3C2HC2H5CH2SH4NC3H9NC9H14NC9H14SHCFeHCFeC2NSH2C3H2CH2CHCNC9H13S2CHCH3SHCHC2HC2H4CFeCH3FeCHC4HC4HCH2C2H2CH2NC2H3CH2SHSCHC2H7CH2CSHCHSCFeSHC2H5C3HCH2CH4SHCHNC2HC2HFeC3H2NC2H6CSC2HCHCHCH2CH5NH2C2H2C3HCHCSNHCHCH2CH2CHCHC2H3SHCHSH4CHCHCSCNH3CSCFeH2C3NCHC3H3C2HNCHCHCSHCH2CH2C2FeCHC4H5CHCHCNSH10CH4CHFeH3CSH4CH3FeHC2HNCH2C2H2C2FeHCHCH3C2HCH3C2H2SC2H2C2H3CH5CSCH3CSCHC2HSHC4HC4HCHCHCHSH4CHNH5NC4H5C2HCHSH5SHCHSH3SCFeS2NHCFeSFeCS2FeS2FeS2FeHFeS3C6H4CSCSC2H3FeCFeCHCH2CH2C6H4C6H4CH3C2HCHCNCH2CH2SC4H4CH2CH5CH5CHC2H3SH3NCH2NHCH2CH2FeCHSHC4S2H4CHCHC2HC3HC2HNH4CHC2HC2H2CH3C3FeS2FeS2C2HSHFeS2FeS2FeSFeS3FeS2FeS2FeSFeS3FeS2FeS2FeS2FeS2FeSFeS3FeS2FeS2FeSFeS3HC2HFeHCFeS2FeS2FeSFeS3H3SHCH4Fe2S2FeS2FeSFeS3HC5HCH2C6H3C6H4C6H4CHFeH3C5H3C4HCHCFeHC6H4C6H4C6H4C3SHCHC2HC6H4C6H4C6H4C6HSH2C6H5C3HC2HSHC6H4C6H5NC6H12CHCNC7H9NC9H14NC9H14NC3H4CSH3CH7C4H2CHC2HSH2C4HCSCHNSCH2CHCH2CHC3HCH3C4H3NC2H2CH3CNH2CHFeHCH3NC3H4CH2CHSC3H3CHC2HCH3C2H2CHCFeCHCNCHCH2SH5CH2CHCHCH5CH6NHC2H2SH4CH6CHCHCSCH5CH4CH2CH4CHCH2CHCH3SH4C3HNSNCHC3H2CNCFeH3C6H2CHCHCNHC2HC2SHC4HC2H3CHC2NHFeH3CHS2CSCFeCH3CH3C2HC2H2CH2FeH2CH2SCFeHNH3C6NFeHSCH2CH3C2HC5H4CHCSC2HC6SHC2H2CH2CSCSC2HFeHSH2SCHC4H2SH5CH4C2H3CH2C2H3CHCH3CNC2H6SH3CH4CFeCH3NFeCH5SHCHC3H2C2HCH2C2HSCSHCH3C3NH2CH3CHC2SHCH3CFeS2FeS2FeSFeS3HFeCSFeS2FeS2FeS2FeSFeS2FeS2FeS2FeHFeS3NHNSCHFeSCHCHFeS2FeS2FeSFeS3HCHCHSCH3CH2CHCHC2HCHC2HCFeH3C4HCNH3C6H5C6H5CH2CHC6H4CH2CHCHCH2CFeH2FeC6H5C2HCH4C7H4C6H4C6H4C6H4C4HS3C2NC8H3FeCH6FeC2HCH3NC4H2C2H2NCHC2HSCH5SCH2C2SNCSH2CHCNHC4HSHSH3CH5NC3HCHCH2NCH2CH3CH2C4HCH2CFeHCNHC7HC2H2CHCH3SH3C2H2C2HCHSH4C2H2C5SH2CH3CH2C3HNH4NHC3H2C2HC2H3SH2CHCH2C3HNH5CH2CHC3S2CHFeSHC2HC2H3C2H2CHCSHSH2C3HCH2CHC3H4C3HCH2CSCHC3H3FeH2C3H4C4H4SFeCH7CH2FeS2HFeCHC2HCHFeHCHCH2SHCH3SCHCHFeHCH4CH2CH2C2H2SCHCH2CHCHNCH3SNCH2SHCH3CH5C2H3C2HCHC2H3CH2CHNFeHSCHCFeCHFeH2C2H3CHCSC2H8SHSC2HFeSHSFeS2FeS2FeSFeS3CNFe2H2CS2H3FeS2FeS2FeSFeS3H2SCHSCHCHCNSCSC2FeS2FeSHFeSHC6H5FeC2SCH2C8H2CHC6H5C3NCHCH6C6H4C6H4C2SH6SC4H3C6H6C3HSH4CHCSC5H3CHSCNSCH3SC2NH2CHCHCHCHCH2CFeCH4CFeH2C2NHCNH2CHCHFeNC9H14C2H2C2SHC2HSH2FeC2SC2SH4CH3CHCH2C2HC3S2H2FeHSCNC7HCH12CFeHCH2CHCHCFeCH2CHSCHCHC4HCH2CH3CH5CH3SCH8C2H2CNHC2H2CHC2H2CHC2H2C2HCH7CH3CHCHFeNCHCHC2H2FeH2C2H2SH2SHCSH2CH2NFeHSH2C2HCH2SC2FeS2FeHSFeSHCS2FeS2FeS2FeCFeS3FeS2FeS2Fe2S3FeSFeS2FeSFeS3FeS2FeS2FeSFeS3HCHFeS2FeCFeS4FeSHFeSFeSCFeS2H2CH2FeSHSC2H2SC6H4C6H5C6H4C6H4C6H4C6H4C6H2SHC6H4C6H4SHCNC2H2C2H3C7H4C6H4C3H4CH3C2HFeH3FeHCNC9H12NC7H15FeH3CH2CFeHSC2HCSH4NC9H14C4H6NC9H15SHCSH6C8HCH7CSHC6H4CH2NH2FeC3HCH3C2HC2HCH3C3HCH2CSCH4C2H2C3H4C2NCHC3HC2H2CH2CHC2HC2H2NCHC2HC4H4CHCH2C2HC2H3SH5CSNCNH3CH3CH3C4H3CNSH2CNCHCSC2HCH2CH2C2SCHCNH3N2CNHC3HCH5CHCH4CH2C2H2CH2FeCH3CH2CH2C3H2C2SCHNFeS2C2HSHFeS2FeS2FeSFeS3FeS2FeS2FeSFeS3FeS2FeS2FeSFeS3FeS2FeS2FeSFeS3FeSFeSFeHS2H2C2HCHCSHCH3C2H2CHC6H4C6H4C6H4C3HC2H3C6H4C6H4CHC2H2SHCHC4H3C6H4CHC5H4NHSCH3C4FeH3CHCH2CH4NHCH2C2H2CHCH3NHC4H3CHSHCFeHCHCH3C2HNC2HC6H3C2H2CH2CH3SH2CH2CH2SH6C2HC5NC9H15C3HSCHCH2CHNCNC9H12C2H12CH2CH3CHCHC3H4NC9H14CHC3FeCH5CHC2H3CHCHNHC3H2C3SH2CHCHNHCHC3H2C2HC2HSC3HSH2CHC2HSFeCH2NC2H2C4HCH4CH6C2HFeSCH2C2H2SH4SCH2CH3CH2C2NHCHCSCH4CHC3H2NCHNCH2CHC2H4CHCH3CH4CH6CHCHCH3CH2CHFeHCHS2H3CFeS2FeSNFeSFeS3H4SHFeS2FeS2FeSFeS3FeS2FeS2FeSFeS3FeS2FeS2FeHFeS3CFeHSFeSHSFeS2FeS2FeSFeS3FeS2FeS2FeSFeS3CFeS2FeHSCFeS3CSHFeS2FeSFeS3C3H2CH4C6H6C2SCHSC5H2CH3C3H2CH2CHC6H4C6H4C6H4C7H4C6H6CSC4H4C6H4C6H4C6H6C8H4CH2C3H2C5H2CH3C7H6CH2C8HCH2C2HC4NC9H14C2HSNCH3SH3CH2CH4CSCNC7H9CNC2HCH8CNC9H14NSHC2HCH5SHC2HC7HCH4C2HCH2C6HCHC2H4CH2C2H6CNC9H10C2H2CHCH3SH2CNHCH3CH7CH2CH5CNCH2C2HCH5C2HCHCHCH6CN2HC2H2C4HC2H2CNCH2CHCHFeNCH3C4H5FeHFeH2CH3C2H2CFeH3CHNHC3H2CH2NCNHCH2C2HNCHC3HSH4CH2CSCHCHCHFeCH2C2HC2H2SCSH5C3HNHC3H3FeHCH2CH2CH2CSCHFeH3CHCHC4H2C2NH4CNCHSH2CH2C5HCHC2SC2HFeCH3SHC2HC2H2CNC2HC3H5CHC2H4CH3CSC4H5CH2CH3C3HC2HCH2C2H2CH2CHC2HCH5NHSH4CFeHC6HCH3C3H2CHCH4CH5SH2CH3CH4FeH4C2FeHFeS2C4NCHS2HCNFeHSCNFeSHSCH2C3H5C2HSFeH3CSH4C2HC5H3C3HC2HSCHNHCH4C2SHCHSH4FeHCHSFeS2FeHFeS3CFeHFeS2HC2HSCHSC6HC2HCH3C2N2HC3H2CHSCHCHCHC2HCH2C3H2C2HNC2HC2HCSH3CH2CHFeCH2CHC3FeCH2C2H2CHCSHCFeSH3CSHSHCH3CHFeHSH2C2HCHCH2NFeH3C3H6C2H2CSH2NHFeS2FeHFeS3H5C3H2FeS2H2CH2CFeHSC3HC2H3CHCHC4H2C2SHC2HCH3C2HFeC3NH5C9H2CH2CH2CSCHSCHC4H2CHCH6CH2SHSH3NCHS2H3SHS2H2C4FeS2FeS2FeSFeS3FeS2FeS2FeHFeS3FeS2FeS2FeSFeS3FeS2FeS2FeHFeS3FeS2FeS2FeSFeS3HFeS2FeS2FeSFeS3C2H3C5H5CHC2SCH2CHSCHC2HC6H4C6H4C6H6C3H8C5HC6H4C6H4CHCH2C6H9C6H4C6H4C2HC8H5SH2C4HNC9H14CH3C2FeHCFeH3CH2SC2NC6H11NC9H16CH2CHNC9H15CHSC6HCHCHNHC2H3SH2FeCH3CHCHC2HC3H2CH2CNC9H8C6H2NHCNC4HCHNC3H2CH4CHCSC2H3CH2SCH2NSCNHC2SFeH2C7SNC2SHFeC2HC2HFeCH4CHCH2CH2CFeH2CH3CSHSCFeH2SHC2HC2HNHCFeH2CHCHC2H3SH2CH2CSHNHSC2H2C2HNFeCFeSCHC2HCH2CSH4CSHCHCHC2HCH3SC2H2CHCHNCH4CH5SH3CH3CHFeH2CHCSHCHCHC3HCHNHSH3C2H2FeHCSCH3FeH2C2H3CFeCH2SC3FeHFeNCSHCH5CH4CS2H2SHSC2H2CH2C3HFeH3FeH2CFeC2HCSCHCH6NH2CHCHSHC2H2C2H5FeCH2C2SCH2C2HCH2CH2NC3H2SCH4CHC3HCHSCHSFeCH3CH3C3HC2H2CHC2
_chemical_formula_sum              "S672 H3024 C2520 Fe336 N168"
_cell_length_a       146.179
_cell_length_b       145.213
_cell_length_c       35.9877
_cell_angle_alpha    74.6814
_cell_angle_beta     74.4686
_cell_angle_gamma    99.0183

_space_group_name_H-M_alt    "P 1"
_space_group_IT_number       1

loop_
  _space_group_symop_operation_xyz
  'x, y, z'

loop_
  _atom_site_type_symbol
  _atom_site_label
  _atom_site_symmetry_multiplicity
  _atom_site_fract_x
  _atom_site_fract_y
  _atom_site_fract_z
  _atom_site_occupancy
  S   S1        1.0  0.07210  0.47829  0.88563  1.0000
  S   S2        1.0  0.05190  0.48077  0.27986  1.0000
  S   S3        1.0  0.04363  0.47591  0.86767  1.0000
  H   H1        1.0  0.02702  0.44779  0.53442  1.0000
  S   S4        1.0  0.08254  0.48357  0.22481  1.0000
  C   C1        1.0  0.01090  0.47715  0.74408  1.0000
  C   C2        1.0  0.05843  0.49661  0.11829  1.0000
  C   C3        1.0  0.05617  0.48875  0.06912  1.0000
  S   S5        1.0  0.01982  0.43989  0.35120  1.0000
  Fe  Fe1       1.0  0.08505  0.49697  0.17069  1.0000
  C   C4        1.0  0.11304  0.49936  0.32368  1.0000
  C   C5        1.0  0.03144  0.45882  0.47346  1.0000
  S   S6        1.0  0.00290  0.45222  0.40764  1.0000
  C   C6        1.0  0.05270  0.47957  0.09966  1.0000
  H   H2        1.0  0.03283  0.46435  0.69468  1.0000
  Fe  Fe2       1.0  0.00972  0.44629  0.76706  1.0000
  S   S7        1.0  0.01175  0.45572  0.70327  1.0000
  S   S8        1.0  0.02299  0.44660  0.79037  1.0000
  H   H3        1.0  0.01645  0.45022  0.45699  1.0000
  S   S9        1.0  0.07663  0.49836  0.91211  1.0000
  S   S10       1.0  0.10075  0.49230  0.28527  1.0000
  C   C7        1.0  0.03781  0.46940  0.70196  1.0000
  S   S11       1.0  0.00669  0.43900  0.63784  1.0000
  C   C8        1.0  0.04209  0.49576  0.33438  1.0000
  C   C9        1.0  0.05621  0.46747  0.19339  1.0000
  H   H4        1.0  0.15906  0.49761  0.25171  1.0000
  C   C10       1.0  0.01302  0.49748  0.72317  1.0000
  C   C11       1.0  0.01878  0.49310  0.74445  1.0000
  C   C12       1.0  0.01788  0.48297  0.75394  1.0000
  H   H5        1.0  0.05395  0.46018  0.21771  1.0000
  C   C13       1.0  0.03249  0.47566  0.47649  1.0000
  S   S12       1.0  0.06390  0.49735  0.85044  1.0000
  Fe  Fe3       1.0  0.08978  0.49443  0.25049  1.0000
  H   H6        1.0  0.03566  0.49585  0.94577  1.0000
  H   H7        1.0  0.03151  0.43681  0.45364  1.0000
  H   H8        1.0  0.06796  0.49398  0.68023  1.0000
  H   H9        1.0  0.05763  0.47833  0.78919  1.0000
  H   H10       1.0  0.05091  0.47331  0.08979  1.0000
  H   H11       1.0  0.04270  0.49296  0.90399  1.0000
  C   C14       1.0  0.04443  0.46598  0.72020  1.0000
  H   H12       1.0  0.03509  0.47216  0.42145  1.0000
  H   H13       1.0  0.03212  0.48182  0.68081  1.0000
  N   N1        1.0  0.05642  0.48915  0.73777  1.0000
  C   C15       1.0  0.03084  0.44166  0.47314  1.0000
  C   C16       1.0  0.00538  0.46706  0.59100  1.0000
  H   H14       1.0  0.01043  0.43569  0.56070  1.0000
  H   H15       1.0  0.01473  0.49554  0.86948  1.0000
  C   C17       1.0  0.07918  0.48308  0.09584  1.0000
  H   H16       1.0  0.01440  0.47122  0.36732  1.0000
  C   C18       1.0  0.01741  0.48266  0.39312  1.0000
  C   C19       1.0  0.01522  0.49130  0.39911  1.0000
  H   H17       1.0  0.06677  0.48962  0.77095  1.0000
  H   H18       1.0  0.04883  0.49312  0.33460  1.0000
  H   H19       1.0  0.02289  0.47978  0.40415  1.0000
  C   C20       1.0  0.03794  0.46745  0.84713  1.0000
  C   C21       1.0  0.04194  0.45985  0.83787  1.0000
  C   C22       1.0  0.03720  0.45348  0.82119  1.0000
  C   C23       1.0  0.02846  0.45464  0.81303  1.0000
  C   C24       1.0  0.02443  0.46219  0.82256  1.0000
  C   C25       1.0  0.02914  0.46853  0.83939  1.0000
  H   H20       1.0  0.04865  0.45881  0.84378  1.0000
  H   H21       1.0  0.04038  0.44764  0.81431  1.0000
  H   H22       1.0  0.01767  0.46312  0.81707  1.0000
  H   H23       1.0  0.02589  0.47431  0.84634  1.0000
  C   C26       1.0  0.04341  0.46915  0.29879  1.0000
  C   C27       1.0  0.04618  0.46021  0.30418  1.0000
  C   C28       1.0  0.03894  0.45123  0.31957  1.0000
  C   C29       1.0  0.02893  0.45116  0.32944  1.0000
  C   C30       1.0  0.02625  0.46012  0.32307  1.0000
  C   C31       1.0  0.03342  0.46903  0.30832  1.0000
  H   H24       1.0  0.05385  0.46021  0.29688  1.0000
  H   H25       1.0  0.04108  0.44432  0.32421  1.0000
  H   H26       1.0  0.01862  0.46019  0.32927  1.0000
  H   H27       1.0  0.03118  0.47589  0.30376  1.0000
  Fe  Fe4       1.0  0.07842  0.49472  0.85451  1.0000
  Fe  Fe5       1.0  0.06159  0.49938  0.91125  1.0000
  C   C32       1.0  0.00808  0.49494  0.38471  1.0000
  C   C33       1.0  0.03519  0.49341  0.91944  1.0000
  H   H28       1.0  0.00410  0.46138  0.54259  1.0000
  N   N2        1.0  0.01188  0.49390  0.58625  1.0000
  S   S13       1.0  0.05428  0.48365  0.94624  1.0000
  H   H29       1.0  0.00370  0.45984  0.61338  1.0000
  Fe  Fe6       1.0  0.05725  0.48122  0.88503  1.0000
  C   C34       1.0  0.07534  0.47769  0.07366  1.0000
  H   H30       1.0  0.03819  0.49145  0.31938  1.0000
  C   C35       1.0  0.05910  0.49723  0.07832  1.0000
  H   H31       1.0  0.02433  0.45940  0.41030  1.0000
  H   H32       1.0  0.04374  0.45341  0.18536  1.0000
  H   H33       1.0  0.00596  0.48969  0.83112  1.0000
  C   C36       1.0  0.05490  0.48749  0.14914  1.0000
  H   H34       1.0  0.06769  0.48129  0.74238  1.0000
  C   C37       1.0  0.01844  0.49286  0.61155  1.0000
  H   H35       1.0  0.00785  0.47792  0.49182  1.0000
  H   H36       1.0  0.04449  0.45825  0.72711  1.0000
  H   H37       1.0  0.06321  0.46776  0.17061  1.0000
  C   C38       1.0  0.00543  0.48144  0.35800  1.0000
  Fe  Fe7       1.0  0.06951  0.48233  0.94413  1.0000
  C   C39       1.0  0.03741  0.47922  0.69430  1.0000
  H   H38       1.0  0.03743  0.49381  0.36662  1.0000
  H   H39       1.0  0.05453  0.48737  0.17968  1.0000
  C   C40       1.0  0.00583  0.49165  0.71435  1.0000
  H   H40       1.0  0.03370  0.47042  0.19159  1.0000
  H   H41       1.0  0.04186  0.46228  0.39154  1.0000
  C   C41       1.0  0.05205  0.47865  0.14073  1.0000
  C   C42       1.0  0.07644  0.48215  0.03238  1.0000
  H   H42       1.0  0.02352  0.43838  0.49694  1.0000
  S   S14       1.0  0.08996  0.49988  0.10213  1.0000
  C   C43       1.0  0.08160  0.49203  0.01342  1.0000
  C   C44       1.0  0.05015  0.49365  0.76399  1.0000
  C   C45       1.0  0.01253  0.47775  0.37259  1.0000
  C   C46       1.0  0.02359  0.45209  0.43231  1.0000
  C   C47       1.0  0.03324  0.46911  0.45409  1.0000
  H   H43       1.0  0.03665  0.46192  0.23045  1.0000
  H   H44       1.0  0.05529  0.46901  0.74684  1.0000
  H   H45       1.0  0.04756  0.45608  0.42600  1.0000
  C   C48       1.0  0.01358  0.49756  0.89685  1.0000
  S   S15       1.0  0.07538  0.49691  0.28273  1.0000
  H   H46       1.0  0.04403  0.48788  0.78874  1.0000
  H   H47       1.0  0.01492  0.48703  0.64155  1.0000
  H   H48       1.0  0.05780  0.47305  0.20831  1.0000
  H   H49       1.0  0.05434  0.49785  0.77841  1.0000
  Fe  Fe8       1.0  0.06839  0.48740  0.25269  1.0000
  C   C49       1.0  0.04116  0.45521  0.41486  1.0000
  H   H50       1.0  0.02854  0.48940  0.86180  1.0000
  S   S16       1.0  0.02175  0.49777  0.42275  1.0000
  C   C50       1.0  0.00986  0.48507  0.57368  1.0000
  Fe  Fe9       1.0  0.00244  0.44272  0.69698  1.0000
  H   H51       1.0  0.11201  0.49169  0.34041  1.0000
  C   C51       1.0  0.08565  0.49733  0.03527  1.0000
  N   N3        1.0  0.04858  0.46906  0.17389  1.0000
  H   H52       1.0  0.08269  0.49555  0.98167  1.0000
  H   H53       1.0  0.01017  0.46931  0.75225  1.0000
  H   H54       1.0  0.02587  0.45935  0.57186  1.0000
  H   H55       1.0  0.07150  0.47003  0.08849  1.0000
  H   H56       1.0  0.05693  0.48921  0.03777  1.0000
  S   S17       1.0  0.07125  0.47517  0.00578  1.0000
  H   H57       1.0  0.05280  0.45997  0.13675  1.0000
  C   C52       1.0  0.08439  0.49293  0.07662  1.0000
  C   C53       1.0  0.02806  0.46210  0.53882  1.0000
  C   C54       1.0  0.02138  0.50010  0.91172  1.0000
  H   H58       1.0  0.07839  0.47956  0.12736  1.0000
  S   S18       1.0  0.02674  0.50001  0.76146  1.0000
  C   C55       1.0  0.00982  0.48568  0.53360  1.0000
  N   N4        1.0  0.03178  0.45201  0.44914  1.0000
  H   H59       1.0  0.03663  0.44112  0.48781  1.0000
  H   H60       1.0  0.14686  0.48642  0.23883  1.0000
  C   C56       1.0  0.05021  0.48230  0.72517  1.0000
  C   C57       1.0  0.06237  0.48435  0.76099  1.0000
  C   C58       1.0  0.03958  0.46907  0.20509  1.0000
  C   C59       1.0  0.02874  0.45548  0.51672  1.0000
  H   H61       1.0  0.04090  0.47484  0.21939  1.0000
  H   H62       1.0  0.03371  0.48348  0.46102  1.0000
  C   C60       1.0  0.04625  0.46051  0.15980  1.0000
  H   H63       1.0  0.02930  0.47723  0.53608  1.0000
  C   C61       1.0  0.04351  0.48560  0.70565  1.0000
  C   C62       1.0  0.02998  0.47216  0.51875  1.0000
  H   H64       1.0  0.04187  0.44980  0.39791  1.0000
  H   H65       1.0  0.02313  0.44663  0.41578  1.0000
  H   H66       1.0  0.03043  0.48579  0.93116  1.0000
  H   H67       1.0  0.02529  0.49117  0.59563  1.0000
  H   H68       1.0  0.04024  0.46097  0.14634  1.0000
  H   H69       1.0  0.02245  0.47960  0.76970  1.0000
  C   C63       1.0  0.05057  0.47228  0.73170  1.0000
  C   C64       1.0  0.00561  0.46792  0.55126  1.0000
  H   H70       1.0  0.04274  0.49308  0.70004  1.0000
  C   C65       1.0  0.00774  0.47722  0.52272  1.0000
  Fe  Fe10      1.0  0.00419  0.44146  0.37320  1.0000
  C   C66       1.0  0.00333  0.49014  0.36351  1.0000
  C   C67       1.0  0.00468  0.48146  0.72529  1.0000
  H   H71       1.0  0.00664  0.47433  0.63391  1.0000
  H   H72       1.0  0.04067  0.49699  0.84022  1.0000
  C   C68       1.0  0.03292  0.49703  0.85431  1.0000
  S   S19       1.0  0.07068  0.50012  0.19694  1.0000
  C   C69       1.0  0.06325  0.49709  0.70111  1.0000
  C   C70       1.0  0.00730  0.47547  0.60231  1.0000
  H   H73       1.0  0.00116  0.49506  0.69923  1.0000
  C   C71       1.0  0.14558  0.49341  0.24149  1.0000
  H   H74       1.0  0.13146  0.49078  0.23303  1.0000
  H   H75       1.0  0.01133  0.49262  0.50999  1.0000
  H   H76       1.0  0.00363  0.50160  0.62127  1.0000
  H   H77       1.0  0.02049  0.49970  0.61914  1.0000
  C   C72       1.0  0.13693  0.49585  0.23808  1.0000
  S   S20       1.0  0.00155  0.43270  0.75856  1.0000
  C   C73       1.0  0.00403  0.49789  0.91640  1.0000
  N   N5        1.0  0.03163  0.50017  0.89102  1.0000
  H   H78       1.0  0.04680  0.49891  0.74686  1.0000
  C   C74       1.0  0.00374  0.43814  0.56640  1.0000
  H   H79       1.0  0.00607  0.50139  0.39013  1.0000
  C   C75       1.0  0.00191  0.50047  0.95183  1.0000
  C   C76       1.0  0.00250  0.49511  0.61058  1.0000
  H   H80       1.0  0.00134  0.43697  0.51075  1.0000
  H   H81       1.0  0.02352  0.50242  0.53034  1.0000
  C   C77       1.0  0.15253  0.49988  0.24880  1.0000
  C   C78       1.0  0.10814  0.50184  0.29500  1.0000
  H   H82       1.0  0.00148  0.47216  0.83652  1.0000
  H   H83       1.0  0.05932  0.50150  0.68354  1.0000
  H   H84       1.0  0.09972  0.50143  0.86537  1.0000
  H   H85       1.0  0.03093  0.50212  0.83044  1.0000
  H   H86       1.0  0.06816  0.50233  0.70932  1.0000
  C   C79       1.0  0.01896  0.50271  0.94786  1.0000
  C   C80       1.0  0.00935  0.50279  0.96775  1.0000
  C   C81       1.0  0.01668  0.50309  0.55117  1.0000
  H   H87       1.0  0.06078  0.50320  0.12539  1.0000
  C   C82       1.0  0.00015  0.44036  0.60250  1.0000
  S   S21       1.0  0.09165  0.50327  0.79829  1.0000
  H   H88       1.0  0.17377  0.51996  0.51777  1.0000
  H   H89       1.0  0.22909  0.63551  0.33909  1.0000
  S   S22       1.0  0.07499  0.52348  0.22724  1.0000
  Fe  Fe11      1.0  0.23276  0.66223  0.90141  1.0000
  H   H90       1.0  0.01411  0.50535  0.71328  1.0000
  S   S23       1.0  0.19385  0.63004  0.82762  1.0000
  H   H91       1.0  0.11833  0.51244  0.93883  1.0000
  H   H92       1.0  0.15485  0.52928  0.23592  1.0000
  H   H93       1.0  0.15217  0.50786  0.32627  1.0000
  C   C83       1.0  0.01420  0.55433  0.54339  1.0000
  Fe  Fe12      1.0  0.14488  0.52783  0.43000  1.0000
  S   S24       1.0  0.15817  0.54011  0.39685  1.0000
  S   S25       1.0  0.14208  0.52170  0.49846  1.0000
  Fe  Fe13      1.0  0.13892  0.52917  0.35265  1.0000
  S   S26       1.0  0.15182  0.54212  0.31507  1.0000
  S   S27       1.0  0.12899  0.52635  0.31471  1.0000
  Fe  Fe14      1.0  0.16069  0.53369  0.34639  1.0000
  S   S28       1.0  0.17621  0.53423  0.31024  1.0000
  Fe  Fe15      1.0  0.14845  0.54766  0.36815  1.0000
  S   S29       1.0  0.14897  0.56367  0.35864  1.0000
  S   S30       1.0  0.14811  0.52028  0.38165  1.0000
  S   S31       1.0  0.13481  0.53568  0.40348  1.0000
  Fe  Fe16      1.0  0.17135  0.60082  0.43082  1.0000
  S   S32       1.0  0.17026  0.61039  0.37298  1.0000
  S   S33       1.0  0.17434  0.58587  0.43937  1.0000
  Fe  Fe17      1.0  0.16515  0.61430  0.47952  1.0000
  S   S34       1.0  0.16325  0.62498  0.42502  1.0000
  S   S35       1.0  0.16021  0.61179  0.54811  1.0000
  Fe  Fe18      1.0  0.15599  0.61166  0.41209  1.0000
  S   S36       1.0  0.14078  0.60879  0.40361  1.0000
  Fe  Fe19      1.0  0.17772  0.62279  0.38976  1.0000
  S   S37       1.0  0.15689  0.60141  0.46879  1.0000
  S   S38       1.0  0.17988  0.61287  0.44489  1.0000
  Fe  Fe20      1.0  0.09366  0.55703  0.31286  1.0000
  S   S39       1.0  0.09142  0.56710  0.35027  1.0000
  S   S40       1.0  0.09217  0.54089  0.34213  1.0000
  Fe  Fe21      1.0  0.09889  0.57338  0.23137  1.0000
  S   S41       1.0  0.09700  0.58478  0.26296  1.0000
  S   S42       1.0  0.10407  0.57724  0.16195  1.0000
  Fe  Fe22      1.0  0.10525  0.57762  0.30298  1.0000
  S   S43       1.0  0.11985  0.58402  0.31129  1.0000
  Fe  Fe23      1.0  0.08340  0.57325  0.30756  1.0000
  S   S44       1.0  0.06833  0.57632  0.32563  1.0000
  S   S45       1.0  0.10787  0.56687  0.26834  1.0000
  S   S46       1.0  0.08492  0.56258  0.27295  1.0000
  C   C84       1.0  0.20126  0.64083  0.33700  1.0000
  Fe  Fe24      1.0  0.23901  0.57841  0.87315  1.0000
  H   H94       1.0  0.09967  0.55730  0.20864  1.0000
  H   H95       1.0  0.22343  0.60726  0.29151  1.0000
  H   H96       1.0  0.19864  0.66096  0.17440  1.0000
  S   S47       1.0  0.05482  0.51118  0.92736  1.0000
  H   H97       1.0  0.23521  0.57580  0.98748  1.0000
  C   C85       1.0  0.15938  0.51044  0.30154  1.0000
  H   H98       1.0  0.01941  0.53122  0.52916  1.0000
  Fe  Fe25      1.0  0.02285  0.51425  0.76399  1.0000
  C   C86       1.0  0.01716  0.55411  0.50265  1.0000
  Fe  Fe26      1.0  0.15789  0.54343  0.66488  1.0000
  S   S48       1.0  0.14328  0.54483  0.70067  1.0000
  S   S49       1.0  0.16147  0.54521  0.59681  1.0000
  Fe  Fe27      1.0  0.16732  0.54556  0.73246  1.0000
  S   S50       1.0  0.15313  0.54679  0.77232  1.0000
  S   S51       1.0  0.18209  0.54713  0.74609  1.0000
  Fe  Fe28      1.0  0.14553  0.53463  0.75475  1.0000
  S   S52       1.0  0.13303  0.52293  0.80671  1.0000
  Fe  Fe29      1.0  0.15200  0.55671  0.71512  1.0000
  S   S53       1.0  0.14898  0.57170  0.70664  1.0000
  S   S54       1.0  0.15986  0.53250  0.71842  1.0000
  S   S55       1.0  0.16648  0.55619  0.67589  1.0000
  S   S56       1.0  0.03353  0.52860  0.72678  1.0000
  Fe  Fe30      1.0  0.17408  0.60749  0.78270  1.0000
  S   S57       1.0  0.17024  0.61309  0.83555  1.0000
  S   S58       1.0  0.17434  0.59170  0.79366  1.0000
  Fe  Fe31      1.0  0.16037  0.62001  0.80528  1.0000
  S   S59       1.0  0.14452  0.61844  0.84077  1.0000
  S   S60       1.0  0.16331  0.61332  0.75556  1.0000
  C   C87       1.0  0.23755  0.65851  0.79119  1.0000
  Fe  Fe32      1.0  0.08782  0.55133  0.94680  1.0000
  S   S61       1.0  0.08985  0.56111  0.88444  1.0000
  S   S62       1.0  0.08893  0.53573  0.96098  1.0000
  Fe  Fe33      1.0  0.08351  0.56648  0.98794  1.0000
  S   S63       1.0  0.08480  0.57776  0.92819  1.0000
  S   S64       1.0  0.07863  0.56559  0.05503  1.0000
  Fe  Fe34      1.0  0.07626  0.56524  0.91434  1.0000
  S   S65       1.0  0.06345  0.56577  0.88815  1.0000
  Fe  Fe35      1.0  0.09830  0.57272  0.90208  1.0000
  S   S66       1.0  0.11358  0.58035  0.85654  1.0000
  S   S67       1.0  0.07381  0.55468  0.97621  1.0000
  S   S68       1.0  0.09737  0.56226  0.96226  1.0000
  Fe  Fe36      1.0  0.23806  0.58515  0.16026  1.0000
  H   H99       1.0  0.18801  0.52234  0.46225  1.0000
  C   C88       1.0  0.04859  0.51177  0.33740  1.0000
  Fe  Fe37      1.0  0.22290  0.57943  0.24496  1.0000
  S   S69       1.0  0.23242  0.58976  0.26446  1.0000
  S   S70       1.0  0.20736  0.57287  0.28929  1.0000
  Fe  Fe38      1.0  0.23505  0.60042  0.20282  1.0000
  S   S71       1.0  0.23402  0.61611  0.19017  1.0000
  H   H100      1.0  0.23686  0.59719  0.01453  1.0000
  S   S72       1.0  0.22490  0.59058  0.18470  1.0000
  S   S73       1.0  0.23528  0.57306  0.21872  1.0000
  Fe  Fe39      1.0  0.22141  0.57717  0.94211  1.0000
  S   S74       1.0  0.21422  0.57383  0.00959  1.0000
  Fe  Fe40      1.0  0.21844  0.57483  0.86186  1.0000
  S   S75       1.0  0.20558  0.56954  0.83930  1.0000
  S   S76       1.0  0.22894  0.61107  0.84442  1.0000
  S   S77       1.0  0.21404  0.58448  0.90008  1.0000
  C   C89       1.0  0.23583  0.57943  0.07665  1.0000
  C   C90       1.0  0.22577  0.57754  0.09642  1.0000
  C   C91       1.0  0.21912  0.57525  0.07644  1.0000
  C   C92       1.0  0.22252  0.57500  0.03650  1.0000
  H   H101      1.0  0.22311  0.57806  0.12670  1.0000
  H   H102      1.0  0.21134  0.57402  0.09137  1.0000
  C   C93       1.0  0.24281  0.62384  0.20028  1.0000
  H   H103      1.0  0.00051  0.54214  0.91609  1.0000
  Fe  Fe41      1.0  0.22867  0.59489  0.86480  1.0000
  H   H104      1.0  0.18191  0.63878  0.56667  1.0000
  N   N6        1.0  0.04435  0.50650  0.31344  1.0000
  H   H105      1.0  0.12595  0.55725  0.78940  1.0000
  C   C94       1.0  0.12653  0.60409  0.75282  1.0000
  C   C95       1.0  0.05792  0.55794  0.86485  1.0000
  C   C96       1.0  0.04994  0.56003  0.85201  1.0000
  C   C97       1.0  0.04519  0.55391  0.83446  1.0000
  C   C98       1.0  0.04829  0.54551  0.82971  1.0000
  C   C99       1.0  0.05633  0.54348  0.84218  1.0000
  C   C100      1.0  0.06113  0.54966  0.85935  1.0000
  H   H106      1.0  0.04741  0.56645  0.85572  1.0000
  H   H107      1.0  0.03916  0.55573  0.82455  1.0000
  H   H108      1.0  0.05878  0.53700  0.83896  1.0000
  H   H109      1.0  0.06725  0.54800  0.86879  1.0000
  C   C101      1.0  0.13595  0.60729  0.84995  1.0000
  C   C102      1.0  0.13900  0.59949  0.83856  1.0000
  C   C103      1.0  0.13205  0.59110  0.84241  1.0000
  C   C104      1.0  0.12197  0.59027  0.85879  1.0000
  C   C105      1.0  0.11891  0.59785  0.87210  1.0000
  C   C106      1.0  0.12588  0.60635  0.86747  1.0000
  H   H110      1.0  0.14672  0.59998  0.82598  1.0000
  H   H111      1.0  0.13451  0.58529  0.83201  1.0000
  H   H112      1.0  0.11117  0.59736  0.88435  1.0000
  H   H113      1.0  0.12343  0.61232  0.87654  1.0000
  C   C107      1.0  0.18822  0.55314  0.77388  1.0000
  C   C108      1.0  0.19794  0.55265  0.77094  1.0000
  C   C109      1.0  0.20329  0.55757  0.79061  1.0000
  C   C110      1.0  0.19904  0.56310  0.81389  1.0000
  C   C111      1.0  0.18929  0.56358  0.81691  1.0000
  C   C112      1.0  0.18394  0.55866  0.79718  1.0000
  H   H114      1.0  0.20140  0.54843  0.75317  1.0000
  H   H115      1.0  0.21073  0.55704  0.78787  1.0000
  H   H116      1.0  0.18578  0.56769  0.83502  1.0000
  H   H117      1.0  0.17647  0.55912  0.80022  1.0000
  C   C113      1.0  0.16664  0.58649  0.77089  1.0000
  C   C114      1.0  0.16629  0.59187  0.73299  1.0000
  C   C115      1.0  0.16060  0.58742  0.71370  1.0000
  C   C116      1.0  0.15522  0.57762  0.73244  1.0000
  C   C117      1.0  0.15548  0.57232  0.77051  1.0000
  C   C118      1.0  0.16120  0.57672  0.78971  1.0000
  H   H118      1.0  0.17073  0.59932  0.71769  1.0000
  H   H119      1.0  0.16069  0.59145  0.68362  1.0000
  H   H120      1.0  0.15127  0.56480  0.78508  1.0000
  H   H121      1.0  0.16150  0.57253  0.81889  1.0000
  C   C119      1.0  0.14413  0.61159  0.98474  1.0000
  C   C120      1.0  0.03414  0.54597  0.95100  1.0000
  C   C121      1.0  0.11989  0.51895  0.76602  1.0000
  C   C122      1.0  0.12183  0.51708  0.80299  1.0000
  H   H122      1.0  0.03646  0.51708  0.29273  1.0000
  H   H123      1.0  0.17102  0.51183  0.22790  1.0000
  C   C123      1.0  0.01740  0.54137  0.86401  1.0000
  H   H124      1.0  0.12546  0.52382  0.73829  1.0000
  H   H125      1.0  0.06180  0.50624  0.32846  1.0000
  C   C124      1.0  0.14986  0.61584  0.00403  1.0000
  C   C125      1.0  0.06296  0.51778  0.94421  1.0000
  C   C126      1.0  0.06450  0.52799  0.93355  1.0000
  C   C127      1.0  0.07227  0.53352  0.94022  1.0000
  C   C128      1.0  0.07845  0.52881  0.95780  1.0000
  C   C129      1.0  0.07655  0.51855  0.97070  1.0000
  C   C130      1.0  0.06873  0.51303  0.96425  1.0000
  H   H126      1.0  0.05999  0.53164  0.91828  1.0000
  H   H127      1.0  0.07374  0.54146  0.92984  1.0000
  H   H128      1.0  0.08126  0.51488  0.98463  1.0000
  H   H129      1.0  0.04666  0.54008  0.95327  1.0000
  C   C131      1.0  0.05693  0.56790  0.33693  1.0000
  C   C132      1.0  0.05550  0.55759  0.34903  1.0000
  C   C133      1.0  0.04606  0.55141  0.35852  1.0000
  C   C134      1.0  0.03813  0.55554  0.35480  1.0000
  C   C135      1.0  0.03975  0.56580  0.34164  1.0000
  C   C136      1.0  0.04896  0.57189  0.33367  1.0000
  H   H130      1.0  0.06160  0.55440  0.35156  1.0000
  H   H131      1.0  0.04497  0.54352  0.36803  1.0000
  H   H132      1.0  0.03376  0.56911  0.33806  1.0000
  H   H133      1.0  0.04994  0.57980  0.32424  1.0000
  C   C137      1.0  0.09733  0.57302  0.13267  1.0000
  C   C138      1.0  0.10118  0.57678  0.08991  1.0000
  C   C139      1.0  0.09576  0.57420  0.06552  1.0000
  C   C140      1.0  0.08640  0.56785  0.08374  1.0000
  C   C141      1.0  0.08277  0.56372  0.12643  1.0000
  C   C142      1.0  0.08818  0.56627  0.15081  1.0000
  H   H134      1.0  0.10827  0.58196  0.07551  1.0000
  H   H135      1.0  0.09865  0.57744  0.03270  1.0000
  H   H136      1.0  0.07560  0.55869  0.14085  1.0000
  H   H137      1.0  0.08514  0.56318  0.18361  1.0000
  C   C143      1.0  0.16609  0.61775  0.57568  1.0000
  H   H138      1.0  0.19554  0.56636  0.38488  1.0000
  C   C144      1.0  0.06180  0.51540  0.36557  1.0000
  Fe  Fe42      1.0  0.24499  0.58445  0.23261  1.0000
  H   H139      1.0  0.14235  0.61711  0.75796  1.0000
  C   C145      1.0  0.12541  0.59071  0.33834  1.0000
  C   C146      1.0  0.12008  0.59466  0.36618  1.0000
  C   C147      1.0  0.12489  0.60005  0.38600  1.0000
  C   C148      1.0  0.13507  0.60157  0.37867  1.0000
  C   C149      1.0  0.14037  0.59752  0.35124  1.0000
  C   C150      1.0  0.13557  0.59212  0.33140  1.0000
  H   H140      1.0  0.11229  0.59370  0.37197  1.0000
  H   H141      1.0  0.12069  0.60319  0.40689  1.0000
  H   H142      1.0  0.14820  0.59872  0.34470  1.0000
  H   H143      1.0  0.13981  0.58911  0.31009  1.0000
  C   C151      1.0  0.14669  0.52863  0.52660  1.0000
  C   C152      1.0  0.15191  0.53851  0.50839  1.0000
  C   C153      1.0  0.15612  0.54354  0.53067  1.0000
  C   C154      1.0  0.15494  0.53890  0.57189  1.0000
  C   C155      1.0  0.14936  0.52916  0.59067  1.0000
  C   C156      1.0  0.14532  0.52405  0.56806  1.0000
  H   H144      1.0  0.15285  0.54225  0.47693  1.0000
  H   H145      1.0  0.16043  0.55105  0.51558  1.0000
  H   H146      1.0  0.14842  0.52544  0.62226  1.0000
  H   H147      1.0  0.14124  0.51644  0.58267  1.0000
  C   C157      1.0  0.18504  0.54505  0.30265  1.0000
  C   C158      1.0  0.19489  0.54668  0.27919  1.0000
  C   C159      1.0  0.20190  0.55524  0.27396  1.0000
  C   C160      1.0  0.19909  0.56208  0.29306  1.0000
  C   C161      1.0  0.18929  0.56034  0.31669  1.0000
  C   C162      1.0  0.18230  0.55206  0.32059  1.0000
  H   H148      1.0  0.19712  0.54133  0.26494  1.0000
  H   H149      1.0  0.20945  0.55646  0.25572  1.0000
  H   H150      1.0  0.18701  0.56543  0.33208  1.0000
  H   H151      1.0  0.17477  0.55117  0.33749  1.0000
  C   C163      1.0  0.15496  0.56916  0.38655  1.0000
  C   C164      1.0  0.16053  0.56439  0.40777  1.0000
  C   C165      1.0  0.16609  0.56935  0.42601  1.0000
  C   C166      1.0  0.16609  0.57912  0.42311  1.0000
  C   C167      1.0  0.15998  0.58367  0.40444  1.0000
  C   C168      1.0  0.15449  0.57871  0.38598  1.0000
  H   H152      1.0  0.16090  0.55705  0.40912  1.0000
  H   H153      1.0  0.17060  0.56568  0.44115  1.0000
  H   H154      1.0  0.15953  0.59104  0.40363  1.0000
  H   H155      1.0  0.15000  0.58234  0.37056  1.0000
  C   C169      1.0  0.00828  0.52709  0.92208  1.0000
  H   H156      1.0  0.18180  0.56204  0.51160  1.0000
  C   C170      1.0  0.16347  0.61329  0.61799  1.0000
  C   C171      1.0  0.08108  0.58486  0.20394  1.0000
  C   C172      1.0  0.05825  0.56632  0.16259  1.0000
  C   C173      1.0  0.02646  0.56612  0.43660  1.0000
  C   C174      1.0  0.18116  0.54886  0.49464  1.0000
  S   S78       1.0  0.02603  0.54858  0.36540  1.0000
  C   C175      1.0  0.15099  0.50903  0.25295  1.0000
  C   C176      1.0  0.10528  0.50633  0.83765  1.0000
  H   H157      1.0  0.01860  0.50955  0.56128  1.0000
  H   H158      1.0  0.17355  0.52351  0.23509  1.0000
  S   S79       1.0  0.00144  0.53040  0.43961  1.0000
  C   C177      1.0  0.12083  0.51666  0.30899  1.0000
  C   C178      1.0  0.11600  0.51910  0.28004  1.0000
  C   C179      1.0  0.10963  0.51180  0.27339  1.0000
  H   H159      1.0  0.12651  0.52064  0.89119  1.0000
  H   H160      1.0  0.06019  0.52501  0.40193  1.0000
  H   H161      1.0  0.11730  0.52671  0.26230  1.0000
  H   H162      1.0  0.10603  0.51384  0.25094  1.0000
  C   C180      1.0  0.07842  0.52691  0.26554  1.0000
  C   C181      1.0  0.08509  0.52271  0.28161  1.0000
  C   C182      1.0  0.08872  0.52641  0.30857  1.0000
  C   C183      1.0  0.08558  0.53423  0.31957  1.0000
  C   C184      1.0  0.07823  0.53774  0.30647  1.0000
  C   C185      1.0  0.07478  0.53423  0.27884  1.0000
  H   H163      1.0  0.08786  0.51697  0.27173  1.0000
  H   H164      1.0  0.09437  0.52361  0.31886  1.0000
  H   H165      1.0  0.07535  0.54333  0.31698  1.0000
  H   H166      1.0  0.06942  0.53730  0.26736  1.0000
  C   C186      1.0  0.23920  0.57854  0.03778  1.0000
  N   N7        1.0  0.18971  0.57920  0.68083  1.0000
  C   C187      1.0  0.18007  0.57381  0.71150  1.0000
  C   C188      1.0  0.19107  0.57532  0.64589  1.0000
  C   C189      1.0  0.18490  0.59367  0.64099  1.0000
  C   C190      1.0  0.18495  0.60366  0.62903  1.0000
  H   H167      1.0  0.17396  0.57517  0.69965  1.0000
  H   H168      1.0  0.17930  0.56574  0.72102  1.0000
  H   H169      1.0  0.17900  0.57602  0.73937  1.0000
  H   H170      1.0  0.18472  0.57504  0.63453  1.0000
  H   H171      1.0  0.19173  0.56754  0.65470  1.0000
  H   H172      1.0  0.18066  0.58898  0.62965  1.0000
  H   H173      1.0  0.18111  0.60646  0.60820  1.0000
  N   N8        1.0  0.22755  0.60723  0.00775  1.0000
  H   H174      1.0  0.20027  0.60078  0.98243  1.0000
  C   C191      1.0  0.21848  0.59979  0.03586  1.0000
  S   S80       1.0  0.19062  0.63330  0.33567  1.0000
  C   C192      1.0  0.23170  0.61308  0.03009  1.0000
  C   C193      1.0  0.23411  0.60833  0.06487  1.0000
  C   C194      1.0  0.23355  0.62353  0.01822  1.0000
  H   H175      1.0  0.08488  0.52344  0.04053  1.0000
  C   C195      1.0  0.23719  0.62878  0.04080  1.0000
  H   H176      1.0  0.23841  0.63674  0.03149  1.0000
  H   H177      1.0  0.20740  0.62880  0.87262  1.0000
  S   S81       1.0  0.02009  0.51820  0.82113  1.0000
  H   H178      1.0  0.23151  0.61869  0.95035  1.0000
  H   H179      1.0  0.21980  0.59463  0.06151  1.0000
  C   C196      1.0  0.20542  0.66801  0.26967  1.0000
  H   H180      1.0  0.21621  0.63113  0.35344  1.0000
  C   C197      1.0  0.17289  0.62689  0.55720  1.0000
  Fe  Fe43      1.0  0.18243  0.62658  0.79604  1.0000
  H   H181      1.0  0.23224  0.62784  0.99161  1.0000
  H   H182      1.0  0.16739  0.53440  0.45677  1.0000
  H   H183      1.0  0.23830  0.66457  0.71356  1.0000
  H   H184      1.0  0.19796  0.61145  0.68469  1.0000
  N   N9        1.0  0.19753  0.59687  0.84030  1.0000
  C   C198      1.0  0.19087  0.58753  0.84464  1.0000
  C   C199      1.0  0.19409  0.60509  0.81869  1.0000
  C   C200      1.0  0.20743  0.59719  0.81425  1.0000
  C   C201      1.0  0.19788  0.59794  0.87976  1.0000
  C   C202      1.0  0.20391  0.60648  0.88079  1.0000
  C   C203      1.0  0.19235  0.59068  0.91798  1.0000
  C   C204      1.0  0.20476  0.60747  0.91740  1.0000
  C   C205      1.0  0.19323  0.59175  0.95447  1.0000
  H   H185      1.0  0.21284  0.60337  0.04930  1.0000
  H   H186      1.0  0.18311  0.58713  0.86090  1.0000
  H   H187      1.0  0.19111  0.58670  0.81453  1.0000
  H   H188      1.0  0.19299  0.58101  0.86108  1.0000
  H   H189      1.0  0.19299  0.60411  0.79041  1.0000
  H   H190      1.0  0.19933  0.61234  0.80954  1.0000
  H   H191      1.0  0.18698  0.60552  0.83833  1.0000
  H   H192      1.0  0.21006  0.59075  0.82780  1.0000
  H   H193      1.0  0.20743  0.59691  0.78365  1.0000
  H   H194      1.0  0.21300  0.60392  0.80943  1.0000
  H   H195      1.0  0.20823  0.61237  0.85303  1.0000
  H   H196      1.0  0.18751  0.58395  0.92048  1.0000
  H   H197      1.0  0.11847  0.56119  0.88592  1.0000
  N   N10       1.0  0.11654  0.52736  0.92488  1.0000
  C   C206      1.0  0.10918  0.52503  0.90516  1.0000
  C   C207      1.0  0.12274  0.52018  0.92317  1.0000
  C   C208      1.0  0.12213  0.53777  0.90440  1.0000
  C   C209      1.0  0.13241  0.54057  0.88385  1.0000
  C   C210      1.0  0.12237  0.55540  0.88565  1.0000
  C   C211      1.0  0.13746  0.55049  0.86563  1.0000
  C   C212      1.0  0.13246  0.55789  0.86640  1.0000
  H   H198      1.0  0.11283  0.52626  0.87227  1.0000
  H   H199      1.0  0.10487  0.51722  0.91931  1.0000
  H   H200      1.0  0.10382  0.52967  0.90738  1.0000
  C   C213      1.0  0.03355  0.56457  0.49016  1.0000
  C   C214      1.0  0.00666  0.52354  0.58132  1.0000
  S   S82       1.0  0.04231  0.53713  0.80971  1.0000
  H   H201      1.0  0.13675  0.53525  0.88109  1.0000
  C   C215      1.0  0.11194  0.54196  0.06294  1.0000
  H   H202      1.0  0.13639  0.56557  0.85185  1.0000
  N   N11       1.0  0.15241  0.57525  0.56559  1.0000
  C   C216      1.0  0.15767  0.56823  0.55134  1.0000
  C   C217      1.0  0.15990  0.58411  0.56012  1.0000
  C   C218      1.0  0.14698  0.57047  0.60973  1.0000
  C   C219      1.0  0.14557  0.57820  0.54346  1.0000
  C   C220      1.0  0.14478  0.57523  0.50953  1.0000
  C   C221      1.0  0.13975  0.58462  0.55456  1.0000
  C   C222      1.0  0.13877  0.57877  0.48754  1.0000
  C   C223      1.0  0.13374  0.58807  0.53243  1.0000
  C   C224      1.0  0.13334  0.58524  0.49870  1.0000
  H   H203      1.0  0.16234  0.57147  0.51880  1.0000
  H   H204      1.0  0.16268  0.56609  0.56878  1.0000
  H   H205      1.0  0.15247  0.56127  0.55543  1.0000
  H   H206      1.0  0.16419  0.58787  0.52728  1.0000
  H   H207      1.0  0.16515  0.58222  0.57653  1.0000
  H   H208      1.0  0.15663  0.58964  0.57172  1.0000
  H   H209      1.0  0.14088  0.56413  0.61499  1.0000
  H   H210      1.0  0.15181  0.56759  0.62687  1.0000
  H   H211      1.0  0.14387  0.57563  0.62443  1.0000
  H   H212      1.0  0.14895  0.57042  0.49854  1.0000
  H   H213      1.0  0.14014  0.58738  0.57935  1.0000
  H   H214      1.0  0.13857  0.57676  0.46077  1.0000
  H   H215      1.0  0.12969  0.59331  0.54036  1.0000
  H   H216      1.0  0.12904  0.58830  0.48044  1.0000
  H   H217      1.0  0.14015  0.51800  0.25231  1.0000
  H   H218      1.0  0.09226  0.55052  0.05297  1.0000
  S   S83       1.0  0.23230  0.65389  0.05081  1.0000
  H   H219      1.0  0.21938  0.61715  0.98407  1.0000
  H   H220      1.0  0.03383  0.57048  0.41511  1.0000
  H   H221      1.0  0.21722  0.62975  0.28506  1.0000
  C   C225      1.0  0.04368  0.51762  0.35797  1.0000
  C   C226      1.0  0.05771  0.51070  0.34246  1.0000
  H   H222      1.0  0.06201  0.50427  0.05424  1.0000
  C   C227      1.0  0.16797  0.51830  0.22963  1.0000
  C   C228      1.0  0.11069  0.51450  0.76494  1.0000
  H   H223      1.0  0.01173  0.50511  0.53339  1.0000
  H   H224      1.0  0.19792  0.65949  0.24273  1.0000
  H   H225      1.0  0.04096  0.56823  0.46736  1.0000
  H   H226      1.0  0.14236  0.61152  0.92740  1.0000
  H   H227      1.0  0.10593  0.53020  0.97281  1.0000
  C   C229      1.0  0.22902  0.64694  0.76792  1.0000
  H   H228      1.0  0.14532  0.55243  0.85064  1.0000
  H   H229      1.0  0.10960  0.55635  0.03957  1.0000
  S   S84       1.0  0.22899  0.66185  0.33296  1.0000
  H   H230      1.0  0.02453  0.50470  0.96095  1.0000
  H   H231      1.0  0.20768  0.66404  0.82302  1.0000
  H   H232      1.0  0.04393  0.52663  0.39677  1.0000
  H   H233      1.0  0.01064  0.55128  0.91195  1.0000
  N   N12       1.0  0.10845  0.54770  0.19087  1.0000
  C   C230      1.0  0.11125  0.55328  0.14682  1.0000
  C   C231      1.0  0.10706  0.53708  0.19498  1.0000
  C   C232      1.0  0.09896  0.54940  0.21150  1.0000
  H   H234      1.0  0.11834  0.55229  0.12930  1.0000
  H   H235      1.0  0.10563  0.55086  0.13347  1.0000
  H   H236      1.0  0.11183  0.56129  0.14160  1.0000
  H   H237      1.0  0.11414  0.53537  0.18169  1.0000
  H   H238      1.0  0.10183  0.53471  0.17981  1.0000
  H   H239      1.0  0.10395  0.53227  0.22724  1.0000
  H   H240      1.0  0.09314  0.54708  0.19891  1.0000
  H   H241      1.0  0.09627  0.54532  0.24447  1.0000
  H   H242      1.0  0.10804  0.53949  0.26981  1.0000
  N   N13       1.0  0.11632  0.55691  0.39863  1.0000
  C   C233      1.0  0.12448  0.56105  0.35930  1.0000
  C   C234      1.0  0.10870  0.54984  0.39293  1.0000
  C   C235      1.0  0.11202  0.56498  0.40768  1.0000
  C   C236      1.0  0.12002  0.55242  0.43192  1.0000
  C   C237      1.0  0.12803  0.55795  0.43835  1.0000
  C   C238      1.0  0.11582  0.54261  0.45899  1.0000
  C   C239      1.0  0.13199  0.55374  0.46814  1.0000
  C   C240      1.0  0.11977  0.53852  0.48910  1.0000
  C   C241      1.0  0.12791  0.54402  0.49329  1.0000
  H   H243      1.0  0.12183  0.56365  0.33302  1.0000
  H   H244      1.0  0.12978  0.56761  0.35803  1.0000
  H   H245      1.0  0.12865  0.55549  0.35363  1.0000
  H   H246      1.0  0.11146  0.54352  0.38635  1.0000
  H   H247      1.0  0.10634  0.55336  0.36674  1.0000
  H   H248      1.0  0.10193  0.54699  0.41990  1.0000
  H   H249      1.0  0.11760  0.57110  0.40805  1.0000
  H   H250      1.0  0.10880  0.56832  0.38423  1.0000
  H   H251      1.0  0.10614  0.56228  0.43776  1.0000
  H   H252      1.0  0.13148  0.56550  0.41941  1.0000
  H   H253      1.0  0.10965  0.53786  0.45687  1.0000
  H   H254      1.0  0.13841  0.55796  0.47107  1.0000
  H   H255      1.0  0.11670  0.53092  0.50851  1.0000
  H   H256      1.0  0.13113  0.54069  0.51576  1.0000
  N   N14       1.0  0.18354  0.58953  0.28900  1.0000
  C   C242      1.0  0.17401  0.59223  0.29285  1.0000
  C   C243      1.0  0.18412  0.58259  0.26505  1.0000
  C   C244      1.0  0.18361  0.58421  0.33005  1.0000
  C   C245      1.0  0.19174  0.59847  0.27082  1.0000
  C   C246      1.0  0.20008  0.59960  0.23717  1.0000
  C   C247      1.0  0.19175  0.60622  0.28808  1.0000
  C   C248      1.0  0.20774  0.60810  0.22116  1.0000
  C   C249      1.0  0.19945  0.61468  0.27189  1.0000
  C   C250      1.0  0.20742  0.61564  0.23831  1.0000
  H   H257      1.0  0.17398  0.59703  0.26315  1.0000
  H   H258      1.0  0.16778  0.58561  0.30360  1.0000
  H   H259      1.0  0.17220  0.59616  0.31549  1.0000
  H   H260      1.0  0.18422  0.58619  0.23352  1.0000
  H   H261      1.0  0.17775  0.57604  0.27918  1.0000
  H   H262      1.0  0.19074  0.57961  0.26357  1.0000
  H   H263      1.0  0.18242  0.58868  0.35089  1.0000
  H   H264      1.0  0.17770  0.57730  0.34458  1.0000
  H   H265      1.0  0.19073  0.58224  0.32852  1.0000
  H   H266      1.0  0.20095  0.59397  0.22289  1.0000
  H   H267      1.0  0.18586  0.60572  0.31469  1.0000
  H   H268      1.0  0.21403  0.60880  0.19547  1.0000
  H   H269      1.0  0.19922  0.62048  0.28578  1.0000
  H   H270      1.0  0.21343  0.62216  0.22567  1.0000
  S   S85       1.0  0.00970  0.51853  0.75106  1.0000
  H   H271      1.0  0.01184  0.54817  0.46037  1.0000
  C   C251      1.0  0.17680  0.63162  0.58113  1.0000
  Fe  Fe44      1.0  0.23733  0.65838  0.98223  1.0000
  H   H272      1.0  0.08984  0.50486  0.01995  1.0000
  C   C252      1.0  0.15017  0.63024  0.70919  1.0000
  Fe  Fe45      1.0  0.17562  0.62669  0.72106  1.0000
  C   C253      1.0  0.24294  0.63383  0.19091  1.0000
  C   C254      1.0  0.02076  0.53468  0.58279  1.0000
  N   N15       1.0  0.13537  0.60526  0.71820  1.0000
  S   S86       1.0  0.01308  0.52109  0.37307  1.0000
  H   H273      1.0  0.17832  0.62980  0.95511  1.0000
  H   H274      1.0  0.11971  0.54469  0.05670  1.0000
  C   C255      1.0  0.05237  0.56102  0.20249  1.0000
  C   C256      1.0  0.21047  0.64937  0.37044  1.0000
  C   C257      1.0  0.23919  0.62386  0.07543  1.0000
  H   H275      1.0  0.16279  0.64613  0.92219  1.0000
  H   H276      1.0  0.23544  0.65369  0.82337  1.0000
  C   C258      1.0  0.05370  0.56417  0.23444  1.0000
  H   H277      1.0  0.12206  0.59632  0.76641  1.0000
  H   H278      1.0  0.03645  0.55181  0.96252  1.0000
  C   C259      1.0  0.14418  0.62068  0.72557  1.0000
  H   H279      1.0  0.15825  0.60622  0.63251  1.0000
  C   C260      1.0  0.15005  0.63054  0.64204  1.0000
  N   N16       1.0  0.09037  0.53370  0.82035  1.0000
  C   C261      1.0  0.08207  0.53840  0.82910  1.0000
  C   C262      1.0  0.09024  0.53026  0.78513  1.0000
  C   C263      1.0  0.08856  0.52500  0.85652  1.0000
  C   C264      1.0  0.10004  0.54036  0.81137  1.0000
  C   C265      1.0  0.10123  0.55033  0.81074  1.0000
  C   C266      1.0  0.10867  0.53690  0.80316  1.0000
  C   C267      1.0  0.11047  0.55628  0.80339  1.0000
  C   C268      1.0  0.11788  0.54293  0.79526  1.0000
  C   C269      1.0  0.11879  0.55260  0.79549  1.0000
  H   H280      1.0  0.08261  0.54471  0.80243  1.0000
  H   H281      1.0  0.07488  0.53313  0.83687  1.0000
  H   H282      1.0  0.08168  0.54103  0.85570  1.0000
  H   H283      1.0  0.09182  0.53658  0.75698  1.0000
  H   H284      1.0  0.08302  0.52532  0.79070  1.0000
  H   H285      1.0  0.09573  0.52590  0.77864  1.0000
  H   H286      1.0  0.08921  0.52729  0.88302  1.0000
  H   H287      1.0  0.08107  0.52015  0.86589  1.0000
  H   H288      1.0  0.09372  0.52028  0.85086  1.0000
  H   H289      1.0  0.09515  0.55372  0.81581  1.0000
  H   H290      1.0  0.10831  0.52945  0.80291  1.0000
  H   H291      1.0  0.11119  0.56381  0.80383  1.0000
  H   H292      1.0  0.12437  0.54007  0.78894  1.0000
  S   S87       1.0  0.23301  0.58583  0.82411  1.0000
  S   S88       1.0  0.22485  0.56661  0.90781  1.0000
  C   C270      1.0  0.23255  0.57635  0.01768  1.0000
  H   H293      1.0  0.22609  0.64081  0.79738  1.0000
  C   C271      1.0  0.18993  0.58983  0.66800  1.0000
  H   H294      1.0  0.19779  0.57983  0.62024  1.0000
  H   H295      1.0  0.06984  0.57844  0.12278  1.0000
  H   H296      1.0  0.02761  0.52627  0.90184  1.0000
  S   S89       1.0  0.23567  0.58840  0.91005  1.0000
  H   H297      1.0  0.19781  0.56916  0.70474  1.0000
  C   C272      1.0  0.11727  0.54552  0.90441  1.0000
  H   H298      1.0  0.19066  0.54872  0.39703  1.0000
  C   C273      1.0  0.19744  0.57699  0.69917  1.0000
  C   C274      1.0  0.18974  0.61006  0.64444  1.0000
  H   H299      1.0  0.19599  0.57799  0.72967  1.0000
  C   C275      1.0  0.11572  0.55062  0.21017  1.0000
  C   C276      1.0  0.11439  0.54546  0.25144  1.0000
  H   H300      1.0  0.12838  0.52137  0.93810  1.0000
  H   H301      1.0  0.16864  0.52986  0.52569  1.0000
  H   H302      1.0  0.23315  0.60043  0.07534  1.0000
  H   H303      1.0  0.18965  0.61779  0.63552  1.0000
  C   C277      1.0  0.19148  0.56147  0.41557  1.0000
  Fe  Fe46      1.0  0.01719  0.53275  0.40075  1.0000
  C   C278      1.0  0.19446  0.59650  0.68420  1.0000
  H   H304      1.0  0.20481  0.58162  0.67893  1.0000
  H   H305      1.0  0.11195  0.52680  0.08891  1.0000
  H   H306      1.0  0.10945  0.54400  0.91875  1.0000
  Fe  Fe47      1.0  0.02995  0.53313  0.78335  1.0000
  C   C279      1.0  0.12408  0.55869  0.18949  1.0000
  H   H307      1.0  0.12554  0.56331  0.15862  1.0000
  C   C280      1.0  0.19947  0.60009  0.95416  1.0000
  C   C281      1.0  0.18869  0.55132  0.42293  1.0000
  C   C282      1.0  0.18904  0.56532  0.44748  1.0000
  C   C283      1.0  0.11141  0.52575  0.96853  1.0000
  H   H308      1.0  0.17914  0.64367  0.85244  1.0000
  C   C284      1.0  0.19443  0.60647  0.67213  1.0000
  C   C285      1.0  0.21341  0.64346  0.87170  1.0000
  C   C286      1.0  0.17414  0.53184  0.44683  1.0000
  C   C287      1.0  0.17570  0.52799  0.51340  1.0000
  H   H309      1.0  0.17176  0.52382  0.45181  1.0000
  C   C288      1.0  0.21927  0.65323  0.17598  1.0000
  H   H310      1.0  0.03951  0.55505  0.43882  1.0000
  H   H311      1.0  0.08063  0.54115  0.03106  1.0000
  C   C289      1.0  0.12118  0.54794  0.27031  1.0000
  C   C290      1.0  0.18350  0.54467  0.46280  1.0000
  H   H312      1.0  0.17756  0.53551  0.41337  1.0000
  H   H313      1.0  0.23630  0.61640  0.29763  1.0000
  C   C291      1.0  0.13078  0.56118  0.20885  1.0000
  H   H314      1.0  0.12002  0.54373  0.30169  1.0000
  H   H315      1.0  0.20972  0.61391  0.91689  1.0000
  N   N17       1.0  0.18079  0.53393  0.46987  1.0000
  C   C292      1.0  0.18385  0.55904  0.48685  1.0000
  C   C293      1.0  0.15569  0.52492  0.26477  1.0000
  H   H316      1.0  0.04211  0.52732  0.92348  1.0000
  H   H317      1.0  0.18923  0.58595  0.98306  1.0000
  H   H318      1.0  0.03265  0.54612  0.48789  1.0000
  C   C294      1.0  0.12937  0.55576  0.24905  1.0000
  H   H319      1.0  0.13705  0.56742  0.19276  1.0000
  H   H320      1.0  0.17716  0.54447  0.52592  1.0000
  S   S90       1.0  0.02130  0.52286  0.44993  1.0000
  H   H321      1.0  0.13459  0.55768  0.26393  1.0000
  S   S91       1.0  0.00059  0.50726  0.46780  1.0000
  C   C295      1.0  0.18972  0.53048  0.45553  1.0000
  H   H322      1.0  0.06882  0.53484  0.06755  1.0000
  C   C296      1.0  0.20764  0.65633  0.83394  1.0000
  C   C297      1.0  0.23601  0.61865  0.86262  1.0000
  H   H323      1.0  0.05815  0.50623  0.27263  1.0000
  H   H324      1.0  0.19992  0.64941  0.20478  1.0000
  H   H325      1.0  0.07683  0.53414  0.14118  1.0000
  H   H326      1.0  0.23784  0.64090  0.87864  1.0000
  H   H327      1.0  0.01112  0.54096  0.85199  1.0000
  H   H328      1.0  0.19337  0.53373  0.42203  1.0000
  H   H329      1.0  0.06792  0.52473  0.13707  1.0000
  C   C298      1.0  0.03201  0.55159  0.46109  1.0000
  H   H330      1.0  0.07620  0.54433  0.07680  1.0000
  H   H331      1.0  0.12843  0.50660  0.23941  1.0000
  C   C299      1.0  0.15528  0.62234  0.91910  1.0000
  S   S92       1.0  0.02182  0.54029  0.64937  1.0000
  H   H332      1.0  0.18032  0.52906  0.53271  1.0000
  C   C300      1.0  0.16131  0.62685  0.93777  1.0000
  H   H333      1.0  0.03559  0.51562  0.85635  1.0000
  S   S93       1.0  0.24838  0.59612  0.17277  1.0000
  C   C301      1.0  0.03795  0.51026  0.87792  1.0000
  Fe  Fe48      1.0  0.02022  0.53324  0.71610  1.0000
  S   S94       1.0  0.24440  0.66087  0.23004  1.0000
  H   H334      1.0  0.17339  0.63146  0.85794  1.0000
  C   C302      1.0  0.07653  0.53811  0.06421  1.0000
  C   C303      1.0  0.07591  0.52779  0.12943  1.0000
  H   H335      1.0  0.21528  0.59510  0.02015  1.0000
  H   H336      1.0  0.03658  0.51866  0.35703  1.0000
  H   H337      1.0  0.09454  0.52051  0.10254  1.0000
  H   H338      1.0  0.10732  0.51793  0.98512  1.0000
  H   H339      1.0  0.19515  0.53244  0.47048  1.0000
  C   C304      1.0  0.21851  0.65349  0.33423  1.0000
  C   C305      1.0  0.24312  0.65959  0.72054  1.0000
  C   C306      1.0  0.10625  0.54851  0.05322  1.0000
  H   H340      1.0  0.16741  0.52192  0.19919  1.0000
  C   C307      1.0  0.20815  0.61103  0.37359  1.0000
  H   H341      1.0  0.23180  0.59734  0.97469  1.0000
  H   H342      1.0  0.00645  0.52350  0.95540  1.0000
  C   C308      1.0  0.21790  0.65105  0.29972  1.0000
  H   H343      1.0  0.16625  0.64053  0.86055  1.0000
  H   H344      1.0  0.13755  0.60578  0.00255  1.0000
  H   H345      1.0  0.03471  0.55959  0.51703  1.0000
  H   H346      1.0  0.07878  0.52206  0.14683  1.0000
  S   S95       1.0  0.24885  0.66572  0.86534  1.0000
  H   H347      1.0  0.22753  0.62949  0.85698  1.0000
  C   C309      1.0  0.21353  0.65346  0.85806  1.0000
  H   H348      1.0  0.02230  0.53719  0.85012  1.0000
  N   N18       1.0  0.08110  0.53081  0.08516  1.0000
  C   C310      1.0  0.00481  0.54933  0.57042  1.0000
  C   C311      1.0  0.09759  0.52835  0.08827  1.0000
  H   H349      1.0  0.17495  0.63043  0.52467  1.0000
  C   C312      1.0  0.20172  0.64936  0.82369  1.0000
  C   C313      1.0  0.00073  0.54380  0.51801  1.0000
  H   H350      1.0  0.23172  0.66253  0.78901  1.0000
  Fe  Fe49      1.0  0.00555  0.52005  0.48736  1.0000
  C   C314      1.0  0.10758  0.53191  0.08084  1.0000
  C   C315      1.0  0.03992  0.53935  0.94583  1.0000
  C   C316      1.0  0.02272  0.53801  0.92298  1.0000
  H   H351      1.0  0.15687  0.62446  0.88650  1.0000
  H   H352      1.0  0.23430  0.61546  0.34999  1.0000
  N   N19       1.0  0.02713  0.55904  0.47342  1.0000
  C   C317      1.0  0.09165  0.53477  0.07745  1.0000
  C   C318      1.0  0.03731  0.53213  0.92913  1.0000
  H   H353      1.0  0.20367  0.65264  0.15066  1.0000
  H   H354      1.0  0.19793  0.59415  0.70680  1.0000
  H   H355      1.0  0.12759  0.59357  0.70326  1.0000
  H   H356      1.0  0.22628  0.62433  0.26093  1.0000
  H   H357      1.0  0.08053  0.51539  0.09202  1.0000
  H   H358      1.0  0.16534  0.61443  0.67417  1.0000
  C   C319      1.0  0.23863  0.66209  0.06898  1.0000
  S   S96       1.0  0.24435  0.58378  0.09813  1.0000
  C   C320      1.0  0.11451  0.51065  0.83863  1.0000
  C   C321      1.0  0.09624  0.54502  0.06076  1.0000
  H   H359      1.0  0.07213  0.52003  0.06931  1.0000
  C   C322      1.0  0.07960  0.52207  0.07124  1.0000
  H   H360      1.0  0.13785  0.59115  0.74622  1.0000
  C   C323      1.0  0.11928  0.50670  0.33089  1.0000
  H   H361      1.0  0.06889  0.51464  0.36816  1.0000
  C   C324      1.0  0.23375  0.62755  0.86503  1.0000
  H   H362      1.0  0.11669  0.52775  0.98406  1.0000
  H   H363      1.0  0.06541  0.59202  0.22422  1.0000
  C   C325      1.0  0.23775  0.61366  0.08718  1.0000
  H   H364      1.0  0.06451  0.59636  0.17408  1.0000
  H   H365      1.0  0.04675  0.55446  0.20871  1.0000
  H   H366      1.0  0.12836  0.60598  0.77834  1.0000
  H   H367      1.0  0.07720  0.58278  0.23716  1.0000
  H   H368      1.0  0.12178  0.60886  0.74308  1.0000
  N   N20       1.0  0.01404  0.53745  0.90901  1.0000
  H   H369      1.0  0.08420  0.57865  0.19867  1.0000
  H   H370      1.0  0.08734  0.59123  0.19660  1.0000
  C   C326      1.0  0.14164  0.59913  0.73321  1.0000
  C   C327      1.0  0.14100  0.61569  0.70050  1.0000
  H   H371      1.0  0.19729  0.65175  0.80506  1.0000
  H   H372      1.0  0.00494  0.54097  0.95868  1.0000
  C   C328      1.0  0.06711  0.57817  0.18638  1.0000
  C   C329      1.0  0.06093  0.57262  0.22658  1.0000
  C   C330      1.0  0.06969  0.59462  0.19113  1.0000
  H   H373      1.0  0.13835  0.60122  0.66330  1.0000
  C   C331      1.0  0.06550  0.57480  0.15441  1.0000
  H   H374      1.0  0.14845  0.60004  0.70818  1.0000
  C   C332      1.0  0.08097  0.59169  0.13582  1.0000
  S   S97       1.0  0.18680  0.62028  0.74470  1.0000
  N   N21       1.0  0.07461  0.58718  0.17906  1.0000
  H   H375      1.0  0.07507  0.60160  0.18530  1.0000
  C   C333      1.0  0.15318  0.63513  0.66746  1.0000
  H   H376      1.0  0.07670  0.59426  0.11544  1.0000
  C   C334      1.0  0.17889  0.63160  0.92250  1.0000
  H   H377      1.0  0.14225  0.61778  0.63626  1.0000
  H   H378      1.0  0.12740  0.60573  0.67553  1.0000
  C   C335      1.0  0.23956  0.63400  0.87742  1.0000
  H   H379      1.0  0.08675  0.59823  0.13147  1.0000
  H   H380      1.0  0.02163  0.54918  0.85263  1.0000
  C   C336      1.0  0.14405  0.62097  0.65808  1.0000
  H   H381      1.0  0.08485  0.58640  0.12498  1.0000
  C   C337      1.0  0.13203  0.60132  0.68863  1.0000
  H   H382      1.0  0.14397  0.60120  0.75739  1.0000
  C   C338      1.0  0.16749  0.61795  0.64175  1.0000
  C   C339      1.0  0.22309  0.62865  0.35104  1.0000
  H   H383      1.0  0.15273  0.63376  0.72886  1.0000
  H   H384      1.0  0.22009  0.65022  0.15010  1.0000
  H   H385      1.0  0.15265  0.63427  0.60940  1.0000
  S   S98       1.0  0.00004  0.51785  0.55524  1.0000
  H   H386      1.0  0.02785  0.53980  0.56695  1.0000
  C   C340      1.0  0.21780  0.66835  0.13254  1.0000
  H   H387      1.0  0.04909  0.56006  0.26552  1.0000
  S   S99       1.0  0.17208  0.63417  0.76937  1.0000
  H   H388      1.0  0.06165  0.57481  0.25230  1.0000
  H   H389      1.0  0.23799  0.63669  0.17595  1.0000
  H   H390      1.0  0.15816  0.64238  0.65463  1.0000
  H   H391      1.0  0.05729  0.56382  0.13767  1.0000
  C   C341      1.0  0.24467  0.63705  0.76277  1.0000
  H   H392      1.0  0.12297  0.50465  0.35304  1.0000
  C   C342      1.0  0.00233  0.52175  0.62322  1.0000
  H   H393      1.0  0.21761  0.66523  0.10746  1.0000
  C   C343      1.0  0.17406  0.62723  0.62359  1.0000
  S   S100      1.0  0.17890  0.63359  0.65284  1.0000
  C   C344      1.0  0.24569  0.64630  0.76977  1.0000
  N   N22       1.0  0.15833  0.51560  0.26198  1.0000
  H   H394      1.0  0.24597  0.60941  0.87065  1.0000
  H   H395      1.0  0.20876  0.64334  0.27390  1.0000
  H   H396      1.0  0.24697  0.57981  0.02264  1.0000
  C   C345      1.0  0.23477  0.60209  0.99061  1.0000
  S   S101      1.0  0.22096  0.66269  0.86952  1.0000
  C   C346      1.0  0.22496  0.61320  0.97347  1.0000
  Fe  Fe50      1.0  0.01586  0.51102  0.42593  1.0000
  H   H397      1.0  0.21789  0.64109  0.89020  1.0000
  H   H398      1.0  0.19577  0.63994  0.39995  1.0000
  C   C347      1.0  0.20928  0.64490  0.30102  1.0000
  C   C348      1.0  0.21737  0.60602  0.31879  1.0000
  C   C349      1.0  0.20192  0.64298  0.37200  1.0000
  N   N23       1.0  0.21342  0.66071  0.17330  1.0000
  C   C350      1.0  0.21020  0.59717  0.33275  1.0000
  H   H399      1.0  0.04574  0.51060  0.86229  1.0000
  C   C351      1.0  0.01628  0.53313  0.62448  1.0000
  C   C352      1.0  0.20744  0.63649  0.86165  1.0000
  C   C353      1.0  0.24932  0.62019  0.21908  1.0000
  H   H400      1.0  0.17591  0.65004  0.90776  1.0000
  H   H401      1.0  0.19101  0.57320  0.44170  1.0000
  H   H402      1.0  0.17983  0.62495  0.91340  1.0000
  C   C354      1.0  0.14684  0.61482  0.94242  1.0000
  C   C355      1.0  0.24110  0.65838  0.10405  1.0000
  H   H403      1.0  0.23006  0.63545  0.27131  1.0000
  N   N24       1.0  0.17030  0.63483  0.91416  1.0000
  C   C356      1.0  0.22452  0.62825  0.28357  1.0000
  H   H404      1.0  0.22392  0.65419  0.27159  1.0000
  C   C357      1.0  0.00727  0.54321  0.92482  1.0000
  H   H405      1.0  0.22200  0.60856  0.95706  1.0000
  C   C358      1.0  0.02565  0.54535  0.93986  1.0000
  S   S102      1.0  0.01729  0.53908  0.76992  1.0000
  H   H406      1.0  0.14770  0.61330  0.03702  1.0000
  C   C359      1.0  0.24405  0.61616  0.87324  1.0000
  H   H407      1.0  0.21083  0.65120  0.39738  1.0000
  H   H408      1.0  0.24157  0.60745  0.96825  1.0000
  C   C360      1.0  0.01601  0.52985  0.56133  1.0000
  H   H409      1.0  0.03794  0.51298  0.90393  1.0000
  H   H410      1.0  0.19455  0.60067  0.41341  1.0000
  C   C361      1.0  0.20209  0.59521  0.36714  1.0000
  C   C362      1.0  0.20154  0.63935  0.83762  1.0000
  Fe  Fe51      1.0  0.07854  0.50919  0.22519  1.0000
  C   C363      1.0  0.10331  0.50824  0.80076  1.0000
  H   H411      1.0  0.16253  0.62640  0.99739  1.0000
  C   C364      1.0  0.17229  0.63774  0.86941  1.0000
  C   C365      1.0  0.03522  0.50905  0.30810  1.0000
  C   C366      1.0  0.16944  0.64375  0.92630  1.0000
  C   C367      1.0  0.02892  0.53153  0.91728  1.0000
  H   H412      1.0  0.22298  0.62467  0.38225  1.0000
  H   H413      1.0  0.21094  0.59180  0.31675  1.0000
  H   H414      1.0  0.16898  0.64254  0.95861  1.0000
  H   H415      1.0  0.19658  0.58833  0.37831  1.0000
  H   H416      1.0  0.00127  0.52659  0.91503  1.0000
  C   C368      1.0  0.20100  0.60217  0.38715  1.0000
  H   H417      1.0  0.10928  0.51598  0.73618  1.0000
  C   C369      1.0  0.15833  0.62335  0.98101  1.0000
  H   H418      1.0  0.18580  0.63743  0.90518  1.0000
  C   C370      1.0  0.21669  0.61313  0.33936  1.0000
  N   N25       1.0  0.22444  0.62241  0.32419  1.0000
  S   S103      1.0  0.23280  0.64853  0.94817  1.0000
  H   H419      1.0  0.20675  0.61610  0.39042  1.0000
  H   H420      1.0  0.23971  0.65051  0.11789  1.0000
  H   H421      1.0  0.16142  0.52976  0.27095  1.0000
  H   H422      1.0  0.06727  0.50509  0.97414  1.0000
  H   H423      1.0  0.00284  0.54925  0.60182  1.0000
  H   H424      1.0  0.22676  0.65631  0.17556  1.0000
  H   H425      1.0  0.16445  0.51534  0.31058  1.0000
  H   H426      1.0  0.02167  0.55086  0.94386  1.0000
  H   H427      1.0  0.02794  0.54744  0.44613  1.0000
  H   H428      1.0  0.21583  0.64695  0.20469  1.0000
  C   C371      1.0  0.00712  0.52648  0.64474  1.0000
  H   H429      1.0  0.14875  0.52348  0.29006  1.0000
  H   H430      1.0  0.24416  0.66439  0.78484  1.0000
  H   H431      1.0  0.05378  0.51695  0.25617  1.0000
  H   H432      1.0  0.11598  0.50898  0.86723  1.0000
  C   C372      1.0  0.13523  0.50479  0.24164  1.0000
  H   H433      1.0  0.23875  0.63408  0.75340  1.0000
  Fe  Fe52      1.0  0.00767  0.52367  0.80531  1.0000
  H   H434      1.0  0.23935  0.60987  0.11410  1.0000
  H   H435      1.0  0.03042  0.57047  0.49928  1.0000
  H   H436      1.0  0.24013  0.62707  0.31003  1.0000
  C   C373      1.0  0.20346  0.65573  0.17605  1.0000
  S   S104      1.0  0.09325  0.50742  0.19426  1.0000
  H   H437      1.0  0.01906  0.55800  0.55580  1.0000
  H   H438      1.0  0.02292  0.56237  0.41893  1.0000
  H   H439      1.0  0.00766  0.50471  0.99554  1.0000
  H   H440      1.0  0.04831  0.50525  0.25297  1.0000
  C   C374      1.0  0.23418  0.62022  0.32037  1.0000
  H   H441      1.0  0.22360  0.65154  0.76789  1.0000
  H   H442      1.0  0.01214  0.52256  0.90583  1.0000
  H   H443      1.0  0.24926  0.61245  0.22629  1.0000
  Fe  Fe53      1.0  0.24883  0.65225  0.91387  1.0000
  H   H444      1.0  0.02926  0.50688  0.33766  1.0000
  C   C375      1.0  0.01010  0.54874  0.49073  1.0000
  C   C376      1.0  0.04782  0.52226  0.38119  1.0000
  H   H445      1.0  0.02216  0.57138  0.44487  1.0000
  N   N26       1.0  0.23892  0.65268  0.76270  1.0000
  C   C377      1.0  0.24770  0.63160  0.88736  1.0000
  H   H446      1.0  0.22900  0.64381  0.74290  1.0000
  H   H447      1.0  0.24416  0.65555  0.69794  1.0000
  C   C378      1.0  0.05691  0.52125  0.38459  1.0000
  C   C379      1.0  0.20498  0.66391  0.23891  1.0000
  H   H448      1.0  0.03229  0.50510  0.28946  1.0000
  H   H449      1.0  0.24183  0.62794  0.09332  1.0000
  C   C380      1.0  0.24936  0.64014  0.20117  1.0000
  C   C381      1.0  0.05144  0.50886  0.27208  1.0000
  Fe  Fe54      1.0  0.24344  0.66724  0.28046  1.0000
  H   H450      1.0  0.24739  0.66187  0.14779  1.0000
  C   C382      1.0  0.24537  0.66480  0.12121  1.0000
  H   H451      1.0  0.00352  0.52530  0.67664  1.0000
  C   C383      1.0  0.14210  0.51131  0.24907  1.0000
  H   H452      1.0  0.16239  0.50391  0.30079  1.0000
  H   H453      1.0  0.24964  0.64786  0.19246  1.0000
  H   H454      1.0  0.19891  0.66661  0.29555  1.0000
  C   C384      1.0  0.21350  0.66525  0.20561  1.0000
  C   C385      1.0  0.24465  0.67871  0.06852  1.0000
  H   H455      1.0  0.22925  0.67214  0.18149  1.0000
  C   C386      1.0  0.22272  0.67505  0.23600  1.0000
  H   H456      1.0  0.22963  0.67918  0.23556  1.0000
  H   H457      1.0  0.21390  0.67436  0.12986  1.0000
  H   H458      1.0  0.21464  0.67640  0.29294  1.0000
  C   C387      1.0  0.21427  0.67354  0.26827  1.0000
  C   C388      1.0  0.22240  0.67096  0.20517  1.0000
  H   H459      1.0  0.24586  0.68658  0.05498  1.0000
  H   H460      1.0  0.23879  0.67522  0.02337  1.0000
  S   S105      1.0  0.23584  0.67192  0.93913  1.0000
  C   C389      1.0  0.24066  0.67228  0.05057  1.0000
  C   C390      1.0  0.24692  0.67497  0.10420  1.0000
  H   H461      1.0  0.22564  0.67176  0.12599  1.0000
  H   H462      1.0  0.47698  0.02734  0.90519  1.0000
  C   C391      1.0  0.48483  0.02975  0.30992  1.0000
  C   C392      1.0  0.47007  0.02301  0.92784  1.0000
  H   H463      1.0  0.48544  0.03528  0.80763  1.0000
  H   H464      1.0  0.48784  0.08199  0.28242  1.0000
  H   H465      1.0  0.46815  0.04327  0.95343  1.0000
  C   C393      1.0  0.48324  0.02842  0.97338  1.0000
  H   H466      1.0  0.49098  0.05254  0.36735  1.0000
  H   H467      1.0  0.47764  0.02375  0.37488  1.0000
  H   H468      1.0  0.48996  0.04837  0.08198  1.0000
  H   H469      1.0  0.49200  0.00782  0.85821  1.0000
  H   H470      1.0  0.48816  0.03322  0.98333  1.0000
  C   C394      1.0  0.48250  0.00735  0.82153  1.0000
  S   S106      1.0  0.49020  0.04135  0.31226  1.0000
  C   C395      1.0  0.48616  0.02788  0.27289  1.0000
  H   H471      1.0  0.46662  0.01578  0.88635  1.0000
  H   H472      1.0  0.46926  0.00766  0.37335  1.0000
  H   H473      1.0  0.46268  0.03326  0.02646  1.0000
  C   C396      1.0  0.47880  0.02235  0.34610  1.0000
  S   S107      1.0  0.49690  0.02764  0.85996  1.0000
  C   C397      1.0  0.46973  0.03099  0.02088  1.0000
  H   H474      1.0  0.47805  0.05760  0.35655  1.0000
  C   C398      1.0  0.48950  0.02218  0.83526  1.0000
  C   C399      1.0  0.45792  0.01796  0.99483  1.0000
  H   H475      1.0  0.45062  0.00553  0.93544  1.0000
  S   S108      1.0  0.49533  0.05197  0.99492  1.0000
  H   H476      1.0  0.47813  0.06922  0.39592  1.0000
  C   C400      1.0  0.48469  0.02752  0.81165  1.0000
  C   C401      1.0  0.47879  0.02278  0.79339  1.0000
  C   C402      1.0  0.47768  0.01267  0.79797  1.0000
  C   C403      1.0  0.48254  0.06374  0.32834  1.0000
  H   H477      1.0  0.47509  0.02700  0.77534  1.0000
  C   C404      1.0  0.47404  0.01320  0.34533  1.0000
  C   C405      1.0  0.47499  0.01151  0.30814  1.0000
  C   C406      1.0  0.48113  0.01886  0.27199  1.0000
  C   C407      1.0  0.48174  0.07516  0.36605  1.0000
  H   H478      1.0  0.48186  0.01765  0.24305  1.0000
  C   C408      1.0  0.48834  0.01207  0.84006  1.0000
  H   H479      1.0  0.47487  0.03635  0.02778  1.0000
  C   C409      1.0  0.46716  0.02397  0.96732  1.0000
  H   H480      1.0  0.47589  0.07754  0.35427  1.0000
  C   C410      1.0  0.46417  0.01641  0.91667  1.0000
  H   H481      1.0  0.47876  0.04193  0.91848  1.0000
  S   S109      1.0  0.47037  0.00720  0.77294  1.0000
  H   H482      1.0  0.48566  0.08155  0.37201  1.0000
  H   H483      1.0  0.47729  0.06642  0.31328  1.0000
  H   H484      1.0  0.45507  0.01817  0.02545  1.0000
  H   H485      1.0  0.48725  0.02932  0.94119  1.0000
  C   C411      1.0  0.47521  0.04111  0.95097  1.0000
  H   H486      1.0  0.49071  0.03353  0.24475  1.0000
  N   N27       1.0  0.47364  0.03096  0.97830  1.0000
  H   H487      1.0  0.49328  0.01818  0.38534  1.0000
  H   H488      1.0  0.48234  0.02065  0.99167  1.0000
  H   H489      1.0  0.48004  0.04661  0.95841  1.0000
  H   H490      1.0  0.46867  0.02365  0.04330  1.0000
  H   H491      1.0  0.48729  0.06067  0.30745  1.0000
  N   N28       1.0  0.48848  0.07170  0.33708  1.0000
  C   C412      1.0  0.45518  0.01063  0.94431  1.0000
  C   C413      1.0  0.49613  0.05843  0.36940  1.0000
  C   C414      1.0  0.45205  0.01140  0.98327  1.0000
  C   C415      1.0  0.49736  0.01508  0.71464  1.0000
  H   H492      1.0  0.49318  0.02032  0.72421  1.0000
  H   H493      1.0  0.49420  0.00789  0.73953  1.0000
  H   H494      1.0  0.49355  0.00471  0.34455  1.0000
  H   H495      1.0  0.44503  0.00688  0.00466  1.0000
  H   H496      1.0  0.49760  0.00949  0.26795  1.0000
  C   C416      1.0  0.49597  0.06850  0.35480  1.0000
  C   C417      1.0  0.49318  0.07992  0.29808  1.0000
  H   H497      1.0  0.49572  0.01430  0.68700  1.0000
  C   C418      1.0  0.49729  0.05308  0.06822  1.0000
  H   H498      1.0  0.49681  0.08676  0.30189  1.0000
  S   S110      1.0  0.49791  0.05573  0.87581  1.0000
  H   H499      1.0  0.49862  0.05414  0.12566  1.0000
  H   H500      1.0  0.49889  0.07785  0.27677  1.0000
  H   H501      1.0  0.43886  0.47431  0.39980  1.0000
  H   H502      1.0  0.46301  0.47718  0.85102  1.0000
  H   H503      1.0  0.45489  0.48403  0.20732  1.0000
  S   S111      1.0  0.42808  0.48629  0.29709  1.0000
  H   H504      1.0  0.46552  0.47621  0.80083  1.0000
  C   C419      1.0  0.44449  0.46834  0.48712  1.0000
  H   H505      1.0  0.48390  0.49279  0.75995  1.0000
  S   S112      1.0  0.41608  0.49816  0.21497  1.0000
  H   H506      1.0  0.43274  0.50104  0.97111  1.0000
  H   H507      1.0  0.43063  0.47027  0.16256  1.0000
  H   H508      1.0  0.40595  0.50036  0.05895  1.0000
  S   S113      1.0  0.42712  0.49159  0.78989  1.0000
  C   C420      1.0  0.46834  0.48021  0.81954  1.0000
  Fe  Fe55      1.0  0.47412  0.45892  0.40317  1.0000
  S   S114      1.0  0.46892  0.45831  0.34993  1.0000
  S   S115      1.0  0.46449  0.45169  0.46900  1.0000
  N   N29       1.0  0.48682  0.50114  0.60116  1.0000
  H   H509      1.0  0.45635  0.44902  0.24402  1.0000
  C   C421      1.0  0.45180  0.49109  0.39362  1.0000
  Fe  Fe56      1.0  0.47699  0.47423  0.32236  1.0000
  S   S116      1.0  0.47209  0.48703  0.28893  1.0000
  Fe  Fe57      1.0  0.48353  0.45524  0.32356  1.0000
  C   C422      1.0  0.43690  0.46807  0.17167  1.0000
  S   S117      1.0  0.48110  0.47513  0.37716  1.0000
  S   S118      1.0  0.48790  0.45423  0.37943  1.0000
  Fe  Fe58      1.0  0.46319  0.45950  0.75225  1.0000
  S   S119      1.0  0.46905  0.47416  0.70386  1.0000
  S   S120      1.0  0.45137  0.45896  0.80847  1.0000
  Fe  Fe59      1.0  0.47898  0.45083  0.70982  1.0000
  S   S121      1.0  0.48591  0.46504  0.65826  1.0000
  S   S122      1.0  0.48773  0.43948  0.70307  1.0000
  Fe  Fe60      1.0  0.48370  0.47218  0.70678  1.0000
  H   H510      1.0  0.47353  0.49473  0.14437  1.0000
  Fe  Fe61      1.0  0.47057  0.46557  0.65989  1.0000
  S   S123      1.0  0.46730  0.47233  0.60186  1.0000
  S   S124      1.0  0.47786  0.45799  0.75828  1.0000
  S   S125      1.0  0.46360  0.45082  0.70830  1.0000
  C   C423      1.0  0.46561  0.45741  0.50573  1.0000
  C   C424      1.0  0.46162  0.45188  0.54729  1.0000
  C   C425      1.0  0.46237  0.45627  0.57722  1.0000
  C   C426      1.0  0.46673  0.46632  0.56569  1.0000
  C   C427      1.0  0.47044  0.47189  0.52425  1.0000
  C   C428      1.0  0.47015  0.46741  0.49435  1.0000
  H   H511      1.0  0.45801  0.44416  0.55637  1.0000
  H   H512      1.0  0.45932  0.45195  0.60919  1.0000
  H   H513      1.0  0.47376  0.47969  0.51522  1.0000
  H   H514      1.0  0.47325  0.47176  0.46262  1.0000
  C   C429      1.0  0.48782  0.49087  0.60781  1.0000
  S   S126      1.0  0.43406  0.50072  0.87793  1.0000
  C   C430      1.0  0.45065  0.48462  0.43274  1.0000
  S   S127      1.0  0.48654  0.44617  0.28142  1.0000
  C   C431      1.0  0.49080  0.43333  0.74569  1.0000
  C   C432      1.0  0.44699  0.46907  0.21501  1.0000
  H   H515      1.0  0.49292  0.47146  0.42405  1.0000
  H   H516      1.0  0.49420  0.44986  0.47915  1.0000
  H   H517      1.0  0.43912  0.47112  0.50691  1.0000
  Fe  Fe62      1.0  0.42708  0.50147  0.82900  1.0000
  C   C433      1.0  0.43760  0.47183  0.43312  1.0000
  Fe  Fe63      1.0  0.49451  0.47039  0.34994  1.0000
  C   C434      1.0  0.49877  0.47494  0.81196  1.0000
  H   H518      1.0  0.41105  0.49550  0.74010  1.0000
  C   C435      1.0  0.43861  0.48216  0.19401  1.0000
  H   H519      1.0  0.43218  0.47553  0.44730  1.0000
  H   H520      1.0  0.49901  0.44215  0.84077  1.0000
  C   C436      1.0  0.45750  0.49913  0.44865  1.0000
  H   H521      1.0  0.48792  0.43354  0.35660  1.0000
  H   H522      1.0  0.48260  0.42555  0.84942  1.0000
  C   C437      1.0  0.43422  0.48285  0.79505  1.0000
  C   C438      1.0  0.43548  0.47851  0.83239  1.0000
  C   C439      1.0  0.44070  0.47114  0.83627  1.0000
  C   C440      1.0  0.44492  0.46827  0.80261  1.0000
  C   C441      1.0  0.44389  0.47281  0.76501  1.0000
  C   C442      1.0  0.43842  0.47996  0.76143  1.0000
  H   H523      1.0  0.43214  0.48058  0.85865  1.0000
  H   H524      1.0  0.44140  0.46761  0.86551  1.0000
  H   H525      1.0  0.44697  0.47052  0.73907  1.0000
  H   H526      1.0  0.43735  0.48318  0.73266  1.0000
  C   C443      1.0  0.44022  0.48639  0.29640  1.0000
  C   C444      1.0  0.44751  0.49517  0.27837  1.0000
  C   C445      1.0  0.45719  0.49524  0.27698  1.0000
  C   C446      1.0  0.45972  0.48649  0.29314  1.0000
  C   C447      1.0  0.45245  0.47766  0.31137  1.0000
  C   C448      1.0  0.44269  0.47763  0.31328  1.0000
  H   H527      1.0  0.44137  0.46032  0.49423  1.0000
  H   H528      1.0  0.49341  0.49941  0.86080  1.0000
  H   H529      1.0  0.45437  0.47083  0.32322  1.0000
  H   H530      1.0  0.43709  0.47078  0.32711  1.0000
  C   C449      1.0  0.48496  0.43204  0.78532  1.0000
  H   H531      1.0  0.44203  0.45323  0.22760  1.0000
  H   H532      1.0  0.48073  0.44917  0.52701  1.0000
  H   H533      1.0  0.41430  0.49964  0.11105  1.0000
  C   C450      1.0  0.49196  0.43150  0.33137  1.0000
  C   C451      1.0  0.46304  0.47373  0.22350  1.0000
  H   H534      1.0  0.42797  0.45834  0.25148  1.0000
  C   C452      1.0  0.49504  0.47593  0.77943  1.0000
  H   H535      1.0  0.43409  0.46379  0.44382  1.0000
  C   C453      1.0  0.42825  0.49989  0.07065  1.0000
  N   N30       1.0  0.46964  0.49100  0.80257  1.0000
  C   C454      1.0  0.45547  0.50125  0.38287  1.0000
  H   H536      1.0  0.45424  0.48983  0.82968  1.0000
  H   H537      1.0  0.48710  0.48723  0.63997  1.0000
  C   C455      1.0  0.41363  0.50037  0.05107  1.0000
  H   H538      1.0  0.49547  0.41933  0.36957  1.0000
  H   H539      1.0  0.45349  0.48462  0.48980  1.0000
  S   S128      1.0  0.49519  0.48515  0.70173  1.0000
  C   C456      1.0  0.45593  0.45666  0.23542  1.0000
  C   C457      1.0  0.45489  0.47632  0.21418  1.0000
  C   C458      1.0  0.45379  0.48894  0.45984  1.0000
  C   C459      1.0  0.49755  0.43369  0.25930  1.0000
  H   H540      1.0  0.47971  0.50085  0.55594  1.0000
  H   H541      1.0  0.40462  0.49596  0.81173  1.0000
  H   H542      1.0  0.47411  0.49111  0.74011  1.0000
  H   H543      1.0  0.43540  0.45994  0.17946  1.0000
  C   C460      1.0  0.47229  0.50197  0.14297  1.0000
  H   H544      1.0  0.39288  0.49503  0.80568  1.0000
  H   H545      1.0  0.46981  0.46194  0.24215  1.0000
  C   C461      1.0  0.44777  0.45916  0.22593  1.0000
  H   H546      1.0  0.48688  0.49086  0.81995  1.0000
  H   H547      1.0  0.45620  0.47363  0.38608  1.0000
  H   H548      1.0  0.47530  0.47818  0.82064  1.0000
  H   H549      1.0  0.46891  0.47933  0.22343  1.0000
  H   H550      1.0  0.45117  0.46872  0.49639  1.0000
  C   C462      1.0  0.47676  0.49457  0.76072  1.0000
  H   H551      1.0  0.38529  0.50083  0.76125  1.0000
  H   H552      1.0  0.48463  0.43813  0.54601  1.0000
  H   H553      1.0  0.47821  0.50269  0.74734  1.0000
  H   H554      1.0  0.45979  0.50229  0.46980  1.0000
  H   H555      1.0  0.45152  0.46186  0.42545  1.0000
  C   C463      1.0  0.46354  0.46393  0.23428  1.0000
  H   H556      1.0  0.44356  0.47134  0.14425  1.0000
  C   C464      1.0  0.48732  0.42676  0.81884  1.0000
  C   C465      1.0  0.46007  0.49270  0.79935  1.0000
  H   H557      1.0  0.42265  0.46844  0.23722  1.0000
  H   H558      1.0  0.43189  0.48376  0.18734  1.0000
  H   H559      1.0  0.44489  0.48644  0.16599  1.0000
  S   S129      1.0  0.41277  0.50185  0.97466  1.0000
  H   H560      1.0  0.44994  0.48837  0.37076  1.0000
  H   H561      1.0  0.46097  0.47098  0.42743  1.0000
  H   H562      1.0  0.43021  0.46872  0.26888  1.0000
  N   N31       1.0  0.43817  0.47147  0.20583  1.0000
  C   C466      1.0  0.45415  0.46991  0.41941  1.0000
  H   H563      1.0  0.43912  0.48509  0.21912  1.0000
  H   H564      1.0  0.47846  0.43485  0.79019  1.0000
  N   N32       1.0  0.44676  0.47387  0.44326  1.0000
  H   H565      1.0  0.46052  0.50065  0.78570  1.0000
  C   C467      1.0  0.42939  0.46649  0.24235  1.0000
  H   H566      1.0  0.47613  0.44236  0.57973  1.0000
  H   H567      1.0  0.46130  0.50301  0.84574  1.0000
  C   C468      1.0  0.43339  0.50017  0.03121  1.0000
  H   H568      1.0  0.49411  0.46450  0.57185  1.0000
  H   H569      1.0  0.48232  0.48634  0.59978  1.0000
  Fe  Fe64      1.0  0.42683  0.49937  0.24932  1.0000
  C   C469      1.0  0.48285  0.44485  0.55246  1.0000
  H   H570      1.0  0.45746  0.48881  0.77983  1.0000
  S   S130      1.0  0.49123  0.47121  0.29221  1.0000
  H   H571      1.0  0.48855  0.47071  0.78285  1.0000
  C   C470      1.0  0.40607  0.50020  0.73184  1.0000
  C   C471      1.0  0.49567  0.42297  0.81307  1.0000
  C   C472      1.0  0.46862  0.49532  0.63691  1.0000
  C   C473      1.0  0.47341  0.49602  0.82830  1.0000
  S   S131      1.0  0.43433  0.49909  0.10713  1.0000
  S   S132      1.0  0.49814  0.41616  0.85625  1.0000
  H   H572      1.0  0.46805  0.49036  0.61948  1.0000
  H   H573      1.0  0.45314  0.49042  0.66971  1.0000
  H   H574      1.0  0.44567  0.50195  0.26580  1.0000
  H   H575      1.0  0.46272  0.50212  0.26340  1.0000
  C   C474      1.0  0.39974  0.50041  0.80064  1.0000
  H   H576      1.0  0.39913  0.49512  0.73538  1.0000
  C   C475      1.0  0.48257  0.49523  0.83377  1.0000
  H   H577      1.0  0.49043  0.47777  0.48234  1.0000
  C   C476      1.0  0.46830  0.50191  0.84797  1.0000
  C   C477      1.0  0.48830  0.45968  0.56616  1.0000
  H   H578      1.0  0.49503  0.49048  0.58861  1.0000
  C   C478      1.0  0.49767  0.47931  0.46097  1.0000
  C   C479      1.0  0.41882  0.50084  0.01137  1.0000
  C   C480      1.0  0.42872  0.50077  0.00149  1.0000
  H   H579      1.0  0.48682  0.46424  0.53940  1.0000
  C   C481      1.0  0.41835  0.49999  0.08055  1.0000
  C   C482      1.0  0.46000  0.49537  0.66541  1.0000
  H   H580      1.0  0.49510  0.46896  0.84020  1.0000
  N   N33       1.0  0.49116  0.45081  0.55891  1.0000
  H   H581      1.0  0.48875  0.49958  0.34691  1.0000
  H   H582      1.0  0.47612  0.50332  0.31780  1.0000
  H   H583      1.0  0.48153  0.45771  0.59285  1.0000
  H   H584      1.0  0.44103  0.50003  0.02343  1.0000
  C   C483      1.0  0.48639  0.50009  0.85712  1.0000
  H   H585      1.0  0.48561  0.44160  0.62222  1.0000
  C   C484      1.0  0.49261  0.44478  0.59629  1.0000
  C   C485      1.0  0.47779  0.50143  0.63135  1.0000
  H   H586      1.0  0.45344  0.50172  0.71036  1.0000
  C   C486      1.0  0.49250  0.43657  0.29166  1.0000
  C   C487      1.0  0.46017  0.50171  0.68839  1.0000
  H   H587      1.0  0.49572  0.43853  0.59103  1.0000
  H   H588      1.0  0.49750  0.44911  0.60783  1.0000
  C   C488      1.0  0.49626  0.42346  0.33863  1.0000
  H   H589      1.0  0.49545  0.49679  0.40083  1.0000
  H   H590      1.0  0.49785  0.43747  0.22858  1.0000
  H   H591      1.0  0.47535  0.50169  0.19851  1.0000
  C   C489      1.0  0.49904  0.47601  0.42722  1.0000
  C   C490      1.0  0.49917  0.42955  0.73984  1.0000
  C   C491      1.0  0.49965  0.48374  0.74307  1.0000
  Fe  Fe65      1.0  0.46644  0.54777  0.32933  1.0000
  S   S133      1.0  0.46527  0.55350  0.38158  1.0000
  S   S134      1.0  0.45955  0.53191  0.34150  1.0000
  Fe  Fe66      1.0  0.46138  0.56634  0.34440  1.0000
  S   S135      1.0  0.44801  0.57103  0.37432  1.0000
  S   S136      1.0  0.46109  0.55982  0.29482  1.0000
  C   C492      1.0  0.45701  0.52649  0.87385  1.0000
  C   C493      1.0  0.29188  0.63942  0.21918  1.0000
  H   H592      1.0  0.48229  0.58328  0.11645  1.0000
  S   S137      1.0  0.45008  0.53262  0.18168  1.0000
  H   H593      1.0  0.34872  0.58902  0.85840  1.0000
  Fe  Fe67      1.0  0.43788  0.61892  0.40877  1.0000
  S   S138      1.0  0.42744  0.60661  0.46222  1.0000
  S   S139      1.0  0.45039  0.61561  0.36585  1.0000
  Fe  Fe68      1.0  0.42775  0.63422  0.43291  1.0000
  S   S140      1.0  0.41674  0.62300  0.48898  1.0000
  S   S141      1.0  0.42449  0.64919  0.42166  1.0000
  Fe  Fe69      1.0  0.42929  0.61674  0.49833  1.0000
  S   S142      1.0  0.43011  0.60885  0.56001  1.0000
  Fe  Fe70      1.0  0.41591  0.61397  0.44820  1.0000
  S   S143      1.0  0.40114  0.60555  0.45408  1.0000
  S   S144      1.0  0.44062  0.62879  0.44573  1.0000
  S   S145      1.0  0.42609  0.62553  0.39114  1.0000
  Fe  Fe71      1.0  0.37305  0.56897  0.30674  1.0000
  S   S146      1.0  0.37623  0.57892  0.34211  1.0000
  S   S147      1.0  0.36616  0.57438  0.25870  1.0000
  Fe  Fe72      1.0  0.38296  0.55386  0.34535  1.0000
  S   S148      1.0  0.38698  0.56271  0.38380  1.0000
  S   S149      1.0  0.38793  0.53963  0.35682  1.0000
  Fe  Fe73      1.0  0.37189  0.56507  0.39540  1.0000
  S   S150      1.0  0.36292  0.56522  0.45696  1.0000
  Fe  Fe74      1.0  0.39100  0.57569  0.32782  1.0000
  S   S151      1.0  0.40479  0.58711  0.31247  1.0000
  S   S152      1.0  0.36732  0.55522  0.36128  1.0000
  S   S153      1.0  0.38838  0.56679  0.28789  1.0000
  Fe  Fe75      1.0  0.46535  0.54981  0.97410  1.0000
  S   S154      1.0  0.47064  0.56275  0.91698  1.0000
  S   S155      1.0  0.45436  0.53595  0.98604  1.0000
  Fe  Fe76      1.0  0.46857  0.57155  0.96006  1.0000
  S   S156      1.0  0.45872  0.58213  0.96167  1.0000
  S   S157      1.0  0.46234  0.55840  0.01701  1.0000
  Fe  Fe77      1.0  0.42316  0.62061  0.75923  1.0000
  S   S158      1.0  0.43250  0.62563  0.79417  1.0000
  S   S159      1.0  0.42528  0.62985  0.69478  1.0000
  Fe  Fe78      1.0  0.41159  0.60218  0.82974  1.0000
  S   S160      1.0  0.41980  0.60552  0.87076  1.0000
  S   S161      1.0  0.40028  0.58805  0.84829  1.0000
  Fe  Fe79      1.0  0.41829  0.62094  0.84601  1.0000
  S   S162      1.0  0.41332  0.62863  0.89180  1.0000
  Fe  Fe80      1.0  0.43323  0.60980  0.81590  1.0000
  S   S163      1.0  0.44716  0.60440  0.81000  1.0000
  S   S164      1.0  0.40888  0.61717  0.80948  1.0000
  S   S165      1.0  0.42504  0.60522  0.77656  1.0000
  Fe  Fe81      1.0  0.38413  0.56880  0.69892  1.0000
  S   S166      1.0  0.37225  0.56294  0.75923  1.0000
  S   S167      1.0  0.39676  0.58140  0.68621  1.0000
  Fe  Fe82      1.0  0.37431  0.55502  0.66210  1.0000
  S   S168      1.0  0.36153  0.54798  0.71995  1.0000
  S   S169      1.0  0.37766  0.54978  0.60708  1.0000
  Fe  Fe83      1.0  0.36209  0.56350  0.72218  1.0000
  S   S170      1.0  0.35064  0.57240  0.72772  1.0000
  Fe  Fe84      1.0  0.37300  0.54818  0.75145  1.0000
  S   S171      1.0  0.37401  0.53523  0.80032  1.0000
  S   S172      1.0  0.37410  0.57041  0.66171  1.0000
  S   S173      1.0  0.38564  0.55412  0.69348  1.0000
  H   H594      1.0  0.37902  0.60576  0.27247  1.0000
  C   C494      1.0  0.35833  0.57620  0.84888  1.0000
  C   C495      1.0  0.48277  0.56072  0.17360  1.0000
  H   H595      1.0  0.32900  0.63736  0.97705  1.0000
  Fe  Fe85      1.0  0.47779  0.55934  0.01644  1.0000
  H   H596      1.0  0.43943  0.61891  0.70023  1.0000
  C   C496      1.0  0.43519  0.55272  0.17108  1.0000
  Fe  Fe86      1.0  0.30835  0.61041  0.24194  1.0000
  S   S174      1.0  0.31922  0.62296  0.19049  1.0000
  S   S175      1.0  0.29274  0.61203  0.25194  1.0000
  Fe  Fe87      1.0  0.32464  0.60137  0.26184  1.0000
  S   S176      1.0  0.33671  0.61311  0.21101  1.0000
  S   S177      1.0  0.32764  0.58948  0.30879  1.0000
  Fe  Fe88      1.0  0.32836  0.62357  0.23115  1.0000
  S   S178      1.0  0.33516  0.63884  0.22985  1.0000
  Fe  Fe89      1.0  0.32665  0.61160  0.17411  1.0000
  S   S179      1.0  0.33237  0.61427  0.10628  1.0000
  S   S180      1.0  0.31684  0.61203  0.28466  1.0000
  S   S181      1.0  0.31521  0.59883  0.22328  1.0000
  H   H597      1.0  0.45404  0.55684  0.19808  1.0000
  H   H598      1.0  0.40503  0.55852  0.33001  1.0000
  H   H599      1.0  0.35223  0.60189  0.01309  1.0000
  S   S182      1.0  0.37186  0.64745  0.28960  1.0000
  H   H600      1.0  0.25970  0.59592  0.84788  1.0000
  C   C497      1.0  0.37380  0.58573  0.80024  1.0000
  H   H601      1.0  0.25900  0.60153  0.96323  1.0000
  H   H602      1.0  0.37046  0.58865  0.77658  1.0000
  H   H603      1.0  0.38692  0.63520  0.27426  1.0000
  H   H604      1.0  0.29717  0.64479  0.19036  1.0000
  Fe  Fe90      1.0  0.43746  0.52011  0.19481  1.0000
  Fe  Fe91      1.0  0.30919  0.59594  0.97056  1.0000
  S   S183      1.0  0.30886  0.61002  0.92712  1.0000
  S   S184      1.0  0.30282  0.59261  0.03801  1.0000
  Fe  Fe92      1.0  0.31906  0.58828  0.90323  1.0000
  S   S185      1.0  0.31952  0.60180  0.85420  1.0000
  S   S186      1.0  0.32472  0.57502  0.89531  1.0000
  Fe  Fe93      1.0  0.32425  0.61014  0.89339  1.0000
  S   S187      1.0  0.33775  0.62287  0.86689  1.0000
  Fe  Fe94      1.0  0.30402  0.60030  0.89280  1.0000
  S   S188      1.0  0.29168  0.60327  0.86734  1.0000
  S   S189      1.0  0.32488  0.59667  0.93959  1.0000
  S   S190      1.0  0.30323  0.58619  0.93912  1.0000
  H   H605      1.0  0.35704  0.61034  0.03648  1.0000
  C   C498      1.0  0.38563  0.62087  0.90392  1.0000
  C   C499      1.0  0.27353  0.59899  0.85899  1.0000
  C   C500      1.0  0.28064  0.59506  0.87305  1.0000
  C   C501      1.0  0.27892  0.58483  0.88962  1.0000
  C   C502      1.0  0.27043  0.57862  0.88980  1.0000
  H   H606      1.0  0.39169  0.60129  0.30245  1.0000
  C   C503      1.0  0.45210  0.56889  0.10694  1.0000
  H   H607      1.0  0.28425  0.58169  0.90097  1.0000
  H   H608      1.0  0.40546  0.65441  0.79444  1.0000
  C   C504      1.0  0.34336  0.64493  0.93400  1.0000
  C   C505      1.0  0.33446  0.63774  0.94923  1.0000
  C   C506      1.0  0.33260  0.63098  0.92881  1.0000
  C   C507      1.0  0.33959  0.63145  0.89270  1.0000
  C   C508      1.0  0.34849  0.63863  0.87752  1.0000
  C   C509      1.0  0.35040  0.64531  0.89821  1.0000
  H   H609      1.0  0.32574  0.62544  0.94089  1.0000
  H   H610      1.0  0.35395  0.63902  0.84968  1.0000
  H   H611      1.0  0.35729  0.65081  0.88618  1.0000
  C   C510      1.0  0.32375  0.60862  0.08787  1.0000
  C   C511      1.0  0.32505  0.61168  0.04607  1.0000
  C   C512      1.0  0.31865  0.60679  0.03056  1.0000
  C   C513      1.0  0.31078  0.59894  0.05698  1.0000
  C   C514      1.0  0.30925  0.59612  0.09891  1.0000
  C   C515      1.0  0.31575  0.60091  0.11428  1.0000
  H   H612      1.0  0.33093  0.61790  0.02569  1.0000
  H   H613      1.0  0.31976  0.60914  0.99823  1.0000
  H   H614      1.0  0.30319  0.59006  0.11954  1.0000
  H   H615      1.0  0.31467  0.59847  0.14646  1.0000
  C   C516      1.0  0.34577  0.64118  0.24403  1.0000
  C   C517      1.0  0.35023  0.63367  0.25740  1.0000
  C   C518      1.0  0.35839  0.63573  0.27037  1.0000
  C   C519      1.0  0.36220  0.64531  0.26958  1.0000
  C   C520      1.0  0.35797  0.65287  0.25476  1.0000
  C   C521      1.0  0.34975  0.65079  0.24230  1.0000
  H   H616      1.0  0.34730  0.62627  0.25832  1.0000
  H   H617      1.0  0.36174  0.62991  0.28124  1.0000
  H   H618      1.0  0.36083  0.66027  0.25406  1.0000
  H   H619      1.0  0.34639  0.65666  0.23168  1.0000
  C   C522      1.0  0.25393  0.64945  0.78123  1.0000
  H   H620      1.0  0.27569  0.60834  0.92324  1.0000
  Fe  Fe95      1.0  0.44109  0.51667  0.84294  1.0000
  H   H621      1.0  0.37559  0.57879  0.79646  1.0000
  H   H622      1.0  0.40189  0.61321  0.31957  1.0000
  H   H623      1.0  0.37673  0.62278  0.25878  1.0000
  C   C523      1.0  0.27472  0.60585  0.24524  1.0000
  C   C524      1.0  0.28341  0.60326  0.24842  1.0000
  C   C525      1.0  0.28430  0.59371  0.25045  1.0000
  C   C526      1.0  0.27641  0.58671  0.25076  1.0000
  C   C527      1.0  0.41882  0.56587  0.78710  1.0000
  H   H624      1.0  0.39146  0.64237  0.31576  1.0000
  H   H625      1.0  0.29094  0.59162  0.25313  1.0000
  H   H626      1.0  0.27704  0.57924  0.25370  1.0000
  C   C528      1.0  0.38602  0.53509  0.80141  1.0000
  C   C529      1.0  0.39379  0.54331  0.77833  1.0000
  C   C530      1.0  0.44401  0.60224  0.64628  1.0000
  C   C531      1.0  0.45364  0.62236  0.62800  1.0000
  H   H627      1.0  0.30075  0.58199  0.86320  1.0000
  C   C532      1.0  0.38792  0.52661  0.82454  1.0000
  H   H628      1.0  0.39242  0.54997  0.76137  1.0000
  C   C533      1.0  0.38219  0.62076  0.27250  1.0000
  Fe  Fe96      1.0  0.47697  0.56766  0.26636  1.0000
  H   H629      1.0  0.38193  0.52024  0.84277  1.0000
  C   C534      1.0  0.34380  0.57316  0.77481  1.0000
  C   C535      1.0  0.34126  0.56532  0.81095  1.0000
  C   C536      1.0  0.33538  0.56600  0.84764  1.0000
  C   C537      1.0  0.33213  0.57456  0.84859  1.0000
  C   C538      1.0  0.33482  0.58248  0.81258  1.0000
  C   C539      1.0  0.34053  0.58173  0.77574  1.0000
  H   H630      1.0  0.34367  0.55866  0.81047  1.0000
  H   H631      1.0  0.33332  0.55984  0.87542  1.0000
  H   H632      1.0  0.33245  0.58915  0.81303  1.0000
  H   H633      1.0  0.34247  0.58781  0.74782  1.0000
  C   C540      1.0  0.39921  0.58612  0.80352  1.0000
  C   C541      1.0  0.39512  0.57670  0.80393  1.0000
  C   C542      1.0  0.39449  0.57516  0.76773  1.0000
  C   C543      1.0  0.39786  0.58306  0.73132  1.0000
  C   C544      1.0  0.40196  0.59245  0.73099  1.0000
  C   C545      1.0  0.40259  0.59399  0.76709  1.0000
  H   H634      1.0  0.39258  0.57057  0.83199  1.0000
  H   H635      1.0  0.39153  0.56784  0.76791  1.0000
  H   H636      1.0  0.40451  0.59857  0.70289  1.0000
  H   H637      1.0  0.40560  0.60133  0.76664  1.0000
  C   C546      1.0  0.45518  0.58772  0.91950  1.0000
  C   C547      1.0  0.45996  0.58769  0.88028  1.0000
  C   C548      1.0  0.45733  0.59272  0.84707  1.0000
  C   C549      1.0  0.44984  0.59772  0.85286  1.0000
  C   C550      1.0  0.44483  0.59744  0.89226  1.0000
  C   C551      1.0  0.44753  0.59251  0.92539  1.0000
  H   H638      1.0  0.46590  0.58408  0.87533  1.0000
  H   H639      1.0  0.46126  0.59292  0.81666  1.0000
  H   H640      1.0  0.43911  0.60134  0.89707  1.0000
  H   H641      1.0  0.44383  0.59260  0.95562  1.0000
  C   C552      1.0  0.45588  0.53209  0.94324  1.0000
  C   C553      1.0  0.44939  0.52363  0.94579  1.0000
  C   C554      1.0  0.44990  0.52087  0.91107  1.0000
  S   S191      1.0  0.48240  0.55496  0.29684  1.0000
  H   H642      1.0  0.38554  0.60767  0.94837  1.0000
  C   C555      1.0  0.46319  0.53758  0.90628  1.0000
  H   H643      1.0  0.44385  0.51930  0.97443  1.0000
  C   C556      1.0  0.33842  0.64213  0.11570  1.0000
  C   C557      1.0  0.48243  0.57558  0.12443  1.0000
  H   H644      1.0  0.46826  0.54408  0.90420  1.0000
  C   C558      1.0  0.36745  0.56145  0.49782  1.0000
  C   C559      1.0  0.36401  0.56402  0.53312  1.0000
  C   C560      1.0  0.36718  0.56063  0.56680  1.0000
  C   C561      1.0  0.37363  0.55446  0.56558  1.0000
  C   C562      1.0  0.37703  0.55188  0.53036  1.0000
  C   C563      1.0  0.37410  0.55550  0.49639  1.0000
  H   H645      1.0  0.35884  0.56859  0.53449  1.0000
  H   H646      1.0  0.36450  0.56264  0.59392  1.0000
  H   H647      1.0  0.38186  0.54696  0.52953  1.0000
  H   H648      1.0  0.37672  0.55338  0.46972  1.0000
  C   C564      1.0  0.35538  0.57844  0.27293  1.0000
  C   C565      1.0  0.35280  0.58485  0.24295  1.0000
  C   C566      1.0  0.34423  0.58818  0.25345  1.0000
  C   C567      1.0  0.33808  0.58494  0.29392  1.0000
  C   C568      1.0  0.34056  0.57836  0.32375  1.0000
  C   C569      1.0  0.34928  0.57527  0.31347  1.0000
  H   H649      1.0  0.35746  0.58726  0.21150  1.0000
  H   H650      1.0  0.34235  0.59318  0.23017  1.0000
  H   H651      1.0  0.33575  0.57570  0.35498  1.0000
  H   H652      1.0  0.35116  0.57024  0.33667  1.0000
  C   C570      1.0  0.42781  0.61477  0.59709  1.0000
  C   C571      1.0  0.42451  0.60911  0.63835  1.0000
  C   C572      1.0  0.42360  0.61367  0.66855  1.0000
  C   C573      1.0  0.42586  0.62393  0.65766  1.0000
  C   C574      1.0  0.42876  0.62960  0.61641  1.0000
  C   C575      1.0  0.42974  0.62503  0.58611  1.0000
  H   H653      1.0  0.42271  0.60115  0.64709  1.0000
  H   H654      1.0  0.42113  0.60922  0.70021  1.0000
  H   H655      1.0  0.43043  0.63755  0.60782  1.0000
  H   H656      1.0  0.43224  0.62946  0.55429  1.0000
  C   C576      1.0  0.42163  0.65314  0.37649  1.0000
  C   C577      1.0  0.41378  0.65759  0.37610  1.0000
  C   C578      1.0  0.41211  0.66172  0.33924  1.0000
  C   C579      1.0  0.47333  0.50588  0.17344  1.0000
  C   C580      1.0  0.45716  0.58635  0.44905  1.0000
  C   C581      1.0  0.42763  0.65259  0.34011  1.0000
  H   H657      1.0  0.40916  0.65807  0.40421  1.0000
  S   S192      1.0  0.25513  0.63964  0.90253  1.0000
  H   H658      1.0  0.25928  0.60841  0.05274  1.0000
  H   H659      1.0  0.45223  0.51989  0.05294  1.0000
  C   C582      1.0  0.40212  0.60080  0.41372  1.0000
  C   C583      1.0  0.39396  0.59444  0.41325  1.0000
  C   C584      1.0  0.39484  0.59007  0.38259  1.0000
  C   C585      1.0  0.40379  0.59230  0.35158  1.0000
  C   C586      1.0  0.41194  0.59871  0.35188  1.0000
  C   C587      1.0  0.41113  0.60289  0.38317  1.0000
  H   H660      1.0  0.38701  0.59271  0.43712  1.0000
  H   H661      1.0  0.38857  0.58496  0.38314  1.0000
  H   H662      1.0  0.41892  0.60036  0.32821  1.0000
  H   H663      1.0  0.41754  0.60757  0.38389  1.0000
  H   H664      1.0  0.46653  0.61226  0.65050  1.0000
  C   C588      1.0  0.38683  0.66011  0.09938  1.0000
  C   C589      1.0  0.39762  0.52759  0.32306  1.0000
  C   C590      1.0  0.39254  0.53500  0.31668  1.0000
  H   H665      1.0  0.44701  0.61566  0.73088  1.0000
  C   C591      1.0  0.40757  0.63812  0.87751  1.0000
  C   C592      1.0  0.28661  0.65463  0.25798  1.0000
  H   H666      1.0  0.39863  0.52483  0.35231  1.0000
  S   S193      1.0  0.25748  0.66409  0.28979  1.0000
  H   H667      1.0  0.44100  0.54408  0.34951  1.0000
  C   C593      1.0  0.44868  0.58357  0.36916  1.0000
  C   C594      1.0  0.44028  0.58628  0.38781  1.0000
  C   C595      1.0  0.44065  0.59612  0.38607  1.0000
  C   C596      1.0  0.44950  0.60331  0.36614  1.0000
  C   C597      1.0  0.45785  0.60062  0.34663  1.0000
  C   C598      1.0  0.45744  0.59079  0.34794  1.0000
  H   H668      1.0  0.43347  0.58074  0.40364  1.0000
  H   H669      1.0  0.43410  0.59815  0.39996  1.0000
  H   H670      1.0  0.46468  0.60617  0.33069  1.0000
  H   H671      1.0  0.46388  0.58881  0.33257  1.0000
  C   C599      1.0  0.45808  0.53115  0.29586  1.0000
  C   C600      1.0  0.45127  0.52325  0.29574  1.0000
  C   C601      1.0  0.44922  0.52338  0.25979  1.0000
  C   C602      1.0  0.45395  0.53138  0.22423  1.0000
  C   C603      1.0  0.46118  0.53892  0.22389  1.0000
  C   C604      1.0  0.46321  0.53885  0.25975  1.0000
  H   H672      1.0  0.44726  0.51729  0.32367  1.0000
  H   H673      1.0  0.44373  0.51748  0.26003  1.0000
  H   H674      1.0  0.46497  0.54499  0.19627  1.0000
  H   H675      1.0  0.46863  0.54487  0.25954  1.0000
  H   H676      1.0  0.38384  0.63403  0.86514  1.0000
  N   N34       1.0  0.42367  0.57336  0.87503  1.0000
  C   C605      1.0  0.43045  0.57111  0.89851  1.0000
  C   C606      1.0  0.42635  0.58416  0.85481  1.0000
  C   C607      1.0  0.41359  0.57042  0.90437  1.0000
  C   C608      1.0  0.42404  0.56835  0.84397  1.0000
  C   C609      1.0  0.42985  0.56148  0.83914  1.0000
  C   C610      1.0  0.41847  0.57033  0.81725  1.0000
  H   H677      1.0  0.43820  0.57334  0.87809  1.0000
  H   H678      1.0  0.43017  0.57519  0.92088  1.0000
  H   H679      1.0  0.42853  0.56315  0.91642  1.0000
  H   H680      1.0  0.43334  0.58651  0.82902  1.0000
  H   H681      1.0  0.42733  0.58826  0.87611  1.0000
  H   H682      1.0  0.42065  0.58674  0.84263  1.0000
  H   H683      1.0  0.41121  0.56230  0.91967  1.0000
  H   H684      1.0  0.41302  0.57407  0.92822  1.0000
  H   H685      1.0  0.40814  0.57250  0.88934  1.0000
  H   H686      1.0  0.43420  0.55936  0.85835  1.0000
  H   H687      1.0  0.41377  0.57535  0.81956  1.0000
  H   H688      1.0  0.35570  0.63278  0.95929  1.0000
  C   C611      1.0  0.43957  0.56194  0.17328  1.0000
  H   H689      1.0  0.40831  0.52799  0.04077  1.0000
  C   C612      1.0  0.42165  0.66327  0.95497  1.0000
  N   N35       1.0  0.36706  0.58404  0.84170  1.0000
  C   C613      1.0  0.37191  0.58025  0.87188  1.0000
  C   C614      1.0  0.36471  0.59343  0.84498  1.0000
  C   C615      1.0  0.37229  0.60162  0.83923  1.0000
  C   C616      1.0  0.35501  0.59479  0.85343  1.0000
  C   C617      1.0  0.37029  0.61061  0.84151  1.0000
  C   C618      1.0  0.35312  0.60382  0.85554  1.0000
  C   C619      1.0  0.36073  0.61172  0.84950  1.0000
  H   H690      1.0  0.35296  0.57432  0.87992  1.0000
  H   H691      1.0  0.38093  0.59094  0.79330  1.0000
  H   H692      1.0  0.36720  0.57919  0.90339  1.0000
  H   H693      1.0  0.37355  0.57306  0.87091  1.0000
  H   H694      1.0  0.37905  0.58529  0.86626  1.0000
  H   H695      1.0  0.37984  0.60114  0.83279  1.0000
  H   H696      1.0  0.37621  0.61678  0.83680  1.0000
  H   H697      1.0  0.34568  0.60475  0.86160  1.0000
  H   H698      1.0  0.35918  0.61872  0.85074  1.0000
  N   N36       1.0  0.34878  0.60410  0.35265  1.0000
  C   C620      1.0  0.34270  0.61136  0.35502  1.0000
  C   C621      1.0  0.35207  0.60412  0.30993  1.0000
  C   C622      1.0  0.34228  0.59429  0.37901  1.0000
  C   C623      1.0  0.35750  0.60623  0.36536  1.0000
  C   C624      1.0  0.36302  0.59910  0.37225  1.0000
  C   C625      1.0  0.36107  0.61552  0.36919  1.0000
  C   C626      1.0  0.37120  0.60091  0.38479  1.0000
  C   C627      1.0  0.36935  0.61729  0.38121  1.0000
  C   C628      1.0  0.37434  0.60997  0.38944  1.0000
  H   H699      1.0  0.34660  0.61877  0.33288  1.0000
  H   H700      1.0  0.33593  0.60926  0.34733  1.0000
  H   H701      1.0  0.34037  0.61198  0.38616  1.0000
  H   H702      1.0  0.35570  0.59804  0.30676  1.0000
  H   H703      1.0  0.35734  0.61118  0.28948  1.0000
  H   H704      1.0  0.34582  0.60318  0.29802  1.0000
  H   H705      1.0  0.34028  0.59371  0.41177  1.0000
  H   H706      1.0  0.33536  0.59279  0.37171  1.0000
  H   H707      1.0  0.34565  0.58812  0.37513  1.0000
  H   H708      1.0  0.36113  0.59206  0.36777  1.0000
  H   H709      1.0  0.35765  0.62157  0.36284  1.0000
  H   H710      1.0  0.37518  0.59526  0.39049  1.0000
  H   H711      1.0  0.37190  0.62443  0.38398  1.0000
  H   H712      1.0  0.38074  0.61133  0.39888  1.0000
  N   N37       1.0  0.39451  0.60530  0.60000  1.0000
  C   C629      1.0  0.39338  0.61300  0.56628  1.0000
  C   C630      1.0  0.40398  0.60278  0.58533  1.0000
  C   C631      1.0  0.38661  0.59635  0.61021  1.0000
  C   C632      1.0  0.39435  0.60904  0.63466  1.0000
  C   C633      1.0  0.38700  0.60475  0.67355  1.0000
  C   C634      1.0  0.40168  0.61736  0.62983  1.0000
  C   C635      1.0  0.38703  0.60864  0.70523  1.0000
  C   C636      1.0  0.40166  0.62112  0.66181  1.0000
  C   C637      1.0  0.39438  0.61675  0.69947  1.0000
  H   H713      1.0  0.38623  0.61493  0.57589  1.0000
  H   H714      1.0  0.39918  0.61992  0.55589  1.0000
  H   H715      1.0  0.39378  0.61057  0.53907  1.0000
  H   H716      1.0  0.41026  0.60932  0.57261  1.0000
  H   H717      1.0  0.40425  0.59943  0.56068  1.0000
  H   H718      1.0  0.40542  0.59750  0.61056  1.0000
  H   H719      1.0  0.38705  0.59367  0.58363  1.0000
  H   H720      1.0  0.38716  0.59020  0.63482  1.0000
  H   H721      1.0  0.37920  0.59775  0.61995  1.0000
  H   H722      1.0  0.38122  0.59832  0.68041  1.0000
  H   H723      1.0  0.40755  0.62100  0.60130  1.0000
  H   H724      1.0  0.38135  0.60534  0.73450  1.0000
  H   H725      1.0  0.40737  0.62743  0.65749  1.0000
  H   H726      1.0  0.39449  0.61966  0.72422  1.0000
  N   N38       1.0  0.34919  0.64350  0.10369  1.0000
  C   C638      1.0  0.35290  0.64417  0.06020  1.0000
  C   C639      1.0  0.35121  0.63452  0.12787  1.0000
  C   C640      1.0  0.41421  0.51236  0.75370  1.0000
  H   H727      1.0  0.42002  0.53504  0.29475  1.0000
  H   H728      1.0  0.42910  0.53664  0.38229  1.0000
  H   H729      1.0  0.25472  0.56834  0.12606  1.0000
  H   H730      1.0  0.46392  0.56302  0.15182  1.0000
  C   C641      1.0  0.45596  0.55957  0.16438  1.0000
  S   S194      1.0  0.26334  0.64443  0.23589  1.0000
  H   H731      1.0  0.36103  0.64571  0.04922  1.0000
  H   H732      1.0  0.34993  0.63721  0.05523  1.0000
  H   H733      1.0  0.41472  0.65986  0.89793  1.0000
  C   C642      1.0  0.46901  0.52056  0.13989  1.0000
  H   H734      1.0  0.34768  0.62775  0.12296  1.0000
  H   H735      1.0  0.38634  0.65237  0.11278  1.0000
  H   H736      1.0  0.41334  0.64066  0.81300  1.0000
  H   H737      1.0  0.34733  0.62577  0.00803  1.0000
  H   H738      1.0  0.35461  0.57848  0.82601  1.0000
  H   H739      1.0  0.36030  0.56925  0.84600  1.0000
  H   H740      1.0  0.40055  0.63721  0.93956  1.0000
  C   C643      1.0  0.40965  0.57862  0.45253  1.0000
  C   C644      1.0  0.40880  0.64285  0.83661  1.0000
  C   C645      1.0  0.48258  0.56065  0.10618  1.0000
  C   C646      1.0  0.48238  0.57058  0.09583  1.0000
  H   H741      1.0  0.48220  0.57441  0.06594  1.0000
  H   H742      1.0  0.41439  0.56743  0.76740  1.0000
  C   C647      1.0  0.48243  0.57060  0.16365  1.0000
  H   H743      1.0  0.49301  0.51559  0.04462  1.0000
  C   C648      1.0  0.40165  0.64098  0.90788  1.0000
  C   C649      1.0  0.43013  0.55704  0.80890  1.0000
  H   H744      1.0  0.45046  0.62746  0.69330  1.0000
  S   S195      1.0  0.48016  0.54940  0.97866  1.0000
  H   H745      1.0  0.37442  0.51114  0.74320  1.0000
  H   H746      1.0  0.26736  0.56414  0.01208  1.0000
  C   C650      1.0  0.35226  0.52166  0.47633  1.0000
  C   C651      1.0  0.40433  0.65062  0.82616  1.0000
  C   C652      1.0  0.42472  0.55931  0.78273  1.0000
  C   C653      1.0  0.44714  0.61953  0.69961  1.0000
  H   H747      1.0  0.34322  0.53629  0.47491  1.0000
  C   C654      1.0  0.43337  0.56630  0.19743  1.0000
  S   S196      1.0  0.37302  0.65301  0.94809  1.0000
  C   C655      1.0  0.39705  0.64862  0.89747  1.0000
  H   H748      1.0  0.30336  0.62991  0.25259  1.0000
  N   N39       1.0  0.45248  0.61552  0.66876  1.0000
  S   S197      1.0  0.34557  0.65327  0.96039  1.0000
  C   C656      1.0  0.46238  0.61557  0.67209  1.0000
  H   H749      1.0  0.46672  0.62318  0.66547  1.0000
  H   H750      1.0  0.43442  0.55165  0.80602  1.0000
  C   C657      1.0  0.38348  0.61122  0.28008  1.0000
  H   H751      1.0  0.45743  0.63003  0.62361  1.0000
  C   C658      1.0  0.39849  0.65356  0.85656  1.0000
  H   H752      1.0  0.39257  0.65080  0.92110  1.0000
  H   H753      1.0  0.42496  0.55578  0.75956  1.0000
  C   C659      1.0  0.38036  0.62769  0.89246  1.0000
  H   H754      1.0  0.27476  0.60688  0.84617  1.0000
  C   C660      1.0  0.39585  0.63825  0.33182  1.0000
  C   C661      1.0  0.38806  0.62783  0.28176  1.0000
  C   C662      1.0  0.39062  0.60870  0.29709  1.0000
  H   H755      1.0  0.39073  0.63287  0.36101  1.0000
  C   C663      1.0  0.49083  0.52348  0.34617  1.0000
  H   H756      1.0  0.34896  0.54318  0.58571  1.0000
  H   H757      1.0  0.46206  0.61133  0.70332  1.0000
  H   H758      1.0  0.44520  0.60723  0.61626  1.0000
  C   C664      1.0  0.38131  0.61287  0.93947  1.0000
  C   C665      1.0  0.44715  0.60529  0.67626  1.0000
  C   C666      1.0  0.39536  0.62550  0.29941  1.0000
  C   C667      1.0  0.39647  0.61568  0.30679  1.0000
  H   H759      1.0  0.40054  0.64383  0.33936  1.0000
  H   H760      1.0  0.40357  0.64463  0.25105  1.0000
  H   H761      1.0  0.48429  0.51301  0.65214  1.0000
  N   N40       1.0  0.40180  0.63325  0.30704  1.0000
  C   C668      1.0  0.40798  0.64063  0.26740  1.0000
  C   C669      1.0  0.40842  0.62944  0.32901  1.0000
  H   H762      1.0  0.41378  0.62634  0.31068  1.0000
  H   H763      1.0  0.41334  0.64634  0.27123  1.0000
  C   C670      1.0  0.43881  0.59257  0.65481  1.0000
  H   H764      1.0  0.40423  0.62367  0.35887  1.0000
  H   H765      1.0  0.41221  0.63710  0.24699  1.0000
  H   H766      1.0  0.36689  0.53472  0.41244  1.0000
  C   C671      1.0  0.44502  0.59798  0.71454  1.0000
  N   N41       1.0  0.45014  0.56654  0.15148  1.0000
  H   H767      1.0  0.41290  0.63538  0.33565  1.0000
  H   H768      1.0  0.43624  0.59053  0.63177  1.0000
  C   C672      1.0  0.25575  0.62654  0.22957  1.0000
  H   H769      1.0  0.30907  0.59578  0.75242  1.0000
  Fe  Fe97      1.0  0.42241  0.52135  0.82853  1.0000
  H   H770      1.0  0.44638  0.62273  0.62403  1.0000
  C   C673      1.0  0.30919  0.59294  0.78414  1.0000
  H   H771      1.0  0.31691  0.59532  0.78305  1.0000
  H   H772      1.0  0.30485  0.59671  0.80317  1.0000
  H   H773      1.0  0.39313  0.62183  0.88544  1.0000
  N   N42       1.0  0.30545  0.58206  0.80125  1.0000
  C   C674      1.0  0.30585  0.57899  0.84336  1.0000
  C   C675      1.0  0.28951  0.58506  0.79009  1.0000
  C   C676      1.0  0.27994  0.58146  0.79134  1.0000
  H   H774      1.0  0.31332  0.58164  0.84425  1.0000
  H   H775      1.0  0.29206  0.59297  0.78073  1.0000
  H   H776      1.0  0.27551  0.58651  0.78334  1.0000
  H   H777      1.0  0.29474  0.56292  0.82600  1.0000
  C   C677      1.0  0.29531  0.57856  0.80194  1.0000
  H   H778      1.0  0.30389  0.57085  0.85759  1.0000
  H   H779      1.0  0.25856  0.64125  0.10882  1.0000
  C   C678      1.0  0.27582  0.57136  0.80488  1.0000
  H   H780      1.0  0.31166  0.57929  0.74505  1.0000
  S   S198      1.0  0.48180  0.57681  0.19983  1.0000
  C   C679      1.0  0.31221  0.57770  0.77626  1.0000
  C   C680      1.0  0.29086  0.56831  0.81566  1.0000
  C   C681      1.0  0.28126  0.56480  0.81707  1.0000
  H   H781      1.0  0.31075  0.56958  0.78988  1.0000
  H   H782      1.0  0.31999  0.58062  0.77315  1.0000
  H   H783      1.0  0.27794  0.55695  0.82827  1.0000
  C   C682      1.0  0.37070  0.62647  0.91631  1.0000
  H   H784      1.0  0.36689  0.63191  0.90574  1.0000
  C   C683      1.0  0.46375  0.53477  0.87148  1.0000
  C   C684      1.0  0.39757  0.52630  0.82375  1.0000
  H   H785      1.0  0.41645  0.58297  0.60979  1.0000
  C   C685      1.0  0.25565  0.63652  0.22122  1.0000
  H   H786      1.0  0.26828  0.56865  0.80707  1.0000
  H   H787      1.0  0.46818  0.51121  0.88584  1.0000
  H   H788      1.0  0.28806  0.60319  0.00560  1.0000
  C   C686      1.0  0.36607  0.61844  0.95303  1.0000
  C   C687      1.0  0.37167  0.61161  0.96382  1.0000
  H   H789      1.0  0.35922  0.63495  0.11926  1.0000
  H   H790      1.0  0.26019  0.60093  0.24293  1.0000
  C   C688      1.0  0.35779  0.53272  0.59074  1.0000
  H   H791      1.0  0.36881  0.60527  0.99103  1.0000
  C   C689      1.0  0.42528  0.54813  0.19199  1.0000
  Fe  Fe98      1.0  0.48093  0.56163  0.34728  1.0000
  C   C690      1.0  0.38535  0.52472  0.72235  1.0000
  H   H792      1.0  0.46910  0.53923  0.84251  1.0000
  C   C691      1.0  0.35239  0.60923  0.01728  1.0000
  N   N43       1.0  0.35582  0.61732  0.97768  1.0000
  C   C692      1.0  0.35474  0.62657  0.98684  1.0000
  H   H793      1.0  0.45273  0.57449  0.19215  1.0000
  C   C693      1.0  0.42806  0.56691  0.32969  1.0000
  H   H794      1.0  0.39730  0.65973  0.96874  1.0000
  H   H795      1.0  0.26760  0.58967  0.11190  1.0000
  S   S199      1.0  0.39330  0.66358  0.84292  1.0000
  H   H796      1.0  0.36020  0.62887  0.00113  1.0000
  H   H797      1.0  0.34476  0.60880  0.03553  1.0000
  H   H798      1.0  0.27397  0.61323  0.24370  1.0000
  H   H799      1.0  0.46000  0.57239  0.08949  1.0000
  H   H800      1.0  0.29180  0.63189  0.21697  1.0000
  C   C694      1.0  0.34930  0.61520  0.95416  1.0000
  H   H801      1.0  0.35124  0.62107  0.92446  1.0000
  H   H802      1.0  0.34973  0.60819  0.94745  1.0000
  C   C695      1.0  0.43982  0.58833  0.72277  1.0000
  H   H803      1.0  0.43597  0.57331  0.20091  1.0000
  C   C696      1.0  0.43183  0.55880  0.32597  1.0000
  H   H804      1.0  0.34149  0.61456  0.97075  1.0000
  C   C697      1.0  0.26766  0.58925  0.24830  1.0000
  H   H805      1.0  0.47451  0.57727  0.48473  1.0000
  H   H806      1.0  0.41883  0.56514  0.23613  1.0000
  H   H807      1.0  0.29259  0.60769  0.05996  1.0000
  H   H808      1.0  0.45024  0.56221  0.09826  1.0000
  H   H809      1.0  0.26069  0.62370  0.24469  1.0000
  C   C698      1.0  0.42346  0.56166  0.21806  1.0000
  H   H810      1.0  0.28402  0.57069  0.01263  1.0000
  H   H811      1.0  0.26639  0.58737  0.02181  1.0000
  H   H812      1.0  0.35072  0.65004  0.04016  1.0000
  H   H813      1.0  0.44192  0.56377  0.98893  1.0000
  H   H814      1.0  0.44415  0.55114  0.27638  1.0000
  H   H815      1.0  0.41190  0.53968  0.00112  1.0000
  N   N44       1.0  0.40309  0.57349  0.49511  1.0000
  H   H816      1.0  0.44778  0.57403  0.09588  1.0000
  C   C699      1.0  0.28192  0.58110  0.13223  1.0000
  C   C700      1.0  0.41943  0.55260  0.21540  1.0000
  H   H817      1.0  0.41173  0.54906  0.23136  1.0000
  H   H818      1.0  0.45499  0.55312  0.15353  1.0000
  S   S200      1.0  0.41731  0.66758  0.25529  1.0000
  H   H819      1.0  0.28844  0.63448  0.32028  1.0000
  H   H820      1.0  0.28030  0.66704  0.26020  1.0000
  H   H821      1.0  0.48519  0.54487  0.90487  1.0000
  H   H822      1.0  0.48434  0.57589  0.44560  1.0000
  C   C701      1.0  0.42305  0.53324  0.32038  1.0000
  H   H823      1.0  0.30628  0.63799  0.27948  1.0000
  H   H824      1.0  0.42288  0.65662  0.94631  1.0000
  H   H825      1.0  0.42207  0.54106  0.19002  1.0000
  H   H826      1.0  0.35415  0.54625  0.45056  1.0000
  H   H827      1.0  0.42643  0.52699  0.31745  1.0000
  H   H828      1.0  0.36694  0.52260  0.58677  1.0000
  C   C702      1.0  0.48660  0.53040  0.80057  1.0000
  H   H829      1.0  0.27889  0.59168  0.98864  1.0000
  C   C703      1.0  0.45376  0.57578  0.15920  1.0000
  H   H830      1.0  0.28528  0.60879  0.94475  1.0000
  C   C704      1.0  0.47771  0.50793  0.65488  1.0000
  S   S201      1.0  0.43508  0.51707  0.79201  1.0000
  C   C705      1.0  0.26829  0.56655  0.03720  1.0000
  H   H831      1.0  0.43944  0.54894  0.15339  1.0000
  H   H832      1.0  0.48705  0.52801  0.91040  1.0000
  H   H833      1.0  0.47255  0.51974  0.30591  1.0000
  H   H834      1.0  0.36629  0.52196  0.52030  1.0000
  H   H835      1.0  0.43937  0.55932  0.32474  1.0000
  C   C706      1.0  0.41395  0.58090  0.58665  1.0000
  H   H836      1.0  0.48177  0.53257  0.32450  1.0000
  H   H837      1.0  0.28634  0.57620  0.06799  1.0000
  H   H838      1.0  0.28672  0.62576  0.29386  1.0000
  H   H839      1.0  0.42141  0.52009  0.05742  1.0000
  C   C707      1.0  0.26220  0.64900  0.09450  1.0000
  H   H840      1.0  0.25501  0.59836  0.01740  1.0000
  H   H841      1.0  0.26632  0.64584  0.79818  1.0000
  C   C708      1.0  0.26167  0.65412  0.05684  1.0000
  H   H842      1.0  0.41477  0.53842  0.04768  1.0000
  H   H843      1.0  0.49479  0.52942  0.35300  1.0000
  H   H844      1.0  0.30995  0.64230  0.22431  1.0000
  H   H845      1.0  0.27975  0.65019  0.25968  1.0000
  C   C709      1.0  0.39451  0.53423  0.24841  1.0000
  H   H846      1.0  0.46971  0.53673  0.07578  1.0000
  C   C710      1.0  0.41430  0.53483  0.02432  1.0000
  H   H847      1.0  0.28443  0.64048  0.22065  1.0000
  H   H848      1.0  0.28510  0.58765  0.10432  1.0000
  C   C711      1.0  0.28698  0.63357  0.29250  1.0000
  H   H849      1.0  0.44942  0.51454  0.10651  1.0000
  C   C712      1.0  0.26632  0.66414  0.03839  1.0000
  H   H850      1.0  0.46111  0.51318  0.40178  1.0000
  H   H851      1.0  0.27949  0.63452  0.29437  1.0000
  H   H852      1.0  0.46066  0.53567  0.05153  1.0000
  S   S202      1.0  0.38050  0.65473  0.04164  1.0000
  H   H853      1.0  0.45009  0.58161  0.14823  1.0000
  H   H854      1.0  0.25974  0.61117  0.98545  1.0000
  H   H855      1.0  0.46177  0.57892  0.14296  1.0000
  H   H856      1.0  0.48658  0.54338  0.81852  1.0000
  C   C713      1.0  0.48626  0.50507  0.55963  1.0000
  C   C714      1.0  0.35251  0.53838  0.57147  1.0000
  C   C715      1.0  0.44596  0.55959  0.93508  1.0000
  H   H857      1.0  0.42788  0.52314  0.96935  1.0000
  N   N45       1.0  0.47399  0.58299  0.42402  1.0000
  S   S203      1.0  0.42514  0.51423  0.25398  1.0000
  N   N46       1.0  0.29457  0.64056  0.25498  1.0000
  C   C716      1.0  0.30396  0.63764  0.25272  1.0000
  H   H858      1.0  0.40944  0.50462  0.69901  1.0000
  C   C717      1.0  0.44042  0.55815  0.97507  1.0000
  C   C718      1.0  0.46853  0.57340  0.42460  1.0000
  C   C719      1.0  0.39110  0.53840  0.27904  1.0000
  H   H859      1.0  0.40506  0.51783  0.29748  1.0000
  H   H860      1.0  0.41535  0.51966  0.99934  1.0000
  C   C720      1.0  0.45513  0.51607  0.07673  1.0000
  N   N47       1.0  0.27070  0.60289  0.98910  1.0000
  C   C721      1.0  0.30369  0.65722  0.25365  1.0000
  Fe  Fe99      1.0  0.41581  0.51380  0.21381  1.0000
  H   H861      1.0  0.31046  0.65499  0.25187  1.0000
  H   H862      1.0  0.42856  0.53127  0.05747  1.0000
  H   H863      1.0  0.26938  0.57071  0.90078  1.0000
  C   C722      1.0  0.49347  0.53413  0.89686  1.0000
  C   C723      1.0  0.29503  0.65079  0.25556  1.0000
  C   C724      1.0  0.40705  0.57595  0.52605  1.0000
  C   C725      1.0  0.48122  0.50583  0.87578  1.0000
  C   C726      1.0  0.35373  0.65263  0.10971  1.0000
  C   C727      1.0  0.42700  0.52699  0.03748  1.0000
  H   H864      1.0  0.44730  0.59972  0.73857  1.0000
  H   H865      1.0  0.38714  0.54406  0.27385  1.0000
  C   C728      1.0  0.41378  0.66683  0.90425  1.0000
  H   H866      1.0  0.41879  0.50745  0.76404  1.0000
  C   C729      1.0  0.27325  0.60544  0.02293  1.0000
  H   H867      1.0  0.39314  0.53671  0.21974  1.0000
  C   C730      1.0  0.36270  0.52685  0.57190  1.0000
  N   N48       1.0  0.42368  0.53263  0.00497  1.0000
  H   H868      1.0  0.39448  0.58422  0.49530  1.0000
  C   C731      1.0  0.26495  0.59279  0.86007  1.0000
  C   C732      1.0  0.42156  0.52619  0.98080  1.0000
  H   H869      1.0  0.43385  0.52489  0.02440  1.0000
  C   C733      1.0  0.43126  0.54188  0.98030  1.0000
  C   C734      1.0  0.43715  0.54354  0.93949  1.0000
  S   S204      1.0  0.49031  0.56159  0.38819  1.0000
  H   H870      1.0  0.41949  0.53013  0.95451  1.0000
  C   C735      1.0  0.43324  0.54940  0.99758  1.0000
  C   C736      1.0  0.41620  0.55041  0.32543  1.0000
  C   C737      1.0  0.46293  0.53177  0.07717  1.0000
  C   C738      1.0  0.49227  0.52531  0.77987  1.0000
  H   H871      1.0  0.45159  0.56634  0.91803  1.0000
  C   C739      1.0  0.46757  0.58945  0.43531  1.0000
  C   C740      1.0  0.26690  0.59891  0.24473  1.0000
  H   H872      1.0  0.26433  0.61296  0.10568  1.0000
  H   H873      1.0  0.43656  0.53805  0.92443  1.0000
  H   H874      1.0  0.33475  0.63512  0.11296  1.0000
  C   C741      1.0  0.35259  0.66188  0.08839  1.0000
  H   H875      1.0  0.43817  0.58294  0.75246  1.0000
  C   C742      1.0  0.39963  0.52684  0.25474  1.0000
  C   C743      1.0  0.38432  0.66332  0.06409  1.0000
  N   N49       1.0  0.46452  0.52205  0.07507  1.0000
  H   H876      1.0  0.40459  0.65090  0.96791  1.0000
  Fe  Fe100     1.0  0.38181  0.66286  0.26635  1.0000
  H   H877      1.0  0.48425  0.50965  0.89360  1.0000
  H   H878      1.0  0.48888  0.51812  0.77989  1.0000
  H   H879      1.0  0.45575  0.50892  0.07202  1.0000
  C   C744      1.0  0.40129  0.52363  0.29203  1.0000
  H   H880      1.0  0.38040  0.52925  0.71522  1.0000
  S   S205      1.0  0.45690  0.52345  0.83018  1.0000
  S   S206      1.0  0.43993  0.50551  0.19323  1.0000
  C   C745      1.0  0.40410  0.65799  0.97378  1.0000
  S   S207      1.0  0.42926  0.52245  0.87651  1.0000
  C   C746      1.0  0.48107  0.58793  0.38229  1.0000
  Fe  Fe101     1.0  0.42925  0.50514  0.15886  1.0000
  C   C747      1.0  0.44440  0.55227  0.91745  1.0000
  H   H881      1.0  0.44906  0.55322  0.88696  1.0000
  H   H882      1.0  0.42943  0.54847  0.02901  1.0000
  H   H883      1.0  0.48325  0.54815  0.15272  1.0000
  C   C748      1.0  0.27889  0.57344  0.06973  1.0000
  H   H884      1.0  0.40854  0.52743  0.72387  1.0000
  H   H885      1.0  0.44473  0.51442  0.91305  1.0000
  H   H886      1.0  0.39197  0.66436  0.14448  1.0000
  C   C749      1.0  0.46776  0.51674  0.10851  1.0000
  C   C750      1.0  0.26129  0.56900  0.10181  1.0000
  H   H887      1.0  0.39052  0.57483  0.47494  1.0000
  C   C751      1.0  0.26796  0.56794  0.17547  1.0000
  C   C752      1.0  0.26347  0.58255  0.87445  1.0000
  H   H888      1.0  0.40624  0.57707  0.42988  1.0000
  H   H889      1.0  0.34828  0.63337  0.16110  1.0000
  C   C753      1.0  0.40145  0.56276  0.50206  1.0000
  H   H890      1.0  0.26719  0.58732  0.16406  1.0000
  H   H891      1.0  0.39840  0.56060  0.47948  1.0000
  Fe  Fe102     1.0  0.42159  0.50648  0.90779  1.0000
  H   H892      1.0  0.40032  0.57148  0.62932  1.0000
  H   H893      1.0  0.28084  0.61256  0.11038  1.0000
  C   C754      1.0  0.26944  0.61082  0.08350  1.0000
  H   H894      1.0  0.44138  0.53899  0.27374  1.0000
  H   H895      1.0  0.41136  0.58675  0.44573  1.0000
  S   S208      1.0  0.40352  0.52158  0.21600  1.0000
  C   C755      1.0  0.39361  0.57626  0.49860  1.0000
  Fe  Fe103     1.0  0.37720  0.66204  0.98535  1.0000
  H   H896      1.0  0.48640  0.59456  0.38008  1.0000
  N   N50       1.0  0.27169  0.57640  0.13720  1.0000
  H   H897      1.0  0.47720  0.59029  0.35999  1.0000
  H   H898      1.0  0.39619  0.55839  0.53279  1.0000
  H   H899      1.0  0.49232  0.51033  0.43114  1.0000
  C   C756      1.0  0.45567  0.60229  0.45537  1.0000
  C   C757      1.0  0.28533  0.60785  0.05788  1.0000
  C   C758      1.0  0.36233  0.52660  0.53372  1.0000
  C   C759      1.0  0.27874  0.61061  0.08620  1.0000
  C   C760      1.0  0.40137  0.57209  0.56795  1.0000
  C   C761      1.0  0.49591  0.50694  0.60302  1.0000
  N   N51       1.0  0.43026  0.54187  0.31897  1.0000
  Fe  Fe104     1.0  0.36135  0.66117  0.94519  1.0000
  H   H900      1.0  0.47354  0.56878  0.41533  1.0000
  S   S209      1.0  0.36466  0.66906  0.98749  1.0000
  C   C762      1.0  0.26665  0.60822  0.05258  1.0000
  H   H901      1.0  0.26883  0.57020  0.20188  1.0000
  H   H902      1.0  0.38790  0.57207  0.52831  1.0000
  C   C763      1.0  0.35100  0.53837  0.45514  1.0000
  H   H903      1.0  0.42153  0.58513  0.48515  1.0000
  H   H904      1.0  0.48595  0.51293  0.55238  1.0000
  H   H905      1.0  0.36052  0.64606  0.15464  1.0000
  C   C764      1.0  0.43459  0.53849  0.35158  1.0000
  C   C765      1.0  0.41655  0.58209  0.51600  1.0000
  H   H906      1.0  0.45804  0.62013  0.60299  1.0000
  C   C766      1.0  0.26743  0.65387  0.11375  1.0000
  C   C767      1.0  0.27071  0.57297  0.10283  1.0000
  C   C768      1.0  0.28265  0.60528  0.02676  1.0000
  C   C769      1.0  0.47955  0.58089  0.45291  1.0000
  C   C770      1.0  0.45136  0.59269  0.45909  1.0000
  H   H907      1.0  0.44345  0.59030  0.46821  1.0000
  H   H908      1.0  0.39897  0.51978  0.84177  1.0000
  H   H909      1.0  0.41351  0.51726  0.77288  1.0000
  H   H910      1.0  0.40841  0.56039  0.49980  1.0000
  C   C771      1.0  0.40129  0.52343  0.72773  1.0000
  H   H911      1.0  0.39419  0.56714  0.57821  1.0000
  C   C772      1.0  0.27765  0.57026  0.03750  1.0000
  S   S210      1.0  0.48405  0.57324  0.96284  1.0000
  C   C773      1.0  0.49312  0.51415  0.35335  1.0000
  C   C774      1.0  0.40536  0.53444  0.79938  1.0000
  H   H912      1.0  0.27193  0.56207  0.17304  1.0000
  C   C775      1.0  0.47822  0.51818  0.31909  1.0000
  C   C776      1.0  0.41843  0.56680  0.33119  1.0000
  C   C777      1.0  0.48025  0.50894  0.32583  1.0000
  C   C778      1.0  0.40481  0.57453  0.59760  1.0000
  C   C779      1.0  0.49240  0.54368  0.89414  1.0000
  C   C780      1.0  0.45828  0.50527  0.41037  1.0000
  S   S211      1.0  0.25342  0.66082  0.95234  1.0000
  H   H913      1.0  0.45698  0.53101  0.10529  1.0000
  C   C781      1.0  0.46583  0.60553  0.44248  1.0000
  C   C782      1.0  0.40341  0.54293  0.77683  1.0000
  H   H914      1.0  0.49185  0.52412  0.09633  1.0000
  H   H915      1.0  0.41846  0.51689  0.72166  1.0000
  C   C783      1.0  0.43666  0.58565  0.69303  1.0000
  H   H916      1.0  0.25784  0.58044  0.15234  1.0000
  H   H917      1.0  0.34481  0.51895  0.49944  1.0000
  C   C784      1.0  0.46952  0.50728  0.11101  1.0000
  S   S212      1.0  0.25772  0.58011  0.25113  1.0000
  C   C785      1.0  0.26013  0.56592  0.06931  1.0000
  S   S213      1.0  0.48226  0.55394  0.07222  1.0000
  C   C786      1.0  0.26584  0.58377  0.14147  1.0000
  C   C787      1.0  0.39500  0.52914  0.71657  1.0000
  H   H918      1.0  0.34839  0.66238  0.06772  1.0000
  Fe  Fe105     1.0  0.48543  0.56307  0.92477  1.0000
  H   H919      1.0  0.41664  0.57628  0.44649  1.0000
  S   S214      1.0  0.42820  0.52061  0.15443  1.0000
  H   H920      1.0  0.28237  0.58372  0.15833  1.0000
  H   H921      1.0  0.41687  0.53046  0.34966  1.0000
  S   S215      1.0  0.41769  0.53431  0.79483  1.0000
  C   C788      1.0  0.35929  0.65268  0.13669  1.0000
  H   H922      1.0  0.42697  0.58958  0.53766  1.0000
  C   C789      1.0  0.41985  0.58461  0.54598  1.0000
  C   C790      1.0  0.43808  0.54511  0.27900  1.0000
  C   C791      1.0  0.49095  0.53953  0.80154  1.0000
  C   C792      1.0  0.42601  0.55026  0.32391  1.0000
  H   H923      1.0  0.36783  0.66132  0.16163  1.0000
  H   H924      1.0  0.40933  0.54925  0.75771  1.0000
  S   S216      1.0  0.47695  0.57510  0.31403  1.0000
  H   H925      1.0  0.26001  0.56460  0.18360  1.0000
  H   H926      1.0  0.43266  0.57331  0.33151  1.0000
  H   H927      1.0  0.35833  0.53314  0.61978  1.0000
  H   H928      1.0  0.37159  0.53010  0.45234  1.0000
  H   H929      1.0  0.43250  0.57821  0.69962  1.0000
  C   C793      1.0  0.27135  0.59264  0.99192  1.0000
  H   H930      1.0  0.48441  0.58769  0.45215  1.0000
  H   H931      1.0  0.41119  0.54433  0.32388  1.0000
  H   H932      1.0  0.41555  0.57311  0.33398  1.0000
  H   H933      1.0  0.46947  0.52748  0.00940  1.0000
  C   C794      1.0  0.47169  0.51515  0.17188  1.0000
  C   C795      1.0  0.41253  0.55857  0.32900  1.0000
  H   H934      1.0  0.41126  0.66952  0.02007  1.0000
  H   H935      1.0  0.40300  0.65659  0.00676  1.0000
  H   H936      1.0  0.46345  0.56894  0.45554  1.0000
  C   C796      1.0  0.27198  0.66391  0.09594  1.0000
  H   H937      1.0  0.33622  0.64810  0.09628  1.0000
  H   H938      1.0  0.39751  0.53711  0.70485  1.0000
  C   C797      1.0  0.47171  0.59920  0.43302  1.0000
  C   C798      1.0  0.48301  0.55582  0.14470  1.0000
  H   H939      1.0  0.47883  0.52722  0.81623  1.0000
  H   H940      1.0  0.46783  0.52767  0.14085  1.0000
  H   H941      1.0  0.43739  0.53185  0.34993  1.0000
  C   C799      1.0  0.26036  0.64348  0.78753  1.0000
  H   H942      1.0  0.48554  0.58297  0.37188  1.0000
  C   C800      1.0  0.49557  0.52825  0.06436  1.0000
  H   H943      1.0  0.46428  0.57447  0.40302  1.0000
  H   H944      1.0  0.48292  0.55688  0.20351  1.0000
  H   H945      1.0  0.26927  0.59037  0.96742  1.0000
  C   C801      1.0  0.47191  0.52376  0.03502  1.0000
  N   N52       1.0  0.41282  0.66606  0.94724  1.0000
  C   C802      1.0  0.36684  0.53492  0.44324  1.0000
  C   C803      1.0  0.38996  0.66690  0.11755  1.0000
  H   H946      1.0  0.37051  0.54256  0.43963  1.0000
  H   H947      1.0  0.27785  0.61750  0.94715  1.0000
  H   H948      1.0  0.47895  0.52858  0.03187  1.0000
  H   H949      1.0  0.45329  0.57916  0.45113  1.0000
  H   H950      1.0  0.33536  0.64195  0.14779  1.0000
  H   H951      1.0  0.43515  0.54775  0.25380  1.0000
  S   S217      1.0  0.39559  0.66423  0.21717  1.0000
  H   H952      1.0  0.40619  0.66531  0.33896  1.0000
  H   H953      1.0  0.47332  0.51683  0.02996  1.0000
  H   H954      1.0  0.25547  0.65646  0.78618  1.0000
  C   C804      1.0  0.48756  0.50689  0.34276  1.0000
  H   H955      1.0  0.25625  0.62079  0.89270  1.0000
  H   H956      1.0  0.25282  0.56309  0.06907  1.0000
  H   H957      1.0  0.40711  0.66830  0.89676  1.0000
  H   H958      1.0  0.25755  0.65035  0.04188  1.0000
  C   C805      1.0  0.48345  0.52541  0.32950  1.0000
  Fe  Fe106     1.0  0.25879  0.65861  0.23633  1.0000
  C   C806      1.0  0.42612  0.65694  0.30322  1.0000
  H   H959      1.0  0.42106  0.66143  0.98765  1.0000
  H   H960      1.0  0.35669  0.51645  0.48543  1.0000
  H   H961      1.0  0.34820  0.54312  0.51954  1.0000
  N   N53       1.0  0.35676  0.53189  0.47268  1.0000
  Fe  Fe107     1.0  0.38272  0.66606  0.89536  1.0000
  C   C807      1.0  0.35215  0.53826  0.53314  1.0000
  H   H962      1.0  0.45113  0.60730  0.46153  1.0000
  H   H963      1.0  0.43374  0.64924  0.34015  1.0000
  H   H964      1.0  0.28673  0.57588  0.13069  1.0000
  H   H965      1.0  0.49632  0.51497  0.59419  1.0000
  H   H966      1.0  0.47955  0.60206  0.42323  1.0000
  S   S218      1.0  0.38968  0.66933  0.30321  1.0000
  H   H967      1.0  0.45622  0.50602  0.35287  1.0000
  C   C808      1.0  0.49847  0.55380  0.38657  1.0000
  H   H968      1.0  0.35096  0.53795  0.42470  1.0000
  C   C809      1.0  0.38198  0.51452  0.73835  1.0000
  C   C810      1.0  0.26066  0.60354  0.98897  1.0000
  C   C811      1.0  0.30381  0.66685  0.25417  1.0000
  H   H969      1.0  0.26798  0.64985  0.14277  1.0000
  H   H970      1.0  0.35156  0.52112  0.44683  1.0000
  C   C812      1.0  0.27767  0.60967  0.94954  1.0000
  C   C813      1.0  0.36354  0.66146  0.14122  1.0000
  H   H971      1.0  0.46913  0.61306  0.43901  1.0000
  C   C814      1.0  0.35706  0.53233  0.51304  1.0000
  H   H972      1.0  0.46907  0.51312  0.70019  1.0000
  H   H973      1.0  0.26585  0.66757  0.00871  1.0000
  C   C815      1.0  0.41844  0.66161  0.30262  1.0000
  C   C816      1.0  0.49616  0.52344  0.03530  1.0000
  H   H974      1.0  0.43105  0.65685  0.27496  1.0000
  S   S219      1.0  0.25373  0.57458  0.86901  1.0000
  C   C817      1.0  0.47219  0.50670  0.87136  1.0000
  S   S220      1.0  0.41381  0.50574  0.86185  1.0000
  H   H975      1.0  0.42832  0.66937  0.93718  1.0000
  C   C818      1.0  0.25897  0.63434  0.78160  1.0000
  H   H976      1.0  0.47238  0.51815  0.19589  1.0000
  H   H977      1.0  0.26381  0.62962  0.78760  1.0000
  H   H978      1.0  0.49689  0.55960  0.99418  1.0000
  C   C819      1.0  0.28683  0.66426  0.25833  1.0000
  C   C820      1.0  0.39806  0.51299  0.74469  1.0000
  C   C821      1.0  0.46899  0.50806  0.68279  1.0000
  N   N54       1.0  0.40445  0.50668  0.75740  1.0000
  H   H979      1.0  0.49664  0.50440  0.63393  1.0000
  H   H980      1.0  0.49270  0.50450  0.53623  1.0000
  C   C822      1.0  0.38825  0.50870  0.74899  1.0000
  H   H981      1.0  0.39789  0.50500  0.82065  1.0000
  H   H982      1.0  0.49797  0.55145  0.44887  1.0000
  H   H983      1.0  0.49884  0.54166  0.07647  1.0000
  C   C823      1.0  0.49957  0.51467  0.40866  1.0000
  H   H984      1.0  0.27591  0.66715  0.11264  1.0000
  C   C824      1.0  0.25118  0.63117  0.76896  1.0000
  C   C825      1.0  0.49972  0.53837  0.05248  1.0000
  S   S221      1.0  0.49929  0.56356  0.87648  1.0000
  H   H985      1.0  0.31934  0.66715  0.92160  1.0000
  C   C826      1.0  0.27147  0.66942  0.05778  1.0000
  H   H986      1.0  0.25043  0.66429  0.71547  1.0000
  H   H987      1.0  0.46863  0.50387  0.08847  1.0000
  H   H988      1.0  0.24999  0.62394  0.76525  1.0000
  C   C827      1.0  0.24992  0.62264  0.88538  1.0000
  Fe  Fe108     1.0  0.40731  0.74976  0.28605  1.0000
  S   S222      1.0  0.41792  0.76483  0.25553  1.0000
  S   S223      1.0  0.41236  0.73589  0.28152  1.0000
  Fe  Fe109     1.0  0.38972  0.75825  0.30732  1.0000
  S   S224      1.0  0.39880  0.77374  0.27802  1.0000
  S   S225      1.0  0.37347  0.75677  0.33258  1.0000
  Fe  Fe110     1.0  0.40631  0.76845  0.22793  1.0000
  S   S226      1.0  0.40774  0.77664  0.16328  1.0000
  Fe  Fe111     1.0  0.40962  0.76905  0.30904  1.0000
  S   S227      1.0  0.41369  0.77961  0.34407  1.0000
  S   S228      1.0  0.39638  0.75333  0.25476  1.0000
  S   S229      1.0  0.39986  0.75357  0.34188  1.0000
  H   H989      1.0  0.37957  0.76134  0.24022  1.0000
  Fe  Fe112     1.0  0.39380  0.67910  0.18723  1.0000
  C   C828      1.0  0.46560  0.81975  0.71584  1.0000
  S   S230      1.0  0.39512  0.68559  0.12134  1.0000
  Fe  Fe113     1.0  0.38878  0.68414  0.26549  1.0000
  S   S231      1.0  0.38454  0.69647  0.28927  1.0000
  S   S232      1.0  0.40296  0.68683  0.21626  1.0000
  Fe  Fe114     1.0  0.33288  0.73759  0.26524  1.0000
  S   S233      1.0  0.31986  0.73894  0.31165  1.0000
  S   S234      1.0  0.34451  0.73006  0.27859  1.0000
  Fe  Fe115     1.0  0.32824  0.74989  0.19421  1.0000
  S   S235      1.0  0.31508  0.75261  0.23495  1.0000
  S   S236      1.0  0.33412  0.75559  0.12540  1.0000
  Fe  Fe116     1.0  0.32460  0.75507  0.27379  1.0000
  S   S237      1.0  0.32524  0.76772  0.30156  1.0000
  Fe  Fe117     1.0  0.31159  0.73627  0.26876  1.0000
  S   S238      1.0  0.33797  0.75366  0.22961  1.0000
  S   S239      1.0  0.32436  0.73360  0.22592  1.0000
  Fe  Fe118     1.0  0.32996  0.72678  0.94150  1.0000
  S   S240      1.0  0.32555  0.72839  0.88545  1.0000
  S   S241      1.0  0.34356  0.72176  0.94610  1.0000
  Fe  Fe119     1.0  0.31332  0.73441  0.98208  1.0000
  S   S242      1.0  0.30729  0.73646  0.92976  1.0000
  S   S243      1.0  0.30641  0.73793  0.03906  1.0000
  Fe  Fe120     1.0  0.31002  0.72160  0.92858  1.0000
  H   H990      1.0  0.29059  0.70733  0.16550  1.0000
  Fe  Fe121     1.0  0.32323  0.74303  0.89121  1.0000
  S   S244      1.0  0.32935  0.75755  0.83877  1.0000
  S   S245      1.0  0.31482  0.71915  0.98441  1.0000
  S   S246      1.0  0.32883  0.74180  0.94358  1.0000
  N   N55       1.0  0.39442  0.80621  0.51176  1.0000
  H   H991      1.0  0.47636  0.80642  0.71695  1.0000
  N   N56       1.0  0.32819  0.74902  0.42182  1.0000
  S   S247      1.0  0.29603  0.72647  0.28765  1.0000
  C   C829      1.0  0.41454  0.79733  0.02575  1.0000
  H   H992      1.0  0.37254  0.76360  0.80796  1.0000
  Fe  Fe122     1.0  0.37494  0.68105  0.93187  1.0000
  S   S248      1.0  0.37289  0.69601  0.93486  1.0000
  C   C830      1.0  0.42373  0.78592  0.00291  1.0000
  H   H993      1.0  0.31961  0.75966  0.92264  1.0000
  C   C831      1.0  0.38502  0.79882  0.52323  1.0000
  H   H994      1.0  0.34626  0.75159  0.85232  1.0000
  Fe  Fe123     1.0  0.38603  0.75268  0.97515  1.0000
  S   S249      1.0  0.39620  0.76394  0.98694  1.0000
  S   S250      1.0  0.36987  0.75145  0.99875  1.0000
  Fe  Fe124     1.0  0.40234  0.74527  0.93070  1.0000
  S   S251      1.0  0.41417  0.75602  0.93794  1.0000
  S   S252      1.0  0.40606  0.73417  0.89889  1.0000
  Fe  Fe125     1.0  0.40400  0.75208  0.00192  1.0000
  S   S253      1.0  0.40960  0.74853  0.05540  1.0000
  Fe  Fe126     1.0  0.40561  0.76718  0.92224  1.0000
  S   S254      1.0  0.41091  0.78340  0.88462  1.0000
  S   S255      1.0  0.39291  0.74043  0.99615  1.0000
  S   S256      1.0  0.39464  0.75683  0.90899  1.0000
  H   H995      1.0  0.30809  0.75805  0.91373  1.0000
  C   C832      1.0  0.38546  0.78468  0.34883  1.0000
  H   H996      1.0  0.35214  0.74863  0.14402  1.0000
  C   C833      1.0  0.38637  0.76917  0.39133  1.0000
  H   H997      1.0  0.39591  0.78363  0.40563  1.0000
  S   S257      1.0  0.44556  0.80641  0.39072  1.0000
  C   C834      1.0  0.36997  0.82212  0.60550  1.0000
  H   H998      1.0  0.26337  0.70245  0.12228  1.0000
  H   H999      1.0  0.31390  0.74422  0.15644  1.0000
  H   H1000     1.0  0.41903  0.70539  0.34951  1.0000
  C   C835      1.0  0.38790  0.78311  0.41519  1.0000
  H   H1001     1.0  0.32823  0.78628  0.91174  1.0000
  H   H1002     1.0  0.37710  0.73790  0.21233  1.0000
  C   C836      1.0  0.41122  0.67581  0.99604  1.0000
  H   H1003     1.0  0.36065  0.73318  0.20912  1.0000
  C   C837      1.0  0.37603  0.73899  0.18291  1.0000
  H   H1004     1.0  0.34297  0.72166  0.16366  1.0000
  C   C838      1.0  0.37332  0.74161  0.10715  1.0000
  C   C839      1.0  0.35043  0.72410  0.16537  1.0000
  H   H1005     1.0  0.35703  0.74412  0.08104  1.0000
  C   C840      1.0  0.31608  0.68113  0.92074  1.0000
  H   H1006     1.0  0.31948  0.75480  0.38523  1.0000
  C   C841      1.0  0.38977  0.79724  0.26783  1.0000
  C   C842      1.0  0.38403  0.74311  0.14742  1.0000
  H   H1007     1.0  0.35531  0.76011  0.88401  1.0000
  C   C843      1.0  0.40210  0.80310  0.48486  1.0000
  Fe  Fe127     1.0  0.26519  0.67921  0.24393  1.0000
  H   H1008     1.0  0.41688  0.70416  0.30420  1.0000
  H   H1009     1.0  0.35625  0.77141  0.18202  1.0000
  H   H1010     1.0  0.41156  0.68414  0.89718  1.0000
  C   C844      1.0  0.42039  0.82369  0.79219  1.0000
  C   C845      1.0  0.38269  0.74437  0.10966  1.0000
  C   C846      1.0  0.36497  0.73749  0.14282  1.0000
  C   C847      1.0  0.43393  0.67769  0.33623  1.0000
  H   H1011     1.0  0.34736  0.74006  0.88138  1.0000
  C   C848      1.0  0.36407  0.81251  0.62336  1.0000
  N   N57       1.0  0.35490  0.73466  0.14155  1.0000
  H   H1012     1.0  0.35094  0.74360  0.82639  1.0000
  H   H1013     1.0  0.35501  0.71935  0.15398  1.0000
  H   H1014     1.0  0.36603  0.67721  0.12192  1.0000
  C   C849      1.0  0.42269  0.79076  0.87497  1.0000
  C   C850      1.0  0.42402  0.80100  0.86514  1.0000
  C   C851      1.0  0.43333  0.80717  0.85550  1.0000
  C   C852      1.0  0.44146  0.80320  0.85497  1.0000
  C   C853      1.0  0.44014  0.79294  0.86518  1.0000
  C   C854      1.0  0.43078  0.78673  0.87524  1.0000
  H   H1015     1.0  0.41783  0.80420  0.86476  1.0000
  H   H1016     1.0  0.43422  0.81504  0.84839  1.0000
  H   H1017     1.0  0.44640  0.78980  0.86450  1.0000
  H   H1018     1.0  0.42987  0.77886  0.88197  1.0000
  H   H1019     1.0  0.35140  0.69385  0.86634  1.0000
  C   C855      1.0  0.38248  0.70607  0.92741  1.0000
  C   C856      1.0  0.38019  0.71351  0.94376  1.0000
  C   C857      1.0  0.38743  0.72202  0.93601  1.0000
  C   C858      1.0  0.39698  0.72327  0.91097  1.0000
  C   C859      1.0  0.39932  0.71577  0.89508  1.0000
  C   C860      1.0  0.39211  0.70714  0.90353  1.0000
  H   H1020     1.0  0.37276  0.71273  0.96230  1.0000
  H   H1021     1.0  0.38559  0.72769  0.94873  1.0000
  H   H1022     1.0  0.40671  0.71668  0.87576  1.0000
  H   H1023     1.0  0.39391  0.70147  0.89054  1.0000
  H   H1024     1.0  0.30898  0.67912  0.91717  1.0000
  C   C861      1.0  0.43124  0.68280  0.30393  1.0000
  H   H1025     1.0  0.44961  0.81277  0.28350  1.0000
  H   H1026     1.0  0.31488  0.69571  0.92029  1.0000
  C   C862      1.0  0.42939  0.82166  0.29703  1.0000
  H   H1027     1.0  0.33691  0.76246  0.90110  1.0000
  C   C863      1.0  0.35067  0.72911  0.96514  1.0000
  C   C864      1.0  0.34644  0.73458  0.98864  1.0000
  C   C865      1.0  0.35236  0.74127  0.99968  1.0000
  C   C866      1.0  0.36254  0.74251  0.98728  1.0000
  C   C867      1.0  0.36674  0.73679  0.96508  1.0000
  C   C868      1.0  0.36080  0.73000  0.95456  1.0000
  H   H1028     1.0  0.33860  0.73368  0.99839  1.0000
  H   H1029     1.0  0.34904  0.74558  0.01729  1.0000
  H   H1030     1.0  0.37458  0.73771  0.95547  1.0000
  H   H1031     1.0  0.36410  0.72566  0.93714  1.0000
  C   C869      1.0  0.43536  0.81519  0.29224  1.0000
  H   H1032     1.0  0.45912  0.82504  0.33907  1.0000
  H   H1033     1.0  0.38894  0.74750  0.08205  1.0000
  C   C870      1.0  0.38492  0.67333  0.04696  1.0000
  H   H1034     1.0  0.34140  0.73907  0.15743  1.0000
  C   C871      1.0  0.41342  0.70223  0.33763  1.0000
  H   H1035     1.0  0.38512  0.77891  0.44829  1.0000
  C   C872      1.0  0.34887  0.74063  0.15981  1.0000
  H   H1036     1.0  0.38296  0.67585  0.01977  1.0000
  H   H1037     1.0  0.38471  0.76662  0.12673  1.0000
  C   C873      1.0  0.34816  0.78613  0.83959  1.0000
  Fe  Fe128     1.0  0.38618  0.81689  0.75086  1.0000
  H   H1038     1.0  0.40976  0.69880  0.91565  1.0000
  H   H1039     1.0  0.36628  0.75646  0.78434  1.0000
  Fe  Fe129     1.0  0.36191  0.80360  0.38269  1.0000
  C   C874      1.0  0.32651  0.75024  0.10219  1.0000
  C   C875      1.0  0.33016  0.75139  0.06063  1.0000
  C   C876      1.0  0.32413  0.74742  0.04129  1.0000
  C   C877      1.0  0.31436  0.74240  0.06321  1.0000
  C   C878      1.0  0.31071  0.74130  0.10479  1.0000
  C   C879      1.0  0.31680  0.74511  0.12435  1.0000
  H   H1040     1.0  0.33763  0.75547  0.04323  1.0000
  H   H1041     1.0  0.32699  0.74860  0.00915  1.0000
  H   H1042     1.0  0.34943  0.72253  0.19841  1.0000
  H   H1043     1.0  0.32518  0.78305  0.33881  1.0000
  H   H1044     1.0  0.42158  0.81922  0.30288  1.0000
  C   C880      1.0  0.38811  0.68012  0.06505  1.0000
  C   C881      1.0  0.27525  0.71086  0.02107  1.0000
  H   H1045     1.0  0.29681  0.76887  0.93361  1.0000
  C   C882      1.0  0.43342  0.83117  0.29536  1.0000
  H   H1046     1.0  0.45513  0.80537  0.64785  1.0000
  H   H1047     1.0  0.38868  0.68785  0.05144  1.0000
  H   H1048     1.0  0.39701  0.82948  0.77085  1.0000
  H   H1049     1.0  0.34505  0.67461  0.96560  1.0000
  C   C883      1.0  0.35100  0.74630  0.85254  1.0000
  C   C884      1.0  0.42275  0.78696  0.35664  1.0000
  C   C885      1.0  0.43275  0.78729  0.34255  1.0000
  C   C886      1.0  0.43958  0.79320  0.35350  1.0000
  C   C887      1.0  0.43658  0.79892  0.37849  1.0000
  C   C888      1.0  0.42659  0.79852  0.39285  1.0000
  C   C889      1.0  0.41976  0.79266  0.38182  1.0000
  H   H1050     1.0  0.43522  0.78295  0.32339  1.0000
  H   H1051     1.0  0.44726  0.79332  0.34249  1.0000
  H   H1052     1.0  0.42415  0.80269  0.41275  1.0000
  H   H1053     1.0  0.41211  0.79257  0.39288  1.0000
  C   C890      1.0  0.40803  0.76872  0.13391  1.0000
  C   C891      1.0  0.41092  0.75995  0.14536  1.0000
  C   C892      1.0  0.41143  0.75383  0.12089  1.0000
  C   C893      1.0  0.40885  0.75635  0.08538  1.0000
  C   C894      1.0  0.40578  0.76503  0.07441  1.0000
  C   C895      1.0  0.40547  0.77125  0.09841  1.0000
  H   H1054     1.0  0.41298  0.75797  0.17263  1.0000
  H   H1055     1.0  0.41382  0.74713  0.12961  1.0000
  H   H1056     1.0  0.40382  0.76706  0.04712  1.0000
  H   H1057     1.0  0.40323  0.77803  0.08944  1.0000
  C   C896      1.0  0.35258  0.73732  0.29406  1.0000
  C   C897      1.0  0.34994  0.74510  0.30682  1.0000
  C   C898      1.0  0.35639  0.75090  0.31909  1.0000
  C   C899      1.0  0.36560  0.74915  0.31759  1.0000
  C   C900      1.0  0.36830  0.74140  0.30460  1.0000
  C   C901      1.0  0.36173  0.73541  0.29332  1.0000
  H   H1058     1.0  0.34284  0.74652  0.30812  1.0000
  H   H1059     1.0  0.35423  0.75675  0.32994  1.0000
  H   H1060     1.0  0.37535  0.73990  0.30405  1.0000
  H   H1061     1.0  0.36373  0.72930  0.28405  1.0000
  C   C902      1.0  0.40447  0.72556  0.27935  1.0000
  C   C903      1.0  0.39429  0.72361  0.29623  1.0000
  C   C904      1.0  0.38829  0.71477  0.29813  1.0000
  C   C905      1.0  0.39237  0.70785  0.28279  1.0000
  C   C906      1.0  0.40252  0.71000  0.26425  1.0000
  C   C907      1.0  0.40853  0.71879  0.26274  1.0000
  H   H1062     1.0  0.39105  0.72873  0.30921  1.0000
  H   H1063     1.0  0.38044  0.71320  0.31242  1.0000
  H   H1064     1.0  0.40577  0.70478  0.25212  1.0000
  H   H1065     1.0  0.41640  0.72028  0.24938  1.0000
  C   C908      1.0  0.35617  0.83462  0.47758  1.0000
  C   C909      1.0  0.44538  0.81819  0.28580  1.0000
  C   C910      1.0  0.43300  0.77743  0.04227  1.0000
  C   C911      1.0  0.27927  0.68493  0.06536  1.0000
  H   H1066     1.0  0.34220  0.70003  0.96207  1.0000
  S   S258      1.0  0.38786  0.67456  0.93298  1.0000
  S   S259      1.0  0.37062  0.67368  0.88912  1.0000
  S   S260      1.0  0.37409  0.82901  0.63457  1.0000
  C   C912      1.0  0.32863  0.69320  0.92652  1.0000
  C   C913      1.0  0.35439  0.73619  0.09972  1.0000
  N   N58       1.0  0.36109  0.75093  0.84975  1.0000
  C   C914      1.0  0.36021  0.75496  0.88405  1.0000
  C   C915      1.0  0.36529  0.75922  0.81091  1.0000
  C   C916      1.0  0.36755  0.74401  0.85118  1.0000
  C   C917      1.0  0.36451  0.73409  0.85243  1.0000
  C   C918      1.0  0.37731  0.74718  0.85069  1.0000
  C   C919      1.0  0.37085  0.72781  0.85330  1.0000
  C   C920      1.0  0.38355  0.74079  0.85191  1.0000
  C   C921      1.0  0.38034  0.73115  0.85300  1.0000
  H   H1067     1.0  0.36733  0.75907  0.88353  1.0000
  H   H1068     1.0  0.35706  0.74895  0.91366  1.0000
  H   H1069     1.0  0.36043  0.76440  0.80817  1.0000
  Fe  Fe130     1.0  0.43454  0.83445  0.43893  1.0000
  C   C922      1.0  0.35700  0.67064  0.09267  1.0000
  H   H1070     1.0  0.35719  0.73090  0.85381  1.0000
  H   H1071     1.0  0.38018  0.75459  0.84962  1.0000
  H   H1072     1.0  0.36834  0.72021  0.85522  1.0000
  H   H1073     1.0  0.39092  0.74326  0.85240  1.0000
  H   H1074     1.0  0.38518  0.72621  0.85421  1.0000
  H   H1075     1.0  0.34089  0.81713  0.56495  1.0000
  Fe  Fe131     1.0  0.40328  0.67164  0.25135  1.0000
  C   C923      1.0  0.34734  0.69928  0.93457  1.0000
  C   C924      1.0  0.31942  0.69048  0.92250  1.0000
  H   H1076     1.0  0.43214  0.80771  0.29459  1.0000
  C   C925      1.0  0.33115  0.67706  0.92705  1.0000
  H   H1077     1.0  0.35872  0.73189  0.08379  1.0000
  H   H1078     1.0  0.34673  0.73391  0.09986  1.0000
  H   H1079     1.0  0.37283  0.74283  0.07688  1.0000
  N   N59       1.0  0.40972  0.69144  0.35799  1.0000
  C   C926      1.0  0.44347  0.83430  0.28840  1.0000
  C   C927      1.0  0.28447  0.71536  0.02028  1.0000
  C   C928      1.0  0.34559  0.68216  0.96783  1.0000
  C   C929      1.0  0.36962  0.82135  0.53861  1.0000
  H   H1080     1.0  0.41351  0.80237  0.04317  1.0000
  H   H1081     1.0  0.26992  0.70059  0.28607  1.0000
  C   C930      1.0  0.30137  0.77065  0.95229  1.0000
  C   C931      1.0  0.41720  0.78440  0.98079  1.0000
  H   H1082     1.0  0.30089  0.77806  0.95479  1.0000
  H   H1083     1.0  0.37861  0.80113  0.53930  1.0000
  N   N60       1.0  0.27698  0.67985  0.03687  1.0000
  C   C932      1.0  0.43377  0.79819  0.72515  1.0000
  H   H1084     1.0  0.44044  0.81861  0.64477  1.0000
  C   C933      1.0  0.33481  0.68655  0.92874  1.0000
  C   C934      1.0  0.41877  0.82545  0.40158  1.0000
  H   H1085     1.0  0.41982  0.83062  0.51362  1.0000
  S   S261      1.0  0.43350  0.81898  0.47561  1.0000
  C   C935      1.0  0.38810  0.70585  0.16734  1.0000
  H   H1086     1.0  0.30584  0.71487  0.24073  1.0000
  H   H1087     1.0  0.30316  0.73751  0.12206  1.0000
  H   H1088     1.0  0.29342  0.71925  0.05426  1.0000
  H   H1089     1.0  0.38344  0.79766  0.49596  1.0000
  H   H1090     1.0  0.38269  0.81053  0.57502  1.0000
  S   S262      1.0  0.39753  0.81239  0.36812  1.0000
  C   C936      1.0  0.31997  0.74356  0.45985  1.0000
  H   H1091     1.0  0.38487  0.76414  0.42267  1.0000
  H   H1092     1.0  0.29784  0.76520  0.98335  1.0000
  C   C937      1.0  0.41585  0.83381  0.40748  1.0000
  C   C938      1.0  0.33929  0.78669  0.34693  1.0000
  S   S263      1.0  0.36250  0.82545  0.75669  1.0000
  N   N61       1.0  0.34476  0.68926  0.93143  1.0000
  C   C939      1.0  0.34522  0.74723  0.42265  1.0000
  S   S264      1.0  0.44510  0.83384  0.38277  1.0000
  H   H1093     1.0  0.34797  0.73918  0.19262  1.0000
  H   H1094     1.0  0.39129  0.74523  0.14928  1.0000
  C   C940      1.0  0.33711  0.76826  0.83917  1.0000
  H   H1095     1.0  0.38683  0.79068  0.41122  1.0000
  C   C941      1.0  0.29168  0.71609  0.27346  1.0000
  N   N62       1.0  0.28069  0.71149  0.13283  1.0000
  H   H1096     1.0  0.29927  0.70025  0.22351  1.0000
  C   C942      1.0  0.33946  0.76879  0.87394  1.0000
  C   C943      1.0  0.34385  0.77256  0.30936  1.0000
  C   C944      1.0  0.36664  0.73626  0.18075  1.0000
  C   C945      1.0  0.37743  0.76731  0.12734  1.0000
  H   H1097     1.0  0.40743  0.70614  0.34223  1.0000
  S   S265      1.0  0.37631  0.82322  0.41930  1.0000
  H   H1098     1.0  0.28416  0.71569  0.91314  1.0000
  S   S266      1.0  0.37660  0.81791  0.80872  1.0000
  H   H1099     1.0  0.38020  0.78559  0.16934  1.0000
  H   H1100     1.0  0.39434  0.77086  0.37519  1.0000
  H   H1101     1.0  0.32564  0.76333  0.42198  1.0000
  C   C946      1.0  0.28620  0.71548  0.05656  1.0000
  H   H1102     1.0  0.37043  0.77192  0.44660  1.0000
  H   H1103     1.0  0.38882  0.77843  0.15746  1.0000
  H   H1104     1.0  0.38524  0.77957  0.20703  1.0000
  H   H1105     1.0  0.44253  0.79512  0.98682  1.0000
  H   H1106     1.0  0.31082  0.77452  0.87317  1.0000
  N   N63       1.0  0.38303  0.77826  0.39150  1.0000
  C   C947      1.0  0.31195  0.76028  0.93396  1.0000
  C   C948      1.0  0.37229  0.77543  0.41322  1.0000
  C   C949      1.0  0.38245  0.77877  0.18176  1.0000
  H   H1107     1.0  0.40983  0.68462  0.03609  1.0000
  C   C950      1.0  0.37458  0.76644  0.09401  1.0000
  H   H1108     1.0  0.38274  0.76507  0.37518  1.0000
  C   C951      1.0  0.31524  0.77697  0.89122  1.0000
  H   H1109     1.0  0.36913  0.78196  0.40822  1.0000
  H   H1110     1.0  0.30846  0.75468  0.96470  1.0000
  N   N64       1.0  0.31169  0.77042  0.93429  1.0000
  C   C952      1.0  0.40981  0.69267  0.97675  1.0000
  H   H1111     1.0  0.36829  0.76997  0.40284  1.0000
  H   H1112     1.0  0.37256  0.77759  0.33782  1.0000
  C   C953      1.0  0.33234  0.78151  0.33408  1.0000
  H   H1113     1.0  0.32291  0.77698  0.87549  1.0000
  H   H1114     1.0  0.30908  0.76119  0.01509  1.0000
  H   H1115     1.0  0.39043  0.77856  0.89355  1.0000
  C   C954      1.0  0.39433  0.79215  0.32861  1.0000
  H   H1116     1.0  0.33892  0.77634  0.77701  1.0000
  H   H1117     1.0  0.37958  0.76505  0.06898  1.0000
  C   C955      1.0  0.31504  0.76774  0.00091  1.0000
  C   C956      1.0  0.37918  0.78339  0.32560  1.0000
  C   C957      1.0  0.35886  0.76912  0.12491  1.0000
  C   C958      1.0  0.36530  0.76730  0.09288  1.0000
  H   H1118     1.0  0.37184  0.75426  0.22118  1.0000
  C   C959      1.0  0.36163  0.77001  0.15839  1.0000
  H   H1119     1.0  0.38439  0.76053  0.19089  1.0000
  H   H1120     1.0  0.36889  0.77102  0.25624  1.0000
  C   C960      1.0  0.31753  0.77330  0.95912  1.0000
  Fe  Fe132     1.0  0.36400  0.81007  0.45761  1.0000
  H   H1121     1.0  0.36393  0.77772  0.22054  1.0000
  C   C961      1.0  0.37101  0.76904  0.16078  1.0000
  N   N65       1.0  0.37423  0.76993  0.19568  1.0000
  H   H1122     1.0  0.39982  0.79336  0.34294  1.0000
  C   C962      1.0  0.39636  0.79837  0.28890  1.0000
  C   C963      1.0  0.36638  0.77083  0.22970  1.0000
  C   C964      1.0  0.27955  0.68913  0.90639  1.0000
  C   C965      1.0  0.41030  0.69239  0.93790  1.0000
  C   C966      1.0  0.33452  0.77438  0.31533  1.0000
  C   C967      1.0  0.45039  0.80417  0.67830  1.0000
  C   C968      1.0  0.38122  0.78972  0.28605  1.0000
  H   H1123     1.0  0.41550  0.81267  0.38346  1.0000
  C   C969      1.0  0.32564  0.78166  0.94325  1.0000
  C   C970      1.0  0.37764  0.76113  0.21248  1.0000
  H   H1124     1.0  0.35992  0.76443  0.24118  1.0000
  H   H1125     1.0  0.31813  0.76613  0.05731  1.0000
  C   C971      1.0  0.28908  0.70719  0.13690  1.0000
  H   H1126     1.0  0.33742  0.79210  0.36141  1.0000
  C   C972      1.0  0.32019  0.77050  0.02542  1.0000
  H   H1127     1.0  0.31486  0.78469  0.88899  1.0000
  H   H1128     1.0  0.43500  0.68300  0.27322  1.0000
  H   H1129     1.0  0.26065  0.70260  0.05888  1.0000
  S   S267      1.0  0.35454  0.81294  0.41726  1.0000
  H   H1130     1.0  0.28757  0.69935  0.13791  1.0000
  H   H1131     1.0  0.34634  0.77808  0.90176  1.0000
  H   H1132     1.0  0.41234  0.71704  0.13011  1.0000
  C   C973      1.0  0.29802  0.71181  0.25059  1.0000
  C   C974      1.0  0.27875  0.71097  0.09497  1.0000
  H   H1133     1.0  0.29373  0.68920  0.91393  1.0000
  H   H1134     1.0  0.27389  0.71091  0.99282  1.0000
  C   C975      1.0  0.34486  0.77768  0.87422  1.0000
  C   C976      1.0  0.34066  0.77664  0.80414  1.0000
  H   H1135     1.0  0.46716  0.82027  0.63847  1.0000
  C   C977      1.0  0.27247  0.69448  0.90276  1.0000
  H   H1136     1.0  0.32027  0.74264  0.38781  1.0000
  S   S268      1.0  0.44410  0.82115  0.56033  1.0000
  H   H1137     1.0  0.38121  0.70737  0.16252  1.0000
  H   H1138     1.0  0.34566  0.76714  0.29492  1.0000
  H   H1139     1.0  0.29601  0.71130  0.11179  1.0000
  H   H1140     1.0  0.38650  0.80388  0.85961  1.0000
  C   C978      1.0  0.41583  0.83453  0.60608  1.0000
  C   C979      1.0  0.28999  0.70292  0.91512  1.0000
  H   H1141     1.0  0.27393  0.70671  0.19822  1.0000
  H   H1142     1.0  0.39516  0.78306  0.83937  1.0000
  C   C980      1.0  0.34857  0.78476  0.34158  1.0000
  C   C981      1.0  0.27223  0.70615  0.17039  1.0000
  C   C982      1.0  0.40351  0.82779  0.77677  1.0000
  C   C983      1.0  0.29425  0.70349  0.24093  1.0000
  C   C984      1.0  0.33145  0.75920  0.42243  1.0000
  S   S269      1.0  0.45334  0.81101  0.83992  1.0000
  H   H1143     1.0  0.36305  0.76652  0.06723  1.0000
  H   H1144     1.0  0.41087  0.72760  0.07189  1.0000
  C   C985      1.0  0.38823  0.78056  0.86570  1.0000
  H   H1145     1.0  0.40480  0.70955  0.18036  1.0000
  H   H1146     1.0  0.41332  0.72987  0.00004  1.0000
  H   H1147     1.0  0.34866  0.79196  0.77736  1.0000
  C   C986      1.0  0.39804  0.71516  0.09523  1.0000
  H   H1148     1.0  0.40242  0.72914  0.13084  1.0000
  H   H1149     1.0  0.38389  0.77382  0.86368  1.0000
  C   C987      1.0  0.28295  0.70830  0.91134  1.0000
  C   C988      1.0  0.40557  0.71108  0.14755  1.0000
  C   C989      1.0  0.39576  0.72300  0.14782  1.0000
  H   H1150     1.0  0.38865  0.69852  0.16414  1.0000
  N   N66       1.0  0.38275  0.78835  0.86572  1.0000
  H   H1151     1.0  0.40678  0.70435  0.13946  1.0000
  H   H1152     1.0  0.38589  0.70297  0.10311  1.0000
  H   H1153     1.0  0.39444  0.72206  0.18076  1.0000
  H   H1154     1.0  0.27020  0.69814  0.17451  1.0000
  N   N67       1.0  0.39681  0.71374  0.13877  1.0000
  H   H1155     1.0  0.38759  0.81844  0.50483  1.0000
  C   C990      1.0  0.40584  0.72269  0.06436  1.0000
  C   C991      1.0  0.40122  0.71788  0.01125  1.0000
  C   C992      1.0  0.32804  0.77877  0.00906  1.0000
  H   H1156     1.0  0.38954  0.72546  0.13953  1.0000
  H   H1157     1.0  0.26573  0.70924  0.17039  1.0000
  C   C993      1.0  0.33078  0.78431  0.96803  1.0000
  C   C994      1.0  0.34622  0.78551  0.80421  1.0000
  H   H1158     1.0  0.26898  0.70841  0.90157  1.0000
  C   C995      1.0  0.39187  0.70905  0.08205  1.0000
  C   C996      1.0  0.35077  0.77765  0.32261  1.0000
  H   H1159     1.0  0.33198  0.78085  0.02833  1.0000
  H   H1160     1.0  0.38731  0.70507  0.19980  1.0000
  H   H1161     1.0  0.40250  0.71890  0.97924  1.0000
  S   S270      1.0  0.30082  0.70745  0.92581  1.0000
  H   H1162     1.0  0.46134  0.81662  0.31153  1.0000
  H   H1163     1.0  0.39143  0.79609  0.89304  1.0000
  C   C997      1.0  0.27431  0.70413  0.90494  1.0000
  H   H1164     1.0  0.38871  0.70572  0.03107  1.0000
  C   C998      1.0  0.39346  0.71046  0.04059  1.0000
  H   H1165     1.0  0.33690  0.79075  0.95517  1.0000
  H   H1166     1.0  0.35160  0.76973  0.12404  1.0000
  C   C999      1.0  0.39654  0.80720  0.54876  1.0000
  C   C1000     1.0  0.40737  0.72401  0.02308  1.0000
  C   C1001     1.0  0.38003  0.79054  0.82802  1.0000
  H   H1167     1.0  0.37463  0.78418  0.82842  1.0000
  N   N68       1.0  0.46047  0.83088  0.27583  1.0000
  H   H1168     1.0  0.31391  0.74740  0.46347  1.0000
  H   H1169     1.0  0.33069  0.75272  0.35736  1.0000
  H   H1170     1.0  0.40047  0.82160  0.47838  1.0000
  H   H1171     1.0  0.33788  0.76355  0.39518  1.0000
  H   H1172     1.0  0.35910  0.76616  0.98597  1.0000
  C   C1002     1.0  0.39357  0.81583  0.48761  1.0000
  H   H1173     1.0  0.35786  0.77601  0.31834  1.0000
  H   H1174     1.0  0.44779  0.78586  0.97100  1.0000
  C   C1003     1.0  0.41338  0.81926  0.38704  1.0000
  H   H1175     1.0  0.32242  0.74274  0.48704  1.0000
  C   C1004     1.0  0.27774  0.70365  0.27601  1.0000
  C   C1005     1.0  0.38955  0.79728  0.86441  1.0000
  C   C1006     1.0  0.37034  0.77596  0.93117  1.0000
  S   S271      1.0  0.27984  0.68901  0.23874  1.0000
  S   S272      1.0  0.25135  0.68307  0.12776  1.0000
  C   C1007     1.0  0.40730  0.80742  0.59083  1.0000
  H   H1176     1.0  0.40927  0.80862  0.47290  1.0000
  Fe  Fe133     1.0  0.44497  0.81875  0.42006  1.0000
  S   S273      1.0  0.26152  0.68972  0.89348  1.0000
  H   H1177     1.0  0.37421  0.77024  0.93002  1.0000
  C   C1008     1.0  0.41800  0.68668  0.35124  1.0000
  C   C1009     1.0  0.28409  0.69933  0.25350  1.0000
  H   H1178     1.0  0.33339  0.75925  0.45024  1.0000
  C   C1010     1.0  0.37378  0.78552  0.90154  1.0000
  C   C1011     1.0  0.28152  0.71193  0.28602  1.0000
  H   H1179     1.0  0.40536  0.68938  0.30700  1.0000
  H   H1180     1.0  0.40025  0.80237  0.45747  1.0000
  H   H1181     1.0  0.35628  0.67764  0.07511  1.0000
  C   C1012     1.0  0.36164  0.77350  0.96381  1.0000
  C   C1013     1.0  0.35617  0.78040  0.96811  1.0000
  H   H1182     1.0  0.39193  0.81541  0.45953  1.0000
  H   H1183     1.0  0.34742  0.70511  0.90719  1.0000
  C   C1014     1.0  0.26781  0.70623  0.05821  1.0000
  H   H1184     1.0  0.43875  0.77322  0.04209  1.0000
  C   C1015     1.0  0.34186  0.72925  0.40784  1.0000
  S   S274      1.0  0.35748  0.79056  0.35963  1.0000
  H   H1185     1.0  0.35969  0.69130  0.89440  1.0000
  S   S275      1.0  0.35391  0.79741  0.84331  1.0000
  H   H1186     1.0  0.40480  0.78795  0.96401  1.0000
  H   H1187     1.0  0.40777  0.83230  0.68863  1.0000
  C   C1016     1.0  0.39143  0.81071  0.61341  1.0000
  C   C1017     1.0  0.44686  0.80490  0.74694  1.0000
  C   C1018     1.0  0.32192  0.67442  0.92316  1.0000
  H   H1188     1.0  0.39974  0.67945  0.35397  1.0000
  C   C1019     1.0  0.35935  0.78982  0.93970  1.0000
  H   H1189     1.0  0.35958  0.74500  0.42059  1.0000
  H   H1190     1.0  0.36997  0.79966  0.88509  1.0000
  C   C1020     1.0  0.33451  0.73438  0.41188  1.0000
  H   H1191     1.0  0.33546  0.67162  0.92829  1.0000
  C   C1021     1.0  0.36799  0.79235  0.90688  1.0000
  C   C1022     1.0  0.40234  0.82994  0.38250  1.0000
  C   C1023     1.0  0.26949  0.70622  0.09472  1.0000
  H   H1192     1.0  0.38511  0.79160  0.54351  1.0000
  H   H1193     1.0  0.34710  0.75419  0.42763  1.0000
  H   H1194     1.0  0.42437  0.76737  0.00161  1.0000
  H   H1195     1.0  0.34943  0.77841  0.99344  1.0000
  C   C1024     1.0  0.42224  0.79267  0.02489  1.0000
  C   C1025     1.0  0.44637  0.82508  0.62814  1.0000
  C   C1026     1.0  0.40240  0.68760  0.34056  1.0000
  H   H1196     1.0  0.41136  0.80466  0.53459  1.0000
  C   C1027     1.0  0.42151  0.82430  0.65545  1.0000
  H   H1197     1.0  0.32768  0.73109  0.40898  1.0000
  H   H1198     1.0  0.35504  0.79519  0.94248  1.0000
  C   C1028     1.0  0.44048  0.79984  0.68695  1.0000
  S   S276      1.0  0.37036  0.79993  0.42653  1.0000
  C   C1029     1.0  0.33603  0.74363  0.41861  1.0000
  H   H1199     1.0  0.40308  0.80414  0.27466  1.0000
  C   C1030     1.0  0.40450  0.68975  0.40167  1.0000
  C   C1031     1.0  0.41489  0.81739  0.77829  1.0000
  C   C1032     1.0  0.28826  0.69336  0.91210  1.0000
  H   H1200     1.0  0.35279  0.68438  0.97213  1.0000
  H   H1201     1.0  0.47342  0.82366  0.70710  1.0000
  H   H1202     1.0  0.27652  0.71512  0.30381  1.0000
  Fe  Fe134     1.0  0.36438  0.81068  0.79084  1.0000
  H   H1203     1.0  0.31678  0.73602  0.46038  1.0000
  H   H1204     1.0  0.43739  0.76919  0.98608  1.0000
  C   C1033     1.0  0.32453  0.74980  0.38669  1.0000
  C   C1034     1.0  0.28318  0.72192  0.13123  1.0000
  C   C1035     1.0  0.36362  0.81178  0.55649  1.0000
  H   H1205     1.0  0.28450  0.72260  0.15965  1.0000
  H   H1206     1.0  0.42705  0.79449  0.04143  1.0000
  H   H1207     1.0  0.47080  0.80874  0.64340  1.0000
  H   H1208     1.0  0.28475  0.68214  0.07857  1.0000
  C   C1036     1.0  0.35084  0.73305  0.41130  1.0000
  C   C1037     1.0  0.35248  0.74196  0.41903  1.0000
  C   C1038     1.0  0.43697  0.80069  0.75512  1.0000
  C   C1039     1.0  0.42342  0.68726  0.31116  1.0000
  H   H1209     1.0  0.43799  0.79792  0.66354  1.0000
  H   H1210     1.0  0.35124  0.68137  0.89208  1.0000
  H   H1211     1.0  0.37661  0.79689  0.82407  1.0000
  H   H1212     1.0  0.40310  0.79584  0.50102  1.0000
  S   S277      1.0  0.37426  0.80871  0.73524  1.0000
  Fe  Fe135     1.0  0.45440  0.82707  0.80790  1.0000
  C   C1040     1.0  0.41037  0.68443  0.00563  1.0000
  H   H1213     1.0  0.38655  0.79249  0.80026  1.0000
  H   H1214     1.0  0.35479  0.70108  0.93719  1.0000
  H   H1215     1.0  0.27720  0.72555  0.12703  1.0000
  H   H1216     1.0  0.43504  0.78329  0.05517  1.0000
  H   H1217     1.0  0.35624  0.80000  0.61314  1.0000
  H   H1218     1.0  0.36186  0.80906  0.65600  1.0000
  H   H1219     1.0  0.38600  0.81261  0.63543  1.0000
  C   C1041     1.0  0.45387  0.80698  0.70802  1.0000
  H   H1220     1.0  0.39657  0.79933  0.83878  1.0000
  H   H1221     1.0  0.42157  0.69102  0.28502  1.0000
  Fe  Fe136     1.0  0.38192  0.81337  0.38494  1.0000
  S   S278      1.0  0.35947  0.80502  0.52704  1.0000
  S   S279      1.0  0.45761  0.82487  0.43909  1.0000
  H   H1222     1.0  0.43175  0.79928  0.78503  1.0000
  Fe  Fe137     1.0  0.44601  0.82617  0.49238  1.0000
  C   C1042     1.0  0.40959  0.78917  0.98155  1.0000
  H   H1223     1.0  0.41713  0.81087  0.77411  1.0000
  C   C1043     1.0  0.45052  0.83035  0.64970  1.0000
  C   C1044     1.0  0.36089  0.80740  0.59896  1.0000
  H   H1224     1.0  0.39824  0.69333  0.40555  1.0000
  C   C1045     1.0  0.44978  0.82785  0.28348  1.0000
  H   H1225     1.0  0.28996  0.72629  0.10583  1.0000
  Fe  Fe138     1.0  0.37320  0.82376  0.70169  1.0000
  H   H1226     1.0  0.46371  0.83400  0.21121  1.0000
  C   C1046     1.0  0.40823  0.79558  0.00413  1.0000
  H   H1227     1.0  0.40888  0.69924  0.98470  1.0000
  C   C1047     1.0  0.40501  0.82130  0.37877  1.0000
  H   H1228     1.0  0.42500  0.82352  0.40933  1.0000
  H   H1229     1.0  0.42663  0.82183  0.79983  1.0000
  S   S280      1.0  0.39986  0.81188  0.75094  1.0000
  H   H1230     1.0  0.47797  0.81868  0.65105  1.0000
  C   C1048     1.0  0.40649  0.81948  0.77022  1.0000
  H   H1231     1.0  0.40232  0.79927  0.00450  1.0000
  H   H1232     1.0  0.39611  0.83177  0.37442  1.0000
  H   H1233     1.0  0.39589  0.69078  0.34624  1.0000
  S   S281      1.0  0.37416  0.81665  0.33918  1.0000
  C   C1049     1.0  0.40553  0.80625  0.55577  1.0000
  H   H1234     1.0  0.42608  0.79493  0.73170  1.0000
  C   C1050     1.0  0.38959  0.80952  0.57859  1.0000
  H   H1235     1.0  0.42600  0.77237  0.06411  1.0000
  Fe  Fe139     1.0  0.36760  0.82565  0.37656  1.0000
  H   H1236     1.0  0.47109  0.82668  0.30472  1.0000
  C   C1051     1.0  0.47028  0.81486  0.65641  1.0000
  H   H1237     1.0  0.43206  0.77553  0.95159  1.0000
  H   H1238     1.0  0.27839  0.68180  0.90391  1.0000
  H   H1239     1.0  0.40162  0.81057  0.64669  1.0000
  H   H1240     1.0  0.41420  0.81901  0.66993  1.0000
  C   C1052     1.0  0.46844  0.80361  0.72206  1.0000
  H   H1241     1.0  0.33074  0.70059  0.92751  1.0000
  H   H1242     1.0  0.28500  0.67684  0.98375  1.0000
  C   C1053     1.0  0.28632  0.68009  0.00720  1.0000
  H   H1243     1.0  0.46181  0.82524  0.70332  1.0000
  H   H1244     1.0  0.41784  0.77961  0.96237  1.0000
  C   C1054     1.0  0.44977  0.82813  0.58540  1.0000
  C   C1055     1.0  0.42099  0.68147  0.38354  1.0000
  H   H1245     1.0  0.39131  0.80218  0.23731  1.0000
  H   H1246     1.0  0.46277  0.81757  0.74960  1.0000
  S   S282      1.0  0.26750  0.67325  0.19105  1.0000
  C   C1056     1.0  0.43142  0.77302  0.98436  1.0000
  H   H1247     1.0  0.34067  0.72240  0.40104  1.0000
  C   C1057     1.0  0.42885  0.67706  0.37589  1.0000
  H   H1248     1.0  0.35662  0.72920  0.40701  1.0000
  H   H1249     1.0  0.46464  0.80106  0.75561  1.0000
  C   C1058     1.0  0.37275  0.82649  0.56299  1.0000
  H   H1250     1.0  0.44079  0.79223  0.94353  1.0000
  C   C1059     1.0  0.46313  0.82454  0.30900  1.0000
  H   H1251     1.0  0.37605  0.78884  0.26985  1.0000
  N   N69       1.0  0.43215  0.78134  0.00107  1.0000
  C   C1060     1.0  0.40024  0.80962  0.61964  1.0000
  H   H1252     1.0  0.37173  0.82483  0.50608  1.0000
  H   H1253     1.0  0.29029  0.71882  0.99132  1.0000
  H   H1254     1.0  0.40941  0.69292  0.41643  1.0000
  S   S283      1.0  0.44609  0.82921  0.76366  1.0000
  N   N70       1.0  0.46437  0.81126  0.70038  1.0000
  C   C1061     1.0  0.44122  0.78894  0.97454  1.0000
  H   H1255     1.0  0.44770  0.82790  0.68255  1.0000
  H   H1256     1.0  0.46760  0.79703  0.71178  1.0000
  S   S284      1.0  0.37947  0.67737  0.23403  1.0000
  H   H1257     1.0  0.44898  0.80643  0.77159  1.0000
  C   C1062     1.0  0.41182  0.67527  0.95665  1.0000
  H   H1258     1.0  0.42507  0.82387  0.67948  1.0000
  H   H1259     1.0  0.27554  0.69351  0.99940  1.0000
  H   H1260     1.0  0.34738  0.82921  0.59454  1.0000
  C   C1063     1.0  0.34969  0.83085  0.56173  1.0000
  H   H1261     1.0  0.34651  0.82048  0.49061  1.0000
  H   H1262     1.0  0.33977  0.68169  0.99595  1.0000
  H   H1263     1.0  0.28257  0.69296  0.04971  1.0000
  H   H1264     1.0  0.26427  0.68548  0.03574  1.0000
  H   H1265     1.0  0.41423  0.80674  0.59542  1.0000
  C   C1064     1.0  0.27145  0.68567  0.01467  1.0000
  C   C1065     1.0  0.35206  0.68892  0.89449  1.0000
  H   H1266     1.0  0.27250  0.68414  0.09058  1.0000
  H   H1267     1.0  0.27014  0.68316  0.98963  1.0000
  H   H1268     1.0  0.29073  0.67580  0.02246  1.0000
  C   C1066     1.0  0.34602  0.82404  0.54517  1.0000
  C   C1067     1.0  0.41135  0.68386  0.92769  1.0000
  H   H1269     1.0  0.42593  0.82161  0.63214  1.0000
  C   C1068     1.0  0.39067  0.67692  0.10030  1.0000
  H   H1270     1.0  0.29088  0.68777  0.99101  1.0000
  C   C1069     1.0  0.42047  0.83231  0.57059  1.0000
  C   C1070     1.0  0.46588  0.82974  0.23668  1.0000
  H   H1271     1.0  0.46448  0.82193  0.23749  1.0000
  H   H1272     1.0  0.41731  0.68050  0.41508  1.0000
  H   H1273     1.0  0.42867  0.83608  0.30019  1.0000
  C   C1071     1.0  0.34922  0.82593  0.50320  1.0000
  H   H1274     1.0  0.40139  0.68175  0.41872  1.0000
  H   H1275     1.0  0.42751  0.83051  0.56587  1.0000
  C   C1072     1.0  0.41611  0.83230  0.54047  1.0000
  H   H1276     1.0  0.47395  0.83237  0.22893  1.0000
  N   N71       1.0  0.42059  0.83442  0.63768  1.0000
  Fe  Fe140     1.0  0.25300  0.67595  0.18875  1.0000
  H   H1277     1.0  0.29549  0.67782  0.25695  1.0000
  S   S285      1.0  0.38616  0.83178  0.71295  1.0000
  C   C1073     1.0  0.41765  0.83221  0.79720  1.0000
  H   H1278     1.0  0.31046  0.67162  0.25292  1.0000
  C   C1074     1.0  0.40774  0.83620  0.39709  1.0000
  Fe  Fe141     1.0  0.25203  0.67413  0.90747  1.0000
  C   C1075     1.0  0.40699  0.83440  0.54480  1.0000
  H   H1279     1.0  0.40367  0.83440  0.52124  1.0000
  Fe  Fe142     1.0  0.37576  0.83248  0.77024  1.0000
  H   H1280     1.0  0.37731  0.83392  0.54890  1.0000
  H   H1281     1.0  0.42026  0.67271  0.88246  1.0000
  C   C1076     1.0  0.40910  0.83416  0.79010  1.0000
  C   C1077     1.0  0.45745  0.83655  0.56425  1.0000
  H   H1282     1.0  0.41982  0.83489  0.90770  1.0000
  H   H1283     1.0  0.43079  0.67276  0.40099  1.0000
  H   H1284     1.0  0.43976  0.67394  0.33072  1.0000
  C   C1078     1.0  0.36248  0.67042  0.11900  1.0000
  H   H1285     1.0  0.35858  0.83560  0.44529  1.0000
  C   C1079     1.0  0.29540  0.67036  0.25647  1.0000
  S   S286      1.0  0.25101  0.68288  0.23855  1.0000
  C   C1080     1.0  0.40215  0.83646  0.57950  1.0000
  C   C1081     1.0  0.40647  0.83656  0.60974  1.0000
  H   H1286     1.0  0.37644  0.86429  0.46469  1.0000
  H   H1287     1.0  0.43619  0.84122  0.90740  1.0000
  H   H1288     1.0  0.44430  0.86782  0.78533  1.0000
  H   H1289     1.0  0.42855  0.89087  0.76866  1.0000
  H   H1290     1.0  0.49675  0.95883  0.49640  1.0000
  H   H1291     1.0  0.41412  0.84504  0.66063  1.0000
  H   H1292     1.0  0.41505  0.87797  0.80230  1.0000
  H   H1293     1.0  0.49855  0.93945  0.84788  1.0000
  S   S287      1.0  0.44623  0.95754  0.83349  1.0000
  H   H1294     1.0  0.46823  0.96273  0.54923  1.0000
  S   S288      1.0  0.49337  0.90933  0.25272  1.0000
  C   C1082     1.0  0.42142  0.84155  0.91556  1.0000
  C   C1083     1.0  0.42842  0.86500  0.75391  1.0000
  H   H1295     1.0  0.47352  0.93905  0.96045  1.0000
  Fe  Fe143     1.0  0.48744  0.92058  0.27740  1.0000
  S   S289      1.0  0.47259  0.92338  0.28316  1.0000
  H   H1296     1.0  0.48055  0.97508  0.63435  1.0000
  S   S290      1.0  0.49183  0.91651  0.33294  1.0000
  Fe  Fe144     1.0  0.42037  0.91350  0.26579  1.0000
  S   S291      1.0  0.43116  0.91155  0.21235  1.0000
  S   S292      1.0  0.42279  0.92853  0.27724  1.0000
  Fe  Fe145     1.0  0.40783  0.89225  0.28897  1.0000
  S   S293      1.0  0.41802  0.88889  0.23842  1.0000
  S   S294      1.0  0.39489  0.88028  0.33691  1.0000
  Fe  Fe146     1.0  0.42981  0.89678  0.25539  1.0000
  S   S295      1.0  0.44304  0.89104  0.25754  1.0000
  Fe  Fe147     1.0  0.41837  0.90387  0.19897  1.0000
  S   S296      1.0  0.42103  0.90619  0.13113  1.0000
  S   S297      1.0  0.41977  0.89897  0.30966  1.0000
  S   S298      1.0  0.40741  0.90701  0.24884  1.0000
  C   C1084     1.0  0.43051  0.84120  0.61930  1.0000
  N   N72       1.0  0.36777  0.85066  0.46573  1.0000
  Fe  Fe148     1.0  0.45874  0.84183  0.72367  1.0000
  Fe  Fe149     1.0  0.46812  0.99243  0.75963  1.0000
  H   H1297     1.0  0.36452  0.86010  0.50219  1.0000
  H   H1298     1.0  0.43380  0.95750  0.42880  1.0000
  C   C1085     1.0  0.46693  0.93950  0.42953  1.0000
  S   S299      1.0  0.36661  0.84127  0.34789  1.0000
  S   S300      1.0  0.44575  0.97079  0.51458  1.0000
  H   H1299     1.0  0.46345  0.98619  0.49445  1.0000
  H   H1300     1.0  0.43771  0.94967  0.50518  1.0000
  H   H1301     1.0  0.38630  0.85974  0.24997  1.0000
  Fe  Fe150     1.0  0.41692  0.90408  0.86867  1.0000
  S   S301      1.0  0.42054  0.90297  0.92578  1.0000
  S   S302      1.0  0.42294  0.91863  0.81654  1.0000
  Fe  Fe151     1.0  0.40694  0.88173  0.89580  1.0000
  S   S303      1.0  0.41014  0.87919  0.95547  1.0000
  S   S304      1.0  0.40129  0.86738  0.88308  1.0000
  Fe  Fe152     1.0  0.40557  0.89308  0.95852  1.0000
  S   S305      1.0  0.39722  0.89486  0.01845  1.0000
  Fe  Fe153     1.0  0.42487  0.88933  0.91891  1.0000
  S   S306      1.0  0.43868  0.88589  0.92798  1.0000
  S   S307      1.0  0.40121  0.89515  0.90144  1.0000
  S   S308      1.0  0.42229  0.89089  0.85933  1.0000
  H   H1302     1.0  0.47715  0.92177  0.84287  1.0000
  H   H1303     1.0  0.47657  0.93632  0.50692  1.0000
  S   S309      1.0  0.46436  0.84500  0.65489  1.0000
  C   C1086     1.0  0.46181  0.84170  0.58589  1.0000
  H   H1304     1.0  0.45322  0.93020  0.80779  1.0000
  S   S310      1.0  0.37798  0.84723  0.78399  1.0000
  C   C1087     1.0  0.48827  0.97449  0.62783  1.0000
  H   H1305     1.0  0.46047  0.84258  0.30241  1.0000
  C   C1088     1.0  0.47754  0.94574  0.93567  1.0000
  H   H1306     1.0  0.46651  0.95276  0.35981  1.0000
  C   C1089     1.0  0.48203  0.95989  0.52152  1.0000
  N   N73       1.0  0.49381  0.97812  0.58349  1.0000
  S   S311      1.0  0.45256  0.85274  0.75035  1.0000
  C   C1090     1.0  0.41374  0.92188  0.47757  1.0000
  S   S312      1.0  0.46640  0.86362  0.80820  1.0000
  C   C1091     1.0  0.46745  0.93819  0.46877  1.0000
  C   C1092     1.0  0.49897  0.97886  0.75926  1.0000
  Fe  Fe154     1.0  0.49276  0.89745  0.91948  1.0000
  S   S313      1.0  0.48290  0.89917  0.97584  1.0000
  S   S314      1.0  0.49040  0.88254  0.90765  1.0000
  Fe  Fe155     1.0  0.48340  0.91398  0.93519  1.0000
  S   S315      1.0  0.47005  0.91979  0.93654  1.0000
  H   H1307     1.0  0.49783  0.90949  0.44352  1.0000
  Fe  Fe156     1.0  0.49641  0.90709  0.98376  1.0000
  S   S316      1.0  0.49237  0.91186  0.87843  1.0000
  H   H1308     1.0  0.39817  0.87938  0.24236  1.0000
  C   C1093     1.0  0.47323  0.86870  0.83584  1.0000
  C   C1094     1.0  0.47780  0.86318  0.86003  1.0000
  C   C1095     1.0  0.48297  0.86753  0.88173  1.0000
  C   C1096     1.0  0.48359  0.87744  0.87999  1.0000
  C   C1097     1.0  0.47892  0.88293  0.85614  1.0000
  C   C1098     1.0  0.47386  0.87862  0.83406  1.0000
  H   H1309     1.0  0.47745  0.85557  0.86178  1.0000
  H   H1310     1.0  0.48656  0.86319  0.89990  1.0000
  H   H1311     1.0  0.47930  0.89054  0.85438  1.0000
  H   H1312     1.0  0.47038  0.88302  0.81558  1.0000
  H   H1313     1.0  0.43422  0.84144  0.64250  1.0000
  Fe  Fe157     1.0  0.45363  0.97383  0.44718  1.0000
  C   C1099     1.0  0.46040  0.98310  0.52722  1.0000
  C   C1100     1.0  0.43384  0.92867  0.33036  1.0000
  S   S317      1.0  0.48607  0.96620  0.39732  1.0000
  C   C1101     1.0  0.42026  0.94166  0.42912  1.0000
  H   H1314     1.0  0.38665  0.87744  0.23416  1.0000
  H   H1315     1.0  0.48820  0.96665  0.64171  1.0000
  C   C1102     1.0  0.40757  0.93316  0.85905  1.0000
  C   C1103     1.0  0.48388  0.93885  0.40596  1.0000
  C   C1104     1.0  0.39474  0.86197  0.85516  1.0000
  C   C1105     1.0  0.39006  0.86722  0.83063  1.0000
  C   C1106     1.0  0.38504  0.86260  0.80915  1.0000
  C   C1107     1.0  0.38466  0.85269  0.81136  1.0000
  C   C1108     1.0  0.38948  0.84749  0.83541  1.0000
  C   C1109     1.0  0.39444  0.85208  0.85713  1.0000
  H   H1316     1.0  0.39018  0.87480  0.82856  1.0000
  H   H1317     1.0  0.38134  0.86673  0.79083  1.0000
  C   C1110     1.0  0.49334  0.95724  0.89819  1.0000
  H   H1318     1.0  0.39804  0.84790  0.87572  1.0000
  C   C1111     1.0  0.44726  0.89553  0.92982  1.0000
  C   C1112     1.0  0.44457  0.90371  0.93903  1.0000
  C   C1113     1.0  0.45159  0.91126  0.94053  1.0000
  C   C1114     1.0  0.46130  0.91056  0.93341  1.0000
  C   C1115     1.0  0.46399  0.90238  0.92434  1.0000
  C   C1116     1.0  0.45699  0.89487  0.92261  1.0000
  H   H1319     1.0  0.43706  0.90410  0.94624  1.0000
  H   H1320     1.0  0.44945  0.91752  0.94796  1.0000
  H   H1321     1.0  0.47146  0.90175  0.91870  1.0000
  H   H1322     1.0  0.45913  0.88855  0.91567  1.0000
  H   H1323     1.0  0.43293  0.92086  0.33543  1.0000
  C   C1117     1.0  0.48433  0.93755  0.44528  1.0000
  C   C1118     1.0  0.44798  0.97162  0.58774  1.0000
  C   C1119     1.0  0.47931  0.95941  0.87632  1.0000
  N   N74       1.0  0.42616  0.87038  0.78369  1.0000
  C   C1120     1.0  0.45839  0.83861  0.62874  1.0000
  H   H1324     1.0  0.39496  0.83794  0.58317  1.0000
  C   C1121     1.0  0.47594  0.96384  0.54657  1.0000
  H   H1325     1.0  0.46788  0.84809  0.56932  1.0000
  H   H1326     1.0  0.43119  0.96203  0.47104  1.0000
  H   H1327     1.0  0.39984  0.92055  0.04338  1.0000
  H   H1328     1.0  0.43411  0.86093  0.75786  1.0000
  H   H1329     1.0  0.43442  0.93726  0.75704  1.0000
  H   H1330     1.0  0.39697  0.88643  0.19551  1.0000
  C   C1122     1.0  0.41388  0.90166  0.10399  1.0000
  C   C1123     1.0  0.40380  0.90097  0.11406  1.0000
  C   C1124     1.0  0.39870  0.89860  0.08826  1.0000
  C   C1125     1.0  0.40360  0.89685  0.05240  1.0000
  C   C1126     1.0  0.41359  0.89716  0.04330  1.0000
  C   C1127     1.0  0.41871  0.89969  0.06862  1.0000
  H   H1331     1.0  0.40003  0.90267  0.14070  1.0000
  H   H1332     1.0  0.39096  0.89832  0.09571  1.0000
  H   H1333     1.0  0.41746  0.89571  0.01613  1.0000
  H   H1334     1.0  0.42652  0.90026  0.06036  1.0000
  C   C1128     1.0  0.38858  0.86982  0.32952  1.0000
  C   C1129     1.0  0.39117  0.86077  0.33966  1.0000
  C   C1130     1.0  0.38475  0.85194  0.34354  1.0000
  C   C1131     1.0  0.37564  0.85211  0.33783  1.0000
  C   C1132     1.0  0.37331  0.86121  0.32588  1.0000
  C   C1133     1.0  0.37967  0.86997  0.32221  1.0000
  H   H1335     1.0  0.39791  0.86051  0.34654  1.0000
  H   H1336     1.0  0.38667  0.84498  0.35251  1.0000
  H   H1337     1.0  0.36630  0.86144  0.32144  1.0000
  H   H1338     1.0  0.37743  0.87682  0.31569  1.0000
  C   C1134     1.0  0.44008  0.94615  0.78936  1.0000
  C   C1135     1.0  0.47307  0.95107  0.90926  1.0000
  S   S318      1.0  0.45478  0.98543  0.74654  1.0000
  H   H1339     1.0  0.42081  0.95192  0.53645  1.0000
  H   H1340     1.0  0.48044  0.95160  0.76553  1.0000
  H   H1341     1.0  0.49382  0.96901  0.84645  1.0000
  H   H1342     1.0  0.40688  0.84069  0.79428  1.0000
  H   H1343     1.0  0.45746  0.94262  0.97953  1.0000
  H   H1344     1.0  0.49675  0.95191  0.74847  1.0000
  S   S319      1.0  0.49558  0.89111  0.35442  1.0000
  C   C1136     1.0  0.48737  0.88071  0.35424  1.0000
  C   C1137     1.0  0.48552  0.88016  0.31859  1.0000
  C   C1138     1.0  0.47664  0.86413  0.39062  1.0000
  C   C1139     1.0  0.48286  0.87266  0.39027  1.0000
  H   H1345     1.0  0.48897  0.88625  0.29059  1.0000
  H   H1346     1.0  0.47329  0.85797  0.41847  1.0000
  H   H1347     1.0  0.48425  0.87299  0.41801  1.0000
  C   C1140     1.0  0.46436  0.91422  0.27700  1.0000
  C   C1141     1.0  0.46693  0.90563  0.27210  1.0000
  C   C1142     1.0  0.46036  0.89846  0.26636  1.0000
  C   C1143     1.0  0.45110  0.89979  0.26632  1.0000
  C   C1144     1.0  0.44844  0.90829  0.27203  1.0000
  C   C1145     1.0  0.45509  0.91552  0.27714  1.0000
  H   H1348     1.0  0.47387  0.90436  0.27361  1.0000
  H   H1349     1.0  0.46246  0.89191  0.26208  1.0000
  H   H1350     1.0  0.44127  0.90935  0.27243  1.0000
  H   H1351     1.0  0.45302  0.92212  0.28123  1.0000
  H   H1352     1.0  0.47478  0.97256  0.58575  1.0000
  H   H1353     1.0  0.48759  0.92997  0.86587  1.0000
  C   C1146     1.0  0.43567  0.93830  0.86196  1.0000
  C   C1147     1.0  0.43060  0.92961  0.85881  1.0000
  C   C1148     1.0  0.43001  0.92918  0.82110  1.0000
  H   H1354     1.0  0.37866  0.87016  0.08981  1.0000
  S   S320      1.0  0.46781  0.97345  0.33993  1.0000
  H   H1355     1.0  0.43577  0.93862  0.89151  1.0000
  H   H1356     1.0  0.42683  0.92339  0.88582  1.0000
  H   H1357     1.0  0.49117  0.93700  0.45109  1.0000
  H   H1358     1.0  0.48250  0.94188  0.29477  1.0000
  C   C1149     1.0  0.41311  0.93612  0.99050  1.0000
  H   H1359     1.0  0.49111  0.98802  0.28629  1.0000
  C   C1150     1.0  0.45207  0.88239  0.77500  1.0000
  S   S321      1.0  0.46828  0.00055  0.30527  1.0000
  C   C1151     1.0  0.48890  0.97894  0.44002  1.0000
  C   C1152     1.0  0.42984  0.93409  0.30311  1.0000
  C   C1153     1.0  0.43110  0.94426  0.29733  1.0000
  C   C1154     1.0  0.43624  0.94896  0.31822  1.0000
  C   C1155     1.0  0.44324  0.89507  0.76643  1.0000
  H   H1360     1.0  0.46255  0.84652  0.24808  1.0000
  H   H1361     1.0  0.42804  0.94856  0.27651  1.0000
  H   H1362     1.0  0.43706  0.95676  0.31333  1.0000
  C   C1156     1.0  0.40404  0.92367  0.88681  1.0000
  H   H1363     1.0  0.49146  0.98938  0.47121  1.0000
  S   S322      1.0  0.49250  0.97229  0.73600  1.0000
  C   C1157     1.0  0.41326  0.92464  0.43813  1.0000
  N   N75       1.0  0.42514  0.94642  0.48583  1.0000
  S   S323      1.0  0.44598  0.94884  0.37595  1.0000
  C   C1158     1.0  0.49197  0.96161  0.51711  1.0000
  H   H1364     1.0  0.41171  0.87369  0.20667  1.0000
  H   H1365     1.0  0.37508  0.84318  0.42673  1.0000
  H   H1366     1.0  0.37933  0.84326  0.46897  1.0000
  S   S324      1.0  0.46839  0.98409  0.41062  1.0000
  C   C1159     1.0  0.46483  0.98699  0.55189  1.0000
  C   C1160     1.0  0.39466  0.87898  0.21873  1.0000
  N   N76       1.0  0.39735  0.87144  0.19988  1.0000
  H   H1367     1.0  0.42072  0.93995  0.97008  1.0000
  H   H1368     1.0  0.47199  0.84329  0.26812  1.0000
  C   C1161     1.0  0.40848  0.92950  0.93933  1.0000
  H   H1369     1.0  0.39815  0.86152  0.25488  1.0000
  C   C1162     1.0  0.44009  0.94352  0.34596  1.0000
  H   H1370     1.0  0.41340  0.93416  0.02223  1.0000
  C   C1163     1.0  0.43402  0.94404  0.49448  1.0000
  H   H1371     1.0  0.44363  0.95252  0.76245  1.0000
  C   C1164     1.0  0.46564  0.91184  0.10828  1.0000
  H   H1372     1.0  0.42168  0.86712  0.84866  1.0000
  C   C1165     1.0  0.41762  0.87436  0.77902  1.0000
  H   H1373     1.0  0.40674  0.84346  0.92558  1.0000
  H   H1374     1.0  0.41118  0.88148  0.16024  1.0000
  C   C1166     1.0  0.43883  0.93333  0.35182  1.0000
  Fe  Fe158     1.0  0.47853  0.97693  0.73994  1.0000
  C   C1167     1.0  0.36010  0.84172  0.49340  1.0000
  H   H1375     1.0  0.47661  0.96359  0.85383  1.0000
  H   H1376     1.0  0.44299  0.90270  0.76217  1.0000
  H   H1377     1.0  0.39647  0.91494  0.00935  1.0000
  H   H1378     1.0  0.40126  0.91766  0.87708  1.0000
  C   C1168     1.0  0.46081  0.93209  0.80655  1.0000
  Fe  Fe159     1.0  0.46283  0.98607  0.35752  1.0000
  H   H1379     1.0  0.37755  0.86668  0.21271  1.0000
  H   H1380     1.0  0.41530  0.94543  0.91678  1.0000
  C   C1169     1.0  0.45585  0.91290  0.11908  1.0000
  C   C1170     1.0  0.49475  0.98514  0.45320  1.0000
  N   N77       1.0  0.46257  0.94791  0.91383  1.0000
  H   H1381     1.0  0.43015  0.84883  0.60435  1.0000
  C   C1171     1.0  0.41149  0.94087  0.87075  1.0000
  N   N78       1.0  0.40928  0.92726  0.98080  1.0000
  H   H1382     1.0  0.45252  0.91474  0.14592  1.0000
  H   H1383     1.0  0.47839  0.87113  0.29062  1.0000
  C   C1172     1.0  0.49591  0.96742  0.53725  1.0000
  H   H1384     1.0  0.46105  0.91147  0.18904  1.0000
  C   C1173     1.0  0.47513  0.93983  0.39686  1.0000
  H   H1385     1.0  0.35736  0.85821  0.44743  1.0000
  Fe  Fe160     1.0  0.45295  0.96381  0.38050  1.0000
  N   N79       1.0  0.44487  0.87074  0.36075  1.0000
  C   C1174     1.0  0.45082  0.86977  0.32217  1.0000
  C   C1175     1.0  0.44482  0.86239  0.39504  1.0000
  C   C1176     1.0  0.43462  0.86976  0.36040  1.0000
  C   C1177     1.0  0.44921  0.88017  0.36515  1.0000
  C   C1178     1.0  0.44422  0.88779  0.36649  1.0000
  C   C1179     1.0  0.45882  0.88199  0.36774  1.0000
  C   C1180     1.0  0.44862  0.89662  0.37032  1.0000
  C   C1181     1.0  0.46317  0.89086  0.37132  1.0000
  C   C1182     1.0  0.45807  0.89816  0.37262  1.0000
  H   H1386     1.0  0.45850  0.86980  0.32109  1.0000
  H   H1387     1.0  0.44777  0.86275  0.31789  1.0000
  H   H1388     1.0  0.45108  0.87592  0.29552  1.0000
  H   H1389     1.0  0.45233  0.86189  0.39506  1.0000
  H   H1390     1.0  0.44125  0.85521  0.39344  1.0000
  H   H1391     1.0  0.44078  0.86302  0.42488  1.0000
  H   H1392     1.0  0.43414  0.87546  0.33384  1.0000
  H   H1393     1.0  0.43151  0.86249  0.35810  1.0000
  H   H1394     1.0  0.42971  0.87030  0.38890  1.0000
  H   H1395     1.0  0.43704  0.88727  0.36326  1.0000
  H   H1396     1.0  0.46312  0.87662  0.36637  1.0000
  H   H1397     1.0  0.44482  0.90248  0.36979  1.0000
  H   H1398     1.0  0.47063  0.89213  0.37215  1.0000
  H   H1399     1.0  0.46159  0.90517  0.37393  1.0000
  C   C1183     1.0  0.40821  0.87390  0.18265  1.0000
  C   C1184     1.0  0.45178  0.89220  0.76878  1.0000
  H   H1400     1.0  0.43106  0.87012  0.72209  1.0000
  H   H1401     1.0  0.43235  0.93682  0.51845  1.0000
  C   C1185     1.0  0.39757  0.87344  0.12705  1.0000
  C   C1186     1.0  0.38199  0.86846  0.18125  1.0000
  S   S325      1.0  0.46903  0.97789  0.79814  1.0000
  H   H1402     1.0  0.41932  0.87972  0.74815  1.0000
  C   C1187     1.0  0.37712  0.86808  0.15292  1.0000
  C   C1188     1.0  0.47450  0.92750  0.82601  1.0000
  H   H1403     1.0  0.46014  0.94057  0.42464  1.0000
  S   S326      1.0  0.45798  0.96052  0.43548  1.0000
  H   H1404     1.0  0.38928  0.83987  0.83772  1.0000
  H   H1405     1.0  0.42878  0.85923  0.83039  1.0000
  Fe  Fe161     1.0  0.47223  0.97084  0.39596  1.0000
  C   C1189     1.0  0.36420  0.85616  0.43373  1.0000
  C   C1190     1.0  0.40450  0.92183  0.92632  1.0000
  S   S327      1.0  0.47845  0.99176  0.70218  1.0000
  C   C1191     1.0  0.43494  0.88814  0.77032  1.0000
  C   C1192     1.0  0.41601  0.92069  0.98483  1.0000
  S   S328      1.0  0.46652  0.96869  0.72506  1.0000
  H   H1406     1.0  0.39669  0.87480  0.06701  1.0000
  H   H1407     1.0  0.41121  0.86841  0.78345  1.0000
  H   H1408     1.0  0.44946  0.97237  0.64533  1.0000
  H   H1409     1.0  0.47913  0.95581  0.50422  1.0000
  C   C1193     1.0  0.49645  0.93324  0.78570  1.0000
  H   H1410     1.0  0.45903  0.93315  0.95598  1.0000
  H   H1411     1.0  0.46535  0.94955  0.85022  1.0000
  H   H1412     1.0  0.48493  0.98830  0.56957  1.0000
  C   C1194     1.0  0.41794  0.94618  0.52423  1.0000
  H   H1413     1.0  0.41787  0.92646  0.52346  1.0000
  C   C1195     1.0  0.46475  0.92507  0.82728  1.0000
  H   H1414     1.0  0.46348  0.94699  0.76850  1.0000
  H   H1415     1.0  0.48485  0.93355  0.33529  1.0000
  C   C1196     1.0  0.49309  0.97339  0.41683  1.0000
  C   C1197     1.0  0.42805  0.95669  0.45767  1.0000
  H   H1416     1.0  0.41049  0.91914  0.42588  1.0000
  C   C1198     1.0  0.37083  0.85756  0.48663  1.0000
  C   C1199     1.0  0.41648  0.93450  0.41408  1.0000
  C   C1200     1.0  0.42091  0.93910  0.46918  1.0000
  S   S329      1.0  0.44745  0.97668  0.39487  1.0000
  S   S330      1.0  0.46700  0.98846  0.62372  1.0000
  H   H1417     1.0  0.41126  0.91419  0.49612  1.0000
  H   H1418     1.0  0.43942  0.94375  0.46655  1.0000
  Fe  Fe162     1.0  0.49880  0.90605  0.30631  1.0000
  H   H1419     1.0  0.46115  0.93816  0.49296  1.0000
  S   S331      1.0  0.46783  0.83914  0.76556  1.0000
  C   C1201     1.0  0.45255  0.97538  0.61250  1.0000
  N   N80       1.0  0.44339  0.85889  0.92030  1.0000
  C   C1202     1.0  0.44728  0.86808  0.88500  1.0000
  C   C1203     1.0  0.44335  0.86128  0.95800  1.0000
  C   C1204     1.0  0.45033  0.85253  0.91460  1.0000
  C   C1205     1.0  0.43331  0.85433  0.92314  1.0000
  C   C1206     1.0  0.42564  0.85911  0.93247  1.0000
  C   C1207     1.0  0.43089  0.84537  0.91489  1.0000
  C   C1208     1.0  0.41615  0.85509  0.93414  1.0000
  H   H1420     1.0  0.49265  0.95507  0.79454  1.0000
  C   C1209     1.0  0.49270  0.98817  0.56590  1.0000
  H   H1421     1.0  0.44233  0.87313  0.88577  1.0000
  H   H1422     1.0  0.45448  0.87227  0.88373  1.0000
  H   H1423     1.0  0.44829  0.86648  0.85582  1.0000
  H   H1424     1.0  0.44016  0.85458  0.98532  1.0000
  H   H1425     1.0  0.43910  0.86678  0.96303  1.0000
  H   H1426     1.0  0.45088  0.86460  0.95684  1.0000
  H   H1427     1.0  0.45150  0.85112  0.88497  1.0000
  H   H1428     1.0  0.45774  0.85612  0.91377  1.0000
  H   H1429     1.0  0.44777  0.84537  0.93967  1.0000
  H   H1430     1.0  0.42695  0.86612  0.93780  1.0000
  H   H1431     1.0  0.49763  0.90522  0.40111  1.0000
  H   H1432     1.0  0.41041  0.85889  0.94127  1.0000
  C   C1210     1.0  0.49096  0.93771  0.84655  1.0000
  Fe  Fe163     1.0  0.46070  0.84934  0.79556  1.0000
  H   H1433     1.0  0.44138  0.96573  0.60185  1.0000
  C   C1211     1.0  0.47953  0.87154  0.31868  1.0000
  H   H1434     1.0  0.45919  0.96023  0.93278  1.0000
  H   H1435     1.0  0.41319  0.91354  0.98118  1.0000
  C   C1212     1.0  0.41406  0.84638  0.92537  1.0000
  H   H1436     1.0  0.40553  0.84274  0.40106  1.0000
  C   C1213     1.0  0.47614  0.93720  0.47664  1.0000
  H   H1437     1.0  0.48168  0.99958  0.82574  1.0000
  C   C1214     1.0  0.47508  0.86347  0.35460  1.0000
  Fe  Fe164     1.0  0.44062  0.83978  0.79386  1.0000
  C   C1215     1.0  0.46093  0.98320  0.59464  1.0000
  H   H1438     1.0  0.48651  0.92181  0.12408  1.0000
  H   H1439     1.0  0.41609  0.93903  0.54881  1.0000
  C   C1216     1.0  0.48925  0.96250  0.87134  1.0000
  H   H1440     1.0  0.40545  0.87584  0.11457  1.0000
  S   S332      1.0  0.46774  0.85277  0.35251  1.0000
  C   C1217     1.0  0.41751  0.92898  0.49296  1.0000
  H   H1441     1.0  0.42288  0.94909  0.40817  1.0000
  C   C1218     1.0  0.39238  0.87113  0.16921  1.0000
  H   H1442     1.0  0.39562  0.85573  0.21902  1.0000
  C   C1219     1.0  0.35662  0.83959  0.53643  1.0000
  C   C1220     1.0  0.49546  0.98621  0.77295  1.0000
  C   C1221     1.0  0.48063  0.93712  0.80411  1.0000
  C   C1222     1.0  0.43493  0.87802  0.77739  1.0000
  H   H1443     1.0  0.37420  0.85413  0.50939  1.0000
  C   C1223     1.0  0.45186  0.97547  0.54494  1.0000
  H   H1444     1.0  0.40755  0.93446  0.82797  1.0000
  H   H1445     1.0  0.40836  0.94139  0.98799  1.0000
  C   C1224     1.0  0.49103  0.99095  0.31196  1.0000
  H   H1446     1.0  0.48559  0.91818  0.08155  1.0000
  H   H1447     1.0  0.47908  0.90444  0.16966  1.0000
  H   H1448     1.0  0.36974  0.86304  0.41282  1.0000
  C   C1225     1.0  0.45797  0.95640  0.91087  1.0000
  H   H1449     1.0  0.41100  0.94753  0.51927  1.0000
  H   H1450     1.0  0.47130  0.99303  0.53765  1.0000
  H   H1451     1.0  0.44241  0.91214  0.10461  1.0000
  H   H1452     1.0  0.47621  0.90775  0.06347  1.0000
  H   H1453     1.0  0.42188  0.85929  0.75761  1.0000
  C   C1226     1.0  0.48147  0.92058  0.10646  1.0000
  H   H1454     1.0  0.42169  0.95907  0.45026  1.0000
  H   H1455     1.0  0.41076  0.86854  0.16768  1.0000
  H   H1456     1.0  0.46017  0.83900  0.53129  1.0000
  S   S333      1.0  0.42494  0.84063  0.81103  1.0000
  C   C1227     1.0  0.47437  0.90376  0.15028  1.0000
  H   H1457     1.0  0.48010  0.92779  0.09221  1.0000
  H   H1458     1.0  0.47291  0.91793  0.18441  1.0000
  H   H1459     1.0  0.47836  0.90095  0.12634  1.0000
  H   H1460     1.0  0.40231  0.83825  0.63564  1.0000
  H   H1461     1.0  0.48875  0.98786  0.76946  1.0000
  H   H1462     1.0  0.41699  0.91891  0.01538  1.0000
  H   H1463     1.0  0.40192  0.91426  0.94625  1.0000
  H   H1464     1.0  0.49678  0.99120  0.53267  1.0000
  C   C1228     1.0  0.38242  0.87032  0.11191  1.0000
  C   C1229     1.0  0.41195  0.93913  0.91027  1.0000
  H   H1465     1.0  0.42334  0.92406  0.96122  1.0000
  H   H1466     1.0  0.39412  0.92671  0.00870  1.0000
  C   C1230     1.0  0.37659  0.84770  0.44594  1.0000
  N   N81       1.0  0.47215  0.91326  0.13268  1.0000
  H   H1467     1.0  0.46751  0.89801  0.16966  1.0000
  C   C1231     1.0  0.46783  0.91685  0.16683  1.0000
  C   C1232     1.0  0.44377  0.87537  0.77957  1.0000
  H   H1468     1.0  0.46020  0.91769  0.84476  1.0000
  H   H1469     1.0  0.46603  0.92403  0.15583  1.0000
  C   C1233     1.0  0.46897  0.90903  0.07296  1.0000
  H   H1470     1.0  0.38266  0.85422  0.42560  1.0000
  C   C1234     1.0  0.44990  0.91141  0.09548  1.0000
  C   C1235     1.0  0.42314  0.86329  0.82544  1.0000
  H   H1471     1.0  0.45874  0.88016  0.77662  1.0000
  H   H1472     1.0  0.49055  0.93929  0.38301  1.0000
  C   C1236     1.0  0.39952  0.92218  0.01178  1.0000
  H   H1473     1.0  0.48112  0.97823  0.44911  1.0000
  C   C1237     1.0  0.48338  0.94092  0.32529  1.0000
  C   C1238     1.0  0.46663  0.94156  0.78436  1.0000
  H   H1474     1.0  0.46661  0.92695  0.36592  1.0000
  H   H1475     1.0  0.44883  0.93832  0.95673  1.0000
  C   C1239     1.0  0.46297  0.90765  0.04945  1.0000
  C   C1240     1.0  0.45346  0.90885  0.06064  1.0000
  H   H1476     1.0  0.44164  0.92897  0.37339  1.0000
  C   C1241     1.0  0.47977  0.96953  0.56723  1.0000
  H   H1477     1.0  0.41634  0.85758  0.83214  1.0000
  H   H1478     1.0  0.46519  0.93754  0.88169  1.0000
  H   H1479     1.0  0.47291  0.95365  0.30884  1.0000
  H   H1480     1.0  0.49002  0.94662  0.32055  1.0000
  H   H1481     1.0  0.45891  0.93524  0.37422  1.0000
  H   H1482     1.0  0.44994  0.95409  0.91684  1.0000
  H   H1483     1.0  0.45400  0.94128  0.88303  1.0000
  C   C1242     1.0  0.39423  0.86170  0.23220  1.0000
  H   H1484     1.0  0.46567  0.90555  0.02250  1.0000
  H   H1485     1.0  0.44881  0.90766  0.04253  1.0000
  H   H1486     1.0  0.36258  0.85184  0.41394  1.0000
  C   C1243     1.0  0.46600  0.93467  0.35517  1.0000
  H   H1487     1.0  0.46077  0.96191  0.87987  1.0000
  C   C1244     1.0  0.39261  0.87292  0.09911  1.0000
  H   H1488     1.0  0.45819  0.89758  0.76601  1.0000
  Fe  Fe165     1.0  0.46540  0.98370  0.69147  1.0000
  N   N82       1.0  0.47454  0.94172  0.35513  1.0000
  C   C1245     1.0  0.43484  0.93748  0.78636  1.0000
  H   H1489     1.0  0.36918  0.86608  0.16277  1.0000
  C   C1246     1.0  0.47334  0.95182  0.34030  1.0000
  H   H1490     1.0  0.46536  0.93607  0.32411  1.0000
  C   C1247     1.0  0.46176  0.94390  0.88077  1.0000
  C   C1248     1.0  0.44039  0.94664  0.82734  1.0000
  H   H1491     1.0  0.41627  0.93658  0.38307  1.0000
  H   H1492     1.0  0.48676  0.94223  0.86135  1.0000
  Fe  Fe166     1.0  0.45673  0.97070  0.78073  1.0000
  H   H1493     1.0  0.41450  0.94819  0.84858  1.0000
  H   H1494     1.0  0.47955  0.95735  0.34035  1.0000
  C   C1249     1.0  0.45676  0.94019  0.95332  1.0000
  C   C1250     1.0  0.47640  0.94410  0.78302  1.0000
  H   H1495     1.0  0.49542  0.99335  0.58070  1.0000
  H   H1496     1.0  0.49823  0.99756  0.79952  1.0000
  S   S334      1.0  0.49701  0.90267  0.04860  1.0000
  H   H1497     1.0  0.49669  0.93454  0.75352  1.0000
  H   H1498     1.0  0.49077  0.94466  0.95051  1.0000
  S   S335      1.0  0.44596  0.84167  0.45996  1.0000
  H   H1499     1.0  0.48840  0.98472  0.34097  1.0000
  C   C1251     1.0  0.41510  0.83746  0.67167  1.0000
  S   S336      1.0  0.42194  0.84081  0.43042  1.0000
  H   H1500     1.0  0.49814  0.99495  0.36971  1.0000
  H   H1501     1.0  0.35930  0.84439  0.55155  1.0000
  C   C1252     1.0  0.48988  0.97157  0.56305  1.0000
  H   H1502     1.0  0.44607  0.84173  0.28782  1.0000
  H   H1503     1.0  0.43549  0.83896  0.59595  1.0000
  N   N83       1.0  0.49087  0.93952  0.80414  1.0000
  Fe  Fe167     1.0  0.45671  0.84009  0.40559  1.0000
  H   H1504     1.0  0.49965  0.97711  0.31059  1.0000
  S   S337      1.0  0.49592  0.92212  0.94785  1.0000
  H   H1505     1.0  0.48537  0.99526  0.31377  1.0000
  H   H1506     1.0  0.49147  0.97884  0.64462  1.0000
  C   C1253     1.0  0.48752  0.94885  0.93010  1.0000
  C   C1254     1.0  0.46397  0.84127  0.27339  1.0000
  H   H1507     1.0  0.41894  0.83741  0.69463  1.0000
  C   C1255     1.0  0.49622  0.94993  0.78117  1.0000
  H   H1508     1.0  0.49651  0.89678  0.13134  1.0000
  H   H1509     1.0  0.49320  0.92527  0.80216  1.0000
  S   S338      1.0  0.44808  0.83695  0.84090  1.0000
  C   C1256     1.0  0.49968  0.00098  0.34072  1.0000
  C   C1257     1.0  0.59886  0.04611  0.15245  1.0000
  Fe  Fe168     1.0  0.52557  0.05585  0.23197  1.0000
  S   S339      1.0  0.51540  0.05839  0.28487  1.0000
  S   S340      1.0  0.53834  0.04962  0.23847  1.0000
  Fe  Fe169     1.0  0.51497  0.06363  0.17322  1.0000
  H   H1510     1.0  0.56004  0.16314  0.84379  1.0000
  S   S341      1.0  0.51806  0.06746  0.10455  1.0000
  Fe  Fe170     1.0  0.51672  0.07308  0.24064  1.0000
  S   S342      1.0  0.51872  0.08780  0.25442  1.0000
  H   H1511     1.0  0.57361  0.01798  0.56983  1.0000
  C   C1258     1.0  0.62960  0.09445  0.18193  1.0000
  S   S343      1.0  0.52766  0.07083  0.18874  1.0000
  S   S344      1.0  0.51382  0.04838  0.21315  1.0000
  Fe  Fe171     1.0  0.62538  0.15383  0.40396  1.0000
  S   S345      1.0  0.63594  0.15197  0.35015  1.0000
  S   S346      1.0  0.61250  0.15986  0.39712  1.0000
  Fe  Fe172     1.0  0.63586  0.14574  0.46262  1.0000
  S   S347      1.0  0.64723  0.14298  0.41320  1.0000
  S   S348      1.0  0.63418  0.14077  0.53026  1.0000
  Fe  Fe173     1.0  0.64730  0.15809  0.37483  1.0000
  C   C1259     1.0  0.63522  0.08761  0.69661  1.0000
  Fe  Fe174     1.0  0.63476  0.13705  0.39274  1.0000
  S   S349      1.0  0.63298  0.12234  0.37889  1.0000
  S   S350      1.0  0.63670  0.16114  0.42541  1.0000
  S   S351      1.0  0.62348  0.13867  0.44541  1.0000
  Fe  Fe175     1.0  0.55020  0.12129  0.35865  1.0000
  S   S352      1.0  0.56271  0.13359  0.31180  1.0000
  S   S353      1.0  0.54403  0.10661  0.34977  1.0000
  Fe  Fe176     1.0  0.55241  0.12959  0.42835  1.0000
  S   S354      1.0  0.56485  0.14226  0.38703  1.0000
  S   S355      1.0  0.54727  0.12653  0.49693  1.0000
  Fe  Fe177     1.0  0.55633  0.14372  0.34344  1.0000
  Fe  Fe178     1.0  0.57043  0.13150  0.35822  1.0000
  S   S356      1.0  0.58614  0.13064  0.34312  1.0000
  S   S357      1.0  0.54306  0.13165  0.38731  1.0000
  S   S358      1.0  0.55866  0.11857  0.40295  1.0000
  Fe  Fe179     1.0  0.59439  0.06447  0.29607  1.0000
  S   S359      1.0  0.58766  0.06660  0.24631  1.0000
  Fe  Fe180     1.0  0.60091  0.08675  0.28296  1.0000
  S   S360      1.0  0.59434  0.09015  0.23240  1.0000
  S   S361      1.0  0.60631  0.10135  0.29361  1.0000
  Fe  Fe181     1.0  0.58168  0.07757  0.27262  1.0000
  S   S362      1.0  0.56660  0.07987  0.28051  1.0000
  Fe  Fe182     1.0  0.60094  0.07891  0.21012  1.0000
  S   S363      1.0  0.60882  0.08271  0.14231  1.0000
  S   S364      1.0  0.58750  0.07479  0.32496  1.0000
  S   S365      1.0  0.60844  0.07614  0.25783  1.0000
  Fe  Fe183     1.0  0.59714  0.07863  0.88765  1.0000
  S   S366      1.0  0.58808  0.07890  0.94861  1.0000
  S   S367      1.0  0.60644  0.09210  0.83327  1.0000
  Fe  Fe184     1.0  0.58755  0.05661  0.90468  1.0000
  S   S368      1.0  0.57814  0.05525  0.96749  1.0000
  S   S369      1.0  0.58759  0.04350  0.87963  1.0000
  Fe  Fe185     1.0  0.57579  0.06985  0.93792  1.0000
  S   S370      1.0  0.56071  0.07225  0.95341  1.0000
  Fe  Fe186     1.0  0.59123  0.06431  0.97421  1.0000
  S   S371      1.0  0.59211  0.05920  0.03855  1.0000
  S   S372      1.0  0.58431  0.07082  0.87480  1.0000
  S   S373      1.0  0.60114  0.06444  0.91358  1.0000
  H   H1512     1.0  0.51446  0.02061  0.86893  1.0000
  C   C1260     1.0  0.51011  0.07261  0.37730  1.0000
  H   H1513     1.0  0.56784  0.03885  0.23275  1.0000
  Fe  Fe187     1.0  0.63893  0.14539  0.78915  1.0000
  S   S374      1.0  0.63053  0.14827  0.74528  1.0000
  S   S375      1.0  0.63694  0.12957  0.82836  1.0000
  Fe  Fe188     1.0  0.64358  0.16058  0.70554  1.0000
  C   C1261     1.0  0.55016  0.16712  0.52928  1.0000
  Fe  Fe189     1.0  0.62581  0.15891  0.77713  1.0000
  S   S376      1.0  0.61042  0.16069  0.79468  1.0000
  S   S377      1.0  0.65271  0.15720  0.74707  1.0000
  S   S378      1.0  0.63342  0.15550  0.82324  1.0000
  S   S379      1.0  0.56412  0.13878  0.76940  1.0000
  Fe  Fe190     1.0  0.56489  0.14621  0.65733  1.0000
  S   S380      1.0  0.56454  0.13068  0.69167  1.0000
  H   H1514     1.0  0.53007  0.05106  0.10998  1.0000
  Fe  Fe191     1.0  0.55318  0.13262  0.74325  1.0000
  S   S381      1.0  0.54101  0.12012  0.79246  1.0000
  Fe  Fe192     1.0  0.57534  0.13792  0.71550  1.0000
  S   S382      1.0  0.58790  0.13204  0.72761  1.0000
  C   C1262     1.0  0.57702  0.11711  0.24105  1.0000
  Fe  Fe193     1.0  0.51338  0.06493  0.83878  1.0000
  S   S383      1.0  0.51846  0.06364  0.89290  1.0000
  S   S384      1.0  0.51919  0.07920  0.78518  1.0000
  H   H1515     1.0  0.63040  0.16687  0.29089  1.0000
  H   H1516     1.0  0.61768  0.11263  0.16472  1.0000
  C   C1263     1.0  0.57825  0.02544  0.50522  1.0000
  H   H1517     1.0  0.54460  0.15267  0.39652  1.0000
  H   H1518     1.0  0.63139  0.11404  0.10200  1.0000
  Fe  Fe194     1.0  0.52241  0.05013  0.88173  1.0000
  S   S385      1.0  0.53632  0.04594  0.88370  1.0000
  H   H1519     1.0  0.55291  0.01086  0.56732  1.0000
  S   S386      1.0  0.51843  0.05193  0.82504  1.0000
  C   C1264     1.0  0.55795  0.16444  0.41031  1.0000
  C   C1265     1.0  0.57935  0.03736  0.85957  1.0000
  H   H1520     1.0  0.61467  0.05174  0.76424  1.0000
  H   H1521     1.0  0.57486  0.05016  0.31775  1.0000
  S   S387      1.0  0.55677  0.01646  0.34523  1.0000
  C   C1266     1.0  0.53521  0.10877  0.78931  1.0000
  C   C1267     1.0  0.52986  0.10105  0.82560  1.0000
  C   C1268     1.0  0.52504  0.09193  0.82481  1.0000
  C   C1269     1.0  0.52534  0.09050  0.78761  1.0000
  C   C1270     1.0  0.53069  0.09822  0.75126  1.0000
  C   C1271     1.0  0.53568  0.10729  0.75204  1.0000
  H   H1522     1.0  0.52931  0.10216  0.85460  1.0000
  H   H1523     1.0  0.52086  0.08613  0.85303  1.0000
  H   H1524     1.0  0.53094  0.09720  0.72232  1.0000
  H   H1525     1.0  0.53969  0.11318  0.72386  1.0000
  C   C1272     1.0  0.60302  0.15169  0.78411  1.0000
  C   C1273     1.0  0.59503  0.15381  0.77241  1.0000
  C   C1274     1.0  0.59007  0.14751  0.75686  1.0000
  C   C1275     1.0  0.59318  0.13911  0.75249  1.0000
  C   C1276     1.0  0.60086  0.13670  0.76623  1.0000
  C   C1277     1.0  0.60561  0.14288  0.78298  1.0000
  H   H1526     1.0  0.59304  0.16062  0.77319  1.0000
  H   H1527     1.0  0.58419  0.14949  0.74625  1.0000
  H   H1528     1.0  0.60330  0.13020  0.76315  1.0000
  H   H1529     1.0  0.61141  0.14091  0.79426  1.0000
  H   H1530     1.0  0.57155  0.04864  0.84946  1.0000
  C   C1278     1.0  0.61454  0.10258  0.83366  1.0000
  C   C1279     1.0  0.61808  0.11101  0.79882  1.0000
  C   C1280     1.0  0.62461  0.11944  0.79743  1.0000
  C   C1281     1.0  0.62792  0.11947  0.83048  1.0000
  C   C1282     1.0  0.62439  0.11102  0.86531  1.0000
  C   C1283     1.0  0.61763  0.10268  0.86718  1.0000
  H   H1531     1.0  0.61585  0.11100  0.77250  1.0000
  H   H1532     1.0  0.62736  0.12579  0.77019  1.0000
  H   H1533     1.0  0.62696  0.11092  0.89093  1.0000
  H   H1534     1.0  0.61503  0.09625  0.89413  1.0000
  C   C1284     1.0  0.55341  0.06382  0.93986  1.0000
  C   C1285     1.0  0.55761  0.05762  0.92043  1.0000
  C   C1286     1.0  0.55205  0.05160  0.90577  1.0000
  C   C1287     1.0  0.54232  0.05178  0.91038  1.0000
  C   C1288     1.0  0.53787  0.05738  0.93273  1.0000
  C   C1289     1.0  0.54346  0.06350  0.94712  1.0000
  H   H1535     1.0  0.56520  0.05758  0.91575  1.0000
  H   H1536     1.0  0.55536  0.04702  0.88963  1.0000
  H   H1537     1.0  0.53021  0.05717  0.93820  1.0000
  H   H1538     1.0  0.54011  0.06812  0.96300  1.0000
  C   C1290     1.0  0.60348  0.07690  0.11273  1.0000
  C   C1291     1.0  0.59493  0.06930  0.13085  1.0000
  C   C1292     1.0  0.59132  0.06427  0.10725  1.0000
  C   C1293     1.0  0.59606  0.06687  0.06518  1.0000
  C   C1294     1.0  0.60436  0.07477  0.04661  1.0000
  C   C1295     1.0  0.60809  0.07971  0.07037  1.0000
  H   H1539     1.0  0.59129  0.06705  0.16326  1.0000
  H   H1540     1.0  0.58489  0.05820  0.12175  1.0000
  H   H1541     1.0  0.60816  0.07679  0.01428  1.0000
  H   H1542     1.0  0.61469  0.08560  0.05592  1.0000
  C   C1296     1.0  0.56156  0.14428  0.56434  1.0000
  C   C1297     1.0  0.56435  0.14764  0.52158  1.0000
  C   C1298     1.0  0.56036  0.14206  0.50056  1.0000
  C   C1299     1.0  0.55320  0.13325  0.52213  1.0000
  C   C1300     1.0  0.55039  0.12989  0.56490  1.0000
  C   C1301     1.0  0.55463  0.13531  0.58594  1.0000
  H   H1543     1.0  0.59166  0.13424  0.45586  1.0000
  H   H1544     1.0  0.56263  0.14468  0.46778  1.0000
  H   H1545     1.0  0.54484  0.12309  0.58191  1.0000
  H   H1546     1.0  0.55238  0.13264  0.61886  1.0000
  C   C1302     1.0  0.63822  0.14788  0.55870  1.0000
  C   C1303     1.0  0.63604  0.14344  0.60086  1.0000
  C   C1304     1.0  0.63914  0.14874  0.62477  1.0000
  C   C1305     1.0  0.64444  0.15857  0.60678  1.0000
  C   C1306     1.0  0.64659  0.16304  0.56461  1.0000
  C   C1307     1.0  0.64349  0.15773  0.54064  1.0000
  H   H1547     1.0  0.63199  0.13581  0.61511  1.0000
  H   H1548     1.0  0.63747  0.14518  0.65710  1.0000
  S   S388      1.0  0.54537  0.01119  0.74230  1.0000
  H   H1549     1.0  0.64521  0.16123  0.50827  1.0000
  C   C1308     1.0  0.62534  0.11661  0.35561  1.0000
  C   C1309     1.0  0.62473  0.10664  0.35855  1.0000
  C   C1310     1.0  0.61892  0.10182  0.34017  1.0000
  C   C1311     1.0  0.61368  0.10694  0.31819  1.0000
  C   C1312     1.0  0.61433  0.11692  0.31504  1.0000
  C   C1313     1.0  0.62011  0.12172  0.33353  1.0000
  H   H1550     1.0  0.62878  0.10260  0.37526  1.0000
  H   H1551     1.0  0.61857  0.09416  0.34292  1.0000
  H   H1552     1.0  0.61038  0.12104  0.29800  1.0000
  H   H1553     1.0  0.62063  0.12943  0.33025  1.0000
  C   C1314     1.0  0.60540  0.15206  0.38013  1.0000
  C   C1315     1.0  0.59697  0.15425  0.37244  1.0000
  C   C1316     1.0  0.59110  0.14780  0.36025  1.0000
  C   C1317     1.0  0.59356  0.13909  0.35639  1.0000
  C   C1318     1.0  0.60206  0.13699  0.36357  1.0000
  C   C1319     1.0  0.60800  0.14347  0.37519  1.0000
  H   H1554     1.0  0.59498  0.16094  0.37567  1.0000
  H   H1555     1.0  0.58482  0.14970  0.35298  1.0000
  H   H1556     1.0  0.60397  0.13026  0.36062  1.0000
  H   H1557     1.0  0.61452  0.14172  0.38074  1.0000
  S   S389      1.0  0.55284  0.14791  0.70781  1.0000
  H   H1558     1.0  0.57639  0.04987  0.19579  1.0000
  C   C1320     1.0  0.57394  0.02240  0.36100  1.0000
  N   N84       1.0  0.61143  0.06385  0.78540  1.0000
  C   C1321     1.0  0.57523  0.16683  0.30558  1.0000
  C   C1322     1.0  0.51609  0.06545  0.03314  1.0000
  H   H1559     1.0  0.61954  0.08149  0.79224  1.0000
  H   H1560     1.0  0.51682  0.02418  0.73989  1.0000
  C   C1323     1.0  0.52189  0.00538  0.89491  1.0000
  C   C1324     1.0  0.51929  0.02156  0.88764  1.0000
  H   H1561     1.0  0.52329  0.07042  0.01906  1.0000
  H   H1562     1.0  0.51482  0.06442  0.97593  1.0000
  H   H1563     1.0  0.52265  0.02959  0.87813  1.0000
  C   C1325     1.0  0.64547  0.12485  0.20412  1.0000
  C   C1326     1.0  0.52608  0.09295  0.28008  1.0000
  C   C1327     1.0  0.52666  0.10280  0.27913  1.0000
  C   C1328     1.0  0.53215  0.10714  0.29983  1.0000
  C   C1329     1.0  0.53704  0.10163  0.32244  1.0000
  C   C1330     1.0  0.53647  0.09178  0.32337  1.0000
  C   C1331     1.0  0.53110  0.08749  0.30217  1.0000
  H   H1564     1.0  0.52282  0.10712  0.26224  1.0000
  H   H1565     1.0  0.53247  0.11470  0.29871  1.0000
  H   H1566     1.0  0.54021  0.08741  0.34059  1.0000
  H   H1567     1.0  0.53071  0.07990  0.30348  1.0000
  C   C1332     1.0  0.54613  0.05787  0.25101  1.0000
  C   C1333     1.0  0.54383  0.06665  0.25469  1.0000
  C   C1334     1.0  0.55014  0.07331  0.26405  1.0000
  C   C1335     1.0  0.55874  0.07121  0.26999  1.0000
  C   C1336     1.0  0.56093  0.06231  0.26742  1.0000
  C   C1337     1.0  0.55464  0.05565  0.25781  1.0000
  H   H1568     1.0  0.53721  0.06837  0.25017  1.0000
  H   H1569     1.0  0.54838  0.08016  0.26627  1.0000
  H   H1570     1.0  0.56737  0.06048  0.27336  1.0000
  H   H1571     1.0  0.55633  0.04878  0.25574  1.0000
  C   C1338     1.0  0.64273  0.11948  0.14880  1.0000
  C   C1339     1.0  0.60138  0.13551  0.61209  1.0000
  C   C1340     1.0  0.50925  0.02027  0.74439  1.0000
  H   H1572     1.0  0.62268  0.06503  0.70630  1.0000
  H   H1573     1.0  0.53610  0.14377  0.57589  1.0000
  H   H1574     1.0  0.61884  0.06113  0.15528  1.0000
  H   H1575     1.0  0.57991  0.03978  0.15048  1.0000
  C   C1341     1.0  0.59267  0.04339  0.19356  1.0000
  H   H1576     1.0  0.63281  0.09490  0.74196  1.0000
  H   H1577     1.0  0.57206  0.02890  0.18948  1.0000
  H   H1578     1.0  0.65500  0.13534  0.51573  1.0000
  C   C1342     1.0  0.58862  0.13839  0.58255  1.0000
  C   C1343     1.0  0.60649  0.13345  0.57783  1.0000
  H   H1579     1.0  0.58229  0.03060  0.27016  1.0000
  Fe  Fe195     1.0  0.50359  0.05219  0.26243  1.0000
  H   H1580     1.0  0.65599  0.13582  0.58268  1.0000
  H   H1581     1.0  0.61514  0.10242  0.20989  1.0000
  H   H1582     1.0  0.57048  0.14329  0.92337  1.0000
  Fe  Fe196     1.0  0.50348  0.04257  0.86558  1.0000
  H   H1583     1.0  0.62533  0.08897  0.17235  1.0000
  C   C1344     1.0  0.57225  0.04153  0.84677  1.0000
  N   N85       1.0  0.54506  0.05980  0.08224  1.0000
  C   C1345     1.0  0.53626  0.05448  0.11848  1.0000
  C   C1346     1.0  0.54251  0.06805  0.05611  1.0000
  C   C1347     1.0  0.54728  0.05275  0.05969  1.0000
  C   C1348     1.0  0.55364  0.06382  0.09278  1.0000
  C   C1349     1.0  0.55276  0.06505  0.13142  1.0000
  C   C1350     1.0  0.56315  0.06722  0.06332  1.0000
  C   C1351     1.0  0.56093  0.06911  0.14022  1.0000
  C   C1352     1.0  0.57129  0.07119  0.07255  1.0000
  C   C1353     1.0  0.57018  0.07214  0.11091  1.0000
  H   H1584     1.0  0.53788  0.04858  0.14084  1.0000
  H   H1585     1.0  0.54029  0.07327  0.07258  1.0000
  H   H1586     1.0  0.53628  0.06539  0.04624  1.0000
  H   H1587     1.0  0.54876  0.07236  0.02820  1.0000
  H   H1588     1.0  0.55018  0.04695  0.07658  1.0000
  H   H1589     1.0  0.54069  0.04909  0.05438  1.0000
  H   H1590     1.0  0.55270  0.05639  0.02876  1.0000
  H   H1591     1.0  0.54581  0.06298  0.15536  1.0000
  H   H1592     1.0  0.56440  0.06696  0.03268  1.0000
  H   H1593     1.0  0.56006  0.06995  0.16995  1.0000
  H   H1594     1.0  0.57850  0.07355  0.04973  1.0000
  H   H1595     1.0  0.57650  0.07530  0.11780  1.0000
  N   N86       1.0  0.58434  0.10858  0.85225  1.0000
  C   C1354     1.0  0.58694  0.10104  0.88179  1.0000
  C   C1355     1.0  0.59027  0.10924  0.81077  1.0000
  C   C1356     1.0  0.58718  0.11812  0.85904  1.0000
  C   C1357     1.0  0.57382  0.10632  0.85605  1.0000
  C   C1358     1.0  0.56998  0.11323  0.83264  1.0000
  C   C1359     1.0  0.56717  0.09722  0.88199  1.0000
  C   C1360     1.0  0.55727  0.09531  0.88496  1.0000
  H   H1596     1.0  0.58587  0.09382  0.87618  1.0000
  H   H1597     1.0  0.59481  0.10313  0.87925  1.0000
  H   H1598     1.0  0.58257  0.09996  0.91381  1.0000
  H   H1599     1.0  0.58859  0.10209  0.80512  1.0000
  H   H1600     1.0  0.59825  0.11113  0.80637  1.0000
  H   H1601     1.0  0.58896  0.11494  0.78670  1.0000
  H   H1602     1.0  0.58270  0.11796  0.88964  1.0000
  H   H1603     1.0  0.59505  0.11992  0.85697  1.0000
  H   H1604     1.0  0.58630  0.12440  0.83607  1.0000
  H   H1605     1.0  0.56941  0.09144  0.90043  1.0000
  H   H1606     1.0  0.55233  0.08833  0.90530  1.0000
  H   H1607     1.0  0.60816  0.05389  0.84626  1.0000
  H   H1608     1.0  0.51760  0.01448  0.42644  1.0000
  H   H1609     1.0  0.62645  0.10481  0.24130  1.0000
  H   H1610     1.0  0.62132  0.15288  0.65756  1.0000
  Fe  Fe197     1.0  0.56500  0.15389  0.72969  1.0000
  H   H1611     1.0  0.55905  0.16446  0.37849  1.0000
  H   H1612     1.0  0.51557  0.07814  0.38012  1.0000
  H   H1613     1.0  0.64955  0.12990  0.21482  1.0000
  C   C1361     1.0  0.57556  0.01717  0.53971  1.0000
  H   H1614     1.0  0.51570  0.06054  0.40352  1.0000
  H   H1615     1.0  0.62139  0.17001  0.24163  1.0000
  C   C1362     1.0  0.51508  0.01835  0.40263  1.0000
  Fe  Fe198     1.0  0.64635  0.16760  0.77826  1.0000
  H   H1616     1.0  0.58648  0.02409  0.23565  1.0000
  S   S390      1.0  0.55626  0.00538  0.64447  1.0000
  C   C1363     1.0  0.60858  0.05539  0.77144  1.0000
  C   C1364     1.0  0.55080  0.16802  0.48893  1.0000
  H   H1617     1.0  0.60861  0.05622  0.22776  1.0000
  C   C1365     1.0  0.60821  0.05238  0.13911  1.0000
  S   S391      1.0  0.50813  0.03989  0.92161  1.0000
  H   H1618     1.0  0.63974  0.10608  0.10625  1.0000
  H   H1619     1.0  0.53402  0.01563  0.39723  1.0000
  H   H1620     1.0  0.62513  0.15889  0.58828  1.0000
  H   H1621     1.0  0.60080  0.07138  0.76918  1.0000
  N   N87       1.0  0.55132  0.07620  0.79916  1.0000
  C   C1366     1.0  0.55637  0.06806  0.80500  1.0000
  C   C1367     1.0  0.54450  0.07526  0.83945  1.0000
  C   C1368     1.0  0.54549  0.07473  0.77221  1.0000
  C   C1369     1.0  0.55808  0.08612  0.78157  1.0000
  C   C1370     1.0  0.56840  0.08773  0.77291  1.0000
  C   C1371     1.0  0.55434  0.09460  0.77301  1.0000
  C   C1372     1.0  0.57452  0.09727  0.75587  1.0000
  C   C1373     1.0  0.56049  0.10407  0.75614  1.0000
  C   C1374     1.0  0.57057  0.10542  0.74744  1.0000
  H   H1622     1.0  0.56031  0.06823  0.82744  1.0000
  H   H1623     1.0  0.55109  0.06070  0.81734  1.0000
  H   H1624     1.0  0.56157  0.06825  0.77575  1.0000
  H   H1625     1.0  0.54853  0.07639  0.86074  1.0000
  H   H1626     1.0  0.53939  0.06784  0.85363  1.0000
  H   H1627     1.0  0.53981  0.08059  0.83751  1.0000
  H   H1628     1.0  0.55031  0.07585  0.74088  1.0000
  H   H1629     1.0  0.54054  0.06719  0.78402  1.0000
  H   H1630     1.0  0.54059  0.07984  0.76971  1.0000
  H   H1631     1.0  0.57191  0.08176  0.77901  1.0000
  H   H1632     1.0  0.54658  0.09394  0.77959  1.0000
  H   H1633     1.0  0.58237  0.09836  0.74901  1.0000
  H   H1634     1.0  0.55735  0.11038  0.75031  1.0000
  H   H1635     1.0  0.57531  0.11280  0.73439  1.0000
  C   C1375     1.0  0.57735  0.12725  0.23487  1.0000
  C   C1376     1.0  0.59390  0.12064  0.24265  1.0000
  C   C1377     1.0  0.58562  0.13376  0.23384  1.0000
  C   C1378     1.0  0.59384  0.13044  0.23813  1.0000
  H   H1636     1.0  0.57556  0.10002  0.22118  1.0000
  H   H1637     1.0  0.57032  0.09836  0.29349  1.0000
  H   H1638     1.0  0.57120  0.13030  0.23195  1.0000
  H   H1639     1.0  0.60028  0.11805  0.24633  1.0000
  H   H1640     1.0  0.58556  0.14138  0.23091  1.0000
  H   H1641     1.0  0.60010  0.13545  0.23872  1.0000
  N   N88       1.0  0.58118  0.10023  0.38864  1.0000
  C   C1379     1.0  0.58755  0.09334  0.39481  1.0000
  C   C1380     1.0  0.58484  0.10657  0.34538  1.0000
  C   C1381     1.0  0.58221  0.10672  0.41378  1.0000
  C   C1382     1.0  0.57098  0.09465  0.39839  1.0000
  C   C1383     1.0  0.56291  0.09568  0.42814  1.0000
  C   C1384     1.0  0.56881  0.08828  0.37634  1.0000
  C   C1385     1.0  0.55328  0.09105  0.43358  1.0000
  C   C1386     1.0  0.55916  0.08359  0.38238  1.0000
  C   C1387     1.0  0.55141  0.08510  0.41050  1.0000
  H   H1642     1.0  0.58477  0.08812  0.42648  1.0000
  H   H1643     1.0  0.58808  0.08893  0.37372  1.0000
  H   H1644     1.0  0.59522  0.09736  0.38886  1.0000
  H   H1645     1.0  0.57983  0.11133  0.33867  1.0000
  H   H1646     1.0  0.58565  0.10222  0.32410  1.0000
  H   H1647     1.0  0.59220  0.11154  0.33737  1.0000
  H   H1648     1.0  0.57991  0.10242  0.44669  1.0000
  H   H1649     1.0  0.58995  0.11097  0.40494  1.0000
  H   H1650     1.0  0.57787  0.11234  0.40943  1.0000
  H   H1651     1.0  0.56379  0.10025  0.44683  1.0000
  H   H1652     1.0  0.57454  0.08709  0.35335  1.0000
  H   H1653     1.0  0.54721  0.09229  0.45513  1.0000
  H   H1654     1.0  0.55768  0.07895  0.36445  1.0000
  H   H1655     1.0  0.54392  0.08175  0.41410  1.0000
  H   H1656     1.0  0.50438  0.02479  0.75589  1.0000
  S   S392      1.0  0.55634  0.15928  0.30864  1.0000
  H   H1657     1.0  0.55878  0.13908  0.91792  1.0000
  C   C1388     1.0  0.59655  0.04712  0.22034  1.0000
  S   S393      1.0  0.66088  0.16961  0.32976  1.0000
  H   H1658     1.0  0.68815  0.16445  0.44109  1.0000
  H   H1659     1.0  0.53344  0.04412  0.32611  1.0000
  H   H1660     1.0  0.55544  0.01205  0.91278  1.0000
  H   H1661     1.0  0.55334  0.02223  0.95835  1.0000
  H   H1662     1.0  0.59656  0.04382  0.12945  1.0000
  H   H1663     1.0  0.57686  0.04575  0.24644  1.0000
  C   C1389     1.0  0.55805  0.15635  0.87037  1.0000
  C   C1390     1.0  0.58120  0.02855  0.24376  1.0000
  C   C1391     1.0  0.51127  0.06206  0.00847  1.0000
  C   C1392     1.0  0.50318  0.05563  0.38674  1.0000
  C   C1393     1.0  0.57967  0.03361  0.17714  1.0000
  C   C1394     1.0  0.61965  0.07186  0.75459  1.0000
  C   C1395     1.0  0.63054  0.08831  0.73456  1.0000
  C   C1396     1.0  0.56621  0.02516  0.34847  1.0000
  H   H1664     1.0  0.54461  0.15761  0.59161  1.0000
  C   C1397     1.0  0.57936  0.13004  0.53022  1.0000
  H   H1665     1.0  0.56363  0.10645  0.31203  1.0000
  H   H1666     1.0  0.57421  0.13213  0.55352  1.0000
  H   H1667     1.0  0.57596  0.13010  0.50592  1.0000
  H   H1668     1.0  0.57957  0.12233  0.54472  1.0000
  H   H1669     1.0  0.58415  0.14966  0.51956  1.0000
  H   H1670     1.0  0.58512  0.14755  0.47202  1.0000
  H   H1671     1.0  0.57415  0.15529  0.81443  1.0000
  C   C1398     1.0  0.60592  0.05334  0.20672  1.0000
  S   S394      1.0  0.59331  0.04871  0.33207  1.0000
  H   H1672     1.0  0.53328  0.05955  0.13401  1.0000
  C   C1399     1.0  0.61204  0.16374  0.61156  1.0000
  C   C1400     1.0  0.66496  0.15064  0.55897  1.0000
  C   C1401     1.0  0.60131  0.16393  0.56924  1.0000
  C   C1402     1.0  0.57007  0.10435  0.21717  1.0000
  C   C1403     1.0  0.56486  0.10265  0.28867  1.0000
  C   C1404     1.0  0.58564  0.11405  0.24407  1.0000
  H   H1673     1.0  0.57279  0.10948  0.18534  1.0000
  H   H1674     1.0  0.57462  0.12016  0.81102  1.0000
  H   H1675     1.0  0.57519  0.15939  0.32124  1.0000
  H   H1676     1.0  0.56064  0.03987  0.82048  1.0000
  C   C1405     1.0  0.63227  0.07915  0.68719  1.0000
  H   H1677     1.0  0.62745  0.10120  0.10957  1.0000
  H   H1678     1.0  0.61633  0.15603  0.70186  1.0000
  N   N89       1.0  0.56805  0.10977  0.24694  1.0000
  H   H1679     1.0  0.56337  0.09885  0.22079  1.0000
  H   H1680     1.0  0.55791  0.09716  0.29531  1.0000
  Fe  Fe199     1.0  0.50366  0.05350  0.92939  1.0000
  C   C1406     1.0  0.53247  0.01930  0.83770  1.0000
  C   C1407     1.0  0.55371  0.10236  0.86221  1.0000
  C   C1408     1.0  0.56613  0.03656  0.82994  1.0000
  H   H1681     1.0  0.61391  0.10021  0.16489  1.0000
  C   C1409     1.0  0.61847  0.10499  0.17622  1.0000
  H   H1682     1.0  0.58259  0.03082  0.43983  1.0000
  H   H1683     1.0  0.60433  0.13522  0.63690  1.0000
  H   H1684     1.0  0.60832  0.14969  0.68133  1.0000
  C   C1410     1.0  0.54895  0.01489  0.91904  1.0000
  C   C1411     1.0  0.58859  0.14696  0.49634  1.0000
  H   H1685     1.0  0.58830  0.02752  0.36462  1.0000
  C   C1412     1.0  0.62291  0.08057  0.76321  1.0000
  C   C1413     1.0  0.50502  0.01565  0.40911  1.0000
  H   H1686     1.0  0.61578  0.06572  0.83644  1.0000
  C   C1414     1.0  0.57470  0.04245  0.32946  1.0000
  H   H1687     1.0  0.64507  0.12080  0.11634  1.0000
  H   H1688     1.0  0.63594  0.07864  0.65759  1.0000
  H   H1689     1.0  0.58592  0.10646  0.24902  1.0000
  C   C1415     1.0  0.54777  0.02060  0.94470  1.0000
  C   C1416     1.0  0.52396  0.01355  0.68996  1.0000
  C   C1417     1.0  0.58260  0.03973  0.34042  1.0000
  H   H1690     1.0  0.53864  0.02891  0.97178  1.0000
  C   C1418     1.0  0.57046  0.16828  0.90074  1.0000
  H   H1691     1.0  0.51939  0.03158  0.66759  1.0000
  H   H1692     1.0  0.61348  0.13161  0.57596  1.0000
  C   C1419     1.0  0.62460  0.07135  0.71562  1.0000
  S   S395      1.0  0.56512  0.16637  0.75818  1.0000
  C   C1420     1.0  0.55971  0.11412  0.24224  1.0000
  H   H1693     1.0  0.56156  0.11955  0.21142  1.0000
  H   H1694     1.0  0.55314  0.10838  0.24645  1.0000
  H   H1695     1.0  0.55730  0.11772  0.26569  1.0000
  H   H1696     1.0  0.58852  0.13960  0.64108  1.0000
  C   C1421     1.0  0.58023  0.02816  0.85490  1.0000
  C   C1422     1.0  0.58006  0.01501  0.46260  1.0000
  H   H1697     1.0  0.56960  0.15464  0.50461  1.0000
  H   H1698     1.0  0.67653  0.16063  0.40352  1.0000
  C   C1423     1.0  0.56005  0.11129  0.83618  1.0000
  C   C1424     1.0  0.60267  0.06778  0.79659  1.0000
  C   C1425     1.0  0.56699  0.02734  0.82531  1.0000
  H   H1699     1.0  0.58570  0.02484  0.86441  1.0000
  H   H1700     1.0  0.62671  0.09203  0.21572  1.0000
  H   H1701     1.0  0.54567  0.02947  0.31402  1.0000
  H   H1702     1.0  0.60231  0.04957  0.79551  1.0000
  C   C1426     1.0  0.67321  0.16661  0.41075  1.0000
  C   C1427     1.0  0.65983  0.14213  0.55567  1.0000
  N   N90       1.0  0.58931  0.13675  0.51396  1.0000
  C   C1428     1.0  0.59515  0.13389  0.48007  1.0000
  H   H1703     1.0  0.59596  0.12624  0.49081  1.0000
  C   C1429     1.0  0.60789  0.16081  0.54221  1.0000
  C   C1430     1.0  0.63770  0.11719  0.23192  1.0000
  C   C1431     1.0  0.57410  0.02317  0.83814  1.0000
  H   H1704     1.0  0.56076  0.03747  0.32268  1.0000
  C   C1432     1.0  0.50109  0.02023  0.38007  1.0000
  C   C1433     1.0  0.53949  0.02434  0.95227  1.0000
  H   H1705     1.0  0.57732  0.14606  0.85032  1.0000
  H   H1706     1.0  0.52171  0.03577  0.30887  1.0000
  C   C1434     1.0  0.63206  0.10663  0.11823  1.0000
  H   H1707     1.0  0.53182  0.02491  0.42146  1.0000
  H   H1708     1.0  0.53524  0.14922  0.44449  1.0000
  C   C1435     1.0  0.60702  0.16863  0.67370  1.0000
  H   H1709     1.0  0.54603  0.10090  0.86451  1.0000
  C   C1436     1.0  0.56663  0.03522  0.33284  1.0000
  C   C1437     1.0  0.59247  0.13798  0.61441  1.0000
  H   H1710     1.0  0.54300  0.04223  0.34686  1.0000
  C   C1438     1.0  0.60268  0.13379  0.54582  1.0000
  C   C1439     1.0  0.51729  0.03012  0.33724  1.0000
  H   H1711     1.0  0.57381  0.01468  0.37207  1.0000
  H   H1712     1.0  0.54350  0.02630  0.38571  1.0000
  N   N91       1.0  0.50802  0.01859  0.70681  1.0000
  C   C1440     1.0  0.60332  0.16541  0.60344  1.0000
  H   H1713     1.0  0.50027  0.00992  0.43683  1.0000
  C   C1441     1.0  0.54631  0.16010  0.47853  1.0000
  C   C1442     1.0  0.58215  0.02967  0.35660  1.0000
  H   H1714     1.0  0.57851  0.03268  0.50843  1.0000
  C   C1443     1.0  0.61512  0.15551  0.67315  1.0000
  C   C1444     1.0  0.61848  0.16047  0.58362  1.0000
  C   C1445     1.0  0.50724  0.02736  0.34401  1.0000
  C   C1446     1.0  0.66390  0.15012  0.48312  1.0000
  H   H1715     1.0  0.53589  0.01896  0.32524  1.0000
  H   H1716     1.0  0.52640  0.02592  0.93985  1.0000
  H   H1717     1.0  0.63014  0.16980  0.61783  1.0000
  H   H1718     1.0  0.60614  0.05769  0.74436  1.0000
  C   C1447     1.0  0.64800  0.12598  0.16269  1.0000
  H   H1719     1.0  0.53097  0.04133  0.37983  1.0000
  C   C1448     1.0  0.57130  0.14947  0.84484  1.0000
  H   H1720     1.0  0.67333  0.16539  0.52883  1.0000
  H   H1721     1.0  0.59613  0.06185  0.81770  1.0000
  C   C1449     1.0  0.61416  0.05998  0.82230  1.0000
  C   C1450     1.0  0.53762  0.02698  0.32142  1.0000
  H   H1722     1.0  0.57492  0.01612  0.83488  1.0000
  C   C1451     1.0  0.53546  0.02370  0.39239  1.0000
  C   C1452     1.0  0.51161  0.06264  0.07557  1.0000
  H   H1723     1.0  0.64114  0.09364  0.67446  1.0000
  H   H1724     1.0  0.53710  0.14491  0.50669  1.0000
  H   H1725     1.0  0.50732  0.03354  0.68080  1.0000
  S   S396      1.0  0.57694  0.15331  0.67666  1.0000
  H   H1726     1.0  0.59229  0.04544  0.25195  1.0000
  H   H1727     1.0  0.66542  0.16493  0.41180  1.0000
  H   H1728     1.0  0.55319  0.15765  0.89700  1.0000
  H   H1729     1.0  0.61264  0.05469  0.10724  1.0000
  H   H1730     1.0  0.62079  0.05706  0.81502  1.0000
  C   C1453     1.0  0.57388  0.16209  0.87825  1.0000
  S   S397      1.0  0.64835  0.16560  0.63581  1.0000
  N   N92       1.0  0.53220  0.02889  0.35869  1.0000
  C   C1454     1.0  0.52153  0.02574  0.36647  1.0000
  N   N93       1.0  0.54742  0.16112  0.43537  1.0000
  H   H1731     1.0  0.53731  0.00874  0.67500  1.0000
  H   H1732     1.0  0.59597  0.15216  0.48222  1.0000
  H   H1733     1.0  0.50325  0.04792  0.39684  1.0000
  C   C1455     1.0  0.66960  0.15892  0.52443  1.0000
  H   H1734     1.0  0.63573  0.11633  0.26421  1.0000
  H   H1735     1.0  0.53593  0.03089  0.29411  1.0000
  H   H1736     1.0  0.57365  0.02367  0.25531  1.0000
  C   C1456     1.0  0.53375  0.01724  0.90523  1.0000
  H   H1737     1.0  0.55726  0.11669  0.81819  1.0000
  H   H1738     1.0  0.51438  0.01906  0.91975  1.0000
  H   H1739     1.0  0.58755  0.15980  0.84220  1.0000
  C   C1457     1.0  0.51019  0.06271  0.39048  1.0000
  C   C1458     1.0  0.57560  0.04318  0.22138  1.0000
  C   C1459     1.0  0.54332  0.15179  0.42937  1.0000
  C   C1460     1.0  0.53501  0.03959  0.35266  1.0000
  H   H1740     1.0  0.61318  0.16786  0.87044  1.0000
  H   H1741     1.0  0.59971  0.16335  0.68581  1.0000
  H   H1742     1.0  0.51089  0.02720  0.64454  1.0000
  C   C1461     1.0  0.63241  0.11063  0.21842  1.0000
  N   N94       1.0  0.56698  0.15356  0.87736  1.0000
  S   S398      1.0  0.55911  0.02151  0.80302  1.0000
  H   H1743     1.0  0.58171  0.14040  0.58585  1.0000
  H   H1744     1.0  0.66300  0.14943  0.45510  1.0000
  C   C1462     1.0  0.51379  0.01167  0.69509  1.0000
  N   N95       1.0  0.62889  0.10459  0.16307  1.0000
  C   C1463     1.0  0.58052  0.02437  0.46669  1.0000
  H   H1745     1.0  0.63735  0.09388  0.17324  1.0000
  C   C1464     1.0  0.63472  0.11159  0.17642  1.0000
  S   S399      1.0  0.56710  0.15142  0.58917  1.0000
  C   C1465     1.0  0.56400  0.14567  0.91708  1.0000
  C   C1466     1.0  0.59358  0.13627  0.54725  1.0000
  H   H1746     1.0  0.60702  0.13207  0.52043  1.0000
  C   C1467     1.0  0.50180  0.05593  0.02573  1.0000
  H   H1747     1.0  0.58456  0.02906  0.16609  1.0000
  H   H1748     1.0  0.65408  0.13195  0.14119  1.0000
  C   C1468     1.0  0.65931  0.14187  0.51787  1.0000
  H   H1749     1.0  0.60255  0.13900  0.46473  1.0000
  H   H1750     1.0  0.56582  0.14356  0.84274  1.0000
  C   C1469     1.0  0.54201  0.01314  0.89990  1.0000
  C   C1470     1.0  0.61171  0.05605  0.16608  1.0000
  S   S400      1.0  0.50397  0.06715  0.22157  1.0000
  C   C1471     1.0  0.66922  0.15893  0.48538  1.0000
  H   H1751     1.0  0.56034  0.14817  0.94266  1.0000
  C   C1472     1.0  0.54009  0.15060  0.55155  1.0000
  N   N96       1.0  0.58249  0.03727  0.20837  1.0000
  H   H1752     1.0  0.52766  0.01990  0.69515  1.0000
  H   H1753     1.0  0.53694  0.02703  0.82750  1.0000
  H   H1754     1.0  0.55341  0.15055  0.86374  1.0000
  N   N97       1.0  0.52693  0.01593  0.88197  1.0000
  N   N98       1.0  0.61442  0.16506  0.64764  1.0000
  C   C1473     1.0  0.50220  0.05634  0.09311  1.0000
  N   N99       1.0  0.67410  0.16787  0.44941  1.0000
  H   H1755     1.0  0.60372  0.07329  0.81235  1.0000
  C   C1474     1.0  0.53249  0.02259  0.93335  1.0000
  C   C1475     1.0  0.57731  0.00641  0.49708  1.0000
  C   C1476     1.0  0.50311  0.07548  0.35987  1.0000
  H   H1756     1.0  0.52008  0.00393  0.29765  1.0000
  C   C1477     1.0  0.54076  0.15138  0.51128  1.0000
  H   H1757     1.0  0.53759  0.01474  0.82954  1.0000
  H   H1758     1.0  0.50422  0.03083  0.32112  1.0000
  H   H1759     1.0  0.50637  0.00643  0.33698  1.0000
  H   H1760     1.0  0.54673  0.14583  0.44140  1.0000
  H   H1761     1.0  0.52753  0.01891  0.81905  1.0000
  C   C1478     1.0  0.51157  0.02815  0.67347  1.0000
  H   H1762     1.0  0.50750  0.01321  0.76933  1.0000
  C   C1479     1.0  0.54487  0.15840  0.56049  1.0000
  H   H1763     1.0  0.56280  0.16696  0.91754  1.0000
  H   H1764     1.0  0.58181  0.01453  0.43218  1.0000
  H   H1765     1.0  0.62148  0.15643  0.52889  1.0000
  H   H1766     1.0  0.50343  0.08326  0.35009  1.0000
  C   C1480     1.0  0.52958  0.00721  0.67834  1.0000
  H   H1767     1.0  0.60898  0.16946  0.70076  1.0000
  H   H1768     1.0  0.56224  0.15954  0.42311  1.0000
  C   C1481     1.0  0.50347  0.00540  0.26787  1.0000
  C   C1482     1.0  0.56714  0.16878  0.29408  1.0000
  H   H1769     1.0  0.54338  0.00881  0.87972  1.0000
  H   H1770     1.0  0.51670  0.00409  0.87802  1.0000
  C   C1483     1.0  0.58417  0.16420  0.85896  1.0000
  H   H1771     1.0  0.60633  0.15966  0.51578  1.0000
  H   H1772     1.0  0.66508  0.15092  0.58869  1.0000
  Fe  Fe200     1.0  0.55369  0.00764  0.78668  1.0000
  C   C1484     1.0  0.54232  0.16854  0.41958  1.0000
  H   H1773     1.0  0.51026  0.01087  0.26300  1.0000
  H   H1774     1.0  0.59790  0.16781  0.62308  1.0000
  H   H1775     1.0  0.59456  0.16512  0.56391  1.0000
  C   C1485     1.0  0.57512  0.00778  0.53593  1.0000
  H   H1776     1.0  0.54294  0.16942  0.38715  1.0000
  H   H1777     1.0  0.53439  0.16636  0.43770  1.0000
  C   C1486     1.0  0.61645  0.15904  0.54948  1.0000
  H   H1778     1.0  0.58011  0.22436  0.95673  1.0000
  H   H1779     1.0  0.69340  0.21143  0.80522  1.0000
  C   C1487     1.0  0.58686  0.17843  0.88121  1.0000
  C   C1488     1.0  0.73004  0.27355  0.07037  1.0000
  C   C1489     1.0  0.58338  0.17453  0.29731  1.0000
  H   H1780     1.0  0.65523  0.17854  0.39399  1.0000
  H   H1781     1.0  0.72664  0.25611  0.17015  1.0000
  C   C1490     1.0  0.55242  0.31316  0.69917  1.0000
  C   C1491     1.0  0.74464  0.25908  0.23627  1.0000
  S   S401      1.0  0.57258  0.32562  0.79485  1.0000
  C   C1492     1.0  0.66418  0.24838  0.10458  1.0000
  H   H1782     1.0  0.62749  0.18097  0.35310  1.0000
  N   N100      1.0  0.56136  0.32121  0.68624  1.0000
  Fe  Fe201     1.0  0.67561  0.24049  0.25681  1.0000
  S   S402      1.0  0.68261  0.23880  0.30587  1.0000
  S   S403      1.0  0.66145  0.24526  0.26162  1.0000
  C   C1493     1.0  0.64214  0.20826  0.31297  1.0000
  C   C1494     1.0  0.73350  0.26347  0.01173  1.0000
  H   H1783     1.0  0.64869  0.20438  0.23955  1.0000
  S   S404      1.0  0.67686  0.22598  0.24761  1.0000
  H   H1784     1.0  0.61220  0.18598  0.94702  1.0000
  Fe  Fe202     1.0  0.62200  0.22081  0.18985  1.0000
  S   S405      1.0  0.61387  0.20950  0.17093  1.0000
  S   S406      1.0  0.63730  0.21979  0.18652  1.0000
  Fe  Fe203     1.0  0.60566  0.23136  0.20112  1.0000
  S   S407      1.0  0.59591  0.22075  0.18355  1.0000
  S   S408      1.0  0.60137  0.24492  0.21266  1.0000
  Fe  Fe204     1.0  0.60083  0.20884  0.22270  1.0000
  S   S409      1.0  0.59382  0.19369  0.27042  1.0000
  Fe  Fe205     1.0  0.60970  0.22208  0.13371  1.0000
  S   S410      1.0  0.61340  0.22628  0.06554  1.0000
  S   S411      1.0  0.60945  0.21945  0.24426  1.0000
  S   S412      1.0  0.61896  0.23352  0.14858  1.0000
  Fe  Fe206     1.0  0.62606  0.31330  0.16450  1.0000
  S   S413      1.0  0.61592  0.30004  0.21538  1.0000
  S   S414      1.0  0.62482  0.32069  0.10323  1.0000
  Fe  Fe207     1.0  0.64126  0.31571  0.20788  1.0000
  S   S415      1.0  0.63257  0.30246  0.26189  1.0000
  S   S416      1.0  0.65632  0.32556  0.19272  1.0000
  Fe  Fe208     1.0  0.62966  0.29501  0.21708  1.0000
  S   S417      1.0  0.63279  0.28017  0.21578  1.0000
  Fe  Fe209     1.0  0.61956  0.30860  0.25582  1.0000
  S   S418      1.0  0.60936  0.31012  0.31228  1.0000
  S   S419      1.0  0.63954  0.30780  0.16352  1.0000
  S   S420      1.0  0.62851  0.32229  0.20459  1.0000
  Fe  Fe210     1.0  0.60086  0.20619  0.81978  1.0000
  S   S421      1.0  0.61070  0.22157  0.78762  1.0000
  S   S422      1.0  0.59926  0.19584  0.78179  1.0000
  Fe  Fe211     1.0  0.60135  0.20756  0.90385  1.0000
  S   S423      1.0  0.61112  0.22269  0.87757  1.0000
  S   S424      1.0  0.59707  0.19991  0.97177  1.0000
  Fe  Fe212     1.0  0.60166  0.22587  0.83867  1.0000
  S   S425      1.0  0.59736  0.24045  0.83241  1.0000
  Fe  Fe213     1.0  0.61936  0.21728  0.82939  1.0000
  S   S426      1.0  0.63572  0.21935  0.80881  1.0000
  S   S427      1.0  0.59100  0.21083  0.86828  1.0000
  S   S428      1.0  0.61028  0.20178  0.85848  1.0000
  Fe  Fe214     1.0  0.61452  0.29760  0.94836  1.0000
  S   S429      1.0  0.62722  0.29101  0.93082  1.0000
  S   S430      1.0  0.60673  0.29359  0.01592  1.0000
  Fe  Fe215     1.0  0.61647  0.30806  0.86061  1.0000
  S   S431      1.0  0.62940  0.30216  0.83635  1.0000
  S   S432      1.0  0.61352  0.32054  0.81559  1.0000
  Fe  Fe216     1.0  0.62086  0.28767  0.88406  1.0000
  S   S433      1.0  0.62317  0.27306  0.87598  1.0000
  Fe  Fe217     1.0  0.63468  0.30586  0.88484  1.0000
  S   S434      1.0  0.65073  0.31266  0.86977  1.0000
  S   S435      1.0  0.60740  0.29317  0.90517  1.0000
  S   S436      1.0  0.62251  0.31280  0.90571  1.0000
  Fe  Fe218     1.0  0.67555  0.22190  0.98214  1.0000
  S   S437      1.0  0.66977  0.21679  0.05094  1.0000
  Fe  Fe219     1.0  0.67122  0.23397  0.90964  1.0000
  S   S438      1.0  0.65944  0.24140  0.89688  1.0000
  Fe  Fe220     1.0  0.67897  0.21601  0.90381  1.0000
  H   H1785     1.0  0.65652  0.19185  0.27325  1.0000
  S   S439      1.0  0.66578  0.21801  0.94701  1.0000
  S   S440      1.0  0.67988  0.23810  0.94837  1.0000
  H   H1786     1.0  0.69450  0.22593  0.75763  1.0000
  H   H1787     1.0  0.58111  0.32016  0.66023  1.0000
  C   C1495     1.0  0.63346  0.17323  0.26348  1.0000
  C   C1496     1.0  0.71750  0.26496  0.26631  1.0000
  H   H1788     1.0  0.56115  0.31852  0.74862  1.0000
  C   C1497     1.0  0.65426  0.31855  0.90242  1.0000
  H   H1789     1.0  0.73833  0.24323  0.21306  1.0000
  C   C1498     1.0  0.64741  0.31870  0.93771  1.0000
  S   S441      1.0  0.66392  0.33438  0.98495  1.0000
  H   H1790     1.0  0.63977  0.31507  0.94558  1.0000
  C   C1499     1.0  0.58958  0.18788  0.77515  1.0000
  H   H1791     1.0  0.73424  0.27126  0.99435  1.0000
  H   H1792     1.0  0.56128  0.18012  0.26344  1.0000
  H   H1793     1.0  0.74925  0.24666  0.16991  1.0000
  C   C1500     1.0  0.57234  0.18091  0.78690  1.0000
  C   C1501     1.0  0.57968  0.18735  0.79313  1.0000
  H   H1794     1.0  0.63409  0.19468  0.61985  1.0000
  H   H1795     1.0  0.68868  0.17712  0.41610  1.0000
  C   C1502     1.0  0.63208  0.18337  0.87826  1.0000
  H   H1796     1.0  0.57766  0.19196  0.81164  1.0000
  C   C1503     1.0  0.64207  0.22533  0.83446  1.0000
  C   C1504     1.0  0.63791  0.23118  0.85613  1.0000
  C   C1505     1.0  0.64321  0.23603  0.87565  1.0000
  C   C1506     1.0  0.65267  0.23497  0.87390  1.0000
  C   C1507     1.0  0.65675  0.22895  0.85296  1.0000
  C   C1508     1.0  0.65151  0.22426  0.83284  1.0000
  H   H1797     1.0  0.63077  0.23231  0.85657  1.0000
  H   H1798     1.0  0.64002  0.24068  0.89172  1.0000
  H   H1799     1.0  0.66405  0.22811  0.85133  1.0000
  H   H1800     1.0  0.65480  0.21983  0.81578  1.0000
  C   C1509     1.0  0.60476  0.24987  0.84204  1.0000
  C   C1510     1.0  0.60130  0.25807  0.84769  1.0000
  C   C1511     1.0  0.60683  0.26532  0.85790  1.0000
  C   C1512     1.0  0.61589  0.26442  0.86235  1.0000
  C   C1513     1.0  0.61939  0.25628  0.85627  1.0000
  C   C1514     1.0  0.61395  0.24916  0.84544  1.0000
  H   H1801     1.0  0.59428  0.25879  0.84438  1.0000
  H   H1802     1.0  0.60406  0.27158  0.86235  1.0000
  H   H1803     1.0  0.62642  0.25553  0.85933  1.0000
  H   H1804     1.0  0.61693  0.24315  0.83957  1.0000
  C   C1515     1.0  0.61911  0.31341  0.07986  1.0000
  C   C1516     1.0  0.61216  0.30450  0.10271  1.0000
  C   C1517     1.0  0.60815  0.29860  0.08288  1.0000
  C   C1518     1.0  0.61116  0.30151  0.04019  1.0000
  C   C1519     1.0  0.61792  0.31053  0.01754  1.0000
  C   C1520     1.0  0.62182  0.31649  0.03731  1.0000
  H   H1805     1.0  0.60991  0.30217  0.13562  1.0000
  H   H1806     1.0  0.60282  0.29171  0.10069  1.0000
  H   H1807     1.0  0.62022  0.31292  0.98478  1.0000
  H   H1808     1.0  0.62710  0.32342  0.01950  1.0000
  C   C1521     1.0  0.58372  0.18427  0.27618  1.0000
  C   C1522     1.0  0.57579  0.18624  0.26325  1.0000
  C   C1523     1.0  0.56749  0.17852  0.27256  1.0000
  H   H1809     1.0  0.64341  0.20230  0.86435  1.0000
  C   C1524     1.0  0.70827  0.25857  0.92237  1.0000
  C   C1525     1.0  0.66031  0.32847  0.95251  1.0000
  H   H1810     1.0  0.57592  0.19372  0.24729  1.0000
  H   H1811     1.0  0.63996  0.18547  0.86496  1.0000
  H   H1812     1.0  0.71465  0.25187  0.31699  1.0000
  C   C1526     1.0  0.60946  0.21786  0.04238  1.0000
  C   C1527     1.0  0.61441  0.21962  0.00114  1.0000
  C   C1528     1.0  0.61087  0.21385  0.97994  1.0000
  C   C1529     1.0  0.60227  0.20636  0.99951  1.0000
  C   C1530     1.0  0.59760  0.20423  0.04143  1.0000
  C   C1531     1.0  0.60119  0.20998  0.06290  1.0000
  H   H1813     1.0  0.62088  0.22563  0.98515  1.0000
  H   H1814     1.0  0.61477  0.21538  0.94824  1.0000
  H   H1815     1.0  0.59102  0.19834  0.05705  1.0000
  H   H1816     1.0  0.59735  0.20853  0.09487  1.0000
  C   C1532     1.0  0.61011  0.25445  0.21526  1.0000
  C   C1533     1.0  0.60737  0.26302  0.22026  1.0000
  C   C1534     1.0  0.61424  0.27095  0.22045  1.0000
  C   C1535     1.0  0.62387  0.27030  0.21649  1.0000
  C   C1536     1.0  0.62658  0.26167  0.21212  1.0000
  C   C1537     1.0  0.61975  0.25380  0.21118  1.0000
  H   H1817     1.0  0.59990  0.26354  0.22389  1.0000
  H   H1818     1.0  0.61204  0.27751  0.22415  1.0000
  H   H1819     1.0  0.63401  0.26108  0.20924  1.0000
  H   H1820     1.0  0.62193  0.24722  0.20765  1.0000
  C   C1538     1.0  0.63427  0.28055  0.03632  1.0000
  H   H1821     1.0  0.63385  0.25832  0.12534  1.0000
  C   C1539     1.0  0.58465  0.17537  0.74483  1.0000
  C   C1540     1.0  0.57475  0.17478  0.76311  1.0000
  H   H1822     1.0  0.72469  0.33247  0.91654  1.0000
  H   H1823     1.0  0.72732  0.25898  0.34295  1.0000
  S   S442      1.0  0.72842  0.28027  0.93147  1.0000
  H   H1824     1.0  0.64933  0.32095  0.28103  1.0000
  C   C1541     1.0  0.65968  0.33146  0.22585  1.0000
  H   H1825     1.0  0.66106  0.21020  0.20703  1.0000
  C   C1542     1.0  0.58341  0.32215  0.59779  1.0000
  C   C1543     1.0  0.67750  0.22212  0.07381  1.0000
  C   C1544     1.0  0.67371  0.22150  0.11472  1.0000
  C   C1545     1.0  0.67975  0.22531  0.13443  1.0000
  H   H1826     1.0  0.63026  0.19890  0.80713  1.0000
  H   H1827     1.0  0.71126  0.25376  0.78991  1.0000
  H   H1828     1.0  0.67677  0.22475  0.16604  1.0000
  C   C1546     1.0  0.65463  0.23904  0.23828  1.0000
  C   C1547     1.0  0.65936  0.23501  0.20968  1.0000
  C   C1548     1.0  0.65394  0.22927  0.19361  1.0000
  C   C1549     1.0  0.64376  0.22769  0.20526  1.0000
  C   C1550     1.0  0.63900  0.23217  0.23217  1.0000
  C   C1551     1.0  0.64445  0.23783  0.24886  1.0000
  H   H1829     1.0  0.66725  0.23641  0.19947  1.0000
  H   H1830     1.0  0.65769  0.22627  0.17127  1.0000
  H   H1831     1.0  0.63113  0.23108  0.24096  1.0000
  H   H1832     1.0  0.64076  0.24104  0.27068  1.0000
  C   C1552     1.0  0.58394  0.32421  0.80089  1.0000
  H   H1833     1.0  0.73810  0.25331  0.25448  1.0000
  C   C1553     1.0  0.60157  0.33011  0.78185  1.0000
  C   C1554     1.0  0.60201  0.32164  0.81055  1.0000
  C   C1555     1.0  0.59338  0.31442  0.83439  1.0000
  C   C1556     1.0  0.58438  0.31568  0.82930  1.0000
  C   C1557     1.0  0.74747  0.26248  0.19309  1.0000
  H   H1834     1.0  0.73095  0.26651  0.18434  1.0000
  H   H1835     1.0  0.59365  0.30787  0.85652  1.0000
  H   H1836     1.0  0.57772  0.31006  0.84759  1.0000
  H   H1837     1.0  0.71914  0.21363  0.79685  1.0000
  N   N101      1.0  0.70689  0.22036  0.80353  1.0000
  H   H1838     1.0  0.73994  0.26314  0.02245  1.0000
  S   S443      1.0  0.74460  0.32548  0.93221  1.0000
  C   C1558     1.0  0.61136  0.19923  0.33017  1.0000
  H   H1839     1.0  0.65693  0.20151  0.79498  1.0000
  H   H1840     1.0  0.72752  0.25429  0.21962  1.0000
  H   H1841     1.0  0.58945  0.17291  0.30743  1.0000
  C   C1559     1.0  0.60088  0.32283  0.26876  1.0000
  C   C1560     1.0  0.60196  0.31855  0.30651  1.0000
  C   C1561     1.0  0.59757  0.32148  0.33983  1.0000
  C   C1562     1.0  0.59244  0.32891  0.33512  1.0000
  Fe  Fe221     1.0  0.74278  0.29017  0.92985  1.0000
  H   H1842     1.0  0.60419  0.32059  0.24296  1.0000
  H   H1843     1.0  0.59829  0.31811  0.36921  1.0000
  H   H1844     1.0  0.60419  0.19763  0.32482  1.0000
  C   C1563     1.0  0.56409  0.32374  0.61182  1.0000
  H   H1845     1.0  0.70037  0.25628  0.93187  1.0000
  C   C1564     1.0  0.68734  0.22682  0.05215  1.0000
  H   H1846     1.0  0.67330  0.18301  0.42926  1.0000
  H   H1847     1.0  0.55439  0.33259  0.66307  1.0000
  C   C1565     1.0  0.60182  0.23662  0.95714  1.0000
  H   H1848     1.0  0.70836  0.27059  0.94729  1.0000
  H   H1849     1.0  0.61670  0.18866  0.80008  1.0000
  H   H1850     1.0  0.65156  0.20802  0.18555  1.0000
  H   H1851     1.0  0.72019  0.31992  0.98405  1.0000
  N   N102      1.0  0.74152  0.25804  0.17188  1.0000
  H   H1852     1.0  0.73505  0.28611  0.24472  1.0000
  C   C1566     1.0  0.68968  0.22972  0.11320  1.0000
  H   H1853     1.0  0.68391  0.20197  0.28156  1.0000
  H   H1854     1.0  0.56841  0.31207  0.72159  1.0000
  C   C1567     1.0  0.65127  0.19533  0.66697  1.0000
  C   C1568     1.0  0.61172  0.17674  0.91024  1.0000
  H   H1855     1.0  0.67701  0.18573  0.27689  1.0000
  H   H1856     1.0  0.64121  0.20504  0.76520  1.0000
  C   C1569     1.0  0.56773  0.32203  0.64524  1.0000
  H   H1857     1.0  0.64957  0.19680  0.72506  1.0000
  C   C1570     1.0  0.62932  0.29226  0.11071  1.0000
  H   H1858     1.0  0.61106  0.18033  0.36180  1.0000
  H   H1859     1.0  0.62934  0.28743  0.14026  1.0000
  H   H1860     1.0  0.62969  0.29975  0.11350  1.0000
  N   N103      1.0  0.71813  0.33469  0.97393  1.0000
  H   H1861     1.0  0.66635  0.20961  0.83093  1.0000
  C   C1571     1.0  0.66293  0.19585  0.17153  1.0000
  C   C1572     1.0  0.73062  0.27867  0.26069  1.0000
  C   C1573     1.0  0.70391  0.21729  0.84862  1.0000
  C   C1574     1.0  0.71749  0.22096  0.78713  1.0000
  H   H1862     1.0  0.72200  0.22594  0.79783  1.0000
  H   H1863     1.0  0.70292  0.20520  0.80544  1.0000
  H   H1864     1.0  0.67026  0.20074  0.16500  1.0000
  C   C1575     1.0  0.71285  0.26672  0.93108  1.0000
  H   H1865     1.0  0.72470  0.24473  0.04529  1.0000
  S   S444      1.0  0.70881  0.26021  0.24490  1.0000
  H   H1866     1.0  0.66249  0.19461  0.39957  1.0000
  C   C1576     1.0  0.62751  0.19608  0.32007  1.0000
  Fe  Fe222     1.0  0.69709  0.24623  0.25564  1.0000
  H   H1867     1.0  0.60474  0.24209  0.92606  1.0000
  C   C1577     1.0  0.57957  0.32378  0.56579  1.0000
  H   H1868     1.0  0.64604  0.17771  0.27887  1.0000
  C   C1578     1.0  0.58728  0.22784  0.01477  1.0000
  H   H1869     1.0  0.71580  0.26737  0.01396  1.0000
  H   H1870     1.0  0.73668  0.26717  0.88805  1.0000
  H   H1871     1.0  0.72951  0.24853  0.08154  1.0000
  C   C1579     1.0  0.72420  0.25675  0.88862  1.0000
  C   C1580     1.0  0.64702  0.19462  0.63720  1.0000
  H   H1872     1.0  0.64299  0.18532  0.36405  1.0000
  N   N104      1.0  0.59098  0.23354  0.97064  1.0000
  C   C1581     1.0  0.58820  0.22677  0.94873  1.0000
  C   C1582     1.0  0.66989  0.18663  0.86133  1.0000
  H   H1873     1.0  0.59098  0.32173  0.59195  1.0000
  C   C1583     1.0  0.58715  0.24247  0.96300  1.0000
  C   C1584     1.0  0.58225  0.24486  0.93382  1.0000
  C   C1585     1.0  0.58885  0.24942  0.98322  1.0000
  C   C1586     1.0  0.57918  0.25362  0.92594  1.0000
  C   C1587     1.0  0.58580  0.25819  0.97492  1.0000
  C   C1588     1.0  0.58097  0.26028  0.94632  1.0000
  H   H1874     1.0  0.60518  0.23035  0.95579  1.0000
  H   H1875     1.0  0.72227  0.27912  0.21933  1.0000
  H   H1876     1.0  0.59146  0.23025  0.91518  1.0000
  C   C1589     1.0  0.69343  0.23055  0.07190  1.0000
  C   C1590     1.0  0.67060  0.19663  0.85818  1.0000
  H   H1877     1.0  0.72014  0.22378  0.75321  1.0000
  H   H1878     1.0  0.59280  0.24824  0.00480  1.0000
  C   C1591     1.0  0.62014  0.19711  0.26704  1.0000
  H   H1879     1.0  0.67686  0.24585  0.06583  1.0000
  H   H1880     1.0  0.58097  0.24025  0.91564  1.0000
  C   C1592     1.0  0.73211  0.27308  0.29576  1.0000
  H   H1881     1.0  0.57562  0.25538  0.90300  1.0000
  H   H1882     1.0  0.58731  0.26348  0.99017  1.0000
  H   H1883     1.0  0.57875  0.26715  0.93944  1.0000
  S   S445      1.0  0.68844  0.21855  0.94278  1.0000
  H   H1884     1.0  0.58967  0.22083  0.02095  1.0000
  H   H1885     1.0  0.64716  0.33124  0.13379  1.0000
  C   C1593     1.0  0.72878  0.26483  0.89782  1.0000
  H   H1886     1.0  0.71460  0.23777  0.81328  1.0000
  H   H1887     1.0  0.57266  0.32516  0.71161  1.0000
  C   C1594     1.0  0.63323  0.20594  0.30604  1.0000
  H   H1888     1.0  0.64844  0.30248  0.08481  1.0000
  H   H1889     1.0  0.62604  0.19412  0.25163  1.0000
  S   S446      1.0  0.69978  0.23191  0.24676  1.0000
  H   H1890     1.0  0.66792  0.23766  0.03131  1.0000
  H   H1891     1.0  0.62246  0.20524  0.25335  1.0000
  H   H1892     1.0  0.61355  0.19471  0.25884  1.0000
  H   H1893     1.0  0.64826  0.33129  0.08285  1.0000
  H   H1894     1.0  0.60604  0.18187  0.32114  1.0000
  H   H1895     1.0  0.63123  0.17363  0.84280  1.0000
  C   C1595     1.0  0.64252  0.19890  0.89713  1.0000
  C   C1596     1.0  0.71904  0.25933  0.30118  1.0000
  H   H1896     1.0  0.54073  0.32446  0.32099  1.0000
  C   C1597     1.0  0.65428  0.20480  0.21091  1.0000
  C   C1598     1.0  0.63578  0.19663  0.71102  1.0000
  C   C1599     1.0  0.72011  0.27562  0.13182  1.0000
  C   C1600     1.0  0.74507  0.26288  0.12705  1.0000
  C   C1601     1.0  0.66444  0.18195  0.84134  1.0000
  N   N105      1.0  0.65390  0.27165  0.27837  1.0000
  C   C1602     1.0  0.65427  0.26912  0.24074  1.0000
  C   C1603     1.0  0.65836  0.26479  0.30225  1.0000
  C   C1604     1.0  0.64348  0.26980  0.30322  1.0000
  C   C1605     1.0  0.65886  0.28217  0.26741  1.0000
  C   C1606     1.0  0.65512  0.28965  0.24655  1.0000
  C   C1607     1.0  0.66746  0.28534  0.27672  1.0000
  C   C1608     1.0  0.65953  0.29963  0.23654  1.0000
  C   C1609     1.0  0.67180  0.29537  0.26658  1.0000
  C   C1610     1.0  0.66781  0.30250  0.24673  1.0000
  H   H1897     1.0  0.66198  0.27047  0.22104  1.0000
  H   H1898     1.0  0.65073  0.26120  0.24778  1.0000
  H   H1899     1.0  0.65043  0.27346  0.22244  1.0000
  H   H1900     1.0  0.66600  0.26517  0.28427  1.0000
  H   H1901     1.0  0.65429  0.25696  0.31097  1.0000
  H   H1902     1.0  0.65835  0.26626  0.33107  1.0000
  H   H1903     1.0  0.63924  0.27382  0.28604  1.0000
  H   H1904     1.0  0.63963  0.26187  0.31344  1.0000
  H   H1905     1.0  0.64286  0.27212  0.33073  1.0000
  H   H1906     1.0  0.64872  0.28784  0.23788  1.0000
  H   H1907     1.0  0.67098  0.28024  0.29183  1.0000
  H   H1908     1.0  0.65648  0.30519  0.22083  1.0000
  H   H1909     1.0  0.67830  0.29765  0.27420  1.0000
  H   H1910     1.0  0.67113  0.31027  0.23909  1.0000
  H   H1911     1.0  0.70872  0.25580  0.05184  1.0000
  C   C1611     1.0  0.66581  0.20191  0.83423  1.0000
  C   C1612     1.0  0.69674  0.24108  0.75128  1.0000
  C   C1613     1.0  0.63171  0.19597  0.67985  1.0000
  H   H1912     1.0  0.70359  0.21411  0.75899  1.0000
  S   S447      1.0  0.70853  0.24345  0.88708  1.0000
  C   C1614     1.0  0.71444  0.26195  0.11032  1.0000
  H   H1913     1.0  0.73733  0.24393  0.16410  1.0000
  C   C1615     1.0  0.56614  0.31913  0.71814  1.0000
  H   H1914     1.0  0.66606  0.21810  0.13091  1.0000
  H   H1915     1.0  0.63102  0.25566  0.06370  1.0000
  C   C1616     1.0  0.63505  0.19831  0.77851  1.0000
  H   H1916     1.0  0.64306  0.24618  0.01834  1.0000
  N   N106      1.0  0.62963  0.19737  0.74967  1.0000
  C   C1617     1.0  0.66373  0.24030  0.05403  1.0000
  N   N107      1.0  0.59988  0.26127  0.10000  1.0000
  C   C1618     1.0  0.59333  0.25166  0.12829  1.0000
  C   C1619     1.0  0.60756  0.26432  0.11710  1.0000
  C   C1620     1.0  0.59385  0.26862  0.09856  1.0000
  C   C1621     1.0  0.60464  0.26039  0.05962  1.0000
  C   C1622     1.0  0.60975  0.25293  0.05638  1.0000
  C   C1623     1.0  0.60477  0.26709  0.02251  1.0000
  C   C1624     1.0  0.61452  0.25213  0.01850  1.0000
  C   C1625     1.0  0.60955  0.26621  0.98484  1.0000
  C   C1626     1.0  0.61440  0.25875  0.98283  1.0000
  H   H1917     1.0  0.59737  0.24591  0.13555  1.0000
  H   H1918     1.0  0.58940  0.25223  0.15847  1.0000
  H   H1919     1.0  0.58776  0.24883  0.11555  1.0000
  H   H1920     1.0  0.61172  0.25863  0.12344  1.0000
  H   H1921     1.0  0.60434  0.26555  0.14657  1.0000
  H   H1922     1.0  0.61287  0.27131  0.09596  1.0000
  H   H1923     1.0  0.58815  0.26700  0.08442  1.0000
  H   H1924     1.0  0.59001  0.26879  0.12954  1.0000
  H   H1925     1.0  0.59843  0.27623  0.08138  1.0000
  H   H1926     1.0  0.61022  0.24771  0.08310  1.0000
  H   H1927     1.0  0.60132  0.27317  0.02160  1.0000
  H   H1928     1.0  0.61835  0.24637  0.01675  1.0000
  C   C1627     1.0  0.62556  0.20613  0.74111  1.0000
  C   C1628     1.0  0.65360  0.23259  0.00663  1.0000
  H   H1929     1.0  0.63773  0.22332  0.10330  1.0000
  H   H1930     1.0  0.63598  0.23477  0.01915  1.0000
  H   H1931     1.0  0.65798  0.23996  0.98495  1.0000
  H   H1932     1.0  0.65864  0.22776  0.01148  1.0000
  H   H1933     1.0  0.64906  0.22924  0.99090  1.0000
  H   H1934     1.0  0.64082  0.24049  0.10908  1.0000
  H   H1935     1.0  0.72868  0.25299  0.87179  1.0000
  H   H1936     1.0  0.54778  0.31471  0.67945  1.0000
  H   H1937     1.0  0.63486  0.18346  0.96682  1.0000
  H   H1938     1.0  0.74035  0.25956  0.11199  1.0000
  H   H1939     1.0  0.65309  0.29423  0.05954  1.0000
  H   H1940     1.0  0.60988  0.19713  0.36367  1.0000
  C   C1629     1.0  0.72314  0.26995  0.91886  1.0000
  H   H1941     1.0  0.67359  0.18244  0.87944  1.0000
  H   H1942     1.0  0.64381  0.19591  0.16561  1.0000
  C   C1630     1.0  0.70965  0.23841  0.79568  1.0000
  H   H1943     1.0  0.69168  0.24215  0.73426  1.0000
  H   H1944     1.0  0.73675  0.27648  0.04493  1.0000
  H   H1945     1.0  0.70265  0.32816  0.00378  1.0000
  C   C1631     1.0  0.70137  0.24900  0.76002  1.0000
  H   H1946     1.0  0.69992  0.25618  0.74993  1.0000
  C   C1632     1.0  0.56993  0.32453  0.57284  1.0000
  H   H1947     1.0  0.59479  0.33342  0.23497  1.0000
  C   C1633     1.0  0.66048  0.19727  0.81371  1.0000
  C   C1634     1.0  0.69847  0.23176  0.76492  1.0000
  C   C1635     1.0  0.67366  0.18773  0.30336  1.0000
  H   H1948     1.0  0.59177  0.18487  0.88101  1.0000
  H   H1949     1.0  0.59003  0.23186  0.03346  1.0000
  H   H1950     1.0  0.60823  0.33567  0.76307  1.0000
  H   H1951     1.0  0.64604  0.20481  0.90691  1.0000
  N   N108      1.0  0.65233  0.27221  0.82531  1.0000
  C   C1636     1.0  0.64847  0.26607  0.86883  1.0000
  C   C1637     1.0  0.66299  0.27286  0.80969  1.0000
  C   C1638     1.0  0.65119  0.28233  0.82278  1.0000
  C   C1639     1.0  0.64713  0.26756  0.80222  1.0000
  C   C1640     1.0  0.64826  0.25828  0.79845  1.0000
  C   C1641     1.0  0.64052  0.27180  0.78454  1.0000
  C   C1642     1.0  0.64317  0.25358  0.77804  1.0000
  C   C1643     1.0  0.63547  0.26703  0.76418  1.0000
  C   C1644     1.0  0.63677  0.25794  0.76102  1.0000
  H   H1952     1.0  0.64978  0.25856  0.87348  1.0000
  H   H1953     1.0  0.65199  0.26941  0.88765  1.0000
  H   H1954     1.0  0.64042  0.26519  0.88131  1.0000
  H   H1955     1.0  0.66469  0.26551  0.81590  1.0000
  H   H1956     1.0  0.66720  0.27699  0.82434  1.0000
  H   H1957     1.0  0.66599  0.27668  0.77619  1.0000
  H   H1958     1.0  0.64344  0.28236  0.83725  1.0000
  H   H1959     1.0  0.65545  0.28580  0.83911  1.0000
  H   H1960     1.0  0.65374  0.28727  0.79062  1.0000
  H   H1961     1.0  0.65295  0.25447  0.81196  1.0000
  H   H1962     1.0  0.63886  0.27865  0.78705  1.0000
  H   H1963     1.0  0.64408  0.24643  0.77594  1.0000
  H   H1964     1.0  0.63027  0.27028  0.75187  1.0000
  H   H1965     1.0  0.63268  0.25419  0.74597  1.0000
  C   C1645     1.0  0.59256  0.33145  0.77732  1.0000
  H   H1966     1.0  0.64677  0.28999  0.11367  1.0000
  C   C1646     1.0  0.62711  0.17647  0.86522  1.0000
  C   C1647     1.0  0.63578  0.27404  0.10311  1.0000
  C   C1648     1.0  0.63597  0.28235  0.07120  1.0000
  Fe  Fe223     1.0  0.69244  0.23477  0.90676  1.0000
  C   C1649     1.0  0.55843  0.33058  0.68493  1.0000
  H   H1967     1.0  0.66266  0.18478  0.24463  1.0000
  H   H1968     1.0  0.61969  0.20074  0.94232  1.0000
  H   H1969     1.0  0.60631  0.17596  0.65679  1.0000
  H   H1970     1.0  0.66946  0.32322  0.86514  1.0000
  H   H1971     1.0  0.56473  0.18069  0.80067  1.0000
  C   C1650     1.0  0.61662  0.18360  0.92373  1.0000
  H   H1972     1.0  0.67056  0.17796  0.48289  1.0000
  C   C1651     1.0  0.70813  0.33122  0.97267  1.0000
  C   C1652     1.0  0.67362  0.19944  0.34068  1.0000
  H   H1973     1.0  0.70778  0.32531  0.95833  1.0000
  H   H1974     1.0  0.58919  0.33121  0.36083  1.0000
  H   H1975     1.0  0.55361  0.33029  0.71515  1.0000
  C   C1653     1.0  0.64663  0.18797  0.22040  1.0000
  H   H1976     1.0  0.61811  0.25814  0.95347  1.0000
  C   C1654     1.0  0.62725  0.20298  0.92049  1.0000
  H   H1977     1.0  0.60957  0.27141  0.95687  1.0000
  N   N109      1.0  0.64756  0.23336  0.04562  1.0000
  H   H1978     1.0  0.55170  0.33086  0.27864  1.0000
  C   C1655     1.0  0.59200  0.18184  0.75088  1.0000
  C   C1656     1.0  0.64281  0.22326  0.07422  1.0000
  C   C1657     1.0  0.63985  0.23827  0.03660  1.0000
  H   H1979     1.0  0.63847  0.21879  0.06113  1.0000
  H   H1980     1.0  0.70870  0.25553  0.11632  1.0000
  C   C1658     1.0  0.66714  0.32836  0.91715  1.0000
  C   C1659     1.0  0.65404  0.24692  0.11611  1.0000
  C   C1660     1.0  0.72086  0.32607  0.99704  1.0000
  S   S448      1.0  0.68407  0.23198  0.86418  1.0000
  H   H1981     1.0  0.63118  0.26985  0.00696  1.0000
  H   H1982     1.0  0.62687  0.20630  0.88956  1.0000
  C   C1661     1.0  0.64868  0.24204  0.09702  1.0000
  H   H1983     1.0  0.65129  0.19366  0.60939  1.0000
  C   C1662     1.0  0.63252  0.27101  0.03380  1.0000
  H   H1984     1.0  0.63149  0.21298  0.72382  1.0000
  N   N110      1.0  0.63747  0.29226  0.07579  1.0000
  H   H1985     1.0  0.62131  0.20715  0.76970  1.0000
  C   C1663     1.0  0.66555  0.19274  0.37244  1.0000
  H   H1986     1.0  0.60455  0.24001  0.97762  1.0000
  C   C1664     1.0  0.71390  0.25355  0.90070  1.0000
  C   C1665     1.0  0.70148  0.21248  0.79257  1.0000
  C   C1666     1.0  0.65338  0.23878  0.06467  1.0000
  H   H1987     1.0  0.64838  0.21937  0.08214  1.0000
  H   H1988     1.0  0.63884  0.30755  0.04395  1.0000
  C   C1667     1.0  0.63730  0.19506  0.64340  1.0000
  C   C1668     1.0  0.70780  0.24766  0.78224  1.0000
  H   H1989     1.0  0.70799  0.22248  0.85989  1.0000
  C   C1669     1.0  0.64247  0.17958  0.25614  1.0000
  C   C1670     1.0  0.64566  0.20084  0.33377  1.0000
  H   H1990     1.0  0.63396  0.23770  0.06456  1.0000
  S   S449      1.0  0.65274  0.18178  0.79067  1.0000
  C   C1671     1.0  0.63404  0.26454  0.10029  1.0000
  C   C1672     1.0  0.63243  0.26303  0.06567  1.0000
  C   C1673     1.0  0.59145  0.33325  0.29728  1.0000
  H   H1991     1.0  0.56134  0.17208  0.40763  1.0000
  S   S450      1.0  0.74008  0.29669  0.98114  1.0000
  H   H1992     1.0  0.72862  0.32784  0.99605  1.0000
  H   H1993     1.0  0.65028  0.24913  0.14141  1.0000
  C   C1674     1.0  0.66143  0.18364  0.36934  1.0000
  H   H1994     1.0  0.62415  0.19612  0.68368  1.0000
  C   C1675     1.0  0.63778  0.30021  0.03934  1.0000
  C   C1676     1.0  0.66413  0.32333  0.89238  1.0000
  H   H1995     1.0  0.66812  0.19747  0.23484  1.0000
  S   S451      1.0  0.67796  0.20219  0.88302  1.0000
  Fe  Fe224     1.0  0.68471  0.22464  0.29352  1.0000
  C   C1677     1.0  0.72335  0.27465  0.24629  1.0000
  H   H1996     1.0  0.61648  0.18756  0.75238  1.0000
  H   H1997     1.0  0.62416  0.18164  0.77695  1.0000
  N   N111      1.0  0.61816  0.19386  0.31171  1.0000
  C   C1678     1.0  0.54559  0.33391  0.37161  1.0000
  C   C1679     1.0  0.63130  0.18868  0.34121  1.0000
  H   H1998     1.0  0.64638  0.21587  0.30187  1.0000
  H   H1999     1.0  0.63800  0.19178  0.78757  1.0000
  C   C1680     1.0  0.57762  0.32128  0.63703  1.0000
  C   C1681     1.0  0.62142  0.18843  0.77057  1.0000
  C   C1682     1.0  0.72626  0.26339  0.31583  1.0000
  C   C1683     1.0  0.64684  0.29480  0.08381  1.0000
  H   H2000     1.0  0.63419  0.28638  0.01058  1.0000
  C   C1684     1.0  0.63222  0.18314  0.20053  1.0000
  H   H2001     1.0  0.63088  0.21194  0.28922  1.0000
  H   H2002     1.0  0.62212  0.28963  0.10737  1.0000
  H   H2003     1.0  0.62037  0.20554  0.72376  1.0000
  H   H2004     1.0  0.66405  0.18852  0.17017  1.0000
  C   C1685     1.0  0.74162  0.24751  0.18005  1.0000
  H   H2005     1.0  0.69034  0.22739  0.02045  1.0000
  H   H2006     1.0  0.61624  0.32854  0.33814  1.0000
  H   H2007     1.0  0.73400  0.25943  0.98918  1.0000
  H   H2008     1.0  0.71898  0.27965  0.15342  1.0000
  H   H2009     1.0  0.70504  0.20988  0.86191  1.0000
  H   H2010     1.0  0.64392  0.30082  0.01195  1.0000
  C   C1686     1.0  0.70498  0.23014  0.78778  1.0000
  C   C1687     1.0  0.72297  0.26497  0.07552  1.0000
  H   H2011     1.0  0.59089  0.21995  0.95621  1.0000
  Fe  Fe225     1.0  0.69151  0.23441  0.20176  1.0000
  S   S452      1.0  0.68965  0.24900  0.20761  1.0000
  C   C1688     1.0  0.62696  0.18732  0.90739  1.0000
  H   H2012     1.0  0.63686  0.27485  0.13077  1.0000
  H   H2013     1.0  0.65881  0.19487  0.66231  1.0000
  C   C1689     1.0  0.66900  0.24503  0.07379  1.0000
  C   C1690     1.0  0.64580  0.19642  0.70324  1.0000
  H   H2014     1.0  0.61426  0.20735  0.31729  1.0000
  H   H2015     1.0  0.70109  0.23399  0.05518  1.0000
  S   S453      1.0  0.69766  0.23406  0.13742  1.0000
  H   H2016     1.0  0.66827  0.25182  0.12050  1.0000
  H   H2017     1.0  0.55264  0.32386  0.32544  1.0000
  H   H2018     1.0  0.65259  0.20269  0.33902  1.0000
  H   H2019     1.0  0.54769  0.31202  0.73077  1.0000
  S   S454      1.0  0.67920  0.21038  0.34704  1.0000
  C   C1691     1.0  0.72857  0.27877  0.09816  1.0000
  H   H2020     1.0  0.66399  0.17427  0.84436  1.0000
  H   H2021     1.0  0.71658  0.24516  0.09095  1.0000
  C   C1692     1.0  0.72373  0.24903  0.06690  1.0000
  H   H2022     1.0  0.64691  0.19328  0.89994  1.0000
  H   H2023     1.0  0.66037  0.19913  0.14572  1.0000
  H   H2024     1.0  0.71618  0.32327  0.02958  1.0000
  C   C1693     1.0  0.54840  0.32881  0.31223  1.0000
  H   H2025     1.0  0.64515  0.32374  0.99006  1.0000
  H   H2026     1.0  0.69600  0.21685  0.86179  1.0000
  C   C1694     1.0  0.65973  0.18724  0.81705  1.0000
  C   C1695     1.0  0.64026  0.19108  0.34778  1.0000
  N   N112      1.0  0.65605  0.19499  0.21176  1.0000
  H   H2027     1.0  0.56498  0.33679  0.67538  1.0000
  C   C1696     1.0  0.71308  0.26724  0.13785  1.0000
  H   H2028     1.0  0.62370  0.33660  0.35446  1.0000
  C   C1697     1.0  0.63145  0.18985  0.96445  1.0000
  S   S455      1.0  0.74132  0.27773  0.31502  1.0000
  C   C1698     1.0  0.67758  0.19694  0.30588  1.0000
  H   H2029     1.0  0.65427  0.32974  0.32604  1.0000
  H   H2030     1.0  0.55677  0.32474  0.61528  1.0000
  H   H2031     1.0  0.55389  0.17314  0.53649  1.0000
  H   H2032     1.0  0.60381  0.17412  0.92279  1.0000
  C   C1699     1.0  0.65045  0.32359  0.96287  1.0000
  H   H2033     1.0  0.71683  0.25597  0.00469  1.0000
  C   C1700     1.0  0.71601  0.25964  0.02854  1.0000
  C   C1701     1.0  0.61696  0.17321  0.88086  1.0000
  C   C1702     1.0  0.66551  0.18108  0.33477  1.0000
  H   H2034     1.0  0.63079  0.29905  0.03249  1.0000
  H   H2035     1.0  0.63133  0.20897  0.92822  1.0000
  N   N113      1.0  0.63202  0.19465  0.92184  1.0000
  C   C1703     1.0  0.66100  0.19210  0.24250  1.0000
  H   H2036     1.0  0.57913  0.22592  0.02652  1.0000
  N   N114      1.0  0.72411  0.25943  0.04605  1.0000
  C   C1704     1.0  0.61303  0.18323  0.32805  1.0000
  H   H2037     1.0  0.70652  0.26487  0.16417  1.0000
  H   H2038     1.0  0.73402  0.28536  0.09331  1.0000
  C   C1705     1.0  0.65504  0.32771  0.26800  1.0000
  H   H2039     1.0  0.53793  0.32932  0.38507  1.0000
  C   C1706     1.0  0.64119  0.18958  0.19299  1.0000
  C   C1707     1.0  0.59051  0.17230  0.86018  1.0000
  H   H2040     1.0  0.62373  0.18707  0.98522  1.0000
  H   H2041     1.0  0.63532  0.19506  0.97636  1.0000
  H   H2042     1.0  0.59961  0.18215  0.73680  1.0000
  H   H2043     1.0  0.74891  0.28687  0.13488  1.0000
  C   C1708     1.0  0.73126  0.25875  0.18711  1.0000
  H   H2044     1.0  0.62388  0.17949  0.61414  1.0000
  C   C1709     1.0  0.59560  0.33012  0.26426  1.0000
  H   H2045     1.0  0.54541  0.17592  0.42067  1.0000
  H   H2046     1.0  0.74501  0.27081  0.11926  1.0000
  H   H2047     1.0  0.62820  0.18454  0.17912  1.0000
  C   C1710     1.0  0.62013  0.33635  0.33091  1.0000
  H   H2048     1.0  0.55435  0.30608  0.69833  1.0000
  H   H2049     1.0  0.58414  0.32478  0.53511  1.0000
  H   H2050     1.0  0.56711  0.32619  0.54744  1.0000
  H   H2051     1.0  0.64633  0.33419  0.84580  1.0000
  C   C1711     1.0  0.65788  0.33266  0.29343  1.0000
  H   H2052     1.0  0.62874  0.32553  0.29026  1.0000
  H   H2053     1.0  0.55493  0.17496  0.46588  1.0000
  H   H2054     1.0  0.55033  0.32932  0.38286  1.0000
  H   H2055     1.0  0.68610  0.17277  0.46982  1.0000
  H   H2056     1.0  0.59827  0.17401  0.84351  1.0000
  H   H2057     1.0  0.61754  0.17870  0.31458  1.0000
  C   C1712     1.0  0.63338  0.33291  0.28527  1.0000
  H   H2058     1.0  0.63272  0.32957  0.82276  1.0000
  C   C1713     1.0  0.62836  0.17498  0.23573  1.0000
  H   H2059     1.0  0.74752  0.26079  0.29012  1.0000
  C   C1714     1.0  0.66974  0.17613  0.45567  1.0000
  H   H2060     1.0  0.63724  0.33179  0.30827  1.0000
  H   H2061     1.0  0.67477  0.33204  0.90917  1.0000
  H   H2062     1.0  0.57408  0.18116  0.91820  1.0000
  C   C1715     1.0  0.64667  0.33559  0.10432  1.0000
  H   H2063     1.0  0.63883  0.33516  0.25415  1.0000
  H   H2064     1.0  0.61837  0.33349  0.26087  1.0000
  C   C1716     1.0  0.57687  0.17637  0.90180  1.0000
  H   H2065     1.0  0.66177  0.17434  0.45980  1.0000
  Fe  Fe226     1.0  0.74901  0.31114  0.93517  1.0000
  H   H2066     1.0  0.63893  0.33598  0.10920  1.0000
  C   C1717     1.0  0.62397  0.17230  0.63455  1.0000
  H   H2067     1.0  0.62591  0.17353  0.66110  1.0000
  S   S456      1.0  0.74915  0.32859  0.27062  1.0000
  S   S457      1.0  0.63807  0.17152  0.73398  1.0000
  H   H2068     1.0  0.67700  0.17342  0.38425  1.0000
  H   H2069     1.0  0.58663  0.17083  0.72600  1.0000
  H   H2070     1.0  0.65069  0.17064  0.55040  1.0000
  C   C1718     1.0  0.68470  0.17066  0.44396  1.0000
  Fe  Fe227     1.0  0.53098  0.39624  0.22903  1.0000
  S   S458      1.0  0.53925  0.40859  0.17075  1.0000
  S   S459      1.0  0.53718  0.38283  0.23242  1.0000
  Fe  Fe228     1.0  0.51807  0.40878  0.26250  1.0000
  S   S460      1.0  0.52555  0.42193  0.20728  1.0000
  N   N115      1.0  0.51497  0.37141  0.94758  1.0000
  Fe  Fe229     1.0  0.52463  0.41146  0.17160  1.0000
  S   S461      1.0  0.52122  0.41784  0.11388  1.0000
  Fe  Fe230     1.0  0.53937  0.41777  0.21142  1.0000
  S   S462      1.0  0.55250  0.42983  0.19766  1.0000
  S   S463      1.0  0.51608  0.39833  0.22691  1.0000
  S   S464      1.0  0.53214  0.40536  0.26973  1.0000
  H   H2071     1.0  0.55374  0.42782  0.95039  1.0000
  H   H2072     1.0  0.56184  0.39528  0.83806  1.0000
  H   H2073     1.0  0.69513  0.39849  0.40923  1.0000
  H   H2074     1.0  0.55313  0.40481  0.03027  1.0000
  S   S465      1.0  0.59433  0.38561  0.32841  1.0000
  H   H2075     1.0  0.55916  0.43585  0.97304  1.0000
  Fe  Fe231     1.0  0.62012  0.40425  0.45345  1.0000
  S   S466      1.0  0.63142  0.41019  0.39181  1.0000
  S   S467      1.0  0.60853  0.39034  0.47444  1.0000
  Fe  Fe232     1.0  0.62797  0.42057  0.48245  1.0000
  S   S468      1.0  0.64015  0.42823  0.42270  1.0000
  S   S469      1.0  0.62298  0.42510  0.53858  1.0000
  Fe  Fe233     1.0  0.62851  0.42487  0.39419  1.0000
  S   S470      1.0  0.62480  0.43375  0.34075  1.0000
  Fe  Fe234     1.0  0.64199  0.41288  0.42507  1.0000
  S   S471      1.0  0.65519  0.40633  0.42071  1.0000
  S   S472      1.0  0.61634  0.41849  0.45343  1.0000
  S   S473      1.0  0.63073  0.40568  0.48711  1.0000
  Fe  Fe235     1.0  0.56975  0.44776  0.33892  1.0000
  S   S474      1.0  0.57207  0.45397  0.38724  1.0000
  S   S475      1.0  0.56521  0.43154  0.34982  1.0000
  Fe  Fe236     1.0  0.57520  0.46780  0.27419  1.0000
  S   S476      1.0  0.57839  0.47577  0.31684  1.0000
  S   S477      1.0  0.57524  0.47663  0.21195  1.0000
  Fe  Fe237     1.0  0.58570  0.46365  0.33720  1.0000
  S   S478      1.0  0.60008  0.46587  0.34969  1.0000
  Fe  Fe238     1.0  0.56451  0.46544  0.36296  1.0000
  S   S479      1.0  0.55130  0.46931  0.39984  1.0000
  S   S480      1.0  0.58382  0.45671  0.29027  1.0000
  S   S481      1.0  0.56092  0.45819  0.31893  1.0000
  Fe  Fe239     1.0  0.52360  0.40656  0.91755  1.0000
  S   S482      1.0  0.51819  0.40040  0.87391  1.0000
  S   S483      1.0  0.52273  0.39676  0.97954  1.0000
  Fe  Fe240     1.0  0.53181  0.42698  0.85569  1.0000
  S   S484      1.0  0.52739  0.42258  0.80678  1.0000
  S   S485      1.0  0.53912  0.44273  0.84325  1.0000
  Fe  Fe241     1.0  0.51323  0.41442  0.85647  1.0000
  H   H2076     1.0  0.50562  0.35677  0.97349  1.0000
  Fe  Fe242     1.0  0.53282  0.40909  0.82803  1.0000
  S   S486      1.0  0.54269  0.40431  0.78028  1.0000
  S   S487      1.0  0.51736  0.41972  0.90431  1.0000
  S   S488      1.0  0.53854  0.41433  0.87267  1.0000
  C   C1719     1.0  0.57468  0.42594  0.07622  1.0000
  Fe  Fe243     1.0  0.58379  0.36187  0.71707  1.0000
  H   H2077     1.0  0.51301  0.43781  0.80059  1.0000
  S   S489      1.0  0.59855  0.37212  0.69662  1.0000
  Fe  Fe244     1.0  0.56312  0.35819  0.77296  1.0000
  S   S490      1.0  0.55372  0.36305  0.82200  1.0000
  H   H2078     1.0  0.61154  0.35530  0.77451  1.0000
  S   S491      1.0  0.57095  0.36764  0.70816  1.0000
  Fe  Fe245     1.0  0.63305  0.41041  0.74442  1.0000
  S   S492      1.0  0.64047  0.41581  0.78479  1.0000
  S   S493      1.0  0.64124  0.41190  0.67945  1.0000
  Fe  Fe246     1.0  0.61349  0.40227  0.81075  1.0000
  S   S494      1.0  0.61898  0.40688  0.85702  1.0000
  S   S495      1.0  0.59786  0.39522  0.82152  1.0000
  Fe  Fe247     1.0  0.62682  0.42096  0.80604  1.0000
  S   S496      1.0  0.62734  0.43611  0.81190  1.0000
  Fe  Fe248     1.0  0.63206  0.40126  0.83232  1.0000
  S   S497      1.0  0.63701  0.39156  0.87946  1.0000
  S   S498      1.0  0.62018  0.41677  0.76178  1.0000
  S   S499      1.0  0.62585  0.39540  0.79039  1.0000
  Fe  Fe249     1.0  0.58026  0.46132  0.01100  1.0000
  S   S500      1.0  0.59116  0.46625  0.94734  1.0000
  S   S501      1.0  0.58403  0.45778  0.06969  1.0000
  Fe  Fe250     1.0  0.56308  0.45575  0.98157  1.0000
  S   S502      1.0  0.57254  0.45998  0.91698  1.0000
  S   S503      1.0  0.54705  0.44879  0.00004  1.0000
  Fe  Fe251     1.0  0.58311  0.45257  0.94038  1.0000
  S   S504      1.0  0.58667  0.43966  0.92005  1.0000
  Fe  Fe252     1.0  0.57945  0.47321  0.92949  1.0000
  S   S505      1.0  0.58083  0.48734  0.88090  1.0000
  S   S506      1.0  0.57300  0.44734  0.00457  1.0000
  S   S507      1.0  0.56925  0.46933  0.99360  1.0000
  C   C1720     1.0  0.59513  0.42638  0.47865  1.0000
  Fe  Fe253     1.0  0.68496  0.38381  0.26331  1.0000
  S   S508      1.0  0.68462  0.37132  0.31640  1.0000
  S   S509      1.0  0.67804  0.39666  0.26457  1.0000
  Fe  Fe254     1.0  0.69575  0.37521  0.20121  1.0000
  H   H2079     1.0  0.52429  0.39846  0.11253  1.0000
  S   S510      1.0  0.70328  0.37648  0.13597  1.0000
  C   C1721     1.0  0.51783  0.44258  0.81085  1.0000
  Fe  Fe255     1.0  0.70038  0.37294  0.28020  1.0000
  S   S511      1.0  0.71212  0.37071  0.31020  1.0000
  S   S512      1.0  0.67980  0.37400  0.23029  1.0000
  S   S513      1.0  0.70100  0.38616  0.22948  1.0000
  C   C1722     1.0  0.51833  0.45328  0.33547  1.0000
  S   S514      1.0  0.68645  0.35561  0.89282  1.0000
  H   H2080     1.0  0.69782  0.40717  0.35939  1.0000
  Fe  Fe256     1.0  0.68076  0.36696  0.97967  1.0000
  S   S515      1.0  0.69202  0.37551  0.91883  1.0000
  S   S516      1.0  0.67522  0.37275  0.03119  1.0000
  Fe  Fe257     1.0  0.68095  0.36926  0.89317  1.0000
  S   S517      1.0  0.67683  0.37814  0.84066  1.0000
  Fe  Fe258     1.0  0.69661  0.36126  0.92398  1.0000
  S   S518      1.0  0.71228  0.35967  0.90903  1.0000
  S   S519      1.0  0.66944  0.36185  0.95360  1.0000
  S   S520      1.0  0.68609  0.35318  0.98716  1.0000
  C   C1723     1.0  0.57182  0.42249  0.01752  1.0000
  C   C1724     1.0  0.71893  0.37447  0.93777  1.0000
  C   C1725     1.0  0.72123  0.36728  0.92003  1.0000
  H   H2081     1.0  0.54015  0.41879  0.01041  1.0000
  H   H2082     1.0  0.71158  0.37554  0.94459  1.0000
  C   C1726     1.0  0.55535  0.41095  0.00098  1.0000
  H   H2083     1.0  0.57496  0.42162  0.98820  1.0000
  H   H2084     1.0  0.54175  0.41432  0.05885  1.0000
  H   H2085     1.0  0.58422  0.42166  0.83483  1.0000
  H   H2086     1.0  0.74127  0.38269  0.03106  1.0000
  C   C1727     1.0  0.69547  0.37546  0.10682  1.0000
  C   C1728     1.0  0.68606  0.37696  0.11904  1.0000
  C   C1729     1.0  0.67992  0.37616  0.09546  1.0000
  C   C1730     1.0  0.68313  0.37379  0.05971  1.0000
  C   C1731     1.0  0.69257  0.37234  0.04717  1.0000
  C   C1732     1.0  0.69876  0.37325  0.07057  1.0000
  H   H2087     1.0  0.68358  0.37898  0.14609  1.0000
  H   H2088     1.0  0.67270  0.37745  0.10484  1.0000
  H   H2089     1.0  0.69513  0.37063  0.01924  1.0000
  H   H2090     1.0  0.70609  0.37223  0.06067  1.0000
  H   H2091     1.0  0.56270  0.41085  0.98221  1.0000
  H   H2092     1.0  0.55487  0.45938  0.22312  1.0000
  C   C1733     1.0  0.56062  0.49616  0.41088  1.0000
  C   C1734     1.0  0.72369  0.37838  0.30181  1.0000
  S   S521      1.0  0.57660  0.36412  0.31554  1.0000
  C   C1735     1.0  0.56202  0.40275  0.84102  1.0000
  H   H2093     1.0  0.56612  0.42864  0.94951  1.0000
  S   S522      1.0  0.56065  0.35513  0.64032  1.0000
  C   C1736     1.0  0.73933  0.38004  0.31524  1.0000
  C   C1737     1.0  0.62867  0.35791  0.28636  1.0000
  C   C1738     1.0  0.57591  0.34896  0.52342  1.0000
  C   C1739     1.0  0.51171  0.48961  0.77188  1.0000
  C   C1740     1.0  0.50709  0.48180  0.80821  1.0000
  H   H2094     1.0  0.52935  0.37987  0.31907  1.0000
  H   H2095     1.0  0.56161  0.39637  0.24218  1.0000
  C   C1741     1.0  0.69493  0.39926  0.37785  1.0000
  H   H2096     1.0  0.52067  0.45140  0.86446  1.0000
  H   H2097     1.0  0.62270  0.38870  0.38722  1.0000
  H   H2098     1.0  0.51828  0.49480  0.76845  1.0000
  C   C1742     1.0  0.53298  0.45544  0.35423  1.0000
  C   C1743     1.0  0.51628  0.48405  0.40339  1.0000
  C   C1744     1.0  0.51494  0.48709  0.43793  1.0000
  H   H2099     1.0  0.63147  0.35968  0.78055  1.0000
  H   H2100     1.0  0.52474  0.37677  0.97714  1.0000
  C   C1745     1.0  0.57323  0.38847  0.29258  1.0000
  H   H2101     1.0  0.52345  0.48605  0.38088  1.0000
  H   H2102     1.0  0.67112  0.34287  0.17699  1.0000
  C   C1746     1.0  0.73714  0.36620  0.18057  1.0000
  H   H2103     1.0  0.65845  0.36121  0.34022  1.0000
  C   C1747     1.0  0.61607  0.43726  0.84170  1.0000
  C   C1748     1.0  0.61539  0.44604  0.85061  1.0000
  C   C1749     1.0  0.60643  0.44695  0.87467  1.0000
  C   C1750     1.0  0.59814  0.43907  0.88988  1.0000
  C   C1751     1.0  0.59883  0.43034  0.88067  1.0000
  C   C1752     1.0  0.60773  0.42945  0.85660  1.0000
  H   H2104     1.0  0.62180  0.45212  0.83910  1.0000
  H   H2105     1.0  0.60595  0.45371  0.88153  1.0000
  H   H2106     1.0  0.59245  0.42422  0.89236  1.0000
  H   H2107     1.0  0.60813  0.42269  0.84969  1.0000
  C   C1753     1.0  0.64791  0.38763  0.86727  1.0000
  C   C1754     1.0  0.65087  0.38267  0.89927  1.0000
  C   C1755     1.0  0.65978  0.37991  0.89132  1.0000
  C   C1756     1.0  0.66575  0.38190  0.85126  1.0000
  C   C1757     1.0  0.66275  0.38680  0.81908  1.0000
  C   C1758     1.0  0.65386  0.38970  0.82702  1.0000
  H   H2108     1.0  0.64635  0.38111  0.93049  1.0000
  H   H2109     1.0  0.66208  0.37644  0.91637  1.0000
  H   H2110     1.0  0.66735  0.38841  0.78793  1.0000
  H   H2111     1.0  0.65165  0.39359  0.80210  1.0000
  C   C1759     1.0  0.59803  0.37954  0.72786  1.0000
  C   C1760     1.0  0.60652  0.38617  0.72401  1.0000
  C   C1761     1.0  0.60628  0.39152  0.75123  1.0000
  C   C1762     1.0  0.59768  0.38996  0.78323  1.0000
  C   C1763     1.0  0.58907  0.38371  0.78583  1.0000
  C   C1764     1.0  0.58923  0.37860  0.75778  1.0000
  H   H2112     1.0  0.61331  0.38710  0.70041  1.0000
  H   H2113     1.0  0.61281  0.39676  0.74758  1.0000
  H   H2114     1.0  0.58235  0.38255  0.81021  1.0000
  H   H2115     1.0  0.58255  0.37384  0.75983  1.0000
  C   C1765     1.0  0.71060  0.39496  0.36156  1.0000
  C   C1766     1.0  0.54552  0.39274  0.79245  1.0000
  C   C1767     1.0  0.54328  0.38684  0.83284  1.0000
  C   C1768     1.0  0.54608  0.37788  0.84144  1.0000
  C   C1769     1.0  0.55089  0.37463  0.80979  1.0000
  C   C1770     1.0  0.55313  0.38055  0.76942  1.0000
  C   C1771     1.0  0.55051  0.38960  0.76082  1.0000
  H   H2116     1.0  0.53950  0.38925  0.85734  1.0000
  H   H2117     1.0  0.54445  0.37338  0.87269  1.0000
  H   H2118     1.0  0.55676  0.37808  0.74483  1.0000
  H   H2119     1.0  0.55221  0.39412  0.72951  1.0000
  C   C1772     1.0  0.54097  0.44453  0.88717  1.0000
  C   C1773     1.0  0.54721  0.45324  0.88406  1.0000
  C   C1774     1.0  0.54895  0.45465  0.91883  1.0000
  C   C1775     1.0  0.54438  0.44740  0.95685  1.0000
  C   C1776     1.0  0.53785  0.43886  0.96016  1.0000
  C   C1777     1.0  0.53628  0.43734  0.92528  1.0000
  H   H2120     1.0  0.55084  0.45884  0.85465  1.0000
  H   H2121     1.0  0.55377  0.46142  0.91613  1.0000
  H   H2122     1.0  0.53413  0.43336  0.98959  1.0000
  H   H2123     1.0  0.53144  0.43061  0.92803  1.0000
  H   H2124     1.0  0.53750  0.45703  0.26261  1.0000
  H   H2125     1.0  0.53608  0.47743  0.43647  1.0000
  C   C1778     1.0  0.57718  0.47114  0.17306  1.0000
  S   S523      1.0  0.58066  0.34902  0.69513  1.0000
  C   C1779     1.0  0.57779  0.47169  0.10391  1.0000
  C   C1780     1.0  0.58086  0.46291  0.10931  1.0000
  C   C1781     1.0  0.58190  0.45821  0.14686  1.0000
  C   C1782     1.0  0.58008  0.46230  0.17858  1.0000
  H   H2126     1.0  0.50951  0.45993  0.55498  1.0000
  H   H2127     1.0  0.52340  0.35414  0.33869  1.0000
  H   H2128     1.0  0.58427  0.45142  0.15124  1.0000
  H   H2129     1.0  0.58106  0.45865  0.20706  1.0000
  C   C1783     1.0  0.62770  0.42071  0.57827  1.0000
  C   C1784     1.0  0.63596  0.41687  0.57165  1.0000
  C   C1785     1.0  0.63992  0.41397  0.60323  1.0000
  C   C1786     1.0  0.63551  0.41467  0.64181  1.0000
  C   C1787     1.0  0.62700  0.41812  0.64883  1.0000
  C   C1788     1.0  0.62317  0.42124  0.61703  1.0000
  H   H2130     1.0  0.63950  0.41643  0.54186  1.0000
  H   H2131     1.0  0.64650  0.41130  0.59756  1.0000
  H   H2132     1.0  0.62351  0.41864  0.67835  1.0000
  H   H2133     1.0  0.61675  0.42416  0.62235  1.0000
  C   C1789     1.0  0.61760  0.44232  0.34574  1.0000
  C   C1790     1.0  0.61147  0.44380  0.32179  1.0000
  C   C1791     1.0  0.60581  0.45073  0.32399  1.0000
  C   C1792     1.0  0.60654  0.45656  0.34892  1.0000
  C   C1793     1.0  0.61265  0.45507  0.37302  1.0000
  C   C1794     1.0  0.61802  0.44782  0.37208  1.0000
  H   H2134     1.0  0.61110  0.43953  0.30147  1.0000
  H   H2135     1.0  0.60105  0.45166  0.30581  1.0000
  H   H2136     1.0  0.61325  0.45954  0.39244  1.0000
  H   H2137     1.0  0.62276  0.44676  0.39054  1.0000
  C   C1795     1.0  0.66099  0.40330  0.37743  1.0000
  C   C1796     1.0  0.66632  0.39605  0.38162  1.0000
  C   C1797     1.0  0.67136  0.39372  0.34746  1.0000
  C   C1798     1.0  0.67131  0.39883  0.30873  1.0000
  C   C1799     1.0  0.66584  0.40596  0.30468  1.0000
  C   C1800     1.0  0.66059  0.40810  0.33897  1.0000
  H   H2138     1.0  0.66654  0.39222  0.41145  1.0000
  H   H2139     1.0  0.67532  0.38804  0.35101  1.0000
  H   H2140     1.0  0.66575  0.40992  0.27480  1.0000
  H   H2141     1.0  0.65652  0.41371  0.33543  1.0000
  H   H2142     1.0  0.54042  0.35626  0.21854  1.0000
  H   H2143     1.0  0.54409  0.42740  0.03363  1.0000
  C   C1801     1.0  0.50065  0.45292  0.48527  1.0000
  C   C1802     1.0  0.50823  0.47881  0.39734  1.0000
  C   C1803     1.0  0.59820  0.38714  0.36897  1.0000
  C   C1804     1.0  0.60333  0.39637  0.36674  1.0000
  C   C1805     1.0  0.60635  0.39746  0.39955  1.0000
  C   C1806     1.0  0.60416  0.38935  0.43461  1.0000
  C   C1807     1.0  0.59896  0.38019  0.43694  1.0000
  C   C1808     1.0  0.59609  0.37907  0.40401  1.0000
  H   H2144     1.0  0.60504  0.40262  0.33960  1.0000
  H   H2145     1.0  0.61042  0.40457  0.39756  1.0000
  H   H2146     1.0  0.59727  0.37388  0.46391  1.0000
  H   H2147     1.0  0.59231  0.37188  0.40590  1.0000
  C   C1809     1.0  0.52090  0.41137  0.07894  1.0000
  H   H2148     1.0  0.57997  0.40510  0.84629  1.0000
  H   H2149     1.0  0.51114  0.47322  0.67690  1.0000
  C   C1810     1.0  0.52185  0.40235  0.01797  1.0000
  C   C1811     1.0  0.51970  0.41156  0.01251  1.0000
  C   C1812     1.0  0.51913  0.41599  0.04302  1.0000
  H   H2150     1.0  0.54616  0.34012  0.38430  1.0000
  H   H2151     1.0  0.52176  0.47844  0.26598  1.0000
  C   C1813     1.0  0.64684  0.40601  0.93353  1.0000
  C   C1814     1.0  0.57347  0.42034  0.19478  1.0000
  C   C1815     1.0  0.54133  0.37813  0.27358  1.0000
  C   C1816     1.0  0.54969  0.37439  0.26670  1.0000
  C   C1817     1.0  0.55247  0.36944  0.29950  1.0000
  H   H2152     1.0  0.61257  0.46176  0.17951  1.0000
  H   H2153     1.0  0.55455  0.38969  0.30938  1.0000
  C   C1818     1.0  0.53588  0.37711  0.31347  1.0000
  H   H2154     1.0  0.55387  0.37507  0.23592  1.0000
  H   H2155     1.0  0.55880  0.36644  0.29369  1.0000
  H   H2156     1.0  0.55018  0.40928  0.98441  1.0000
  C   C1819     1.0  0.63406  0.36733  0.28058  1.0000
  C   C1820     1.0  0.55647  0.42980  0.23939  1.0000
  C   C1821     1.0  0.56209  0.43855  0.23883  1.0000
  C   C1822     1.0  0.56499  0.43896  0.27236  1.0000
  C   C1823     1.0  0.56252  0.43056  0.30631  1.0000
  C   C1824     1.0  0.55727  0.42164  0.30630  1.0000
  C   C1825     1.0  0.55415  0.42127  0.27291  1.0000
  H   H2157     1.0  0.56406  0.44507  0.21265  1.0000
  H   H2158     1.0  0.56906  0.44586  0.27186  1.0000
  H   H2159     1.0  0.55533  0.41514  0.33260  1.0000
  H   H2160     1.0  0.55015  0.41439  0.27280  1.0000
  H   H2161     1.0  0.73442  0.34397  0.98620  1.0000
  H   H2162     1.0  0.72321  0.39618  0.18878  1.0000
  C   C1826     1.0  0.65815  0.35461  0.13484  1.0000
  H   H2163     1.0  0.62747  0.34431  0.22749  1.0000
  H   H2164     1.0  0.52524  0.44512  0.78739  1.0000
  C   C1827     1.0  0.62456  0.36141  0.88252  1.0000
  C   C1828     1.0  0.72649  0.36067  0.13120  1.0000
  C   C1829     1.0  0.65123  0.35090  0.11780  1.0000
  C   C1830     1.0  0.54296  0.48260  0.42947  1.0000
  C   C1831     1.0  0.72439  0.38984  0.38083  1.0000
  C   C1832     1.0  0.56630  0.40340  0.23767  1.0000
  C   C1833     1.0  0.51268  0.36099  0.97345  1.0000
  C   C1834     1.0  0.59533  0.42427  0.51861  1.0000
  H   H2165     1.0  0.54873  0.47899  0.17965  1.0000
  C   C1835     1.0  0.50793  0.49063  0.73950  1.0000
  H   H2166     1.0  0.66128  0.36286  0.17352  1.0000
  H   H2167     1.0  0.50001  0.37239  0.97080  1.0000
  C   C1836     1.0  0.50969  0.45070  0.95297  1.0000
  C   C1837     1.0  0.54488  0.42025  0.02884  1.0000
  H   H2168     1.0  0.61583  0.49388  0.16177  1.0000
  C   C1838     1.0  0.64367  0.35238  0.27372  1.0000
  C   C1839     1.0  0.51690  0.37357  0.82352  1.0000
  C   C1840     1.0  0.50623  0.45913  0.72384  1.0000
  C   C1841     1.0  0.54497  0.49660  0.55898  1.0000
  N   N116      1.0  0.60240  0.39364  0.59199  1.0000
  C   C1842     1.0  0.61172  0.39496  0.60150  1.0000
  C   C1843     1.0  0.60055  0.38390  0.58558  1.0000
  C   C1844     1.0  0.60384  0.40143  0.55350  1.0000
  C   C1845     1.0  0.59396  0.39428  0.62403  1.0000
  C   C1846     1.0  0.58430  0.39176  0.62255  1.0000
  C   C1847     1.0  0.59505  0.39783  0.65624  1.0000
  C   C1848     1.0  0.57622  0.39230  0.65250  1.0000
  C   C1849     1.0  0.58691  0.39828  0.68618  1.0000
  C   C1850     1.0  0.57752  0.39545  0.68449  1.0000
  H   H2169     1.0  0.61099  0.38948  0.63100  1.0000
  H   H2170     1.0  0.61785  0.39401  0.57783  1.0000
  H   H2171     1.0  0.61418  0.40250  0.60259  1.0000
  H   H2172     1.0  0.59835  0.37777  0.61487  1.0000
  H   H2173     1.0  0.60715  0.38287  0.56452  1.0000
  H   H2174     1.0  0.59477  0.38292  0.57124  1.0000
  H   H2175     1.0  0.60533  0.40888  0.55681  1.0000
  H   H2176     1.0  0.61016  0.40126  0.52874  1.0000
  H   H2177     1.0  0.59739  0.40055  0.54278  1.0000
  H   H2178     1.0  0.58292  0.38922  0.59845  1.0000
  H   H2179     1.0  0.60210  0.40006  0.65964  1.0000
  H   H2180     1.0  0.56888  0.38998  0.65156  1.0000
  H   H2181     1.0  0.58792  0.40060  0.71137  1.0000
  H   H2182     1.0  0.57121  0.39558  0.70823  1.0000
  C   C1851     1.0  0.53111  0.35553  0.27696  1.0000
  C   C1852     1.0  0.52339  0.39758  0.05439  1.0000
  H   H2183     1.0  0.50369  0.37981  0.90131  1.0000
  S   S524      1.0  0.57638  0.35340  0.78321  1.0000
  N   N117      1.0  0.55111  0.49053  0.28702  1.0000
  C   C1853     1.0  0.50556  0.48511  0.46572  1.0000
  H   H2184     1.0  0.63627  0.35042  0.11721  1.0000
  H   H2185     1.0  0.56272  0.50010  0.23272  1.0000
  H   H2186     1.0  0.51218  0.45604  0.32962  1.0000
  S   S525      1.0  0.50338  0.49066  0.50382  1.0000
  H   H2187     1.0  0.64837  0.37657  0.26710  1.0000
  H   H2188     1.0  0.57415  0.42640  0.16820  1.0000
  H   H2189     1.0  0.51793  0.46274  0.84136  1.0000
  C   C1854     1.0  0.66363  0.36070  0.80408  1.0000
  H   H2190     1.0  0.64519  0.36489  0.80304  1.0000
  H   H2191     1.0  0.53666  0.42707  0.37859  1.0000
  C   C1855     1.0  0.52295  0.40209  0.08482  1.0000
  H   H2192     1.0  0.51773  0.37445  0.79183  1.0000
  H   H2193     1.0  0.52500  0.39042  0.05896  1.0000
  H   H2194     1.0  0.58800  0.41548  0.58133  1.0000
  H   H2195     1.0  0.53614  0.49289  0.45346  1.0000
  C   C1856     1.0  0.67006  0.34508  0.23474  1.0000
  S   S526      1.0  0.74466  0.38677  0.94853  1.0000
  C   C1857     1.0  0.63123  0.34430  0.80040  1.0000
  N   N118      1.0  0.52979  0.47261  0.93983  1.0000
  C   C1858     1.0  0.53744  0.47376  0.95953  1.0000
  C   C1859     1.0  0.53487  0.47538  0.89533  1.0000
  C   C1860     1.0  0.52376  0.47965  0.94720  1.0000
  C   C1861     1.0  0.52335  0.46253  0.95538  1.0000
  C   C1862     1.0  0.51595  0.46013  0.93837  1.0000
  C   C1863     1.0  0.65956  0.42073  0.91569  1.0000
  C   C1864     1.0  0.71480  0.38754  0.38006  1.0000
  H   H2196     1.0  0.53419  0.47249  0.99268  1.0000
  H   H2197     1.0  0.54229  0.46868  0.95511  1.0000
  H   H2198     1.0  0.54227  0.48133  0.94643  1.0000
  H   H2199     1.0  0.53905  0.46994  0.88826  1.0000
  H   H2200     1.0  0.54015  0.48275  0.88325  1.0000
  H   H2201     1.0  0.52972  0.47590  0.87746  1.0000
  H   H2202     1.0  0.52435  0.45143  0.23622  1.0000
  H   H2203     1.0  0.51845  0.47995  0.93005  1.0000
  H   H2204     1.0  0.66166  0.36776  0.79270  1.0000
  C   C1865     1.0  0.58782  0.41708  0.55037  1.0000
  N   N119      1.0  0.70047  0.39284  0.36010  1.0000
  C   C1866     1.0  0.70077  0.39483  0.31715  1.0000
  C   C1867     1.0  0.69490  0.38247  0.38286  1.0000
  H   H2205     1.0  0.55929  0.45647  0.15835  1.0000
  C   C1868     1.0  0.51192  0.46874  0.70468  1.0000
  H   H2206     1.0  0.60142  0.42820  0.52485  1.0000
  H   H2207     1.0  0.70442  0.40261  0.29818  1.0000
  H   H2208     1.0  0.70483  0.39007  0.30306  1.0000
  H   H2209     1.0  0.69829  0.37723  0.36938  1.0000
  H   H2210     1.0  0.68726  0.38116  0.38206  1.0000
  H   H2211     1.0  0.69443  0.38045  0.41551  1.0000
  H   H2212     1.0  0.68710  0.39745  0.37966  1.0000
  H   H2213     1.0  0.57433  0.40627  0.56702  1.0000
  C   C1869     1.0  0.55872  0.42851  0.96867  1.0000
  N   N120      1.0  0.63677  0.44447  0.67581  1.0000
  C   C1870     1.0  0.64082  0.45434  0.67725  1.0000
  C   C1871     1.0  0.62608  0.44149  0.69825  1.0000
  C   C1872     1.0  0.64135  0.43739  0.69796  1.0000
  C   C1873     1.0  0.63852  0.44485  0.63286  1.0000
  C   C1874     1.0  0.63386  0.45055  0.60866  1.0000
  C   C1875     1.0  0.64474  0.43963  0.61386  1.0000
  C   C1876     1.0  0.63500  0.45064  0.56870  1.0000
  C   C1877     1.0  0.64591  0.43988  0.57372  1.0000
  C   C1878     1.0  0.64095  0.44525  0.55140  1.0000
  H   H2214     1.0  0.63968  0.45427  0.70928  1.0000
  H   H2215     1.0  0.64883  0.45688  0.66043  1.0000
  H   H2216     1.0  0.63730  0.45998  0.66349  1.0000
  H   H2217     1.0  0.62224  0.44719  0.68802  1.0000
  H   H2218     1.0  0.62450  0.44018  0.73158  1.0000
  H   H2219     1.0  0.62259  0.43459  0.69429  1.0000
  H   H2220     1.0  0.63965  0.43701  0.73052  1.0000
  H   H2221     1.0  0.63865  0.42981  0.69774  1.0000
  H   H2222     1.0  0.64947  0.43951  0.68458  1.0000
  H   H2223     1.0  0.62918  0.45486  0.62069  1.0000
  H   H2224     1.0  0.64856  0.43502  0.62962  1.0000
  H   H2225     1.0  0.63115  0.45479  0.55114  1.0000
  H   H2226     1.0  0.65043  0.43558  0.56030  1.0000
  H   H2227     1.0  0.64159  0.44507  0.52087  1.0000
  N   N121      1.0  0.73594  0.39310  0.05916  1.0000
  S   S527      1.0  0.51886  0.50127  0.89468  1.0000
  H   H2228     1.0  0.50069  0.45329  0.85378  1.0000
  C   C1879     1.0  0.63332  0.35013  0.28312  1.0000
  C   C1880     1.0  0.73667  0.39632  0.09426  1.0000
  H   H2229     1.0  0.52473  0.46501  0.49801  1.0000
  C   C1881     1.0  0.72849  0.39451  0.12958  1.0000
  H   H2230     1.0  0.50438  0.44269  0.87891  1.0000
  H   H2231     1.0  0.61394  0.37377  0.81919  1.0000
  H   H2232     1.0  0.62514  0.34201  0.79036  1.0000
  H   H2233     1.0  0.50371  0.43051  0.70926  1.0000
  H   H2234     1.0  0.73606  0.35458  0.25292  1.0000
  S   S528      1.0  0.58113  0.34526  0.48117  1.0000
  H   H2235     1.0  0.62652  0.37669  0.85073  1.0000
  C   C1882     1.0  0.51919  0.42276  0.36992  1.0000
  C   C1883     1.0  0.50943  0.45606  0.45272  1.0000
  H   H2236     1.0  0.72120  0.39071  0.13281  1.0000
  C   C1884     1.0  0.54486  0.48044  0.20695  1.0000
  C   C1885     1.0  0.64668  0.36220  0.17066  1.0000
  C   C1886     1.0  0.54437  0.34737  0.26741  1.0000
  C   C1887     1.0  0.60602  0.35939  0.78442  1.0000
  C   C1888     1.0  0.74169  0.36343  0.14633  1.0000
  C   C1889     1.0  0.62212  0.37166  0.43731  1.0000
  C   C1890     1.0  0.53492  0.48408  0.27745  1.0000
  H   H2237     1.0  0.56748  0.48576  0.38748  1.0000
  C   C1891     1.0  0.52972  0.48011  0.25551  1.0000
  H   H2238     1.0  0.66549  0.35355  0.12771  1.0000
  H   H2239     1.0  0.65721  0.35859  0.03742  1.0000
  H   H2240     1.0  0.67586  0.35177  0.22163  1.0000
  H   H2241     1.0  0.54957  0.49479  0.34123  1.0000
  C   C1892     1.0  0.59623  0.34570  0.84326  1.0000
  C   C1893     1.0  0.74274  0.37931  0.20500  1.0000
  H   H2242     1.0  0.72205  0.36434  0.03748  1.0000
  C   C1894     1.0  0.50145  0.42067  0.30616  1.0000
  H   H2243     1.0  0.62082  0.35673  0.29341  1.0000
  H   H2244     1.0  0.73259  0.34080  0.92925  1.0000
  C   C1895     1.0  0.63972  0.35866  0.15464  1.0000
  C   C1896     1.0  0.50758  0.37606  0.96768  1.0000
  C   C1897     1.0  0.50908  0.37653  0.88626  1.0000
  C   C1898     1.0  0.65464  0.37485  0.34147  1.0000
  C   C1899     1.0  0.60440  0.48137  0.13553  1.0000
  C   C1900     1.0  0.66378  0.40192  0.96011  1.0000
  H   H2245     1.0  0.72320  0.36848  0.21333  1.0000
  C   C1901     1.0  0.54673  0.36795  0.33952  1.0000
  H   H2246     1.0  0.60019  0.48241  0.24973  1.0000
  C   C1902     1.0  0.50223  0.50212  0.37815  1.0000
  C   C1903     1.0  0.51810  0.46031  0.45742  1.0000
  H   H2247     1.0  0.65430  0.33985  0.88519  1.0000
  H   H2248     1.0  0.60029  0.35813  0.76991  1.0000
  H   H2249     1.0  0.68168  0.39424  0.87967  1.0000
  H   H2250     1.0  0.57897  0.34932  0.61394  1.0000
  C   C1904     1.0  0.50409  0.44717  0.84911  1.0000
  H   H2251     1.0  0.51746  0.42309  0.03847  1.0000
  H   H2252     1.0  0.65009  0.36497  0.85915  1.0000
  C   C1905     1.0  0.51926  0.44399  0.33311  1.0000
  C   C1906     1.0  0.63481  0.35422  0.79487  1.0000
  H   H2253     1.0  0.66512  0.33979  0.05760  1.0000
  H   H2254     1.0  0.59162  0.36013  0.87449  1.0000
  H   H2255     1.0  0.51851  0.43777  0.83916  1.0000
  H   H2256     1.0  0.62114  0.34570  0.91012  1.0000
  H   H2257     1.0  0.64936  0.38731  0.34889  1.0000
  H   H2258     1.0  0.55942  0.35001  0.32172  1.0000
  C   C1907     1.0  0.50209  0.42585  0.26644  1.0000
  N   N122      1.0  0.54665  0.45088  0.11680  1.0000
  C   C1908     1.0  0.55718  0.45139  0.09834  1.0000
  C   C1909     1.0  0.54103  0.44123  0.11853  1.0000
  C   C1910     1.0  0.54406  0.45885  0.08923  1.0000
  C   C1911     1.0  0.54426  0.45208  0.15770  1.0000
  C   C1912     1.0  0.53436  0.45078  0.18130  1.0000
  C   C1913     1.0  0.55158  0.45529  0.17391  1.0000
  C   C1914     1.0  0.53197  0.45250  0.21880  1.0000
  C   C1915     1.0  0.54911  0.45698  0.21144  1.0000
  C   C1916     1.0  0.53934  0.45561  0.23377  1.0000
  H   H2259     1.0  0.55973  0.44585  0.11847  1.0000
  H   H2260     1.0  0.55861  0.44988  0.06890  1.0000
  H   H2261     1.0  0.56192  0.45882  0.09148  1.0000
  H   H2262     1.0  0.54259  0.43507  0.13977  1.0000
  H   H2263     1.0  0.54294  0.44010  0.08820  1.0000
  H   H2264     1.0  0.53299  0.44041  0.12811  1.0000
  H   H2265     1.0  0.54795  0.46623  0.08788  1.0000
  H   H2266     1.0  0.54614  0.45854  0.05758  1.0000
  H   H2267     1.0  0.53607  0.45835  0.09912  1.0000
  H   H2268     1.0  0.52839  0.44854  0.17070  1.0000
  C   C1917     1.0  0.52832  0.42970  0.29811  1.0000
  C   C1918     1.0  0.57698  0.41427  0.25764  1.0000
  H   H2269     1.0  0.52697  0.36036  0.26425  1.0000
  H   H2270     1.0  0.50827  0.50111  0.39100  1.0000
  C   C1919     1.0  0.56171  0.42216  0.03265  1.0000
  H   H2271     1.0  0.55598  0.35650  0.56696  1.0000
  C   C1920     1.0  0.55178  0.48048  0.41109  1.0000
  H   H2272     1.0  0.58594  0.42499  0.02579  1.0000
  H   H2273     1.0  0.55379  0.49763  0.96020  1.0000
  H   H2274     1.0  0.59030  0.34473  0.82948  1.0000
  S   S529      1.0  0.51156  0.48085  0.84924  1.0000
  H   H2275     1.0  0.64485  0.35144  0.05236  1.0000
  H   H2276     1.0  0.52819  0.45877  0.81458  1.0000
  C   C1921     1.0  0.53850  0.37191  0.34637  1.0000
  N   N123      1.0  0.55523  0.42051  0.00846  1.0000
  H   H2277     1.0  0.56178  0.40226  0.87267  1.0000
  C   C1922     1.0  0.57020  0.49192  0.88812  1.0000
  H   H2278     1.0  0.50580  0.42362  0.24128  1.0000
  H   H2279     1.0  0.65855  0.36048  0.88242  1.0000
  H   H2280     1.0  0.73997  0.35855  0.09641  1.0000
  C   C1923     1.0  0.71667  0.40469  0.34338  1.0000
  H   H2281     1.0  0.69329  0.39340  0.31453  1.0000
  H   H2282     1.0  0.71408  0.41066  0.32788  1.0000
  H   H2283     1.0  0.57936  0.39930  0.80908  1.0000
  H   H2284     1.0  0.54734  0.48997  0.57280  1.0000
  H   H2285     1.0  0.72236  0.35848  0.11274  1.0000
  H   H2286     1.0  0.55748  0.42134  0.80279  1.0000
  H   H2287     1.0  0.58647  0.41166  0.79294  1.0000
  C   C1924     1.0  0.57953  0.40647  0.81494  1.0000
  H   H2288     1.0  0.55512  0.40454  0.83731  1.0000
  H   H2289     1.0  0.55543  0.39852  0.33545  1.0000
  C   C1925     1.0  0.65980  0.34534  0.85721  1.0000
  H   H2290     1.0  0.52679  0.38436  0.92617  1.0000
  H   H2291     1.0  0.73752  0.40206  0.25910  1.0000
  H   H2292     1.0  0.56948  0.38547  0.27368  1.0000
  H   H2293     1.0  0.58121  0.39102  0.27513  1.0000
  H   H2294     1.0  0.55696  0.43685  0.81651  1.0000
  C   C1926     1.0  0.56328  0.42455  0.81231  1.0000
  N   N124      1.0  0.57082  0.41016  0.81074  1.0000
  C   C1927     1.0  0.53668  0.42743  0.34729  1.0000
  H   H2295     1.0  0.52839  0.48728  0.93755  1.0000
  H   H2296     1.0  0.51951  0.47763  0.98008  1.0000
  C   C1928     1.0  0.56289  0.43343  0.82019  1.0000
  C   C1929     1.0  0.54500  0.49163  0.32515  1.0000
  H   H2297     1.0  0.57072  0.40372  0.76320  1.0000
  C   C1930     1.0  0.57088  0.41982  0.81732  1.0000
  H   H2298     1.0  0.67038  0.36272  0.81192  1.0000
  H   H2299     1.0  0.55081  0.42365  0.08499  1.0000
  H   H2300     1.0  0.55804  0.48585  0.21712  1.0000
  H   H2301     1.0  0.72437  0.38600  0.95950  1.0000
  H   H2302     1.0  0.71096  0.37986  0.39320  1.0000
  C   C1931     1.0  0.57048  0.41082  0.76926  1.0000
  C   C1932     1.0  0.55834  0.42368  0.07103  1.0000
  H   H2303     1.0  0.52175  0.43115  0.28999  1.0000
  C   C1933     1.0  0.55872  0.39266  0.32703  1.0000
  H   H2304     1.0  0.72570  0.38520  0.03788  1.0000
  C   C1934     1.0  0.64189  0.35299  0.12899  1.0000
  H   H2305     1.0  0.52413  0.47069  0.77074  1.0000
  C   C1935     1.0  0.57813  0.42463  0.83019  1.0000
  H   H2306     1.0  0.50810  0.42155  0.76862  1.0000
  H   H2307     1.0  0.57674  0.41666  0.74556  1.0000
  H   H2308     1.0  0.56361  0.41250  0.76476  1.0000
  H   H2309     1.0  0.61688  0.37561  0.45091  1.0000
  H   H2310     1.0  0.60264  0.48820  0.13774  1.0000
  H   H2311     1.0  0.61853  0.49030  0.20850  1.0000
  C   C1936     1.0  0.52393  0.45498  0.98849  1.0000
  N   N125      1.0  0.52789  0.43022  0.33919  1.0000
  N   N126      1.0  0.56934  0.39651  0.30400  1.0000
  H   H2312     1.0  0.55730  0.38647  0.35554  1.0000
  C   C1937     1.0  0.66382  0.40514  0.91917  1.0000
  C   C1938     1.0  0.55385  0.50024  0.89833  1.0000
  H   H2313     1.0  0.52682  0.36409  0.89514  1.0000
  H   H2314     1.0  0.57228  0.38220  0.32009  1.0000
  C   C1939     1.0  0.57818  0.42440  0.03894  1.0000
  C   C1940     1.0  0.57005  0.43790  0.83309  1.0000
  C   C1941     1.0  0.53873  0.35323  0.25124  1.0000
  C   C1942     1.0  0.56477  0.42552  0.09236  1.0000
  H   H2315     1.0  0.74696  0.38177  0.22374  1.0000
  C   C1943     1.0  0.67000  0.39612  0.97145  1.0000
  C   C1944     1.0  0.57768  0.43355  0.83776  1.0000
  H   H2316     1.0  0.52436  0.46610  0.34840  1.0000
  H   H2317     1.0  0.56208  0.42681  0.12122  1.0000
  C   C1945     1.0  0.61945  0.35178  0.89037  1.0000
  N   N127      1.0  0.60905  0.47875  0.19938  1.0000
  C   C1946     1.0  0.74684  0.40433  0.12679  1.0000
  H   H2318     1.0  0.52926  0.45606  0.00364  1.0000
  H   H2319     1.0  0.57159  0.40522  0.34246  1.0000
  C   C1947     1.0  0.72627  0.40687  0.34418  1.0000
  H   H2320     1.0  0.60550  0.46420  0.24244  1.0000
  C   C1948     1.0  0.74587  0.40130  0.09398  1.0000
  H   H2321     1.0  0.56968  0.44476  0.83948  1.0000
  Fe  Fe259     1.0  0.58536  0.37007  0.34995  1.0000
  N   N128      1.0  0.51396  0.45102  0.81791  1.0000
  C   C1949     1.0  0.50698  0.45345  0.76033  1.0000
  H   H2322     1.0  0.57288  0.39287  0.35995  1.0000
  H   H2323     1.0  0.57056  0.49491  0.82575  1.0000
  H   H2324     1.0  0.66730  0.42477  0.89780  1.0000
  C   C1950     1.0  0.57426  0.39925  0.33214  1.0000
  C   C1951     1.0  0.57090  0.40477  0.26664  1.0000
  C   C1952     1.0  0.55177  0.49824  0.42944  1.0000
  C   C1953     1.0  0.60970  0.35776  0.84727  1.0000
  H   H2325     1.0  0.59447  0.43911  0.40881  1.0000
  H   H2326     1.0  0.57897  0.41998  0.38915  1.0000
  H   H2327     1.0  0.57833  0.40982  0.43143  1.0000
  H   H2328     1.0  0.72046  0.39190  0.06937  1.0000
  H   H2329     1.0  0.50405  0.44906  0.93969  1.0000
  Fe  Fe260     1.0  0.56701  0.35400  0.69175  1.0000
  H   H2330     1.0  0.72756  0.38405  0.39408  1.0000
  Fe  Fe261     1.0  0.68066  0.36162  0.28053  1.0000
  H   H2331     1.0  0.58075  0.41607  0.27775  1.0000
  H   H2332     1.0  0.62372  0.36684  0.46319  1.0000
  C   C1954     1.0  0.73011  0.39947  0.36298  1.0000
  H   H2333     1.0  0.57969  0.42769  0.09214  1.0000
  H   H2334     1.0  0.56370  0.40996  0.18148  1.0000
  H   H2335     1.0  0.57184  0.41924  0.43888  1.0000
  C   C1955     1.0  0.73805  0.37177  0.92067  1.0000
  C   C1956     1.0  0.57875  0.41786  0.42158  1.0000
  H   H2336     1.0  0.56386  0.33911  0.32300  1.0000
  H   H2337     1.0  0.60026  0.48290  0.08133  1.0000
  C   C1957     1.0  0.66731  0.34005  0.20945  1.0000
  Fe  Fe262     1.0  0.67561  0.34868  0.95586  1.0000
  H   H2338     1.0  0.65477  0.42560  0.90706  1.0000
  H   H2339     1.0  0.59662  0.42321  0.36897  1.0000
  H   H2340     1.0  0.73948  0.40490  0.18613  1.0000
  C   C1958     1.0  0.73556  0.39424  0.27528  1.0000
  H   H2341     1.0  0.64629  0.35307  0.89765  1.0000
  N   N129      1.0  0.65711  0.41124  0.90813  1.0000
  H   H2342     1.0  0.60116  0.43200  0.45507  1.0000
  C   C1959     1.0  0.58015  0.41189  0.54221  1.0000
  C   C1960     1.0  0.64725  0.35015  0.82656  1.0000
  C   C1961     1.0  0.55896  0.34343  0.31146  1.0000
  H   H2343     1.0  0.58741  0.43620  0.37826  1.0000
  H   H2344     1.0  0.59643  0.41369  0.41323  1.0000
  C   C1962     1.0  0.55752  0.48408  0.29830  1.0000
  H   H2345     1.0  0.58328  0.43712  0.84750  1.0000
  H   H2346     1.0  0.58237  0.40160  0.31767  1.0000
  N   N130      1.0  0.65564  0.35347  0.83953  1.0000
  C   C1963     1.0  0.59627  0.42155  0.40143  1.0000
  N   N131      1.0  0.58745  0.42361  0.42644  1.0000
  H   H2347     1.0  0.57377  0.40956  0.49815  1.0000
  C   C1964     1.0  0.65765  0.41354  0.86469  1.0000
  H   H2348     1.0  0.58682  0.34556  0.55138  1.0000
  H   H2349     1.0  0.58138  0.43611  0.42893  1.0000
  C   C1965     1.0  0.58770  0.43419  0.40997  1.0000
  C   C1966     1.0  0.66363  0.34396  0.07959  1.0000
  H   H2350     1.0  0.72162  0.39168  0.26480  1.0000
  N   N132      1.0  0.65354  0.34545  0.08841  1.0000
  C   C1967     1.0  0.57991  0.41389  0.50226  1.0000
  H   H2351     1.0  0.60318  0.42606  0.40114  1.0000
  C   C1968     1.0  0.65247  0.35820  0.87099  1.0000
  C   C1969     1.0  0.58741  0.42126  0.46917  1.0000
  C   C1970     1.0  0.57599  0.47580  0.13573  1.0000
  H   H2352     1.0  0.53058  0.48530  0.30432  1.0000
  S   S530      1.0  0.66823  0.34784  0.30921  1.0000
  H   H2353     1.0  0.73085  0.41431  0.32948  1.0000
  H   H2354     1.0  0.73532  0.38053  0.21614  1.0000
  H   H2355     1.0  0.61659  0.34517  0.26332  1.0000
  H   H2356     1.0  0.60963  0.36739  0.77117  1.0000
  C   C1971     1.0  0.73015  0.37427  0.31993  1.0000
  H   H2357     1.0  0.67100  0.40416  0.85863  1.0000
  H   H2358     1.0  0.64503  0.36668  0.19014  1.0000
  C   C1972     1.0  0.72650  0.38839  0.27882  1.0000
  S   S531      1.0  0.59117  0.35670  0.36595  1.0000
  C   C1973     1.0  0.50926  0.45853  0.52720  1.0000
  H   H2359     1.0  0.50409  0.50000  0.34998  1.0000
  C   C1974     1.0  0.72619  0.38036  0.94638  1.0000
  H   H2360     1.0  0.60397  0.46742  0.07318  1.0000
  C   C1975     1.0  0.73576  0.37902  0.93801  1.0000
  H   H2361     1.0  0.53822  0.45985  0.36298  1.0000
  Fe  Fe263     1.0  0.57800  0.35161  0.42266  1.0000
  C   C1976     1.0  0.67052  0.40227  0.89031  1.0000
  H   H2362     1.0  0.53494  0.43497  0.27408  1.0000
  H   H2363     1.0  0.53061  0.37305  0.93519  1.0000
  C   C1977     1.0  0.72712  0.36632  0.18821  1.0000
  C   C1978     1.0  0.52911  0.35201  0.31894  1.0000
  H   H2364     1.0  0.64512  0.39836  0.93258  1.0000
  C   C1979     1.0  0.61526  0.36745  0.83903  1.0000
  C   C1980     1.0  0.51843  0.47267  0.72183  1.0000
  H   H2365     1.0  0.66979  0.39358  0.00295  1.0000
  H   H2366     1.0  0.60849  0.34229  0.88047  1.0000
  S   S532      1.0  0.57288  0.36548  0.40819  1.0000
  C   C1981     1.0  0.67674  0.39652  0.90200  1.0000
  S   S533      1.0  0.69629  0.36207  0.24936  1.0000
  H   H2367     1.0  0.64144  0.40970  0.92287  1.0000
  H   H2368     1.0  0.64531  0.40551  0.96602  1.0000
  H   H2369     1.0  0.58261  0.42919  0.21650  1.0000
  H   H2370     1.0  0.57378  0.48268  0.13118  1.0000
  H   H2371     1.0  0.51841  0.41527  0.98493  1.0000
  C   C1982     1.0  0.57820  0.42191  0.22221  1.0000
  C   C1983     1.0  0.64339  0.34008  0.83189  1.0000
  C   C1984     1.0  0.67647  0.39345  0.94244  1.0000
  H   H2372     1.0  0.53298  0.34406  0.36815  1.0000
  N   N133      1.0  0.60178  0.35616  0.82944  1.0000
  H   H2373     1.0  0.59865  0.48796  0.20216  1.0000
  C   C1985     1.0  0.72800  0.34657  0.99681  1.0000
  C   C1986     1.0  0.73871  0.40183  0.02217  1.0000
  C   C1987     1.0  0.56754  0.41110  0.20246  1.0000
  H   H2374     1.0  0.74219  0.38114  0.08095  1.0000
  H   H2375     1.0  0.65236  0.41791  0.85752  1.0000
  H   H2376     1.0  0.51368  0.43978  0.32537  1.0000
  Fe  Fe264     1.0  0.56446  0.35845  0.37511  1.0000
  H   H2377     1.0  0.61013  0.45703  0.12243  1.0000
  C   C1988     1.0  0.51913  0.46709  0.75868  1.0000
  H   H2378     1.0  0.72802  0.36655  0.33801  1.0000
  H   H2379     1.0  0.73819  0.39965  0.99514  1.0000
  C   C1989     1.0  0.60775  0.47551  0.16497  1.0000
  H   H2380     1.0  0.65866  0.41971  0.94830  1.0000
  H   H2381     1.0  0.63855  0.38059  0.44937  1.0000
  C   C1990     1.0  0.61213  0.34993  0.87305  1.0000
  H   H2382     1.0  0.68124  0.38894  0.95151  1.0000
  H   H2383     1.0  0.66505  0.41791  0.84372  1.0000
  C   C1991     1.0  0.64757  0.37934  0.35859  1.0000
  S   S534      1.0  0.50722  0.41087  0.31606  1.0000
  C   C1992     1.0  0.72954  0.39761  0.16222  1.0000
  H   H2384     1.0  0.64168  0.39116  0.40505  1.0000
  Fe  Fe265     1.0  0.58107  0.35008  0.33760  1.0000
  H   H2385     1.0  0.65577  0.40672  0.85701  1.0000
  H   H2386     1.0  0.50545  0.38124  0.83108  1.0000
  H   H2387     1.0  0.65891  0.40380  0.98374  1.0000
  C   C1993     1.0  0.64898  0.36181  0.26817  1.0000
  H   H2388     1.0  0.56394  0.35287  0.50405  1.0000
  C   C1994     1.0  0.61724  0.48767  0.18347  1.0000
  H   H2389     1.0  0.51943  0.41516  0.36934  1.0000
  C   C1995     1.0  0.53467  0.47832  0.22032  1.0000
  C   C1996     1.0  0.51335  0.45727  0.77921  1.0000
  C   C1997     1.0  0.60992  0.46667  0.15905  1.0000
  C   C1998     1.0  0.74275  0.38670  0.05200  1.0000
  H   H2390     1.0  0.63014  0.38823  0.44348  1.0000
  H   H2391     1.0  0.52273  0.48021  0.70709  1.0000
  C   C1999     1.0  0.52716  0.44015  0.34114  1.0000
  C   C2000     1.0  0.73084  0.36601  0.91130  1.0000
  N   N134      1.0  0.54869  0.33754  0.32637  1.0000
  H   H2392     1.0  0.59264  0.34283  0.87689  1.0000
  H   H2393     1.0  0.51843  0.35721  0.96289  1.0000
  H   H2394     1.0  0.71420  0.36356  0.17084  1.0000
  H   H2395     1.0  0.73277  0.36062  0.89696  1.0000
  C   C2001     1.0  0.62252  0.36921  0.85668  1.0000
  N   N135      1.0  0.63118  0.37863  0.40647  1.0000
  C   C2002     1.0  0.56679  0.49534  0.85529  1.0000
  H   H2396     1.0  0.56409  0.50118  0.54933  1.0000
  S   S535      1.0  0.55802  0.34485  0.75638  1.0000
  H   H2397     1.0  0.53401  0.37077  0.37725  1.0000
  H   H2398     1.0  0.51830  0.43996  0.02798  1.0000
  C   C2003     1.0  0.60860  0.46386  0.12614  1.0000
  H   H2399     1.0  0.61849  0.46964  0.21780  1.0000
  H   H2400     1.0  0.62503  0.38062  0.35762  1.0000
  C   C2004     1.0  0.55014  0.48435  0.22874  1.0000
  C   C2005     1.0  0.51800  0.46157  0.49456  1.0000
  C   C2006     1.0  0.73868  0.40253  0.16078  1.0000
  C   C2007     1.0  0.62827  0.38499  0.37423  1.0000
  C   C2008     1.0  0.52045  0.45628  0.83521  1.0000
  H   H2401     1.0  0.62417  0.48618  0.16695  1.0000
  C   C2009     1.0  0.61128  0.47119  0.23031  1.0000
  H   H2402     1.0  0.52111  0.49120  0.44244  1.0000
  C   C2010     1.0  0.59999  0.48118  0.22063  1.0000
  C   C2011     1.0  0.72190  0.36354  0.16397  1.0000
  S   S536      1.0  0.54924  0.36066  0.38155  1.0000
  C   C2012     1.0  0.60519  0.46974  0.09814  1.0000
  C   C2013     1.0  0.64420  0.36927  0.27148  1.0000
  H   H2403     1.0  0.54610  0.49726  0.52638  1.0000
  Fe  Fe266     1.0  0.51941  0.49613  0.84125  1.0000
  C   C2014     1.0  0.56689  0.35311  0.59493  1.0000
  H   H2404     1.0  0.51488  0.46558  0.91394  1.0000
  H   H2405     1.0  0.53709  0.42002  0.34467  1.0000
  H   H2406     1.0  0.53694  0.49512  0.57371  1.0000
  S   S537      1.0  0.56822  0.34385  0.39552  1.0000
  H   H2407     1.0  0.54350  0.43273  0.32494  1.0000
  C   C2015     1.0  0.50033  0.45393  0.52386  1.0000
  C   C2016     1.0  0.63679  0.36325  0.39868  1.0000
  H   H2408     1.0  0.50945  0.45537  0.42343  1.0000
  C   C2017     1.0  0.73717  0.36252  0.25032  1.0000
  C   C2018     1.0  0.51763  0.44559  0.00289  1.0000
  H   H2409     1.0  0.73384  0.40690  0.02659  1.0000
  H   H2410     1.0  0.72290  0.34462  0.91250  1.0000
  C   C2019     1.0  0.74201  0.39010  0.29357  1.0000
  N   N136      1.0  0.62745  0.34023  0.28940  1.0000
  C   C2020     1.0  0.51000  0.37740  0.84569  1.0000
  C   C2021     1.0  0.62225  0.34090  0.25898  1.0000
  H   H2411     1.0  0.72359  0.38061  0.09147  1.0000
  C   C2022     1.0  0.56276  0.35419  0.56350  1.0000
  C   C2023     1.0  0.55732  0.49689  0.93097  1.0000
  C   C2024     1.0  0.53472  0.34618  0.33549  1.0000
  H   H2412     1.0  0.66564  0.35770  0.77841  1.0000
  H   H2413     1.0  0.72982  0.36377  0.26273  1.0000
  H   H2414     1.0  0.65460  0.34727  0.02591  1.0000
  H   H2415     1.0  0.74840  0.33925  0.12926  1.0000
  H   H2416     1.0  0.63034  0.37315  0.28317  1.0000
  C   C2025     1.0  0.63558  0.38489  0.42692  1.0000
  H   H2417     1.0  0.61809  0.36705  0.42368  1.0000
  C   C2026     1.0  0.56063  0.48732  0.40157  1.0000
  C   C2027     1.0  0.54252  0.34363  0.31010  1.0000
  H   H2418     1.0  0.50909  0.38404  0.95078  1.0000
  H   H2419     1.0  0.66156  0.37931  0.31898  1.0000
  H   H2420     1.0  0.63007  0.35831  0.42048  1.0000
  H   H2421     1.0  0.57706  0.47542  0.07494  1.0000
  C   C2028     1.0  0.56728  0.35218  0.52775  1.0000
  H   H2422     1.0  0.54039  0.48437  0.34711  1.0000
  H   H2423     1.0  0.58839  0.36071  0.82921  1.0000
  H   H2424     1.0  0.74625  0.38425  0.17296  1.0000
  C   C2029     1.0  0.53936  0.50205  0.63486  1.0000
  S   S538      1.0  0.50947  0.47657  0.35104  1.0000
  C   C2030     1.0  0.59465  0.36200  0.84082  1.0000
  C   C2031     1.0  0.64396  0.35885  0.38147  1.0000
  C   C2032     1.0  0.66532  0.34142  0.27684  1.0000
  C   C2033     1.0  0.65583  0.36008  0.16117  1.0000
  H   H2425     1.0  0.52826  0.36582  0.82459  1.0000
  H   H2426     1.0  0.56748  0.50141  0.40374  1.0000
  H   H2427     1.0  0.64266  0.35090  0.39020  1.0000
  H   H2428     1.0  0.52865  0.42223  0.29618  1.0000
  H   H2429     1.0  0.51154  0.49665  0.71138  1.0000
  C   C2034     1.0  0.55852  0.49934  0.86052  1.0000
  H   H2430     1.0  0.73619  0.35748  0.01398  1.0000
  H   H2431     1.0  0.59795  0.37006  0.82799  1.0000
  C   C2035     1.0  0.72599  0.38747  0.06493  1.0000
  H   H2432     1.0  0.51230  0.42392  0.36434  1.0000
  H   H2433     1.0  0.51854  0.42293  0.40123  1.0000
  H   H2434     1.0  0.61167  0.47356  0.25707  1.0000
  C   C2036     1.0  0.63844  0.37368  0.38803  1.0000
  C   C2037     1.0  0.57567  0.35013  0.59014  1.0000
  C   C2038     1.0  0.73638  0.36066  0.12227  1.0000
  H   H2435     1.0  0.56330  0.48389  0.27143  1.0000
  C   C2039     1.0  0.65289  0.36464  0.35323  1.0000
  C   C2040     1.0  0.52518  0.45898  0.34601  1.0000
  H   H2436     1.0  0.66923  0.35111  0.06569  1.0000
  C   C2041     1.0  0.71206  0.35422  0.02393  1.0000
  H   H2437     1.0  0.74126  0.36387  0.27121  1.0000
  H   H2438     1.0  0.56804  0.49017  0.95133  1.0000
  C   C2042     1.0  0.54295  0.49141  0.43869  1.0000
  C   C2043     1.0  0.53400  0.44618  0.35190  1.0000
  H   H2439     1.0  0.70382  0.34423  0.00484  1.0000
  H   H2440     1.0  0.55316  0.47638  0.31537  1.0000
  C   C2044     1.0  0.54533  0.48630  0.26471  1.0000
  H   H2441     1.0  0.54022  0.49671  0.31909  1.0000
  H   H2442     1.0  0.63452  0.39098  0.35153  1.0000
  C   C2045     1.0  0.60310  0.47847  0.10281  1.0000
  H   H2443     1.0  0.66613  0.34805  0.86650  1.0000
  C   C2046     1.0  0.65250  0.35094  0.04936  1.0000
  C   C2047     1.0  0.51058  0.44342  0.98498  1.0000
  H   H2444     1.0  0.54019  0.44389  0.35903  1.0000
  C   C2048     1.0  0.52280  0.36870  0.84202  1.0000
  H   H2445     1.0  0.63263  0.36038  0.16182  1.0000
  H   H2446     1.0  0.56140  0.48655  0.31803  1.0000
  H   H2447     1.0  0.64789  0.34702  0.27032  1.0000
  H   H2448     1.0  0.73766  0.40112  0.36245  1.0000
  H   H2449     1.0  0.63011  0.36286  0.89646  1.0000
  N   N137      1.0  0.74240  0.36890  0.20756  1.0000
  H   H2450     1.0  0.70594  0.35738  0.03339  1.0000
  S   S539      1.0  0.53562  0.50169  0.81174  1.0000
  H   H2451     1.0  0.53059  0.47525  0.20344  1.0000
  H   H2452     1.0  0.60103  0.34089  0.83420  1.0000
  H   H2453     1.0  0.59347  0.47512  0.22786  1.0000
  H   H2454     1.0  0.74638  0.40610  0.01379  1.0000
  C   C2049     1.0  0.71094  0.34658  0.00736  1.0000
  Fe  Fe267     1.0  0.57209  0.34095  0.76104  1.0000
  H   H2455     1.0  0.74417  0.37677  0.32981  1.0000
  C   C2050     1.0  0.52194  0.36780  0.88253  1.0000
  C   C2051     1.0  0.72113  0.35811  0.02644  1.0000
  C   C2052     1.0  0.72907  0.35426  0.01316  1.0000
  C   C2053     1.0  0.64268  0.35712  0.80782  1.0000
  C   C2054     1.0  0.52470  0.37657  0.94643  1.0000
  C   C2055     1.0  0.56535  0.49260  0.92610  1.0000
  H   H2456     1.0  0.65687  0.36328  0.26143  1.0000
  C   C2056     1.0  0.54565  0.50216  0.69048  1.0000
  H   H2457     1.0  0.74541  0.37074  0.91367  1.0000
  H   H2458     1.0  0.50251  0.44600  0.77372  1.0000
  H   H2459     1.0  0.50577  0.43609  0.99618  1.0000
  C   C2057     1.0  0.51522  0.37188  0.90567  1.0000
  C   C2058     1.0  0.53776  0.50096  0.67600  1.0000
  C   C2059     1.0  0.58014  0.34803  0.55457  1.0000
  H   H2460     1.0  0.61435  0.34050  0.33471  1.0000
  H   H2461     1.0  0.53300  0.50144  0.62493  1.0000
  C   C2060     1.0  0.50168  0.42450  0.77341  1.0000
  H   H2462     1.0  0.52488  0.46278  0.43208  1.0000
  C   C2061     1.0  0.71894  0.34258  0.99282  1.0000
  H   H2463     1.0  0.55595  0.50197  0.83509  1.0000
  H   H2464     1.0  0.51208  0.36036  0.00560  1.0000
  H   H2465     1.0  0.66252  0.34151  0.83501  1.0000
  H   H2466     1.0  0.74923  0.34850  0.26743  1.0000
  C   C2062     1.0  0.55733  0.50041  0.26052  1.0000
  H   H2467     1.0  0.50115  0.45606  0.71056  1.0000
  H   H2468     1.0  0.54438  0.50168  0.72211  1.0000
  H   H2469     1.0  0.50770  0.37571  0.99887  1.0000
  H   H2470     1.0  0.56215  0.34606  0.27771  1.0000
  H   H2471     1.0  0.53039  0.49955  0.69652  1.0000
  S   S540      1.0  0.58503  0.34254  0.29014  1.0000
  H   H2472     1.0  0.55032  0.34597  0.24614  1.0000
  H   H2473     1.0  0.59232  0.33801  0.75514  1.0000
  C   C2063     1.0  0.72486  0.33831  0.93132  1.0000
  H   H2474     1.0  0.66484  0.33964  0.10768  1.0000
  H   H2475     1.0  0.74926  0.34645  0.91679  1.0000
  H   H2476     1.0  0.74935  0.36338  0.13738  1.0000
  C   C2064     1.0  0.63551  0.33728  0.81882  1.0000
  H   H2477     1.0  0.70583  0.33731  0.95403  1.0000
  H   H2478     1.0  0.53883  0.51305  0.56094  1.0000
  H   H2479     1.0  0.56127  0.50533  0.67547  1.0000
  H   H2480     1.0  0.52932  0.55563  0.72440  1.0000
  Fe  Fe268     1.0  0.53709  0.51286  0.46087  1.0000
  H   H2481     1.0  0.50081  0.55490  0.32377  1.0000
  H   H2482     1.0  0.56163  0.50818  0.50576  1.0000
  H   H2483     1.0  0.51207  0.51752  0.31031  1.0000
  H   H2484     1.0  0.51322  0.54506  0.32069  1.0000
  C   C2065     1.0  0.54897  0.50422  0.60693  1.0000
  C   C2066     1.0  0.55516  0.50428  0.66401  1.0000
  Fe  Fe269     1.0  0.53494  0.50791  0.86296  1.0000
  H   H2485     1.0  0.53108  0.53922  0.74433  1.0000
  Fe  Fe270     1.0  0.52364  0.52557  0.43480  1.0000
  S   S541      1.0  0.51153  0.51809  0.49366  1.0000
  S   S542      1.0  0.52142  0.53549  0.37951  1.0000
  C   C2067     1.0  0.50114  0.54989  0.42111  1.0000
  C   C2068     1.0  0.52425  0.52169  0.61913  1.0000
  C   C2069     1.0  0.50474  0.54396  0.01083  1.0000
  C   C2070     1.0  0.52368  0.51786  0.69005  1.0000
  N   N138      1.0  0.51761  0.54285  0.73857  1.0000
  C   C2071     1.0  0.50695  0.53875  0.75974  1.0000
  H   H2486     1.0  0.53819  0.52996  0.57468  1.0000
  S   S543      1.0  0.52661  0.51143  0.42628  1.0000
  S   S544      1.0  0.53521  0.52780  0.46462  1.0000
  H   H2487     1.0  0.51687  0.51793  0.35128  1.0000
  C   C2072     1.0  0.51036  0.55834  0.03131  1.0000
  N   N139      1.0  0.50976  0.55455  0.99724  1.0000
  Fe  Fe271     1.0  0.51659  0.51525  0.85800  1.0000
  H   H2488     1.0  0.50298  0.55811  0.05120  1.0000
  S   S545      1.0  0.50353  0.52019  0.88873  1.0000
  C   C2073     1.0  0.51998  0.54373  0.69479  1.0000
  N   N140      1.0  0.55046  0.50555  0.56329  1.0000
  Fe  Fe272     1.0  0.53187  0.51558  0.78106  1.0000
  S   S546      1.0  0.53954  0.52374  0.71374  1.0000
  H   H2489     1.0  0.54796  0.51555  0.51283  1.0000
  S   S547      1.0  0.53269  0.52248  0.82995  1.0000
  C   C2074     1.0  0.56087  0.50739  0.53826  1.0000
  H   H2490     1.0  0.52396  0.55135  0.98465  1.0000
  H   H2491     1.0  0.50789  0.54276  0.94958  1.0000
  C   C2075     1.0  0.53359  0.52264  0.67779  1.0000
  C   C2076     1.0  0.53883  0.52686  0.63601  1.0000
  C   C2077     1.0  0.53419  0.52637  0.60673  1.0000
  H   H2492     1.0  0.52168  0.52900  0.75132  1.0000
  H   H2493     1.0  0.52025  0.55247  0.77313  1.0000
  H   H2494     1.0  0.54649  0.53062  0.62629  1.0000
  H   H2495     1.0  0.51821  0.53649  0.69001  1.0000
  H   H2496     1.0  0.51956  0.51450  0.72195  1.0000
  C   C2078     1.0  0.51994  0.55631  0.96994  1.0000
  C   C2079     1.0  0.55686  0.50528  0.62280  1.0000
  H   H2497     1.0  0.51061  0.52686  0.33394  1.0000
  S   S548      1.0  0.51561  0.50943  0.80707  1.0000
  Fe  Fe273     1.0  0.52316  0.51911  0.52367  1.0000
  H   H2498     1.0  0.51129  0.51398  0.67066  1.0000
  H   H2499     1.0  0.52796  0.54687  0.67794  1.0000
  H   H2500     1.0  0.50641  0.52509  0.74462  1.0000
  C   C2080     1.0  0.52300  0.53614  0.75708  1.0000
  S   S549      1.0  0.51783  0.52191  0.58395  1.0000
  H   H2501     1.0  0.52073  0.53455  0.79068  1.0000
  H   H2502     1.0  0.50381  0.55070  0.78441  1.0000
  H   H2503     1.0  0.51004  0.54111  0.44646  1.0000
  H   H2504     1.0  0.51586  0.54851  0.67989  1.0000
  C   C2081     1.0  0.50444  0.56041  0.97439  1.0000
  C   C2082     1.0  0.50060  0.55166  0.87706  1.0000
  H   H2505     1.0  0.51446  0.56621  0.02009  1.0000
  C   C2083     1.0  0.50989  0.55004  0.86156  1.0000
  C   C2084     1.0  0.51097  0.54043  0.86415  1.0000
  C   C2085     1.0  0.50272  0.53245  0.88203  1.0000
  C   C2086     1.0  0.51901  0.51751  0.66086  1.0000
  C   C2087     1.0  0.50471  0.53892  0.98194  1.0000
  H   H2506     1.0  0.51627  0.55619  0.84843  1.0000
  H   H2507     1.0  0.51816  0.53916  0.85338  1.0000
  H   H2508     1.0  0.50812  0.56841  0.96221  1.0000
  C   C2088     1.0  0.52132  0.55273  0.74099  1.0000
  C   C2089     1.0  0.51240  0.54231  0.38351  1.0000
  C   C2090     1.0  0.50972  0.54621  0.34906  1.0000
  H   H2509     1.0  0.52019  0.55512  0.94043  1.0000
  C   C2091     1.0  0.50797  0.54402  0.41981  1.0000
  C   C2092     1.0  0.50268  0.55179  0.35073  1.0000
  H   H2510     1.0  0.50081  0.52512  0.97132  1.0000
  S   S550      1.0  0.55184  0.50929  0.44138  1.0000
  C   C2093     1.0  0.50096  0.54369  0.78156  1.0000
  H   H2511     1.0  0.56164  0.50391  0.27665  1.0000
  N   N141      1.0  0.50119  0.51242  0.36981  1.0000
  H   H2512     1.0  0.51411  0.55407  0.05037  1.0000
  C   C2094     1.0  0.51058  0.51894  0.34001  1.0000
  H   H2513     1.0  0.50528  0.51295  0.42278  1.0000
  H   H2514     1.0  0.52417  0.56405  0.96174  1.0000
  H   H2515     1.0  0.50259  0.50614  0.58166  1.0000
  H   H2516     1.0  0.56538  0.51436  0.53791  1.0000
  C   C2095     1.0  0.50230  0.52939  0.75976  1.0000
  C   C2096     1.0  0.50057  0.52880  0.99411  1.0000
  S   S551      1.0  0.52594  0.50442  0.52221  1.0000
  H   H2517     1.0  0.55063  0.52093  0.54947  1.0000
  C   C2097     1.0  0.54680  0.51411  0.54592  1.0000
  H   H2518     1.0  0.51762  0.55820  0.72721  1.0000
  S   S552      1.0  0.54359  0.50536  0.90666  1.0000
  H   H2519     1.0  0.56442  0.50703  0.60401  1.0000
  H   H2520     1.0  0.55279  0.50541  0.25042  1.0000
  H   H2521     1.0  0.50379  0.55807  0.94805  1.0000
  H   H2522     1.0  0.49996  0.52260  0.40446  1.0000
  Fe  Fe274     1.0  0.51535  0.50412  0.48780  1.0000
  H   H2523     1.0  0.51661  0.98011  0.41452  1.0000
  C   C2098     1.0  0.53782  0.92860  0.03858  1.0000
  H   H2524     1.0  0.51039  0.97107  0.75414  1.0000
  S   S553      1.0  0.51212  0.99343  0.45988  1.0000
  Fe  Fe275     1.0  0.53987  0.97966  0.40133  1.0000
  S   S554      1.0  0.53029  0.97660  0.46585  1.0000
  S   S555      1.0  0.54075  0.96889  0.36425  1.0000
  Fe  Fe276     1.0  0.52731  0.99130  0.44207  1.0000
  H   H2525     1.0  0.52968  0.99385  0.66331  1.0000
  Fe  Fe277     1.0  0.54316  0.98553  0.47467  1.0000
  S   S556      1.0  0.54601  0.98007  0.53499  1.0000
  S   S557      1.0  0.53600  0.99394  0.37726  1.0000
  S   S558      1.0  0.55329  0.98737  0.41185  1.0000
  C   C2099     1.0  0.50138  0.90948  0.07727  1.0000
  Fe  Fe278     1.0  0.50506  0.91903  0.89377  1.0000
  H   H2526     1.0  0.53121  0.94699  0.77630  1.0000
  Fe  Fe279     1.0  0.54723  0.98530  0.79726  1.0000
  S   S559      1.0  0.53900  0.98772  0.75275  1.0000
  S   S560      1.0  0.54486  0.96966  0.83881  1.0000
  H   H2527     1.0  0.53574  0.93876  0.92347  1.0000
  C   C2100     1.0  0.51317  0.98254  0.78023  1.0000
  C   C2101     1.0  0.51475  0.95145  0.37224  1.0000
  H   H2528     1.0  0.50374  0.96880  0.53095  1.0000
  S   S561      1.0  0.56076  0.99753  0.75590  1.0000
  C   C2102     1.0  0.52530  0.99884  0.67148  1.0000
  H   H2529     1.0  0.54159  0.93655  0.97606  1.0000
  S   S562      1.0  0.50648  0.90433  0.93020  1.0000
  C   C2103     1.0  0.53584  0.95999  0.83826  1.0000
  C   C2104     1.0  0.52868  0.95380  0.87491  1.0000
  C   C2105     1.0  0.52694  0.91316  0.02398  1.0000
  C   C2106     1.0  0.52770  0.92592  0.45997  1.0000
  C   C2107     1.0  0.52365  0.98134  0.30081  1.0000
  C   C2108     1.0  0.53646  0.95762  0.80257  1.0000
  H   H2530     1.0  0.52813  0.95558  0.90265  1.0000
  C   C2109     1.0  0.53756  0.93200  0.91755  1.0000
  C   C2110     1.0  0.51428  0.97647  0.30473  1.0000
  H   H2531     1.0  0.54199  0.96224  0.77424  1.0000
  C   C2111     1.0  0.52562  0.99123  0.29803  1.0000
  H   H2532     1.0  0.54541  0.93240  0.91437  1.0000
  H   H2533     1.0  0.53322  0.91526  0.90534  1.0000
  H   H2534     1.0  0.53175  0.93071  0.47177  1.0000
  C   C2112     1.0  0.53206  0.92187  0.99066  1.0000
  C   C2113     1.0  0.52168  0.95819  0.37928  1.0000
  N   N142      1.0  0.57677  0.99659  0.49169  1.0000
  N   N143      1.0  0.50078  0.99704  0.30612  1.0000
  H   H2535     1.0  0.52307  0.90564  0.08838  1.0000
  C   C2114     1.0  0.54695  0.98714  0.56792  1.0000
  C   C2115     1.0  0.54707  0.98241  0.60725  1.0000
  C   C2116     1.0  0.54931  0.98789  0.63210  1.0000
  H   H2536     1.0  0.51551  0.91621  0.97468  1.0000
  H   H2537     1.0  0.52223  0.90713  0.02049  1.0000
  C   C2117     1.0  0.54873  0.99742  0.55430  1.0000
  H   H2538     1.0  0.54575  0.97447  0.61809  1.0000
  S   S563      1.0  0.50854  0.93812  0.33618  1.0000
  C   C2118     1.0  0.52234  0.94525  0.87594  1.0000
  H   H2539     1.0  0.51972  0.92381  0.92234  1.0000
  C   C2119     1.0  0.53163  0.96045  0.35671  1.0000
  H   H2540     1.0  0.53677  0.93244  0.88718  1.0000
  C   C2120     1.0  0.50604  0.91953  0.06075  1.0000
  H   H2541     1.0  0.50710  0.94981  0.38998  1.0000
  C   C2121     1.0  0.52759  0.94912  0.31992  1.0000
  C   C2122     1.0  0.53451  0.95584  0.32708  1.0000
  H   H2542     1.0  0.51738  0.90182  0.48171  1.0000
  C   C2123     1.0  0.52342  0.94258  0.84065  1.0000
  H   H2543     1.0  0.52998  0.94567  0.29703  1.0000
  H   H2544     1.0  0.54217  0.95749  0.30941  1.0000
  C   C2124     1.0  0.52732  0.91223  0.06316  1.0000
  C   C2125     1.0  0.52083  0.92305  0.95235  1.0000
  C   C2126     1.0  0.53035  0.94893  0.80387  1.0000
  H   H2545     1.0  0.51769  0.00257  0.92803  1.0000
  H   H2546     1.0  0.53261  0.91936  0.10132  1.0000
  C   C2127     1.0  0.53269  0.91996  0.07052  1.0000
  C   C2128     1.0  0.50011  0.90454  0.11821  1.0000
  H   H2547     1.0  0.54970  0.98415  0.66174  1.0000
  N   N144      1.0  0.53107  0.92288  0.94995  1.0000
  C   C2129     1.0  0.51764  0.94686  0.34250  1.0000
  C   C2130     1.0  0.50771  0.97686  0.76386  1.0000
  H   H2548     1.0  0.50389  0.95145  0.78182  1.0000
  C   C2131     1.0  0.53756  0.92959  0.99913  1.0000
  C   C2132     1.0  0.51733  0.90857  0.36904  1.0000
  H   H2549     1.0  0.50108  0.95965  0.89396  1.0000
  C   C2133     1.0  0.51004  0.99037  0.79108  1.0000
  S   S564      1.0  0.51673  0.93119  0.84099  1.0000
  H   H2550     1.0  0.53294  0.99494  0.29517  1.0000
  H   H2551     1.0  0.59209  0.99770  0.48267  1.0000
  H   H2552     1.0  0.50422  0.89472  0.46645  1.0000
  C   C2134     1.0  0.50867  0.91942  0.12534  1.0000
  H   H2553     1.0  0.56825  0.98720  0.46877  1.0000
  H   H2554     1.0  0.51933  0.96159  0.40236  1.0000
  C   C2135     1.0  0.55163  0.99818  0.61755  1.0000
  H   H2555     1.0  0.56613  0.98816  0.55022  1.0000
  Fe  Fe280     1.0  0.54857  0.00143  0.39223  1.0000
  C   C2136     1.0  0.50905  0.89645  0.43452  1.0000
  H   H2556     1.0  0.51275  0.96870  0.30760  1.0000
  H   H2557     1.0  0.52938  0.97740  0.30034  1.0000
  C   C2137     1.0  0.50853  0.99154  0.30403  1.0000
  H   H2558     1.0  0.52800  0.90732  0.95636  1.0000
  C   C2138     1.0  0.50979  0.92444  0.08454  1.0000
  C   C2139     1.0  0.52548  0.92990  0.42477  1.0000
  C   C2140     1.0  0.52028  0.92377  0.40936  1.0000
  Fe  Fe281     1.0  0.50585  0.92819  0.29757  1.0000
  C   C2141     1.0  0.58656  0.99615  0.46757  1.0000
  H   H2559     1.0  0.54078  0.91355  0.93758  1.0000
  H   H2560     1.0  0.50570  0.97152  0.59099  1.0000
  C   C2142     1.0  0.53338  0.91439  0.93689  1.0000
  C   C2143     1.0  0.50891  0.97987  0.42158  1.0000
  H   H2561     1.0  0.51575  0.89372  0.43465  1.0000
  H   H2562     1.0  0.50627  0.96933  0.39099  1.0000
  C   C2144     1.0  0.51538  0.99684  0.67558  1.0000
  H   H2563     1.0  0.54183  0.93465  0.04474  1.0000
  C   C2145     1.0  0.55114  0.00290  0.57886  1.0000
  S   S565      1.0  0.51433  0.92546  0.15330  1.0000
  H   H2564     1.0  0.51864  0.91621  0.34864  1.0000
  C   C2146     1.0  0.51821  0.99629  0.29957  1.0000
  Fe  Fe282     1.0  0.53341  0.99808  0.78437  1.0000
  S   S566      1.0  0.51333  0.91737  0.27382  1.0000
  H   H2565     1.0  0.51881  0.92933  0.96208  1.0000
  H   H2566     1.0  0.51681  0.94065  0.90414  1.0000
  H   H2567     1.0  0.52461  0.90694  0.36706  1.0000
  C   C2147     1.0  0.50305  0.97373  0.40832  1.0000
  S   S567      1.0  0.53934  0.00002  0.45542  1.0000
  H   H2568     1.0  0.50345  0.91772  0.39234  1.0000
  S   S568      1.0  0.54103  0.99514  0.83076  1.0000
  H   H2569     1.0  0.51975  0.98080  0.78461  1.0000
  C   C2148     1.0  0.51713  0.91342  0.42874  1.0000
  H   H2570     1.0  0.57282  0.00173  0.56414  1.0000
  H   H2571     1.0  0.52780  0.93781  0.40923  1.0000
  H   H2572     1.0  0.51203  0.99020  0.67102  1.0000
  C   C2149     1.0  0.50679  0.98144  0.30637  1.0000
  H   H2573     1.0  0.54867  0.00120  0.52418  1.0000
  Fe  Fe283     1.0  0.50710  0.92143  0.22181  1.0000
  H   H2574     1.0  0.56260  0.99620  0.48450  1.0000
  S   S569      1.0  0.51762  0.99874  0.80431  1.0000
  H   H2575     1.0  0.57289  0.98103  0.52593  1.0000
  H   H2576     1.0  0.50202  0.00104  0.69020  1.0000
  C   C2150     1.0  0.50479  0.98566  0.44369  1.0000
  C   C2151     1.0  0.50093  0.99185  0.78938  1.0000
  H   H2577     1.0  0.50496  0.89200  0.42039  1.0000
  C   C2152     1.0  0.50223  0.91003  0.41222  1.0000
  H   H2578     1.0  0.51371  0.93211  0.07117  1.0000
  C   C2153     1.0  0.51949  0.90958  0.46472  1.0000
  H   H2579     1.0  0.58647  0.98876  0.46384  1.0000
  H   H2580     1.0  0.50699  0.98360  0.59547  1.0000
  N   N145      1.0  0.51154  0.90716  0.41174  1.0000
  Fe  Fe284     1.0  0.55165  0.00052  0.71397  1.0000
  H   H2581     1.0  0.51873  0.92724  0.38204  1.0000
  H   H2582     1.0  0.50415  0.93470  0.78604  1.0000
  H   H2583     1.0  0.57868  0.98888  0.54829  1.0000
  C   C2154     1.0  0.56976  0.99490  0.46954  1.0000
  C   C2155     1.0  0.57351  0.98835  0.53075  1.0000
  C   C2156     1.0  0.50968  0.00316  0.68692  1.0000
  H   H2584     1.0  0.50905  0.98230  0.54633  1.0000
  H   H2585     1.0  0.50284  0.90550  0.17335  1.0000
  H   H2586     1.0  0.50462  0.00276  0.24099  1.0000
  H   H2587     1.0  0.50689  0.92348  0.02960  1.0000
  H   H2588     1.0  0.52646  0.91272  0.50735  1.0000
  H   H2589     1.0  0.58923  0.00159  0.43638  1.0000
  C   C2157     1.0  0.50434  0.97887  0.57882  1.0000
  C   C2158     1.0  0.52471  0.91578  0.47991  1.0000
  H   H2590     1.0  0.52712  0.00073  0.88920  1.0000
  H   H2591     1.0  0.51351  0.90367  0.35577  1.0000
  C   C2159     1.0  0.50364  0.90949  0.14223  1.0000
  S   S570      1.0  0.50073  0.93300  0.24343  1.0000
  H   H2592     1.0  0.57240  0.99981  0.43741  1.0000
  H   H2593     1.0  0.84054  0.32675  0.66728  1.0000
  N   N146      1.0  0.80202  0.30932  0.21669  1.0000
  H   H2594     1.0  0.82401  0.32039  0.77479  1.0000
  Fe  Fe285     1.0  0.77083  0.30571  0.29587  1.0000
  S   S571      1.0  0.77136  0.31841  0.24323  1.0000
  S   S572      1.0  0.78201  0.30583  0.33083  1.0000
  Fe  Fe286     1.0  0.75516  0.31520  0.27268  1.0000
  H   H2595     1.0  0.76218  0.27442  0.25219  1.0000
  Fe  Fe287     1.0  0.76756  0.30726  0.21326  1.0000
  S   S573      1.0  0.77514  0.31072  0.14574  1.0000
  S   S574      1.0  0.75456  0.30296  0.32739  1.0000
  S   S575      1.0  0.76839  0.29462  0.26310  1.0000
  H   H2596     1.0  0.78943  0.31218  0.19924  1.0000
  H   H2597     1.0  0.76780  0.28049  0.17672  1.0000
  H   H2598     1.0  0.83445  0.31559  0.77616  1.0000
  H   H2599     1.0  0.81561  0.31953  0.62034  1.0000
  H   H2600     1.0  0.81147  0.31726  0.15477  1.0000
  C   C2160     1.0  0.77054  0.33430  0.09551  1.0000
  C   C2161     1.0  0.76065  0.33308  0.31579  1.0000
  C   C2162     1.0  0.76008  0.29764  0.13982  1.0000
  H   H2601     1.0  0.79881  0.31455  0.66965  1.0000
  H   H2602     1.0  0.76911  0.33659  0.35310  1.0000
  Fe  Fe288     1.0  0.76460  0.30214  0.89529  1.0000
  S   S576      1.0  0.76325  0.30919  0.94427  1.0000
  S   S577      1.0  0.77865  0.30766  0.84055  1.0000
  H   H2603     1.0  0.84128  0.30795  0.72522  1.0000
  H   H2604     1.0  0.82953  0.30069  0.73050  1.0000
  C   C2163     1.0  0.80364  0.31224  0.72212  1.0000
  H   H2605     1.0  0.82478  0.33499  0.22228  1.0000
  H   H2606     1.0  0.77936  0.31327  0.06018  1.0000
  C   C2164     1.0  0.76141  0.27438  0.19328  1.0000
  Fe  Fe289     1.0  0.75211  0.29298  0.29004  1.0000
  H   H2607     1.0  0.75699  0.29556  0.17259  1.0000
  S   S578      1.0  0.75680  0.28667  0.93858  1.0000
  C   C2165     1.0  0.75556  0.32866  0.98082  1.0000
  C   C2166     1.0  0.82776  0.31472  0.76689  1.0000
  C   C2167     1.0  0.80505  0.31476  0.68050  1.0000
  H   H2608     1.0  0.76436  0.32501  0.17428  1.0000
  C   C2168     1.0  0.79476  0.31527  0.21259  1.0000
  C   C2169     1.0  0.80854  0.31347  0.23662  1.0000
  H   H2609     1.0  0.76468  0.33137  0.01679  1.0000
  H   H2610     1.0  0.78178  0.32833  0.88305  1.0000
  H   H2611     1.0  0.79055  0.31551  0.24293  1.0000
  C   C2170     1.0  0.82049  0.32743  0.23654  1.0000
  H   H2612     1.0  0.77126  0.30451  0.02232  1.0000
  C   C2171     1.0  0.79377  0.32496  0.30887  1.0000
  H   H2613     1.0  0.75896  0.27326  0.13926  1.0000
  C   C2172     1.0  0.75616  0.27017  0.17207  1.0000
  C   C2173     1.0  0.76119  0.33467  0.99547  1.0000
  C   C2174     1.0  0.75001  0.26326  0.25706  1.0000
  C   C2175     1.0  0.81446  0.32326  0.21795  1.0000
  H   H2614     1.0  0.76162  0.32567  0.32105  1.0000
  H   H2615     1.0  0.77665  0.33312  0.10773  1.0000
  C   C2176     1.0  0.83478  0.30804  0.71467  1.0000
  C   C2177     1.0  0.76878  0.30497  0.11909  1.0000
  S   S579      1.0  0.75135  0.30512  0.23830  1.0000
  H   H2616     1.0  0.81000  0.31054  0.76892  1.0000
  C   C2178     1.0  0.82259  0.31789  0.66668  1.0000
  C   C2179     1.0  0.80246  0.31980  0.36978  1.0000
  H   H2617     1.0  0.79049  0.32707  0.28533  1.0000
  C   C2180     1.0  0.79072  0.31527  0.33563  1.0000
  H   H2618     1.0  0.82305  0.30730  0.78636  1.0000
  H   H2619     1.0  0.79149  0.29824  0.27018  1.0000
  H   H2620     1.0  0.82974  0.32002  0.64385  1.0000
  C   C2181     1.0  0.80905  0.30814  0.27503  1.0000
  C   C2182     1.0  0.80124  0.33191  0.31201  1.0000
  H   H2621     1.0  0.83396  0.33181  0.70356  1.0000
  Fe  Fe290     1.0  0.75449  0.29421  0.98666  1.0000
  C   C2183     1.0  0.80570  0.32940  0.34232  1.0000
  C   C2184     1.0  0.81451  0.31754  0.65284  1.0000
  C   C2185     1.0  0.77264  0.30759  0.07650  1.0000
  N   N147      1.0  0.83012  0.31597  0.72275  1.0000
  H   H2622     1.0  0.79625  0.31000  0.74367  1.0000
  H   H2623     1.0  0.79171  0.29603  0.22370  1.0000
  H   H2624     1.0  0.79241  0.33183  0.41705  1.0000
  H   H2625     1.0  0.81367  0.30557  0.17719  1.0000
  H   H2626     1.0  0.80149  0.29400  0.24361  1.0000
  C   C2186     1.0  0.83735  0.32559  0.70033  1.0000
  C   C2187     1.0  0.81167  0.31261  0.73628  1.0000
  C   C2188     1.0  0.75830  0.27098  0.23568  1.0000
  C   C2189     1.0  0.78996  0.31389  0.84183  1.0000
  C   C2190     1.0  0.79276  0.31140  0.87672  1.0000
  C   C2191     1.0  0.80211  0.31595  0.87579  1.0000
  C   C2192     1.0  0.80869  0.32322  0.84036  1.0000
  C   C2193     1.0  0.80580  0.32592  0.80574  1.0000
  C   C2194     1.0  0.79653  0.32119  0.80640  1.0000
  H   H2627     1.0  0.78782  0.30575  0.90411  1.0000
  H   H2628     1.0  0.80427  0.31381  0.90273  1.0000
  C   C2195     1.0  0.82086  0.32199  0.27405  1.0000
  H   H2629     1.0  0.79441  0.32321  0.77932  1.0000
  H   H2630     1.0  0.75453  0.32076  0.99169  1.0000
  C   C2196     1.0  0.75852  0.32701  0.16172  1.0000
  H   H2631     1.0  0.81075  0.33153  0.77829  1.0000
  H   H2632     1.0  0.83736  0.30894  0.68158  1.0000
  C   C2197     1.0  0.79511  0.31279  0.36621  1.0000
  S   S580      1.0  0.75453  0.28752  0.05116  1.0000
  C   C2198     1.0  0.75552  0.29267  0.11835  1.0000
  H   H2633     1.0  0.84375  0.32631  0.71145  1.0000
  S   S581      1.0  0.82039  0.32860  0.84098  1.0000
  C   C2199     1.0  0.76803  0.30267  0.05494  1.0000
  H   H2634     1.0  0.80577  0.31768  0.39326  1.0000
  C   C2200     1.0  0.81519  0.31236  0.29313  1.0000
  C   C2201     1.0  0.82144  0.31561  0.70883  1.0000
  C   C2202     1.0  0.78812  0.33491  0.86799  1.0000
  C   C2203     1.0  0.75958  0.29502  0.07596  1.0000
  H   H2635     1.0  0.80456  0.30081  0.29247  1.0000
  H   H2636     1.0  0.81431  0.32783  0.18918  1.0000
  C   C2204     1.0  0.79649  0.29894  0.23960  1.0000
  H   H2637     1.0  0.79285  0.30534  0.38713  1.0000
  C   C2205     1.0  0.80785  0.30962  0.17550  1.0000
  H   H2638     1.0  0.77910  0.33311  0.94411  1.0000
  H   H2639     1.0  0.80317  0.30626  0.16028  1.0000
  H   H2640     1.0  0.75118  0.33057  0.10279  1.0000
  H   H2641     1.0  0.77631  0.33350  0.42357  1.0000
  H   H2642     1.0  0.82531  0.32534  0.28904  1.0000
  H   H2643     1.0  0.79452  0.33240  0.87432  1.0000
  C   C2206     1.0  0.75126  0.33287  0.95231  1.0000
  H   H2644     1.0  0.75553  0.32048  0.15396  1.0000
  H   H2645     1.0  0.79821  0.32300  0.19268  1.0000
  S   S582      1.0  0.75076  0.30509  0.88313  1.0000
  H   H2646     1.0  0.81526  0.30828  0.32296  1.0000
  S   S583      1.0  0.83596  0.33524  0.40923  1.0000
  H   H2647     1.0  0.76810  0.32763  0.08748  1.0000
  H   H2648     1.0  0.79230  0.33628  0.45908  1.0000
  H   H2649     1.0  0.75252  0.32788  0.18627  1.0000
  N   N148      1.0  0.76242  0.33605  0.12564  1.0000
  C   C2207     1.0  0.75491  0.33638  0.29209  1.0000
  H   H2650     1.0  0.75263  0.26231  0.11278  1.0000
  S   S584      1.0  0.82655  0.33671  0.52748  1.0000
  S   S585      1.0  0.78151  0.40098  0.27137  1.0000
  H   H2651     1.0  0.88992  0.39171  0.65166  1.0000
  H   H2652     1.0  0.96144  0.42291  0.22420  1.0000
  H   H2653     1.0  0.93486  0.43349  0.06580  1.0000
  S   S586      1.0  0.79485  0.39544  0.36305  1.0000
  H   H2654     1.0  0.88162  0.43637  0.36947  1.0000
  S   S587      1.0  0.82041  0.34832  0.43095  1.0000
  S   S588      1.0  0.79546  0.39684  0.87586  1.0000
  H   H2655     1.0  0.93682  0.41674  0.09576  1.0000
  H   H2656     1.0  0.93705  0.40532  0.97309  1.0000
  C   C2208     1.0  0.94900  0.40114  0.85439  1.0000
  C   C2209     1.0  0.95357  0.42578  0.33429  1.0000
  C   C2210     1.0  0.95781  0.42783  0.20687  1.0000
  C   C2211     1.0  0.97290  0.43938  0.16258  1.0000
  Fe  Fe291     1.0  0.92158  0.41507  0.22571  1.0000
  S   S589      1.0  0.91975  0.40720  0.29076  1.0000
  S   S590      1.0  0.92012  0.43047  0.20383  1.0000
  Fe  Fe292     1.0  0.92588  0.39806  0.19691  1.0000
  S   S591      1.0  0.92464  0.38872  0.26019  1.0000
  S   S592      1.0  0.93013  0.39415  0.13841  1.0000
  Fe  Fe293     1.0  0.91115  0.39432  0.28062  1.0000
  S   S593      1.0  0.89566  0.38819  0.32575  1.0000
  Fe  Fe294     1.0  0.93339  0.40258  0.26491  1.0000
  S   S594      1.0  0.94707  0.40384  0.28568  1.0000
  S   S595      1.0  0.91205  0.40277  0.21721  1.0000
  S   S596      1.0  0.93560  0.41128  0.19997  1.0000
  Fe  Fe295     1.0  0.94262  0.47020  0.26935  1.0000
  S   S597      1.0  0.94015  0.47546  0.32337  1.0000
  S   S598      1.0  0.94632  0.45570  0.27251  1.0000
  Fe  Fe296     1.0  0.93928  0.48804  0.21496  1.0000
  S   S599      1.0  0.93633  0.49510  0.26492  1.0000
  S   S600      1.0  0.94071  0.49383  0.14769  1.0000
  Fe  Fe297     1.0  0.94936  0.49024  0.27967  1.0000
  H   H2657     1.0  0.98656  0.48990  0.42951  1.0000
  Fe  Fe298     1.0  0.92731  0.47976  0.30599  1.0000
  S   S601      1.0  0.91292  0.47366  0.35880  1.0000
  S   S602      1.0  0.95279  0.48435  0.22658  1.0000
  S   S603      1.0  0.92928  0.47344  0.25504  1.0000
  Fe  Fe299     1.0  0.83833  0.42881  0.41227  1.0000
  S   S604      1.0  0.85334  0.42969  0.37214  1.0000
  S   S605      1.0  0.82538  0.42885  0.38681  1.0000
  Fe  Fe300     1.0  0.84601  0.42918  0.48473  1.0000
  S   S606      1.0  0.86148  0.42971  0.44981  1.0000
  S   S607      1.0  0.84012  0.42648  0.55337  1.0000
  Fe  Fe301     1.0  0.85944  0.44086  0.39791  1.0000
  S   S608      1.0  0.87166  0.45365  0.35019  1.0000
  Fe  Fe302     1.0  0.85440  0.41868  0.42626  1.0000
  S   S609      1.0  0.86070  0.40613  0.41593  1.0000
  S   S610      1.0  0.84426  0.44112  0.43400  1.0000
  S   S611      1.0  0.83908  0.41700  0.46540  1.0000
  Fe  Fe303     1.0  0.93026  0.47115  0.98049  1.0000
  S   S612      1.0  0.92581  0.48251  0.93728  1.0000
  S   S613      1.0  0.92588  0.46756  0.04945  1.0000
  Fe  Fe304     1.0  0.93922  0.46307  0.91299  1.0000
  S   S614      1.0  0.93562  0.47389  0.86530  1.0000
  S   S615      1.0  0.94620  0.45133  0.89721  1.0000
  Fe  Fe305     1.0  0.94107  0.48472  0.89409  1.0000
  H   H2658     1.0  0.81775  0.36124  0.79320  1.0000
  Fe  Fe306     1.0  0.92080  0.47039  0.91272  1.0000
  S   S616      1.0  0.90519  0.46578  0.90952  1.0000
  S   S617      1.0  0.94562  0.47398  0.93874  1.0000
  S   S618      1.0  0.92434  0.45901  0.95903  1.0000
  Fe  Fe307     1.0  0.90763  0.39101  0.96664  1.0000
  S   S619      1.0  0.91009  0.37997  0.93329  1.0000
  S   S620      1.0  0.90177  0.38893  0.03454  1.0000
  Fe  Fe308     1.0  0.91325  0.40784  0.88720  1.0000
  S   S621      1.0  0.91622  0.39842  0.84743  1.0000
  S   S622      1.0  0.91390  0.42382  0.86315  1.0000
  Fe  Fe309     1.0  0.90225  0.38750  0.89168  1.0000
  S   S623      1.0  0.88849  0.38248  0.87437  1.0000
  Fe  Fe310     1.0  0.92377  0.39185  0.89130  1.0000
  S   S624      1.0  0.93944  0.39027  0.87179  1.0000
  S   S625      1.0  0.89896  0.39768  0.92863  1.0000
  S   S626      1.0  0.92163  0.40213  0.92779  1.0000
  H   H2659     1.0  0.94127  0.41938  0.31849  1.0000
  Fe  Fe311     1.0  0.84721  0.43142  0.81787  1.0000
  S   S627      1.0  0.85756  0.44598  0.77511  1.0000
  S   S628      1.0  0.83222  0.42892  0.86448  1.0000
  Fe  Fe312     1.0  0.86111  0.41980  0.78781  1.0000
  S   S629      1.0  0.87242  0.43308  0.74342  1.0000
  S   S630      1.0  0.86360  0.40469  0.79554  1.0000
  Fe  Fe313     1.0  0.86961  0.43987  0.79399  1.0000
  S   S631      1.0  0.88419  0.44750  0.79907  1.0000
  Fe  Fe314     1.0  0.85971  0.43805  0.72817  1.0000
  S   S632      1.0  0.86131  0.44467  0.66108  1.0000
  S   S633      1.0  0.85903  0.42590  0.83968  1.0000
  S   S634      1.0  0.84855  0.42420  0.76958  1.0000
  C   C2212     1.0  0.90156  0.36846  0.21056  1.0000
  C   C2213     1.0  0.87305  0.38314  0.44849  1.0000
  H   H2660     1.0  0.96339  0.48317  0.84638  1.0000
  H   H2661     1.0  0.75717  0.37286  0.16591  1.0000
  H   H2662     1.0  0.97202  0.43750  0.13547  1.0000
  C   C2214     1.0  0.84776  0.38134  0.78140  1.0000
  C   C2215     1.0  0.85405  0.38730  0.79360  1.0000
  C   C2216     1.0  0.85581  0.39752  0.77876  1.0000
  C   C2217     1.0  0.85122  0.40180  0.75153  1.0000
  C   C2218     1.0  0.84469  0.39583  0.74005  1.0000
  H   H2663     1.0  0.96751  0.43488  0.24694  1.0000
  H   H2664     1.0  0.85746  0.38398  0.81509  1.0000
  H   H2665     1.0  0.85292  0.40968  0.73822  1.0000
  H   H2666     1.0  0.84112  0.39917  0.71913  1.0000
  H   H2667     1.0  0.85793  0.40138  0.64772  1.0000
  C   C2219     1.0  0.95861  0.40050  0.85233  1.0000
  H   H2668     1.0  0.96015  0.39333  0.86076  1.0000
  C   C2220     1.0  0.94712  0.41044  0.84306  1.0000
  C   C2221     1.0  0.94081  0.43370  0.00405  1.0000
  S   S635      1.0  0.99577  0.45011  0.79556  1.0000
  C   C2222     1.0  0.96494  0.44070  0.22821  1.0000
  H   H2669     1.0  0.97338  0.40845  0.84169  1.0000
  H   H2670     1.0  0.86942  0.37937  0.86459  1.0000
  C   C2223     1.0  0.99135  0.44330  0.61010  1.0000
  H   H2671     1.0  0.81993  0.36667  0.30915  1.0000
  S   S636      1.0  0.97262  0.42903  0.82777  1.0000
  C   C2224     1.0  0.94855  0.41915  0.31947  1.0000
  H   H2672     1.0  0.78706  0.36146  0.89334  1.0000
  C   C2225     1.0  0.81155  0.38097  0.34012  1.0000
  C   C2226     1.0  0.95115  0.44192  0.15438  1.0000
  H   H2673     1.0  0.82952  0.34395  0.65065  1.0000
  C   C2227     1.0  0.89956  0.46072  0.87814  1.0000
  C   C2228     1.0  0.90496  0.45962  0.84171  1.0000
  C   C2229     1.0  0.90013  0.45575  0.81783  1.0000
  C   C2230     1.0  0.88981  0.45269  0.83019  1.0000
  C   C2231     1.0  0.88441  0.45368  0.86687  1.0000
  C   C2232     1.0  0.88925  0.45773  0.89037  1.0000
  H   H2674     1.0  0.91288  0.46188  0.83160  1.0000
  H   H2675     1.0  0.90444  0.45506  0.78961  1.0000
  H   H2676     1.0  0.87651  0.45140  0.87703  1.0000
  H   H2677     1.0  0.88494  0.45854  0.91833  1.0000
  C   C2233     1.0  0.93783  0.44409  0.88312  1.0000
  C   C2234     1.0  0.93924  0.43511  0.87833  1.0000
  C   C2235     1.0  0.93196  0.42886  0.87153  1.0000
  C   C2236     1.0  0.92349  0.43178  0.86783  1.0000
  C   C2237     1.0  0.92235  0.44098  0.87024  1.0000
  C   C2238     1.0  0.92941  0.44703  0.87872  1.0000
  H   H2678     1.0  0.94587  0.43295  0.88037  1.0000
  H   H2679     1.0  0.93288  0.42181  0.86910  1.0000
  H   H2680     1.0  0.91583  0.44330  0.86719  1.0000
  H   H2681     1.0  0.92820  0.45392  0.88222  1.0000
  C   C2239     1.0  0.84671  0.43110  0.58234  1.0000
  C   C2240     1.0  0.85440  0.43959  0.56453  1.0000
  C   C2241     1.0  0.85888  0.44353  0.58902  1.0000
  C   C2242     1.0  0.85589  0.43895  0.63143  1.0000
  C   C2243     1.0  0.84842  0.43025  0.64912  1.0000
  C   C2244     1.0  0.84377  0.42645  0.62476  1.0000
  H   H2682     1.0  0.85673  0.44328  0.53201  1.0000
  H   H2683     1.0  0.86465  0.45025  0.57498  1.0000
  H   H2684     1.0  0.84610  0.42656  0.68161  1.0000
  H   H2685     1.0  0.83785  0.41986  0.63886  1.0000
  H   H2686     1.0  0.95815  0.40202  0.96541  1.0000
  H   H2687     1.0  0.77311  0.34493  0.41785  1.0000
  C   C2245     1.0  0.85478  0.39006  0.39434  1.0000
  C   C2246     1.0  0.85261  0.39859  0.40171  1.0000
  C   C2247     1.0  0.84367  0.40071  0.40039  1.0000
  H   H2688     1.0  0.92307  0.45280  0.38159  1.0000
  H   H2689     1.0  0.92208  0.43186  0.38853  1.0000
  H   H2690     1.0  0.86174  0.38847  0.39450  1.0000
  H   H2691     1.0  0.84202  0.40740  0.40479  1.0000
  H   H2692     1.0  0.88557  0.37674  0.13667  1.0000
  H   H2693     1.0  0.80179  0.35195  0.44906  1.0000
  H   H2694     1.0  0.82420  0.35765  0.89145  1.0000
  H   H2695     1.0  0.77182  0.35264  0.21065  1.0000
  C   C2248     1.0  0.83861  0.37696  0.50058  1.0000
  C   C2249     1.0  0.81243  0.43419  0.77676  1.0000
  C   C2250     1.0  0.79029  0.35487  0.42222  1.0000
  C   C2251     1.0  0.96620  0.50072  0.89007  1.0000
  C   C2252     1.0  0.80355  0.35248  0.83442  1.0000
  H   H2696     1.0  0.83017  0.38067  0.30443  1.0000
  C   C2253     1.0  0.93785  0.48559  0.12138  1.0000
  C   C2254     1.0  0.93078  0.47665  0.14149  1.0000
  C   C2255     1.0  0.92749  0.47103  0.11901  1.0000
  C   C2256     1.0  0.93125  0.47424  0.07623  1.0000
  C   C2257     1.0  0.93870  0.48289  0.05619  1.0000
  C   C2258     1.0  0.94197  0.48854  0.07873  1.0000
  H   H2697     1.0  0.92748  0.47430  0.17419  1.0000
  H   H2698     1.0  0.92174  0.46434  0.13480  1.0000
  H   H2699     1.0  0.94173  0.48540  0.02331  1.0000
  H   H2700     1.0  0.94754  0.49535  0.06296  1.0000
  C   C2259     1.0  0.90160  0.46788  0.35572  1.0000
  C   C2260     1.0  0.89415  0.46177  0.39164  1.0000
  C   C2261     1.0  0.88504  0.45715  0.39046  1.0000
  C   C2262     1.0  0.88319  0.45880  0.35336  1.0000
  C   C2263     1.0  0.89065  0.46492  0.31748  1.0000
  C   C2264     1.0  0.89985  0.46931  0.31852  1.0000
  H   H2701     1.0  0.89540  0.46067  0.42064  1.0000
  H   H2702     1.0  0.87936  0.45253  0.41837  1.0000
  H   H2703     1.0  0.88926  0.46641  0.28872  1.0000
  H   H2704     1.0  0.90547  0.47406  0.29069  1.0000
  C   C2265     1.0  0.95289  0.41212  0.30653  1.0000
  H   H2705     1.0  0.95797  0.42644  0.91080  1.0000
  C   C2266     1.0  0.87323  0.37469  0.85078  1.0000
  H   H2706     1.0  0.96393  0.41678  0.91443  1.0000
  H   H2707     1.0  0.91149  0.44641  0.07446  1.0000
  C   C2267     1.0  0.92224  0.39335  0.10897  1.0000
  C   C2268     1.0  0.91249  0.39390  0.12263  1.0000
  C   C2269     1.0  0.90633  0.39270  0.09920  1.0000
  C   C2270     1.0  0.90990  0.39109  0.06169  1.0000
  C   C2271     1.0  0.91970  0.39080  0.04754  1.0000
  C   C2272     1.0  0.92578  0.39179  0.07137  1.0000
  H   H2708     1.0  0.90962  0.39495  0.15172  1.0000
  H   H2709     1.0  0.89876  0.39294  0.11035  1.0000
  H   H2710     1.0  0.92246  0.38939  0.01907  1.0000
  H   H2711     1.0  0.93319  0.39104  0.06127  1.0000
  H   H2712     1.0  0.96501  0.42461  0.94500  1.0000
  H   H2713     1.0  0.95012  0.43120  0.34393  1.0000
  H   H2714     1.0  0.86457  0.38845  0.68013  1.0000
  H   H2715     1.0  0.89714  0.36937  0.31290  1.0000
  H   H2716     1.0  0.88512  0.41054  0.69888  1.0000
  C   C2273     1.0  0.92738  0.43766  0.22230  1.0000
  C   C2274     1.0  0.93223  0.43319  0.24787  1.0000
  C   C2275     1.0  0.93796  0.43881  0.26325  1.0000
  C   C2276     1.0  0.93921  0.44897  0.25187  1.0000
  C   C2277     1.0  0.93463  0.45354  0.22518  1.0000
  C   C2278     1.0  0.92851  0.44785  0.21113  1.0000
  H   H2717     1.0  0.93173  0.42542  0.25548  1.0000
  H   H2718     1.0  0.94142  0.43528  0.28406  1.0000
  H   H2719     1.0  0.93608  0.46144  0.21399  1.0000
  H   H2720     1.0  0.92499  0.45139  0.19043  1.0000
  C   C2279     1.0  0.80534  0.40599  0.87372  1.0000
  C   C2280     1.0  0.81351  0.40959  0.83824  1.0000
  C   C2281     1.0  0.82168  0.41670  0.83494  1.0000
  C   C2282     1.0  0.82184  0.42022  0.86738  1.0000
  C   C2283     1.0  0.81359  0.41673  0.90280  1.0000
  C   C2284     1.0  0.80537  0.40962  0.90606  1.0000
  H   H2721     1.0  0.81356  0.40683  0.81307  1.0000
  H   H2722     1.0  0.82782  0.41943  0.80714  1.0000
  H   H2723     1.0  0.81360  0.41947  0.92801  1.0000
  H   H2724     1.0  0.79910  0.40694  0.93358  1.0000
  C   C2285     1.0  0.91568  0.44768  0.39205  1.0000
  C   C2286     1.0  0.94683  0.44855  0.13337  1.0000
  H   H2725     1.0  0.80360  0.33929  0.29056  1.0000
  C   C2287     1.0  0.96418  0.41840  0.83101  1.0000
  C   C2288     1.0  0.91137  0.36859  0.13237  1.0000
  C   C2289     1.0  0.80359  0.40493  0.36751  1.0000
  C   C2290     1.0  0.80461  0.41498  0.34895  1.0000
  C   C2291     1.0  0.81136  0.42215  0.35483  1.0000
  C   C2292     1.0  0.81738  0.41944  0.37854  1.0000
  C   C2293     1.0  0.81651  0.40940  0.39636  1.0000
  C   C2294     1.0  0.80961  0.40223  0.39132  1.0000
  H   H2726     1.0  0.80007  0.41725  0.33065  1.0000
  H   H2727     1.0  0.81191  0.42988  0.34084  1.0000
  H   H2728     1.0  0.82097  0.40718  0.41507  1.0000
  H   H2729     1.0  0.80893  0.39454  0.40620  1.0000
  H   H2730     1.0  0.97062  0.44760  0.21967  1.0000
  S   S637      1.0  0.96901  0.43418  0.35528  1.0000
  H   H2731     1.0  0.97709  0.43445  0.17625  1.0000
  H   H2732     1.0  0.90693  0.42416  0.42238  1.0000
  C   C2295     1.0  0.93802  0.42950  0.04615  1.0000
  C   C2296     1.0  0.90177  0.42693  0.40871  1.0000
  C   C2297     1.0  0.94663  0.41922  0.99443  1.0000
  C   C2298     1.0  0.92205  0.43653  0.35872  1.0000
  H   H2733     1.0  0.86430  0.41874  0.64136  1.0000
  N   N149      1.0  0.89097  0.41925  0.82893  1.0000
  C   C2299     1.0  0.88200  0.41830  0.81718  1.0000
  C   C2300     1.0  0.89863  0.42741  0.79564  1.0000
  C   C2301     1.0  0.89439  0.41008  0.83126  1.0000
  C   C2302     1.0  0.88865  0.42084  0.86911  1.0000
  C   C2303     1.0  0.89264  0.42979  0.87436  1.0000
  C   C2304     1.0  0.88184  0.41344  0.90431  1.0000
  C   C2305     1.0  0.88989  0.43127  0.91222  1.0000
  C   C2306     1.0  0.87919  0.41495  0.94217  1.0000
  C   C2307     1.0  0.88316  0.42389  0.94604  1.0000
  H   H2734     1.0  0.87927  0.42508  0.81540  1.0000
  H   H2735     1.0  0.88332  0.41718  0.78695  1.0000
  H   H2736     1.0  0.87599  0.41197  0.83933  1.0000
  H   H2737     1.0  0.90564  0.42860  0.80233  1.0000
  H   H2738     1.0  0.89632  0.43446  0.79049  1.0000
  H   H2739     1.0  0.90025  0.42594  0.76607  1.0000
  H   H2740     1.0  0.88865  0.40337  0.85201  1.0000
  H   H2741     1.0  0.89663  0.40891  0.80114  1.0000
  H   H2742     1.0  0.90079  0.41033  0.84235  1.0000
  H   H2743     1.0  0.89798  0.43577  0.84964  1.0000
  H   H2744     1.0  0.87844  0.40646  0.90265  1.0000
  H   H2745     1.0  0.89296  0.43827  0.91496  1.0000
  H   H2746     1.0  0.87394  0.40921  0.96846  1.0000
  H   H2747     1.0  0.88095  0.42514  0.97514  1.0000
  C   C2308     1.0  0.91697  0.44996  0.32210  1.0000
  H   H2748     1.0  0.92482  0.45398  0.30991  1.0000
  H   H2749     1.0  0.91545  0.44654  0.29940  1.0000
  H   H2750     1.0  0.92092  0.43178  0.33981  1.0000
  C   C2309     1.0  0.80967  0.36984  0.82308  1.0000
  C   C2310     1.0  0.75240  0.34310  0.93940  1.0000
  Fe  Fe315     1.0  0.84730  0.34975  0.37456  1.0000
  H   H2751     1.0  0.98521  0.48214  0.28717  1.0000
  C   C2311     1.0  0.79117  0.34831  0.36652  1.0000
  Fe  Fe316     1.0  0.82565  0.34223  0.37985  1.0000
  H   H2752     1.0  0.98623  0.46517  0.82882  1.0000
  H   H2753     1.0  0.78546  0.38709  0.06059  1.0000
  H   H2754     1.0  0.97264  0.47694  0.25214  1.0000
  C   C2312     1.0  0.81096  0.36117  0.81502  1.0000
  H   H2755     1.0  0.82043  0.33942  0.60617  1.0000
  H   H2756     1.0  0.89505  0.36843  0.83277  1.0000
  S   S638      1.0  0.83041  0.35095  0.73496  1.0000
  C   C2313     1.0  0.84427  0.37084  0.90087  1.0000
  C   C2314     1.0  0.84775  0.38335  0.38836  1.0000
  N   N150      1.0  0.90951  0.42451  0.99936  1.0000
  C   C2315     1.0  0.91861  0.42227  0.97763  1.0000
  C   C2316     1.0  0.90132  0.41562  0.01332  1.0000
  C   C2317     1.0  0.90734  0.43234  0.96932  1.0000
  C   C2318     1.0  0.91077  0.42727  0.03482  1.0000
  C   C2319     1.0  0.91278  0.42051  0.06636  1.0000
  C   C2320     1.0  0.91405  0.42295  0.10006  1.0000
  H   H2757     1.0  0.92045  0.41598  0.99704  1.0000
  H   H2758     1.0  0.91791  0.42022  0.95065  1.0000
  H   H2759     1.0  0.92496  0.42878  0.96653  1.0000
  H   H2760     1.0  0.90273  0.40910  0.03316  1.0000
  H   H2761     1.0  0.90008  0.41344  0.98723  1.0000
  H   H2762     1.0  0.89438  0.41689  0.03080  1.0000
  H   H2763     1.0  0.91339  0.43915  0.95602  1.0000
  H   H2764     1.0  0.90645  0.43000  0.94311  1.0000
  H   H2765     1.0  0.90043  0.43427  0.98310  1.0000
  H   H2766     1.0  0.91347  0.41330  0.06496  1.0000
  H   H2767     1.0  0.91561  0.41766  0.12370  1.0000
  N   N151      1.0  0.81300  0.43299  0.50444  1.0000
  C   C2321     1.0  0.81692  0.43989  0.46207  1.0000
  C   C2322     1.0  0.80369  0.43497  0.52562  1.0000
  C   C2323     1.0  0.82016  0.43524  0.52531  1.0000
  C   C2324     1.0  0.81113  0.42268  0.50414  1.0000
  C   C2325     1.0  0.80471  0.41948  0.48416  1.0000
  C   C2326     1.0  0.81539  0.41552  0.52400  1.0000
  C   C2327     1.0  0.80274  0.40978  0.48370  1.0000
  C   C2328     1.0  0.81340  0.40585  0.52319  1.0000
  C   C2329     1.0  0.80712  0.40299  0.50299  1.0000
  H   H2768     1.0  0.82376  0.43842  0.44490  1.0000
  H   H2769     1.0  0.81178  0.43926  0.44452  1.0000
  H   H2770     1.0  0.81869  0.44772  0.46097  1.0000
  H   H2771     1.0  0.80034  0.42969  0.55716  1.0000
  H   H2772     1.0  0.79822  0.43430  0.50957  1.0000
  H   H2773     1.0  0.80483  0.44256  0.52770  1.0000
  H   H2774     1.0  0.82737  0.43399  0.51049  1.0000
  H   H2775     1.0  0.82161  0.44308  0.52431  1.0000
  H   H2776     1.0  0.81756  0.43067  0.55802  1.0000
  H   H2777     1.0  0.80128  0.42449  0.46793  1.0000
  H   H2778     1.0  0.82044  0.41723  0.53975  1.0000
  H   H2779     1.0  0.79804  0.40761  0.46712  1.0000
  H   H2780     1.0  0.81689  0.40058  0.53777  1.0000
  H   H2781     1.0  0.80576  0.39555  0.50166  1.0000
  H   H2782     1.0  0.94673  0.40630  0.92810  1.0000
  H   H2783     1.0  0.94693  0.43219  0.94621  1.0000
  C   C2330     1.0  0.93920  0.42012  0.06290  1.0000
  H   H2784     1.0  0.91023  0.45221  0.39594  1.0000
  H   H2785     1.0  0.95939  0.40762  0.00334  1.0000
  C   C2331     1.0  0.95463  0.41901  0.83192  1.0000
  H   H2786     1.0  0.93978  0.44095  0.99092  1.0000
  N   N152      1.0  0.89025  0.41678  0.30058  1.0000
  C   C2332     1.0  0.89869  0.41651  0.31610  1.0000
  C   C2333     1.0  0.88167  0.40927  0.33219  1.0000
  C   C2334     1.0  0.89239  0.41385  0.26335  1.0000
  C   C2335     1.0  0.88866  0.42685  0.29037  1.0000
  C   C2336     1.0  0.89660  0.43509  0.26557  1.0000
  C   C2337     1.0  0.87926  0.42876  0.30292  1.0000
  C   C2338     1.0  0.89528  0.44464  0.25503  1.0000
  C   C2339     1.0  0.87802  0.43835  0.29167  1.0000
  C   C2340     1.0  0.88600  0.44627  0.26812  1.0000
  H   H2787     1.0  0.89783  0.41965  0.34145  1.0000
  H   H2788     1.0  0.89943  0.40885  0.32773  1.0000
  H   H2789     1.0  0.90580  0.42064  0.29215  1.0000
  H   H2790     1.0  0.87961  0.41124  0.36060  1.0000
  H   H2791     1.0  0.88320  0.40185  0.34063  1.0000
  H   H2792     1.0  0.87519  0.40829  0.32173  1.0000
  H   H2793     1.0  0.89917  0.41881  0.23919  1.0000
  H   H2794     1.0  0.89346  0.40623  0.26982  1.0000
  H   H2795     1.0  0.88629  0.41409  0.25039  1.0000
  H   H2796     1.0  0.90389  0.43421  0.25369  1.0000
  H   H2797     1.0  0.87274  0.42302  0.32169  1.0000
  H   H2798     1.0  0.90148  0.45082  0.23629  1.0000
  H   H2799     1.0  0.87083  0.43974  0.30166  1.0000
  H   H2800     1.0  0.88492  0.45366  0.26009  1.0000
  H   H2801     1.0  0.98072  0.46145  0.33000  1.0000
  C   C2341     1.0  0.86972  0.37008  0.34215  1.0000
  H   H2802     1.0  0.87485  0.38470  0.34339  1.0000
  S   S639      1.0  0.86334  0.35126  0.34036  1.0000
  C   C2342     1.0  0.96358  0.46707  0.35537  1.0000
  C   C2343     1.0  0.95832  0.47342  0.37085  1.0000
  C   C2344     1.0  0.96072  0.45697  0.37947  1.0000
  C   C2345     1.0  0.95086  0.46995  0.40849  1.0000
  C   C2346     1.0  0.95328  0.45356  0.41720  1.0000
  C   C2347     1.0  0.94837  0.46004  0.43173  1.0000
  H   H2803     1.0  0.86516  0.39117  0.48079  1.0000
  C   C2348     1.0  0.86458  0.38428  0.47447  1.0000
  H   H2804     1.0  0.97269  0.45721  0.30418  1.0000
  C   C2349     1.0  0.78673  0.37084  0.42246  1.0000
  H   H2805     1.0  0.83113  0.46128  0.72120  1.0000
  N   N153      1.0  0.97165  0.47491  0.81394  1.0000
  H   H2806     1.0  0.79647  0.38800  0.10237  1.0000
  C   C2350     1.0  0.88768  0.36859  0.83282  1.0000
  C   C2351     1.0  0.82534  0.45449  0.72823  1.0000
  H   H2807     1.0  0.95979  0.48109  0.35333  1.0000
  H   H2808     1.0  0.83160  0.37730  0.52141  1.0000
  H   H2809     1.0  0.94689  0.47497  0.41918  1.0000
  S   S640      1.0  0.84333  0.35635  0.42468  1.0000
  H   H2810     1.0  0.98219  0.46355  0.59879  1.0000
  H   H2811     1.0  0.98403  0.40994  0.66978  1.0000
  Fe  Fe317     1.0  0.78426  0.38879  0.24562  1.0000
  C   C2352     1.0  0.95815  0.44512  0.17216  1.0000
  H   H2812     1.0  0.82882  0.43186  0.69365  1.0000
  H   H2813     1.0  0.82267  0.45527  0.70162  1.0000
  H   H2814     1.0  0.94405  0.40777  0.05278  1.0000
  C   C2353     1.0  0.76359  0.34887  0.32774  1.0000
  H   H2815     1.0  0.91293  0.45581  0.32342  1.0000
  C   C2354     1.0  0.94341  0.41501  0.03760  1.0000
  H   H2816     1.0  0.87770  0.42312  0.66787  1.0000
  C   C2355     1.0  0.75265  0.36786  0.19699  1.0000
  C   C2356     1.0  0.91291  0.49450  0.03973  1.0000
  H   H2817     1.0  0.76312  0.39305  0.14978  1.0000
  C   C2357     1.0  0.96229  0.41176  0.30919  1.0000
  C   C2358     1.0  0.97725  0.46383  0.30639  1.0000
  C   C2359     1.0  0.88954  0.36968  0.32016  1.0000
  H   H2818     1.0  0.89809  0.36826  0.24136  1.0000
  H   H2819     1.0  0.81119  0.43845  0.79729  1.0000
  C   C2360     1.0  0.98764  0.47097  0.45060  1.0000
  H   H2820     1.0  0.94146  0.41651  0.93078  1.0000
  H   H2821     1.0  0.87209  0.35853  0.23913  1.0000
  C   C2361     1.0  0.91170  0.43910  0.07242  1.0000
  N   N154      1.0  0.88045  0.39058  0.71058  1.0000
  C   C2362     1.0  0.88149  0.39132  0.74974  1.0000
  C   C2363     1.0  0.87501  0.38032  0.71879  1.0000
  C   C2364     1.0  0.89035  0.39218  0.68155  1.0000
  C   C2365     1.0  0.87566  0.39812  0.69303  1.0000
  C   C2366     1.0  0.87918  0.40820  0.68842  1.0000
  C   C2367     1.0  0.86789  0.39588  0.67749  1.0000
  C   C2368     1.0  0.87507  0.41550  0.67020  1.0000
  C   C2369     1.0  0.86398  0.40328  0.65861  1.0000
  C   C2370     1.0  0.86751  0.41306  0.65517  1.0000
  H   H2822     1.0  0.87429  0.39072  0.77175  1.0000
  H   H2823     1.0  0.88455  0.38534  0.76450  1.0000
  H   H2824     1.0  0.88645  0.39831  0.74633  1.0000
  H   H2825     1.0  0.86743  0.37866  0.74024  1.0000
  H   H2826     1.0  0.87862  0.37481  0.73301  1.0000
  H   H2827     1.0  0.87465  0.37879  0.69046  1.0000
  H   H2828     1.0  0.89505  0.39955  0.67582  1.0000
  H   H2829     1.0  0.89419  0.38658  0.69323  1.0000
  C   C2371     1.0  0.79937  0.36592  0.44864  1.0000
  C   C2372     1.0  0.98360  0.48864  0.81898  1.0000
  C   C2373     1.0  0.91017  0.43665  0.03909  1.0000
  C   C2374     1.0  0.96615  0.40908  0.84090  1.0000
  C   C2375     1.0  0.95428  0.40542  0.98739  1.0000
  C   C2376     1.0  0.94498  0.42863  0.97856  1.0000
  H   H2830     1.0  0.94799  0.39942  0.00967  1.0000
  H   H2831     1.0  0.90861  0.44227  0.01699  1.0000
  N   N155      1.0  0.91462  0.44246  0.36265  1.0000
  H   H2832     1.0  0.92966  0.44129  0.34399  1.0000
  C   C2377     1.0  0.91358  0.43225  0.10293  1.0000
  N   N156      1.0  0.95107  0.41401  0.96668  1.0000
  C   C2378     1.0  0.95983  0.42075  0.93308  1.0000
  C   C2379     1.0  0.77102  0.35313  0.18108  1.0000
  C   C2380     1.0  0.90452  0.43619  0.37747  1.0000
  C   C2381     1.0  0.89216  0.42112  0.42385  1.0000
  H   H2833     1.0  0.89022  0.41407  0.44763  1.0000
  C   C2382     1.0  0.94377  0.41039  0.94891  1.0000
  H   H2834     1.0  0.77413  0.39421  0.19054  1.0000
  N   N157      1.0  0.84660  0.37763  0.51869  1.0000
  C   C2383     1.0  0.94933  0.45851  0.12922  1.0000
  C   C2384     1.0  0.89692  0.43942  0.36390  1.0000
  C   C2385     1.0  0.88496  0.42444  0.40922  1.0000
  H   H2835     1.0  0.89815  0.44654  0.34176  1.0000
  H   H2836     1.0  0.91476  0.43422  0.12865  1.0000
  C   C2386     1.0  0.88732  0.43361  0.37968  1.0000
  H   H2837     1.0  0.87749  0.41997  0.42134  1.0000
  H   H2838     1.0  0.91452  0.44246  0.42269  1.0000
  H   H2839     1.0  0.97747  0.44707  0.15142  1.0000
  H   H2840     1.0  0.95811  0.44144  0.24869  1.0000
  C   C2387     1.0  0.80500  0.42592  0.78429  1.0000
  H   H2841     1.0  0.87951  0.37375  0.41758  1.0000
  C   C2388     1.0  0.75788  0.34910  0.95463  1.0000
  S   S641      1.0  0.82924  0.37635  0.38761  1.0000
  C   C2389     1.0  0.87294  0.37458  0.43789  1.0000
  C   C2390     1.0  0.98202  0.48692  0.54997  1.0000
  H   H2842     1.0  0.86426  0.36053  0.44420  1.0000
  H   H2843     1.0  0.92429  0.36951  0.15044  1.0000
  H   H2844     1.0  0.99484  0.47585  0.44550  1.0000
  C   C2391     1.0  0.86436  0.36714  0.45296  1.0000
  H   H2845     1.0  0.80509  0.34605  0.82667  1.0000
  H   H2846     1.0  0.79914  0.35182  0.35155  1.0000
  S   S642      1.0  0.98826  0.44664  0.72021  1.0000
  C   C2392     1.0  0.85587  0.36820  0.47903  1.0000
  H   H2847     1.0  0.84941  0.36221  0.49010  1.0000
  H   H2848     1.0  0.82909  0.40141  0.82912  1.0000
  N   N158      1.0  0.96327  0.43834  0.19234  1.0000
  S   S643      1.0  0.99855  0.47493  0.33579  1.0000
  C   C2393     1.0  0.98966  0.44153  0.54633  1.0000
  N   N159      1.0  0.97567  0.41631  0.71113  1.0000
  H   H2849     1.0  0.98746  0.47022  0.42082  1.0000
  C   C2394     1.0  0.98029  0.41604  0.66952  1.0000
  C   C2395     1.0  0.84766  0.38702  0.52821  1.0000
  S   S644      1.0  0.76972  0.39561  0.96011  1.0000
  Fe  Fe318     1.0  0.78150  0.38915  0.92976  1.0000
  H   H2850     1.0  0.97911  0.44568  0.58936  1.0000
  H   H2851     1.0  0.83494  0.43786  0.78122  1.0000
  C   C2396     1.0  0.88225  0.36144  0.32504  1.0000
  C   C2397     1.0  0.96298  0.42543  0.33698  1.0000
  C   C2398     1.0  0.81100  0.38098  0.24223  1.0000
  C   C2399     1.0  0.79451  0.35225  0.86262  1.0000
  C   C2400     1.0  0.91157  0.36884  0.19884  1.0000
  C   C2401     1.0  0.97012  0.46451  0.81438  1.0000
  C   C2402     1.0  0.83335  0.34070  0.55711  1.0000
  S   S645      1.0  0.78173  0.37904  0.98875  1.0000
  N   N160      1.0  0.82912  0.44553  0.73694  1.0000
  C   C2403     1.0  0.77656  0.39243  0.16275  1.0000
  C   C2404     1.0  0.90139  0.36836  0.14355  1.0000
  S   S646      1.0  0.79329  0.39055  0.18152  1.0000
  H   H2852     1.0  0.83732  0.37023  0.58127  1.0000
  Fe  Fe319     1.0  0.85355  0.35325  0.77283  1.0000
  C   C2405     1.0  0.82650  0.37287  0.88900  1.0000
  C   C2406     1.0  0.77371  0.36226  0.15091  1.0000
  H   H2853     1.0  0.84391  0.45350  0.69819  1.0000
  C   C2407     1.0  0.84297  0.38558  0.75500  1.0000
  C   C2408     1.0  0.89619  0.36845  0.18299  1.0000
  H   H2854     1.0  0.94252  0.45734  0.46072  1.0000
  Fe  Fe320     1.0  0.78441  0.39202  0.32705  1.0000
  C   C2409     1.0  0.88293  0.36267  0.81454  1.0000
  H   H2855     1.0  0.81960  0.37336  0.88395  1.0000
  H   H2856     1.0  0.93983  0.41099  0.84330  1.0000
  H   H2857     1.0  0.77477  0.36997  0.08947  1.0000
  H   H2858     1.0  0.96280  0.47932  0.28693  1.0000
  C   C2410     1.0  0.88692  0.37813  0.32666  1.0000
  H   H2859     1.0  0.88431  0.35482  0.32118  1.0000
  C   C2411     1.0  0.78591  0.39083  0.15000  1.0000
  H   H2860     1.0  0.84647  0.37348  0.79336  1.0000
  H   H2861     1.0  0.87367  0.37004  0.17210  1.0000
  C   C2412     1.0  0.88286  0.37466  0.85122  1.0000
  H   H2862     1.0  0.89801  0.36840  0.12023  1.0000
  H   H2863     1.0  0.99747  0.49626  0.59236  1.0000
  C   C2413     1.0  0.88149  0.36975  0.16191  1.0000
  Fe  Fe321     1.0  0.76915  0.38461  0.01832  1.0000
  H   H2864     1.0  0.88163  0.36353  0.14928  1.0000
  H   H2865     1.0  0.96480  0.47803  0.76729  1.0000
  C   C2414     1.0  0.81485  0.42229  0.72709  1.0000
  H   H2866     1.0  0.96977  0.46037  0.49835  1.0000
  H   H2867     1.0  0.84938  0.37671  0.38341  1.0000
  H   H2868     1.0  0.96594  0.45845  0.17870  1.0000
  C   C2415     1.0  0.77035  0.39186  0.13940  1.0000
  S   S647      1.0  0.75771  0.37284  0.01547  1.0000
  H   H2869     1.0  0.95026  0.42668  0.22757  1.0000
  S   S648      1.0  0.98998  0.43051  0.41659  1.0000
  C   C2416     1.0  0.96064  0.45536  0.16668  1.0000
  Fe  Fe322     1.0  0.83146  0.34253  0.45773  1.0000
  H   H2870     1.0  0.88892  0.38366  0.19195  1.0000
  H   H2871     1.0  0.95740  0.42494  0.18154  1.0000
  S   S649      1.0  0.77035  0.35229  0.99755  1.0000
  H   H2872     1.0  0.94127  0.44591  0.12127  1.0000
  C   C2417     1.0  0.88412  0.37643  0.21339  1.0000
  C   C2418     1.0  0.97967  0.48415  0.43793  1.0000
  H   H2873     1.0  0.84963  0.39349  0.50018  1.0000
  C   C2419     1.0  0.91647  0.36894  0.15977  1.0000
  C   C2420     1.0  0.76246  0.34490  0.98197  1.0000
  H   H2874     1.0  0.83250  0.39084  0.25925  1.0000
  N   N161      1.0  0.88566  0.36838  0.19584  1.0000
  H   H2875     1.0  0.97928  0.48289  0.40913  1.0000
  C   C2421     1.0  0.97151  0.42509  0.70745  1.0000
  Fe  Fe323     1.0  0.75891  0.38342  0.95547  1.0000
  H   H2876     1.0  0.81296  0.38596  0.35776  1.0000
  H   H2877     1.0  0.97730  0.43204  0.69091  1.0000
  C   C2422     1.0  0.82856  0.39345  0.84191  1.0000
  H   H2878     1.0  0.75292  0.36014  0.19874  1.0000
  C   C2423     1.0  0.95620  0.46191  0.14591  1.0000
  H   H2879     1.0  0.80936  0.38803  0.23173  1.0000
  C   C2424     1.0  0.96729  0.41834  0.32428  1.0000
  C   C2425     1.0  0.77342  0.38969  0.10306  1.0000
  H   H2880     1.0  0.77361  0.34059  0.06671  1.0000
  H   H2881     1.0  0.75690  0.34322  0.07827  1.0000
  H   H2882     1.0  0.82125  0.38946  0.84348  1.0000
  S   S650      1.0  0.76485  0.38779  0.07790  1.0000
  H   H2883     1.0  0.98858  0.44518  0.63735  1.0000
  H   H2884     1.0  0.96574  0.40634  0.29950  1.0000
  C   C2426     1.0  0.99891  0.48658  0.82946  1.0000
  H   H2885     1.0  0.94874  0.43431  0.15686  1.0000
  H   H2886     1.0  0.95796  0.46964  0.14330  1.0000
  C   C2427     1.0  0.83287  0.38123  0.88974  1.0000
  S   S651      1.0  0.96333  0.49922  0.28458  1.0000
  H   H2887     1.0  0.82964  0.39551  0.39450  1.0000
  N   N162      1.0  0.83029  0.39086  0.88183  1.0000
  H   H2888     1.0  0.83414  0.39171  0.81898  1.0000
  S   S652      1.0  0.76867  0.38008  0.26969  1.0000
  C   C2428     1.0  0.86849  0.36873  0.83262  1.0000
  C   C2429     1.0  0.78499  0.36209  0.41337  1.0000
  H   H2889     1.0  0.95127  0.44581  0.43494  1.0000
  H   H2890     1.0  0.81478  0.38485  0.91502  1.0000
  C   C2430     1.0  0.84374  0.34566  0.60840  1.0000
  C   C2431     1.0  0.83800  0.39906  0.88054  1.0000
  H   H2891     1.0  0.98247  0.49409  0.55427  1.0000
  N   N163      1.0  0.97947  0.47497  0.46904  1.0000
  Fe  Fe324     1.0  0.76590  0.39155  0.29951  1.0000
  C   C2432     1.0  0.83666  0.39400  0.39436  1.0000
  Fe  Fe325     1.0  0.77226  0.37271  0.32476  1.0000
  S   S653      1.0  0.76846  0.38352  0.35752  1.0000
  C   C2433     1.0  0.85569  0.37680  0.49058  1.0000
  H   H2892     1.0  0.81922  0.39742  0.90969  1.0000
  C   C2434     1.0  0.82790  0.38746  0.29181  1.0000
  C   C2435     1.0  0.83807  0.44702  0.70236  1.0000
  H   H2893     1.0  0.84494  0.40020  0.85577  1.0000
  C   C2436     1.0  0.81508  0.37859  0.27423  1.0000
  H   H2894     1.0  0.82980  0.39252  0.30862  1.0000
  H   H2895     1.0  0.83584  0.40621  0.87445  1.0000
  C   C2437     1.0  0.82122  0.39021  0.91425  1.0000
  S   S654      1.0  0.98048  0.44953  0.40727  1.0000
  H   H2896     1.0  0.82213  0.38794  0.94484  1.0000
  H   H2897     1.0  0.97339  0.48731  0.44873  1.0000
  H   H2898     1.0  0.83948  0.39774  0.91002  1.0000
  H   H2899     1.0  0.83806  0.45097  0.76942  1.0000
  C   C2438     1.0  0.98095  0.48575  0.51386  1.0000
  S   S655      1.0  0.78815  0.38042  0.29857  1.0000
  H   H2900     1.0  0.84136  0.44058  0.70764  1.0000
  C   C2439     1.0  0.82135  0.43675  0.74407  1.0000
  H   H2901     1.0  0.98893  0.42489  0.71294  1.0000
  C   C2440     1.0  0.78919  0.38910  0.11265  1.0000
  H   H2902     1.0  0.96967  0.45941  0.84436  1.0000
  C   C2441     1.0  0.80621  0.41998  0.75954  1.0000
  C   C2442     1.0  0.83858  0.38518  0.38960  1.0000
  H   H2903     1.0  0.86108  0.36874  0.83298  1.0000
  C   C2443     1.0  0.84184  0.37993  0.89617  1.0000
  H   H2904     1.0  0.94342  0.39699  0.77898  1.0000
  H   H2905     1.0  0.83659  0.44826  0.67289  1.0000
  H   H2906     1.0  0.86211  0.37030  0.35047  1.0000
  S   S656      1.0  0.83466  0.37805  0.74170  1.0000
  C   C2444     1.0  0.78295  0.38856  0.08907  1.0000
  C   C2445     1.0  0.79358  0.36114  0.87121  1.0000
  H   H2907     1.0  0.75883  0.35699  0.94407  1.0000
  H   H2908     1.0  0.81919  0.45437  0.75454  1.0000
  C   C2446     1.0  0.82233  0.43055  0.71922  1.0000
  H   H2909     1.0  0.91560  0.36921  0.21994  1.0000
  C   C2447     1.0  0.88005  0.35882  0.22733  1.0000
  H   H2910     1.0  0.85331  0.38784  0.54337  1.0000
  N   N164      1.0  0.81733  0.38547  0.29626  1.0000
  C   C2448     1.0  0.87230  0.36160  0.33598  1.0000
  H   H2911     1.0  0.91221  0.49404  0.11459  1.0000
  H   H2912     1.0  0.95617  0.47246  0.84349  1.0000
  H   H2913     1.0  0.81672  0.40006  0.29922  1.0000
  H   H2914     1.0  0.84046  0.38312  0.47178  1.0000
  C   C2449     1.0  0.83213  0.44456  0.77371  1.0000
  H   H2915     1.0  0.77663  0.36887  0.15690  1.0000
  H   H2916     1.0  0.84724  0.38588  0.89652  1.0000
  H   H2917     1.0  0.81933  0.39912  0.24902  1.0000
  H   H2918     1.0  0.82606  0.44396  0.80121  1.0000
  H   H2919     1.0  0.84972  0.36893  0.57037  1.0000
  S   S657      1.0  0.77069  0.37789  0.91958  1.0000
  H   H2920     1.0  0.81581  0.41758  0.70817  1.0000
  H   H2921     1.0  0.95296  0.42615  0.82490  1.0000
  H   H2922     1.0  0.80527  0.37607  0.19966  1.0000
  C   C2450     1.0  0.81504  0.39513  0.28159  1.0000
  H   H2923     1.0  0.97449  0.41790  0.32608  1.0000
  H   H2924     1.0  0.98039  0.47872  0.34164  1.0000
  H   H2925     1.0  0.80710  0.39427  0.28547  1.0000
  C   C2451     1.0  0.87698  0.37827  0.33770  1.0000
  H   H2926     1.0  0.84071  0.38744  0.54922  1.0000
  Fe  Fe326     1.0  0.83822  0.36333  0.75028  1.0000
  H   H2927     1.0  0.87638  0.37703  0.22070  1.0000
  H   H2928     1.0  0.99864  0.48857  0.63806  1.0000
  C   C2452     1.0  0.82905  0.36386  0.89332  1.0000
  H   H2929     1.0  0.81542  0.37656  0.80720  1.0000
  C   C2453     1.0  0.84357  0.36943  0.55767  1.0000
  S   S658      1.0  0.75293  0.39783  0.29153  1.0000
  H   H2930     1.0  0.79838  0.42391  0.81026  1.0000
  C   C2454     1.0  0.87330  0.36267  0.81426  1.0000
  H   H2931     1.0  0.96307  0.46189  0.80961  1.0000
  C   C2455     1.0  0.98249  0.47894  0.58042  1.0000
  H   H2932     1.0  0.78256  0.37624  0.41529  1.0000
  C   C2456     1.0  0.98080  0.46850  0.53899  1.0000
  C   C2457     1.0  0.95428  0.38864  0.77900  1.0000
  C   C2458     1.0  0.80860  0.37412  0.22333  1.0000
  H   H2933     1.0  0.84109  0.36222  0.55387  1.0000
  C   C2459     1.0  0.79396  0.37280  0.43974  1.0000
  H   H2934     1.0  0.87971  0.38897  0.43600  1.0000
  N   N165      1.0  0.97144  0.47098  0.31535  1.0000
  H   H2935     1.0  0.88080  0.35258  0.21523  1.0000
  S   S659      1.0  0.85326  0.36334  0.71402  1.0000
  H   H2936     1.0  0.81333  0.37403  0.35463  1.0000
  H   H2937     1.0  0.80355  0.37929  0.34470  1.0000
  H   H2938     1.0  0.80051  0.41344  0.76624  1.0000
  C   C2460     1.0  0.81682  0.36903  0.28517  1.0000
  C   C2461     1.0  0.81031  0.36478  0.23512  1.0000
  H   H2939     1.0  0.98330  0.46710  0.27681  1.0000
  H   H2940     1.0  0.79541  0.37972  0.44581  1.0000
  Fe  Fe327     1.0  0.77025  0.36829  0.98041  1.0000
  H   H2941     1.0  0.96312  0.50123  0.42078  1.0000
  C   C2462     1.0  0.80102  0.36981  0.85138  1.0000
  S   S660      1.0  0.86780  0.35520  0.78958  1.0000
  C   C2463     1.0  0.98040  0.47648  0.50712  1.0000
  H   H2942     1.0  0.94577  0.46357  0.11377  1.0000
  H   H2943     1.0  0.75688  0.35958  0.29880  1.0000
  H   H2944     1.0  0.75399  0.40804  0.12590  1.0000
  Fe  Fe328     1.0  0.98275  0.43853  0.37345  1.0000
  H   H2945     1.0  0.80836  0.35948  0.22053  1.0000
  H   H2946     1.0  0.97520  0.48644  0.30998  1.0000
  C   C2464     1.0  0.81448  0.36227  0.26576  1.0000
  C   C2465     1.0  0.97833  0.47991  0.31351  1.0000
  H   H2947     1.0  0.83709  0.37001  0.49331  1.0000
  H   H2948     1.0  0.81588  0.35502  0.27483  1.0000
  H   H2949     1.0  0.88567  0.37524  0.24266  1.0000
  C   C2466     1.0  0.83794  0.36286  0.89906  1.0000
  Fe  Fe329     1.0  0.99523  0.45860  0.36525  1.0000
  C   C2467     1.0  0.76903  0.35438  0.10505  1.0000
  H   H2950     1.0  0.97801  0.48126  0.74889  1.0000
  H   H2951     1.0  0.88677  0.35802  0.80057  1.0000
  S   S661      1.0  0.95220  0.49890  0.85109  1.0000
  C   C2468     1.0  0.77266  0.36288  0.11305  1.0000
  C   C2469     1.0  0.98184  0.46974  0.57501  1.0000
  C   C2470     1.0  0.96701  0.47373  0.28287  1.0000
  Fe  Fe330     1.0  0.83268  0.36161  0.39481  1.0000
  H   H2952     1.0  0.80510  0.36751  0.46160  1.0000
  Fe  Fe331     1.0  0.98772  0.43743  0.78207  1.0000
  N   N166      1.0  0.78640  0.34324  0.88328  1.0000
  C   C2471     1.0  0.76731  0.34458  0.17348  1.0000
  S   S662      1.0  0.76851  0.35621  0.35300  1.0000
  H   H2953     1.0  0.78320  0.34559  0.94171  1.0000
  C   C2472     1.0  0.98606  0.44370  0.58253  1.0000
  H   H2954     1.0  0.77949  0.36109  0.39903  1.0000
  H   H2955     1.0  0.92715  0.49727  0.97629  1.0000
  H   H2956     1.0  0.85122  0.37003  0.90504  1.0000
  H   H2957     1.0  0.88260  0.35737  0.25423  1.0000
  H   H2958     1.0  0.96406  0.45152  0.36979  1.0000
  C   C2473     1.0  0.97146  0.48099  0.77402  1.0000
  H   H2959     1.0  0.90547  0.49214  0.06282  1.0000
  H   H2960     1.0  0.97135  0.48870  0.77284  1.0000
  H   H2961     1.0  0.77465  0.35069  0.89210  1.0000
  H   H2962     1.0  0.96330  0.47117  0.87719  1.0000
  C   C2474     1.0  0.96330  0.47548  0.84662  1.0000
  S   S663      1.0  0.83873  0.35389  0.80979  1.0000
  S   S664      1.0  0.83747  0.35615  0.34207  1.0000
  H   H2963     1.0  0.97607  0.46358  0.78982  1.0000
  H   H2964     1.0  0.98329  0.47988  0.60839  1.0000
  S   S665      1.0  0.98260  0.44197  0.51310  1.0000
  H   H2965     1.0  0.96185  0.46723  0.28295  1.0000
  S   S666      1.0  0.99713  0.44846  0.32830  1.0000
  C   C2475     1.0  0.75807  0.35227  0.30309  1.0000
  C   C2476     1.0  0.76488  0.33928  0.33396  1.0000
  H   H2966     1.0  0.91204  0.49815  0.00996  1.0000
  H   H2967     1.0  0.99782  0.49304  0.35249  1.0000
  C   C2477     1.0  0.79749  0.35702  0.44060  1.0000
  H   H2968     1.0  0.94893  0.38174  0.79702  1.0000
  H   H2969     1.0  0.83999  0.35591  0.90165  1.0000
  C   C2478     1.0  0.98757  0.47279  0.82748  1.0000
  C   C2479     1.0  0.98094  0.47870  0.82019  1.0000
  C   C2480     1.0  0.82835  0.34110  0.59576  1.0000
  H   H2970     1.0  0.97887  0.49353  0.81419  1.0000
  Fe  Fe332     1.0  0.83223  0.34135  0.79146  1.0000
  H   H2971     1.0  0.96660  0.38221  0.77520  1.0000
  H   H2972     1.0  0.76868  0.35526  0.07475  1.0000
  H   H2973     1.0  0.95503  0.41270  0.74165  1.0000
  Fe  Fe333     1.0  0.84558  0.35009  0.70309  1.0000
  H   H2974     1.0  0.92183  0.48888  0.09346  1.0000
  H   H2975     1.0  0.80002  0.37657  0.85775  1.0000
  C   C2481     1.0  0.78509  0.33994  0.92740  1.0000
  Fe  Fe334     1.0  0.98843  0.44220  0.44729  1.0000
  C   C2482     1.0  0.96824  0.40692  0.73511  1.0000
  C   C2483     1.0  0.75368  0.34599  0.28561  1.0000
  H   H2976     1.0  0.78716  0.35351  0.35345  1.0000
  C   C2484     1.0  0.99249  0.49251  0.82329  1.0000
  S   S667      1.0  0.85066  0.34861  0.63938  1.0000
  C   C2485     1.0  0.95118  0.39727  0.76870  1.0000
  H   H2977     1.0  0.92463  0.50023  0.10339  1.0000
  C   C2486     1.0  0.76611  0.34496  0.13517  1.0000
  H   H2978     1.0  0.75637  0.36982  0.21814  1.0000
  H   H2979     1.0  0.96900  0.46673  0.45001  1.0000
  H   H2980     1.0  0.96078  0.49543  0.91722  1.0000
  H   H2981     1.0  0.98022  0.41772  0.76197  1.0000
  H   H2982     1.0  0.91525  0.36883  0.10174  1.0000
  H   H2983     1.0  0.98031  0.46122  0.53617  1.0000
  N   N167      1.0  0.91994  0.50114  0.05016  1.0000
  H   H2984     1.0  0.97476  0.41507  0.65386  1.0000
  H   H2985     1.0  0.98596  0.42295  0.65031  1.0000
  C   C2487     1.0  0.95800  0.40631  0.74738  1.0000
  H   H2986     1.0  0.99825  0.49626  0.90370  1.0000
  C   C2488     1.0  0.97113  0.39793  0.74507  1.0000
  H   H2987     1.0  0.99449  0.50069  0.96676  1.0000
  S   S668      1.0  0.99569  0.47416  0.71432  1.0000
  H   H2988     1.0  0.97875  0.39775  0.73589  1.0000
  C   C2489     1.0  0.99640  0.47671  0.83220  1.0000
  C   C2490     1.0  0.97009  0.46779  0.47824  1.0000
  H   H2989     1.0  0.98738  0.46349  0.46977  1.0000
  H   H2990     1.0  0.75052  0.39096  0.03776  1.0000
  C   C2491     1.0  0.99859  0.43884  0.53815  1.0000
  C   C2492     1.0  0.98340  0.41774  0.73017  1.0000
  H   H2991     1.0  0.96629  0.42509  0.68995  1.0000
  H   H2992     1.0  0.98764  0.41204  0.73091  1.0000
  H   H2993     1.0  0.96376  0.47033  0.49369  1.0000
  H   H2994     1.0  0.95530  0.49664  0.37260  1.0000
  H   H2995     1.0  0.85665  0.34688  0.55938  1.0000
  Fe  Fe335     1.0  0.99742  0.45875  0.73164  1.0000
  C   C2493     1.0  0.91967  0.49592  0.09205  1.0000
  H   H2996     1.0  0.91531  0.48761  0.03852  1.0000
  H   H2997     1.0  0.96777  0.42557  0.73804  1.0000
  C   C2494     1.0  0.96302  0.50020  0.36201  1.0000
  C   C2495     1.0  0.96848  0.50243  0.32093  1.0000
  S   S669      1.0  0.84713  0.33974  0.75902  1.0000
  C   C2496     1.0  0.96424  0.38896  0.76707  1.0000
  H   H2998     1.0  0.75245  0.40277  0.06845  1.0000
  H   H2999     1.0  0.98058  0.49225  0.49170  1.0000
  C   C2497     1.0  0.84358  0.34290  0.54413  1.0000
  C   C2498     1.0  0.75438  0.33736  0.10831  1.0000
  H   H3000     1.0  0.78933  0.33691  0.83468  1.0000
  C   C2499     1.0  0.93250  0.50151  0.98472  1.0000
  H   H3001     1.0  0.80207  0.34176  0.41079  1.0000
  H   H3002     1.0  0.84754  0.34251  0.51473  1.0000
  C   C2500     1.0  0.84873  0.34531  0.56968  1.0000
  H   H3003     1.0  0.77801  0.34825  0.84457  1.0000
  H   H3004     1.0  0.77101  0.33853  0.89121  1.0000
  N   N168      1.0  0.78842  0.34574  0.41144  1.0000
  C   C2501     1.0  0.77715  0.34529  0.87750  1.0000
  C   C2502     1.0  0.83350  0.34364  0.62116  1.0000
  C   C2503     1.0  0.79404  0.33862  0.42541  1.0000
  H   H3005     1.0  0.99446  0.50019  0.82122  1.0000
  H   H3006     1.0  0.78950  0.34169  0.35718  1.0000
  S   S670      1.0  0.81535  0.33850  0.34369  1.0000
  C   C2504     1.0  0.77788  0.34057  0.42998  1.0000
  H   H3007     1.0  0.77542  0.33896  0.46359  1.0000
  H   H3008     1.0  0.79191  0.33835  0.93290  1.0000
  H   H3009     1.0  0.94378  0.50248  0.92992  1.0000
  H   H3010     1.0  0.76546  0.33777  0.19815  1.0000
  C   C2505     1.0  0.96750  0.50281  0.38936  1.0000
  H   H3011     1.0  0.97692  0.50315  0.91998  1.0000
  C   C2506     1.0  0.96394  0.50347  0.85388  1.0000
  C   C2507     1.0  0.94209  0.50449  0.95757  1.0000
  C   C2508     1.0  0.98249  0.51207  0.85665  1.0000
  H   H3012     1.0  0.99073  0.51333  0.32480  1.0000
  C   C2509     1.0  0.94951  0.51006  0.96571  1.0000
  H   H3013     1.0  0.95692  0.51231  0.94455  1.0000
  S   S671      1.0  0.99372  0.51792  0.86024  1.0000
  C   C2510     1.0  0.93007  0.50397  0.02128  1.0000
  H   H3014     1.0  0.95315  0.51706  0.00727  1.0000
  S   S672      1.0  0.98269  0.51079  0.41265  1.0000
  Fe  Fe336     1.0  0.99767  0.51769  0.41637  1.0000
  C   C2511     1.0  0.97753  0.50762  0.37637  1.0000
  H   H3015     1.0  0.99554  0.53951  0.50868  1.0000
  H   H3016     1.0  0.96942  0.51259  0.79085  1.0000
  H   H3017     1.0  0.98573  0.51990  0.79304  1.0000
  C   C2512     1.0  0.91639  0.51015  0.05038  1.0000
  H   H3018     1.0  0.91683  0.51449  0.01911  1.0000
  H   H3019     1.0  0.98287  0.50889  0.27646  1.0000
  H   H3020     1.0  0.99094  0.53994  0.57922  1.0000
  C   C2513     1.0  0.94736  0.51275  0.00090  1.0000
  C   C2514     1.0  0.98036  0.51453  0.82013  1.0000
  C   C2515     1.0  0.99810  0.54406  0.55781  1.0000
  H   H3021     1.0  0.99510  0.51687  0.63900  1.0000
  C   C2516     1.0  0.98303  0.50966  0.33548  1.0000
  C   C2517     1.0  0.97109  0.51037  0.81897  1.0000
  H   H3022     1.0  0.92078  0.51504  0.06181  1.0000
  H   H3023     1.0  0.93653  0.51209  0.05507  1.0000
  C   C2518     1.0  0.97537  0.50511  0.89157  1.0000
  H   H3024     1.0  0.90864  0.50836  0.07037  1.0000
  C   C2519     1.0  0.93779  0.50982  0.02822  1.0000
  C   C2520     1.0  0.97852  0.50714  0.30805  1.0000
