data_image0
_chemical_formula_structural       FeS2FeS2FeSFeS3C2HCH3SH2SH2CHCFeS2H4C2HCFeHCH4C2HCH2C8H4C6H4C6H2CNHCSH3SHC2HC3HCFeH3C6H4C2HCSHCSCH6CSC2H4C2H2SH2FeCH2C3NH2C2SHC2H7N2CH2FeH7CHFeH4C2FeH3CSH2C2NC8NHCHSHC3HNH2CH4CH2CHCFeHSH2SFeCFeSHFeS2FeSFeCS2H3SCS2HCHS2C5H7NCSHFeH2C7HCH3C2H2SH3CHS2CH2FeCSC2HFeHCHC2H4SH2CSCNH2NFeH2CHC2HCHCHCHCH2CFeHC3HCHC5HSCHCH2C2HC2HNH2C6H4CH2NH2C2SHFeH5C2HC2H2CH2CHSHCHCSCH3CHCFeS2FeS2FeSFeS3HFeCHCHCSFeH2CH2CHNS2HSH4CSHCH3FeH2FeCHSNHC7H4C6H4C6H5C2H2CSH2FeCHCH5SCNFeCHCSC2HC2H5FeCH4CHCHSCSHC2H2CFeCHC2HC2H4CSH2NC9H3SH2C3H3C3HCH6NH2CSH2SHCH3C2Fe2CSHCS2HFeSCFeS2FeSFeHS2CHFeC2SH2C2SC6H10C4HC6H5C2HCSH2NCH3C2HSCHSH2CSC5SHFe2HFeH2FeHSC2H2SCSHC4HNCH2CSCHCH4C2HCHSCHCH2NH3CHCNCHCH5CHCH3C2FeHCSH3SC2H2C3NCH3C2H5NCH5C3H4CH2C2H4CHC2H5FeS3C2Fe2S2HCH2C2FeHC8H4CHFeSH5CFeSHCH2FeSNHC3H2NFeS2H2C3HCHC7HCH2C6H2C2NH2C2H2SH2CHC2SCSH4C2HFeCH3CNFeSCHCSHFeH2C4H2C3HSH5SH4NCSCH4SH3C3HC4HCNH3CHCHCSHCH2C2H6CH2C2SCH3C2HCH2SC2HFeC2FeS2FeS2FeSFeS3C2HCHC3H2C5HSC2FeH2C2H3CHCSHSH6C4H3SC4FeH4C2H2CHSHC2NH2CH2SC2HCNCHC4H3CH6C2H2C2HC3HC2H5S2HC2SH5CH3FeCHNCHCH6C3HCHCH5C2H2CNCH2FeHCNCHCHCH2CHC2H2CHCNC2H2CH3CH4C3H3C2HC3H2FeSCSH3FeS3H2CFeH2FeCHC6H5S2CSH8SFeC3FeC2HCH2CFeS2CH3SHNHC7H4C7H3NC9H15FeH2CSHSNSC2FeH2CHCHC4HSHC5H5SCHCH2CHC2FeCSHCH2FeSC2H3C4SHSH2CSFeS2FeS2FeSFeS3C2HCHC2H4C2H3C3H3NHFeC7SCHC2SC5H4CHC4H2C2H6SH3CH3C2H2FeHC4HS2H5CHC3FeSH4CNHC5H2C2H4C2H2CH5CHCH2C2HNHC2SFeHCH3C2NH2C2HCH7CSCHCHSHC2HC5HNCHS2HCHCH2CH2C4HC2HNHCH4C2FeS2FeS2FeS2HCHS2FeSHSHCH2FeH3CSC2H3CH3CSC3HCHCHC2HSHSH3FeCH2NHSC2HCHC7H4CNC5H11NH2C4HC2H4C3H2C3H3C3HNHCSHCSH3FeC2HCSCHFeHSC3HC3H3SH6CH2CH2C2HC5H2CH3C4H3CH3CH5C2H3CHCH2CHFeHSCHC2H2FeS2FeS2FeSFeCS2HFeS2FeSCFeSFeHS2CFeHC8H4C3NHCHSH3C2H2C6H6SHC2HCHNHCHC6H10NC6SHNH11CH2C4H3CSCNH2SC3H2FeHC2HSHSC2FeC2HC2H3C6H2C3HC4H6CH2SHC2H6CFeHS2H4C3HCHC2FeS2FeS2FeS2H3FeCFeSHSCH2CFe2CSC3HC4H2SCSHC6HCH2SHS2HCHSHCH2S2H2CNHC6H4SH2C2H2CNC9H16C2NH4SHCH3CFeHC2H3CSFeCNC2FeSC2HC3NHCH3CH9C2H2NC8HC2H2C2H9CH3CHC3HC3HCHCHFeCSH2CH3FeS2FeS2FeSFeS3HFeS2H2SFeSH2SH2SC2HC6H4C2HNCH3C6HC6H6C2NHCHFe2CHCNC9H14NC5H3CHCH8CH2C4SHCHSH4C2HFeH4FeCHNHCH2S3C2HC2H2C2HCHCH2C4H2CH3CH4CH2C2H2C2H2C2H7
_chemical_formula_sum              "Fe128 S256 C960 H1152 N64"
_cell_length_a       44.9441
_cell_length_b       43.1709
_cell_length_c       46.2087
_cell_angle_alpha    90.0936
_cell_angle_beta     89.8439
_cell_angle_gamma    89.9581

_space_group_name_H-M_alt    "P 1"
_space_group_IT_number       1

loop_
  _space_group_symop_operation_xyz
  'x, y, z'

loop_
  _atom_site_type_symbol
  _atom_site_label
  _atom_site_symmetry_multiplicity
  _atom_site_fract_x
  _atom_site_fract_y
  _atom_site_fract_z
  _atom_site_occupancy
  Fe  Fe1       1.0  0.17624  0.36186  0.26686  1.0000
  S   S1        1.0  0.15723  0.34643  0.22430  1.0000
  S   S2        1.0  0.15903  0.34700  0.31095  1.0000
  Fe  Fe2       1.0  0.22581  0.39988  0.23755  1.0000
  S   S3        1.0  0.21039  0.38688  0.19306  1.0000
  S   S4        1.0  0.26882  0.42691  0.24047  1.0000
  Fe  Fe3       1.0  0.16442  0.39579  0.21024  1.0000
  S   S5        1.0  0.13221  0.43061  0.19118  1.0000
  Fe  Fe4       1.0  0.20522  0.33891  0.21153  1.0000
  S   S6        1.0  0.22088  0.29613  0.18723  1.0000
  S   S7        1.0  0.18033  0.41187  0.25393  1.0000
  S   S8        1.0  0.22369  0.35136  0.25489  1.0000
  C   C1        1.0  0.25874  0.32120  0.40992  1.0000
  C   C2        1.0  0.09459  0.45182  0.14949  1.0000
  H   H1        1.0  0.22076  0.47139  0.24850  1.0000
  C   C3        1.0  0.21584  0.27030  0.39654  1.0000
  H   H2        1.0  0.05405  0.16765  0.40110  1.0000
  H   H3        1.0  0.25853  0.30616  0.42866  1.0000
  H   H4        1.0  0.02670  0.12793  0.42609  1.0000
  S   S9        1.0  0.05902  0.42077  0.07397  1.0000
  H   H5        1.0  0.17566  0.33175  0.37308  1.0000
  H   H6        1.0  0.22733  0.02328  0.17370  1.0000
  S   S10       1.0  0.99771  0.02352  0.02450  1.0000
  H   H7        1.0  0.30264  0.33751  0.42061  1.0000
  H   H8        1.0  0.02523  0.36858  0.28083  1.0000
  C   C4        1.0  0.28422  0.33914  0.40551  1.0000
  H   H9        1.0  0.08639  0.14333  0.98784  1.0000
  C   C5        1.0  0.00158  0.15755  0.01374  1.0000
  Fe  Fe5       1.0  0.01222  0.27103  0.36339  1.0000
  S   S11       1.0  0.03829  0.23410  0.38627  1.0000
  S   S12       1.0  0.02832  0.29203  0.32124  1.0000
  H   H10       1.0  0.28783  0.16949  0.29121  1.0000
  H   H11       1.0  0.09803  0.37866  0.21090  1.0000
  H   H12       1.0  0.14602  0.23689  0.41706  1.0000
  H   H13       1.0  0.09225  0.24958  0.41813  1.0000
  C   C6        1.0  0.19421  0.31193  0.42452  1.0000
  C   C7        1.0  0.05992  0.08964  0.97535  1.0000
  H   H14       1.0  0.11212  0.11297  0.99515  1.0000
  C   C8        1.0  0.10785  0.01036  0.97243  1.0000
  Fe  Fe6       1.0  0.31700  0.09701  0.23880  1.0000
  H   H15       1.0  0.31660  0.05611  0.17974  1.0000
  C   C9        1.0  0.07617  0.36687  0.21255  1.0000
  H   H16       1.0  0.26175  0.19392  0.30996  1.0000
  H   H17       1.0  0.04364  0.37527  0.32940  1.0000
  H   H18       1.0  0.07931  0.07700  0.96590  1.0000
  H   H19       1.0  0.28138  0.36177  0.15960  1.0000
  C   C10       1.0  0.29945  0.01411  0.24623  1.0000
  C   C11       1.0  0.07704  0.07484  0.02240  1.0000
  H   H20       1.0  0.22725  0.02929  0.26286  1.0000
  C   C12       1.0  0.12651  0.00575  0.99623  1.0000
  H   H21       1.0  0.19187  0.30086  0.35188  1.0000
  H   H22       1.0  0.26363  0.37698  0.34442  1.0000
  C   C13       1.0  0.32126  0.35207  0.22131  1.0000
  C   C14       1.0  0.23414  0.32272  0.39074  1.0000
  C   C15       1.0  0.25007  0.27282  0.20078  1.0000
  C   C16       1.0  0.25819  0.24557  0.18603  1.0000
  C   C17       1.0  0.28165  0.22684  0.19620  1.0000
  C   C18       1.0  0.29732  0.23553  0.22103  1.0000
  C   C19       1.0  0.28926  0.26279  0.23566  1.0000
  C   C20       1.0  0.26558  0.28115  0.22578  1.0000
  H   H23       1.0  0.24631  0.23894  0.16665  1.0000
  H   H24       1.0  0.28782  0.20596  0.18465  1.0000
  H   H25       1.0  0.30124  0.26959  0.25494  1.0000
  H   H26       1.0  0.25957  0.30185  0.23743  1.0000
  C   C21       1.0  0.12320  0.33023  0.31351  1.0000
  C   C22       1.0  0.10658  0.32337  0.28877  1.0000
  C   C23       1.0  0.07778  0.31096  0.29141  1.0000
  C   C24       1.0  0.06541  0.30515  0.31878  1.0000
  C   C25       1.0  0.08221  0.31137  0.34355  1.0000
  C   C26       1.0  0.11092  0.32406  0.34090  1.0000
  H   H27       1.0  0.11565  0.32806  0.26764  1.0000
  H   H28       1.0  0.06485  0.30624  0.27220  1.0000
  H   H29       1.0  0.07272  0.30724  0.36474  1.0000
  H   H30       1.0  0.12323  0.32981  0.36019  1.0000
  C   C27       1.0  0.07947  0.42341  0.10654  1.0000
  C   C28       1.0  0.09680  0.39819  0.11582  1.0000
  C   C29       1.0  0.11326  0.39991  0.14171  1.0000
  C   C30       1.0  0.11215  0.42681  0.15858  1.0000
  C   C31       1.0  0.05118  0.41637  0.21423  1.0000
  C   C32       1.0  0.07842  0.45020  0.12356  1.0000
  H   H31       1.0  0.09761  0.37734  0.10280  1.0000
  H   H32       1.0  0.12671  0.38047  0.14854  1.0000
  C   C33       1.0  0.01126  0.99760  0.23052  1.0000
  N   N1        1.0  0.06642  0.10143  0.00484  1.0000
  H   H33       1.0  0.24639  0.45786  0.16971  1.0000
  C   C34       1.0  0.05669  0.38398  0.31136  1.0000
  S   S13       1.0  0.99162  0.15661  0.38338  1.0000
  H   H34       1.0  0.31312  0.37343  0.23233  1.0000
  H   H35       1.0  0.26077  0.17745  0.23174  1.0000
  H   H36       1.0  0.27814  0.38231  0.19327  1.0000
  S   S14       1.0  0.20999  0.01345  0.96216  1.0000
  H   H37       1.0  0.18775  0.43980  0.05428  1.0000
  C   C35       1.0  0.09147  0.40415  0.26497  1.0000
  C   C36       1.0  0.02502  0.10621  0.04250  1.0000
  H   H38       1.0  0.03479  0.43138  0.22572  1.0000
  C   C37       1.0  0.26226  0.36125  0.36268  1.0000
  C   C38       1.0  0.09119  0.12406  0.00304  1.0000
  C   C39       1.0  0.05234  0.00896  0.16687  1.0000
  H   H39       1.0  0.09726  0.06390  0.01279  1.0000
  C   C40       1.0  0.24569  0.98348  0.25730  1.0000
  Fe  Fe7       1.0  0.99486  0.20841  0.38843  1.0000
  H   H40       1.0  0.15054  0.24807  0.26888  1.0000
  H   H41       1.0  0.08467  0.18731  0.41749  1.0000
  H   H42       1.0  0.02407  0.17696  0.44710  1.0000
  C   C41       1.0  0.17770  0.44049  0.09982  1.0000
  C   C42       1.0  0.29231  0.98227  0.16949  1.0000
  C   C43       1.0  0.99395  0.01462  0.25017  1.0000
  C   C44       1.0  0.15769  0.00679  0.99270  1.0000
  C   C45       1.0  0.30122  0.03707  0.17663  1.0000
  C   C46       1.0  0.27068  0.04241  0.17708  1.0000
  H   H43       1.0  0.21913  0.12543  0.28212  1.0000
  H   H44       1.0  0.30865  0.33261  0.23126  1.0000
  H   H45       1.0  0.03268  0.08648  0.05475  1.0000
  H   H46       1.0  0.06675  0.01858  0.18426  1.0000
  C   C47       1.0  0.31200  0.00710  0.17295  1.0000
  C   C48       1.0  0.01124  0.00470  0.20044  1.0000
  H   H47       1.0  0.22733  0.26350  0.37615  1.0000
  C   C49       1.0  0.08427  0.39756  0.31650  1.0000
  S   S15       1.0  0.31561  0.12677  0.19903  1.0000
  H   H48       1.0  0.01810  0.36689  0.20275  1.0000
  C   C50       1.0  0.26807  0.46780  0.24212  1.0000
  S   S16       1.0  0.00443  0.05679  0.10543  1.0000
  C   C51       1.0  0.26095  0.98698  0.16926  1.0000
  H   H49       1.0  0.32031  0.02565  0.24204  1.0000
  H   H50       1.0  0.16056  0.42285  0.09810  1.0000
  H   H51       1.0  0.12334  0.41761  0.29744  1.0000
  H   H52       1.0  0.17207  0.44451  0.14499  1.0000
  H   H53       1.0  0.09257  0.39952  0.33842  1.0000
  H   H54       1.0  0.11696  0.00141  0.01735  1.0000
  C   C52       1.0  0.04638  0.38016  0.28305  1.0000
  S   S17       1.0  0.05577  0.99921  0.06206  1.0000
  C   C53       1.0  0.03954  0.11664  0.01691  1.0000
  C   C54       1.0  0.04742  0.12274  0.43834  1.0000
  H   H55       1.0  0.99237  0.17748  0.00263  1.0000
  H   H56       1.0  0.27593  0.20467  0.27505  1.0000
  H   H57       1.0  0.25727  0.12407  0.29221  1.0000
  H   H58       1.0  0.06472  0.46953  0.11698  1.0000
  C   C55       1.0  0.19296  0.45002  0.07512  1.0000
  C   C56       1.0  0.10160  0.40766  0.29336  1.0000
  H   H59       1.0  0.00661  0.38326  0.23649  1.0000
  H   H60       1.0  0.23085  0.26459  0.41489  1.0000
  S   S18       1.0  0.03886  0.47402  0.00672  1.0000
  H   H61       1.0  0.04403  0.41415  0.19123  1.0000
  H   H62       1.0  0.20418  0.98137  0.19055  1.0000
  Fe  Fe8       1.0  0.01072  0.01993  0.07128  1.0000
  C   C57       1.0  0.23665  0.34337  0.36685  1.0000
  H   H63       1.0  0.06915  0.36222  0.18985  1.0000
  H   H64       1.0  0.23866  0.22235  0.24423  1.0000
  C   C58       1.0  0.17058  0.01227  0.96539  1.0000
  C   C59       1.0  0.24708  0.01606  0.25796  1.0000
  C   C60       1.0  0.99966  0.12119  0.05321  1.0000
  N   N2        1.0  0.05388  0.38574  0.22852  1.0000
  H   H65       1.0  0.09585  0.13445  0.02465  1.0000
  H   H66       1.0  0.04217  0.02884  0.15518  1.0000
  C   C61       1.0  0.02472  0.36980  0.22582  1.0000
  C   C62       1.0  0.06364  0.39001  0.25888  1.0000
  S   S19       1.0  0.06844  0.01042  0.97578  1.0000
  H   H67       1.0  0.31773  0.41514  0.20348  1.0000
  C   C63       1.0  0.16885  0.23170  0.26992  1.0000
  C   C64       1.0  0.20619  0.47710  0.12973  1.0000
  H   H68       1.0  0.08296  0.08201  0.04480  1.0000
  H   H69       1.0  0.19703  0.25844  0.24176  1.0000
  H   H70       1.0  0.18928  0.33718  0.42573  1.0000
  H   H71       1.0  0.99435  0.00897  0.27303  1.0000
  H   H72       1.0  0.19540  0.45712  0.18689  1.0000
  H   H73       1.0  0.26247  0.06567  0.18098  1.0000
  H   H74       1.0  0.17194  0.00323  0.01123  1.0000
  N   N3        1.0  0.02962  0.98769  0.17898  1.0000
  N   N4        1.0  0.31714  0.35321  0.18945  1.0000
  C   C65       1.0  0.13579  0.24428  0.43713  1.0000
  H   H75       1.0  0.17312  0.29918  0.42871  1.0000
  H   H76       1.0  0.06003  0.05617  0.02345  1.0000
  Fe  Fe9       1.0  0.04084  0.99787  0.01563  1.0000
  H   H77       1.0  0.03659  0.15189  0.98317  1.0000
  H   H78       1.0  0.06700  0.99698  0.15099  1.0000
  H   H79       1.0  0.18631  0.16329  0.30092  1.0000
  H   H80       1.0  0.23331  0.14717  0.23330  1.0000
  H   H81       1.0  0.16405  0.29266  0.37846  1.0000
  H   H82       1.0  0.20915  0.30611  0.44284  1.0000
  H   H83       1.0  0.18161  0.46905  0.00387  1.0000
  C   C66       1.0  0.02694  0.14275  0.00282  1.0000
  H   H84       1.0  0.10585  0.41222  0.24779  1.0000
  Fe  Fe10      1.0  0.02284  0.25801  0.42678  1.0000
  H   H85       1.0  0.07995  0.34423  0.22348  1.0000
  H   H86       1.0  0.04092  0.07304  0.97575  1.0000
  H   H87       1.0  0.14569  0.20029  0.29798  1.0000
  H   H88       1.0  0.07262  0.42915  0.21375  1.0000
  C   C67       1.0  0.10521  0.25122  0.43771  1.0000
  C   C68       1.0  0.27391  0.03153  0.25223  1.0000
  Fe  Fe11      1.0  0.04139  0.46562  0.05503  1.0000
  H   H89       1.0  0.23194  0.14497  0.31469  1.0000
  H   H90       1.0  0.05990  0.10570  0.42487  1.0000
  H   H91       1.0  0.19607  0.25505  0.39932  1.0000
  C   C69       1.0  0.18384  0.30740  0.37389  1.0000
  S   S20       1.0  0.27458  0.07257  0.25231  1.0000
  H   H92       1.0  0.05423  0.10839  0.95992  1.0000
  H   H93       1.0  0.27045  0.14068  0.24587  1.0000
  C   C70       1.0  0.28547  0.36013  0.18329  1.0000
  C   C71       1.0  0.28597  0.35915  0.38196  1.0000
  N   N5        1.0  0.24301  0.16806  0.27457  1.0000
  C   C72       1.0  0.26814  0.18476  0.28830  1.0000
  C   C73       1.0  0.23735  0.13955  0.29173  1.0000
  C   C74       1.0  0.25217  0.15806  0.24511  1.0000
  C   C75       1.0  0.21702  0.18910  0.27277  1.0000
  C   C76       1.0  0.18987  0.18365  0.28784  1.0000
  C   C77       1.0  0.21877  0.21667  0.25617  1.0000
  C   C78       1.0  0.16623  0.20478  0.28635  1.0000
  C   C79       1.0  0.19505  0.23756  0.25475  1.0000
  N   N6        1.0  0.20739  0.30353  0.39609  1.0000
  H   H94       1.0  0.21911  0.34631  0.35109  1.0000
  C   C80       1.0  0.25078  0.01786  0.17328  1.0000
  H   H95       1.0  0.02547  0.34615  0.23545  1.0000
  S   S21       1.0  0.99885  0.29684  0.40379  1.0000
  H   H96       1.0  0.20989  0.98937  0.13768  1.0000
  C   C81       1.0  0.18437  0.45346  0.12679  1.0000
  C   C82       1.0  0.21498  0.47259  0.07728  1.0000
  C   C83       1.0  0.07378  0.16429  0.41534  1.0000
  H   H97       1.0  0.30572  0.37315  0.37873  1.0000
  N   N7        1.0  0.06518  0.15118  0.44380  1.0000
  H   H98       1.0  0.31938  0.32040  0.15413  1.0000
  H   H99       1.0  0.30921  0.30379  0.18782  1.0000
  C   C84       1.0  0.29802  0.98155  0.24535  1.0000
  H   H100      1.0  0.31554  0.47211  0.23646  1.0000
  H   H101      1.0  0.09340  0.47260  0.16257  1.0000
  H   H102      1.0  0.08955  0.14873  0.40371  1.0000
  H   H103      1.0  0.27042  0.34185  0.19198  1.0000
  C   C85       1.0  0.32366  0.32179  0.17781  1.0000
  H   H104      1.0  0.00095  0.99537  0.14195  1.0000
  H   H105      1.0  0.99278  0.03724  0.16924  1.0000
  C   C86       1.0  0.99327  0.02999  0.19158  1.0000
  H   H106      1.0  0.24812  0.40242  0.89150  1.0000
  C   C87       1.0  0.07569  0.04071  0.74772  1.0000
  Fe  Fe12      1.0  0.25817  0.03926  0.86261  1.0000
  H   H107      1.0  0.10480  0.19412  0.46445  1.0000
  S   S22       1.0  0.25730  0.07351  0.82571  1.0000
  H   H108      1.0  0.13573  0.08760  0.49001  1.0000
  H   H109      1.0  0.08051  0.05330  0.76738  1.0000
  S   S23       1.0  0.21907  0.00949  0.87532  1.0000
  Fe  Fe13      1.0  0.27213  0.47477  0.86354  1.0000
  C   C88       1.0  0.20431  0.42101  0.89945  1.0000
  Fe  Fe14      1.0  0.28783  0.27245  0.49744  1.0000
  S   S24       1.0  0.26932  0.22434  0.49406  1.0000
  H   H110      1.0  0.07776  0.10882  0.71455  1.0000
  Fe  Fe15      1.0  0.24322  0.29029  0.54517  1.0000
  S   S25       1.0  0.22117  0.24367  0.54457  1.0000
  S   S26       1.0  0.22950  0.33037  0.57397  1.0000
  Fe  Fe16      1.0  0.26828  0.22551  0.54282  1.0000
  S   S27       1.0  0.27932  0.18488  0.57219  1.0000
  Fe  Fe17      1.0  0.22430  0.24723  0.49613  1.0000
  C   C89       1.0  0.08448  0.99473  0.71886  1.0000
  S   S28       1.0  0.29020  0.27221  0.54610  1.0000
  S   S29       1.0  0.24292  0.29529  0.49685  1.0000
  H   H111      1.0  0.24731  0.02853  0.76381  1.0000
  H   H112      1.0  0.18429  0.38941  0.76976  1.0000
  H   H113      1.0  0.10479  0.00298  0.76002  1.0000
  S   S30       1.0  0.27363  0.04611  0.90834  1.0000
  C   C90       1.0  0.16275  0.47504  0.90062  1.0000
  S   S31       1.0  0.01109  0.32535  0.74851  1.0000
  S   S32       1.0  0.05256  0.26537  0.46604  1.0000
  H   H114      1.0  0.13620  0.45307  0.94866  1.0000
  C   C91       1.0  0.17231  0.44777  0.81783  1.0000
  H   H115      1.0  0.15433  0.46080  0.82756  1.0000
  S   S33       1.0  0.10120  0.33910  0.74534  1.0000
  S   S34       1.0  0.13103  0.31339  0.67117  1.0000
  C   C92       1.0  0.00712  0.28504  0.74157  1.0000
  C   C93       1.0  0.12175  0.44026  0.89481  1.0000
  C   C94       1.0  0.02771  0.23462  0.72879  1.0000
  C   C95       1.0  0.03134  0.26675  0.73305  1.0000
  C   C96       1.0  0.15194  0.43709  0.93741  1.0000
  H   H116      1.0  0.04671  0.22067  0.72264  1.0000
  H   H117      1.0  0.05299  0.27727  0.73020  1.0000
  H   H118      1.0  0.06097  0.99210  0.67863  1.0000
  H   H119      1.0  0.21288  0.43695  0.91548  1.0000
  H   H120      1.0  0.14014  0.32223  0.57564  1.0000
  H   H121      1.0  0.08972  0.40248  0.64332  1.0000
  H   H122      1.0  0.10619  0.30171  0.61372  1.0000
  N   N8        1.0  0.04081  0.08301  0.73170  1.0000
  C   C97       1.0  0.02027  0.09197  0.70803  1.0000
  S   S35       1.0  0.04954  0.44814  0.67552  1.0000
  H   H123      1.0  0.30474  0.26008  0.67615  1.0000
  Fe  Fe18      1.0  0.23746  0.01195  0.92044  1.0000
  H   H124      1.0  0.16151  0.02179  0.92064  1.0000
  H   H125      1.0  0.00695  0.06247  0.75837  1.0000
  C   C98       1.0  0.29356  0.29349  0.62695  1.0000
  C   C99       1.0  0.20121  0.32579  0.60015  1.0000
  C   C100      1.0  0.19086  0.35178  0.61553  1.0000
  C   C101      1.0  0.08782  0.30064  0.59771  1.0000
  C   C102      1.0  0.15765  0.31928  0.64371  1.0000
  C   C103      1.0  0.16774  0.29341  0.62810  1.0000
  C   C104      1.0  0.18916  0.29668  0.60620  1.0000
  H   H126      1.0  0.19995  0.37443  0.61080  1.0000
  C   C105      1.0  0.26154  0.25072  0.61665  1.0000
  H   H127      1.0  0.15901  0.27068  0.63308  1.0000
  H   H128      1.0  0.19640  0.27659  0.59421  1.0000
  H   H129      1.0  0.31143  0.28368  0.61287  1.0000
  C   C106      1.0  0.10877  0.26210  0.48892  1.0000
  C   C107      1.0  0.13952  0.25583  0.48822  1.0000
  H   H130      1.0  0.27991  0.30865  0.61263  1.0000
  H   H131      1.0  0.24893  0.23021  0.62443  1.0000
  S   S36       1.0  0.12004  0.40113  0.70649  1.0000
  H   H132      1.0  0.09825  0.26835  0.50912  1.0000
  H   H133      1.0  0.15259  0.25739  0.50780  1.0000
  H   H134      1.0  0.23128  0.36558  0.85406  1.0000
  C   C108      1.0  0.29777  0.10318  0.79073  1.0000
  H   H135      1.0  0.28122  0.10102  0.77389  1.0000
  S   S37       1.0  0.06116  0.35989  0.68863  1.0000
  S   S38       1.0  0.12794  0.41438  0.79235  1.0000
  C   C109      1.0  0.18912  0.40768  0.78509  1.0000
  H   H136      1.0  0.17404  0.44075  0.94763  1.0000
  H   H137      1.0  0.16107  0.36869  0.64893  1.0000
  Fe  Fe19      1.0  0.10839  0.39024  0.75287  1.0000
  C   C110      1.0  0.31124  0.18518  0.59460  1.0000
  S   S39       1.0  0.05962  0.40085  0.74767  1.0000
  C   C111      1.0  0.09237  0.14548  0.46109  1.0000
  C   C112      1.0  0.21876  0.41377  0.79335  1.0000
  H   H138      1.0  0.30219  0.47670  0.78896  1.0000
  Fe  Fe20      1.0  0.05355  0.35075  0.73565  1.0000
  H   H139      1.0  0.04014  0.16588  0.48122  1.0000
  C   C113      1.0  0.15191  0.01692  0.94163  1.0000
  H   H140      1.0  0.04662  0.32453  0.56003  1.0000
  C   C114      1.0  0.29162  0.09182  0.81857  1.0000
  C   C115      1.0  0.16572  0.42425  0.79786  1.0000
  H   H141      1.0  0.10666  0.45731  0.90551  1.0000
  H   H142      1.0  0.30466  0.30804  0.64361  1.0000
  H   H143      1.0  0.05482  0.46985  0.73497  1.0000
  H   H144      1.0  0.26941  0.01862  0.79507  1.0000
  S   S40       1.0  0.28848  0.99937  0.85369  1.0000
  H   H145      1.0  0.19581  0.25397  0.70443  1.0000
  H   H146      1.0  0.20640  0.47138  0.84199  1.0000
  C   C116      1.0  0.16890  0.34861  0.63711  1.0000
  S   S41       1.0  0.28668  0.46033  0.90812  1.0000
  C   C117      1.0  0.05070  0.03434  0.70169  1.0000
  N   N9        1.0  0.27240  0.98586  0.75996  1.0000
  H   H147      1.0  0.03549  0.04107  0.68480  1.0000
  H   H148      1.0  0.31480  0.24034  0.64327  1.0000
  N   N10       1.0  0.27523  0.26872  0.64042  1.0000
  Fe  Fe21      1.0  0.07077  0.40916  0.70126  1.0000
  H   H149      1.0  0.18701  0.31006  0.71025  1.0000
  H   H150      1.0  0.00983  0.11498  0.71227  1.0000
  C   C118      1.0  0.22294  0.32309  0.68194  1.0000
  H   H151      1.0  0.03208  0.09417  0.68696  1.0000
  C   C119      1.0  0.29562  0.24811  0.65677  1.0000
  C   C120      1.0  0.17368  0.42076  0.89189  1.0000
  H   H152      1.0  0.05291  0.13113  0.73695  1.0000
  C   C121      1.0  0.22470  0.40110  0.88608  1.0000
  H   H153      1.0  0.09333  0.37492  0.53928  1.0000
  C   C122      1.0  0.22515  0.43640  0.81437  1.0000
  H   H154      1.0  0.21826  0.34765  0.68393  1.0000
  C   C123      1.0  0.02314  0.08198  0.75885  1.0000
  H   H155      1.0  0.04034  0.11162  0.45894  1.0000
  C   C124      1.0  0.06518  0.00593  0.69784  1.0000
  H   H156      1.0  0.17811  0.36327  0.84051  1.0000
  H   H157      1.0  0.03724  0.07895  0.77832  1.0000
  C   C125      1.0  0.24561  0.31278  0.66348  1.0000
  Fe  Fe22      1.0  0.30261  0.00447  0.90005  1.0000
  H   H158      1.0  0.14209  0.39711  0.86290  1.0000
  C   C126      1.0  0.23299  0.25971  0.67523  1.0000
  C   C127      1.0  0.25557  0.00900  0.77731  1.0000
  C   C128      1.0  0.20183  0.45383  0.82604  1.0000
  H   H159      1.0  0.25761  0.33047  0.65181  1.0000
  C   C129      1.0  0.12857  0.11081  0.48434  1.0000
  H   H160      1.0  0.12067  0.44491  0.87110  1.0000
  C   C130      1.0  0.29938  0.99882  0.74598  1.0000
  C   C131      1.0  0.06347  0.10785  0.73425  1.0000
  C   C132      1.0  0.25152  0.28063  0.65980  1.0000
  C   C133      1.0  0.14599  0.13608  0.49236  1.0000
  C   C134      1.0  0.12185  0.31639  0.56036  1.0000
  H   H161      1.0  0.12573  0.33020  0.54041  1.0000
  S   S42       1.0  0.19089  0.23562  0.46084  1.0000
  C   C135      1.0  0.05561  0.05273  0.72684  1.0000
  H   H162      1.0  0.24552  0.99198  0.72194  1.0000
  C   C136      1.0  0.21020  0.27030  0.69338  1.0000
  H   H163      1.0  0.23564  0.23495  0.67292  1.0000
  H   H164      1.0  0.00172  0.07502  0.70575  1.0000
  C   C137      1.0  0.21524  0.38022  0.86506  1.0000
  C   C138      1.0  0.31282  0.09539  0.84040  1.0000
  H   H165      1.0  0.30820  0.08695  0.86199  1.0000
  C   C139      1.0  0.08976  0.01206  0.74375  1.0000
  C   C140      1.0  0.18530  0.37893  0.85750  1.0000
  H   H166      1.0  0.06696  0.29181  0.54634  1.0000
  N   N11       1.0  0.09241  0.32291  0.57359  1.0000
  H   H167      1.0  0.07291  0.32875  0.53090  1.0000
  H   H168      1.0  0.00099  0.42977  0.75390  1.0000
  C   C141      1.0  0.09154  0.35575  0.58297  1.0000
  C   C142      1.0  0.09196  0.37993  0.56216  1.0000
  C   C143      1.0  0.09127  0.36478  0.61260  1.0000
  C   C144      1.0  0.09082  0.41110  0.57047  1.0000
  C   C145      1.0  0.09021  0.39601  0.62063  1.0000
  C   C146      1.0  0.08970  0.41909  0.59967  1.0000
  H   H169      1.0  0.06647  0.30511  0.60928  1.0000
  H   H170      1.0  0.09088  0.42918  0.55421  1.0000
  H   H171      1.0  0.24612  0.26539  0.60386  1.0000
  H   H172      1.0  0.23561  0.99875  0.78775  1.0000
  C   C147      1.0  0.06878  0.31686  0.55184  1.0000
  H   H173      1.0  0.15083  0.18555  0.49104  1.0000
  H   H174      1.0  0.09199  0.34822  0.63007  1.0000
  N   N12       1.0  0.15272  0.44277  0.90577  1.0000
  H   H175      1.0  0.16657  0.13258  0.50412  1.0000
  H   H176      1.0  0.07828  0.10454  0.75320  1.0000
  C   C148      1.0  0.11064  0.17060  0.46975  1.0000
  C   C149      1.0  0.16468  0.39877  0.87066  1.0000
  S   S43       1.0  0.26228  0.44178  0.82623  1.0000
  H   H177      1.0  0.08733  0.27621  0.58999  1.0000
  Fe  Fe23      1.0  0.10926  0.35080  0.69837  1.0000
  H   H178      1.0  0.12434  0.29154  0.55434  1.0000
  H   H179      1.0  0.10651  0.01976  0.92665  1.0000
  H   H180      1.0  0.08859  0.44321  0.60622  1.0000
  H   H181      1.0  0.23668  0.40022  0.78411  1.0000
  H   H182      1.0  0.27867  0.24171  0.60149  1.0000
  C   C150      1.0  0.20527  0.30193  0.69681  1.0000
  C   C151      1.0  0.10217  0.11525  0.46885  1.0000
  H   H183      1.0  0.28457  0.22647  0.66411  1.0000
  C   C152      1.0  0.12074  0.01600  0.94516  1.0000
  C   C153      1.0  0.09145  0.25959  0.46375  1.0000
  H   H184      1.0  0.00347  0.41736  0.70190  1.0000
  H   H185      1.0  0.29677  0.14581  0.61957  1.0000
  C   C154      1.0  0.99979  0.22046  0.73250  1.0000
  H   H186      1.0  0.11221  0.41691  0.89906  1.0000
  H   H187      1.0  0.01021  0.10378  0.76223  1.0000
  C   C155      1.0  0.13704  0.16591  0.48506  1.0000
  H   H188      1.0  0.29454  0.04712  0.76045  1.0000
  S   S44       1.0  0.99670  0.17968  0.72794  1.0000
  H   H189      1.0  0.14503  0.41289  0.94224  1.0000
  C   C156      1.0  0.15302  0.24643  0.46237  1.0000
  H   H190      1.0  0.16330  0.97975  0.78556  1.0000
  C   C157      1.0  0.31398  0.16305  0.61673  1.0000
  S   S45       1.0  0.32105  0.29136  0.46487  1.0000
  C   C158      1.0  0.30754  0.03058  0.74829  1.0000
  H   H191      1.0  0.08999  0.09461  0.46310  1.0000
  H   H192      1.0  0.99326  0.39041  0.76276  1.0000
  H   H193      1.0  0.05543  0.19719  0.46047  1.0000
  C   C159      1.0  0.04546  0.17369  0.45887  1.0000
  H   H194      1.0  0.99858  0.37773  0.71235  1.0000
  C   C160      1.0  0.31844  0.97948  0.72930  1.0000
  Fe  Fe24      1.0  0.17311  0.87426  0.28447  1.0000
  S   S46       1.0  0.15147  0.85333  0.24542  1.0000
  S   S47       1.0  0.15880  0.86319  0.33031  1.0000
  Fe  Fe25      1.0  0.22604  0.89909  0.24917  1.0000
  S   S48       1.0  0.20910  0.87769  0.20798  1.0000
  S   S49       1.0  0.26989  0.92514  0.24733  1.0000
  Fe  Fe26      1.0  0.16482  0.89705  0.22211  1.0000
  S   S50       1.0  0.14092  0.93203  0.19356  1.0000
  Fe  Fe27      1.0  0.19776  0.83606  0.23517  1.0000
  S   S51       1.0  0.20233  0.78412  0.22878  1.0000
  S   S52       1.0  0.18247  0.91975  0.26259  1.0000
  S   S53       1.0  0.21874  0.85563  0.27491  1.0000
  H   H195      1.0  0.19817  0.49469  0.20231  1.0000
  Fe  Fe28      1.0  0.02314  0.53066  0.07069  1.0000
  C   C161      1.0  0.12238  0.73912  0.30686  1.0000
  H   H196      1.0  0.02370  0.96185  0.13922  1.0000
  C   C162      1.0  0.10254  0.79019  0.29173  1.0000
  H   H197      1.0  0.06234  0.96737  0.20763  1.0000
  C   C163      1.0  0.27832  0.71529  0.34256  1.0000
  S   S54       1.0  0.04820  0.91259  0.09196  1.0000
  Fe  Fe29      1.0  0.06283  0.51820  0.01712  1.0000
  H   H198      1.0  0.23901  0.96999  0.11800  1.0000
  H   H199      1.0  0.16624  0.71931  0.29822  1.0000
  C   C164      1.0  0.29467  0.51708  0.23910  1.0000
  H   H200      1.0  0.08240  0.78038  0.28120  1.0000
  H   H201      1.0  0.15939  0.50744  0.07350  1.0000
  C   C165      1.0  0.15422  0.78433  0.30317  1.0000
  H   H202      1.0  0.28764  0.69247  0.34610  1.0000
  N   N13       1.0  0.12798  0.76822  0.29080  1.0000
  S   S55       1.0  0.04694  0.74889  0.39168  1.0000
  S   S56       1.0  0.02506  0.83111  0.36276  1.0000
  H   H203      1.0  0.20100  0.94104  0.18400  1.0000
  S   S57       1.0  0.26645  0.57415  0.24076  1.0000
  H   H204      1.0  0.06056  0.59348  0.06886  1.0000
  H   H205      1.0  0.09679  0.79661  0.31437  1.0000
  H   H206      1.0  0.22836  0.53590  0.14076  1.0000
  H   H207      1.0  0.09758  0.53277  0.14020  1.0000
  C   C166      1.0  0.14465  0.50033  0.99779  1.0000
  S   S58       1.0  0.09794  0.54121  0.98882  1.0000
  H   H208      1.0  0.21519  0.53757  0.17689  1.0000
  C   C167      1.0  0.14009  0.68823  0.32333  1.0000
  H   H209      1.0  0.27179  0.73989  0.44081  1.0000
  H   H210      1.0  0.30930  0.77989  0.20538  1.0000
  H   H211      1.0  0.10391  0.65060  0.07006  1.0000
  Fe  Fe30      1.0  0.00604  0.72006  0.38342  1.0000
  H   H212      1.0  0.15107  0.78906  0.32668  1.0000
  H   H213      1.0  0.30689  0.58204  0.08025  1.0000
  Fe  Fe31      1.0  0.99625  0.49972  0.01700  1.0000
  C   C168      1.0  0.11553  0.73030  0.44525  1.0000
  H   H214      1.0  0.18900  0.53324  0.14773  1.0000
  S   S59       1.0  0.00554  0.68464  0.34736  1.0000
  N   N14       1.0  0.27582  0.72475  0.39636  1.0000
  H   H215      1.0  0.10166  0.73106  0.42620  1.0000
  C   C169      1.0  0.11283  0.68252  0.33673  1.0000
  C   C170      1.0  0.23741  0.76594  0.22489  1.0000
  C   C171      1.0  0.23957  0.73378  0.22898  1.0000
  C   C172      1.0  0.26689  0.71832  0.22519  1.0000
  C   C173      1.0  0.29220  0.73480  0.21661  1.0000
  C   C174      1.0  0.29005  0.76699  0.21257  1.0000
  C   C175      1.0  0.26288  0.78260  0.21712  1.0000
  H   H216      1.0  0.21995  0.72069  0.23483  1.0000
  H   H217      1.0  0.26808  0.69350  0.22797  1.0000
  H   H218      1.0  0.08651  0.96423  0.10743  1.0000
  H   H219      1.0  0.26141  0.80734  0.21368  1.0000
  C   C176      1.0  0.12153  0.85384  0.33838  1.0000
  C   C177      1.0  0.09803  0.86477  0.32145  1.0000
  C   C178      1.0  0.06848  0.85769  0.32913  1.0000
  C   C179      1.0  0.06233  0.83896  0.35324  1.0000
  C   C180      1.0  0.08590  0.82735  0.36966  1.0000
  C   C181      1.0  0.11538  0.83520  0.36254  1.0000
  H   H220      1.0  0.10259  0.87929  0.30290  1.0000
  H   H221      1.0  0.05030  0.86677  0.31638  1.0000
  H   H222      1.0  0.08132  0.81289  0.38820  1.0000
  H   H223      1.0  0.13349  0.82676  0.37574  1.0000
  C   C182      1.0  0.07617  0.91709  0.11843  1.0000
  C   C183      1.0  0.08281  0.89237  0.13711  1.0000
  C   C184      1.0  0.10363  0.89603  0.15962  1.0000
  C   C185      1.0  0.11780  0.92453  0.16358  1.0000
  C   C186      1.0  0.11176  0.94893  0.14442  1.0000
  C   C187      1.0  0.09112  0.94521  0.12188  1.0000
  H   H224      1.0  0.07143  0.87047  0.13446  1.0000
  H   H225      1.0  0.10806  0.87711  0.17432  1.0000
  H   H226      1.0  0.13755  0.78241  0.24696  1.0000
  H   H227      1.0  0.11539  0.74783  0.25010  1.0000
  H   H228      1.0  0.17517  0.77100  0.30033  1.0000
  C   C188      1.0  0.21738  0.95986  0.18772  1.0000
  C   C189      1.0  0.19321  0.48221  0.18180  1.0000
  H   H229      1.0  0.23321  0.70215  0.39854  1.0000
  H   H230      1.0  0.25926  0.68922  0.42508  1.0000
  C   C190      1.0  0.30758  0.71652  0.40076  1.0000
  S   S60       1.0  0.30547  0.65079  0.26395  1.0000
  H   H231      1.0  0.22839  0.95475  0.20859  1.0000
  H   H232      1.0  0.28170  0.76976  0.41614  1.0000
  Fe  Fe32      1.0  0.01562  0.78922  0.39061  1.0000
  C   C191      1.0  0.08528  0.92617  0.96165  1.0000
  H   H233      1.0  0.14794  0.55392  0.04679  1.0000
  C   C192      1.0  0.21137  0.52602  0.15557  1.0000
  H   H234      1.0  0.12580  0.59017  0.02038  1.0000
  H   H235      1.0  0.31783  0.96833  0.24031  1.0000
  H   H236      1.0  0.23681  0.91202  0.15776  1.0000
  H   H237      1.0  0.20729  0.94873  0.13136  1.0000
  H   H238      1.0  0.26936  0.92942  0.14284  1.0000
  S   S61       1.0  0.00497  0.78850  0.43830  1.0000
  C   C193      1.0  0.14646  0.72627  0.44242  1.0000
  N   N15       1.0  0.21342  0.49175  0.15789  1.0000
  Fe  Fe33      1.0  0.03391  0.74576  0.43853  1.0000
  C   C194      1.0  0.24420  0.48331  0.16626  1.0000
  H   H239      1.0  0.25742  0.76010  0.28551  1.0000
  C   C195      1.0  0.26789  0.74849  0.41842  1.0000
  S   S62       1.0  0.01962  0.95069  0.01882  1.0000
  C   C196      1.0  0.19117  0.50202  0.97011  1.0000
  C   C197      1.0  0.13409  0.76099  0.25996  1.0000
  H   H240      1.0  0.15113  0.61005  0.04448  1.0000
  C   C198      1.0  0.27111  0.96607  0.25060  1.0000
  C   C199      1.0  0.17336  0.48876  0.99189  1.0000
  H   H241      1.0  0.12272  0.97102  0.14734  1.0000
  H   H242      1.0  0.25270  0.78137  0.37546  1.0000
  H   H243      1.0  0.24384  0.75469  0.41756  1.0000
  H   H244      1.0  0.15754  0.67091  0.32428  1.0000
  H   H245      1.0  0.24471  0.79596  0.32542  1.0000
  Fe  Fe34      1.0  0.30838  0.60331  0.24393  1.0000
  C   C200      1.0  0.15178  0.53927  0.96086  1.0000
  H   H246      1.0  0.27872  0.70851  0.29627  1.0000
  H   H247      1.0  0.08446  0.57962  0.11402  1.0000
  H   H248      1.0  0.26345  0.67700  0.38829  1.0000
  H   H249      1.0  0.15469  0.74703  0.25703  1.0000
  C   C201      1.0  0.26137  0.75327  0.30777  1.0000
  H   H250      1.0  0.06951  0.61777  0.03869  1.0000
  C   C202      1.0  0.25723  0.69704  0.40217  1.0000
  H   H251      1.0  0.13099  0.48972  0.01435  1.0000
  S   S63       1.0  0.02039  0.54454  0.02425  1.0000
  C   C203      1.0  0.27113  0.73516  0.36614  1.0000
  S   S64       1.0  0.06784  0.50839  0.06438  1.0000
  H   H252      1.0  0.15827  0.80704  0.29250  1.0000
  C   C204      1.0  0.09028  0.70458  0.33541  1.0000
  C   C205      1.0  0.26787  0.53327  0.24223  1.0000
  H   H253      1.0  0.12138  0.63030  0.02678  1.0000
  H   H254      1.0  0.16949  0.48715  0.17661  1.0000
  C   C206      1.0  0.14485  0.71604  0.30853  1.0000
  Fe  Fe35      1.0  0.03203  0.95367  0.06594  1.0000
  C   C207      1.0  0.25358  0.93060  0.16138  1.0000
  H   H255      1.0  0.09046  0.62767  0.09897  1.0000
  C   C208      1.0  0.11933  0.80677  0.44596  1.0000
  C   C209      1.0  0.25894  0.76465  0.35911  1.0000
  H   H256      1.0  0.07586  0.57682  0.03665  1.0000
  C   C210      1.0  0.25421  0.77342  0.33031  1.0000
  C   C211      1.0  0.27340  0.72427  0.31388  1.0000
  H   H257      1.0  0.12109  0.79537  0.42510  1.0000
  H   H258      1.0  0.23907  0.50311  0.10472  1.0000
  H   H259      1.0  0.15624  0.72404  0.42110  1.0000
  H   H260      1.0  0.22050  0.52899  0.24826  1.0000
  C   C212      1.0  0.24126  0.51658  0.24555  1.0000
  S   S65       1.0  0.01513  0.56797  0.10437  1.0000
  H   H261      1.0  0.06898  0.69989  0.34567  1.0000
  H   H262      1.0  0.07626  0.74848  0.32083  1.0000
  N   N16       1.0  0.10762  0.60126  0.06256  1.0000
  C   C213      1.0  0.10809  0.62867  0.08205  1.0000
  C   C214      1.0  0.12749  0.60818  0.03760  1.0000
  C   C215      1.0  0.07707  0.59727  0.05126  1.0000
  C   C216      1.0  0.11625  0.57294  0.07858  1.0000
  C   C217      1.0  0.13726  0.55117  0.06760  1.0000
  C   C218      1.0  0.10218  0.56542  0.10525  1.0000
  C   C219      1.0  0.14410  0.52412  0.08282  1.0000
  C   C220      1.0  0.10936  0.53839  0.12036  1.0000
  C   C221      1.0  0.13027  0.51776  0.10916  1.0000
  H   H263      1.0  0.12997  0.63082  0.09311  1.0000
  H   H264      1.0  0.11543  0.93692  0.99611  1.0000
  H   H265      1.0  0.10904  0.66092  0.34809  1.0000
  S   S66       1.0  0.99599  0.71278  0.43057  1.0000
  H   H266      1.0  0.10772  0.81227  0.28034  1.0000
  H   H267      1.0  0.31504  0.69705  0.38673  1.0000
  C   C222      1.0  0.22160  0.48595  0.10414  1.0000
  C   C223      1.0  0.09482  0.73254  0.32082  1.0000
  C   C224      1.0  0.13371  0.52559  0.98217  1.0000
  H   H268      1.0  0.06586  0.92637  0.97560  1.0000
  H   H269      1.0  0.05760  0.94717  0.17449  1.0000
  H   H270      1.0  0.26558  0.92439  0.18169  1.0000
  C   C225      1.0  0.01072  0.97623  0.15491  1.0000
  C   C226      1.0  0.04533  0.96045  0.19135  1.0000
  C   C227      1.0  0.29474  0.48445  0.23900  1.0000
  H   H271      1.0  0.30225  0.95962  0.16749  1.0000
  C   C228      1.0  0.24135  0.48397  0.24566  1.0000
  H   H272      1.0  0.02949  0.94379  0.20136  1.0000
  H   H273      1.0  0.26085  0.49020  0.14968  1.0000
  H   H274      1.0  0.31530  0.52971  0.23655  1.0000
  H   H275      1.0  0.25092  0.49494  0.18674  1.0000
  H   H276      1.0  0.32230  0.73673  0.39635  1.0000
  H   H277      1.0  0.31190  0.70927  0.42351  1.0000
  N   N17       1.0  0.23942  0.96163  0.16386  1.0000
  H   H278      1.0  0.07229  0.81459  0.44199  1.0000
  H   H279      1.0  0.22491  0.97191  0.26180  1.0000
  C   C229      1.0  0.11329  0.93208  0.97316  1.0000
  S   S67       1.0  0.99650  0.48721  0.06439  1.0000
  H   H280      1.0  0.15922  0.93850  0.96553  1.0000
  H   H281      1.0  0.13479  0.49622  0.12031  1.0000
  S   S68       1.0  0.22617  0.48517  0.96209  1.0000
  H   H282      1.0  0.99214  0.96169  0.16322  1.0000
  C   C230      1.0  0.22326  0.96772  0.13651  1.0000
  H   H283      1.0  0.31604  0.59387  0.13200  1.0000
  H   H284      1.0  0.02462  0.97919  0.23950  1.0000
  H   H285      1.0  0.22695  0.47975  0.05796  1.0000
  C   C231      1.0  0.13839  0.93282  0.95520  1.0000
  C   C232      1.0  0.05489  0.64016  0.74950  1.0000
  Fe  Fe36      1.0  0.25082  0.96998  0.86944  1.0000
  Fe  Fe37      1.0  0.27851  0.54308  0.87755  1.0000
  C   C233      1.0  0.16184  0.93041  0.77863  1.0000
  S   S69       1.0  0.27228  0.59021  0.85739  1.0000
  H   H286      1.0  0.06967  0.75313  0.73203  1.0000
  C   C234      1.0  0.11426  0.83469  0.50033  1.0000
  S   S70       1.0  0.10437  0.90411  0.67993  1.0000
  S   S71       1.0  0.23956  0.51033  0.87938  1.0000
  H   H287      1.0  0.23924  0.53469  0.80431  1.0000
  Fe  Fe38      1.0  0.29953  0.75243  0.50126  1.0000
  S   S72       1.0  0.27870  0.70532  0.50002  1.0000
  C   C235      1.0  0.00291  0.77041  0.51739  1.0000
  Fe  Fe39      1.0  0.25490  0.77515  0.54726  1.0000
  S   S73       1.0  0.23061  0.72979  0.54816  1.0000
  S   S74       1.0  0.24101  0.81646  0.57463  1.0000
  Fe  Fe40      1.0  0.27683  0.70939  0.54837  1.0000
  S   S75       1.0  0.28699  0.67038  0.57936  1.0000
  Fe  Fe41      1.0  0.23510  0.73064  0.49969  1.0000
  H   H288      1.0  0.07918  0.63833  0.75384  1.0000
  S   S76       1.0  0.30108  0.75478  0.54998  1.0000
  S   S77       1.0  0.25600  0.77766  0.49869  1.0000
  C   C236      1.0  0.04427  0.79021  0.61610  1.0000
  H   H289      1.0  0.28741  0.66264  0.77834  1.0000
  Fe  Fe42      1.0  0.10763  0.89676  0.72825  1.0000
  C   C237      1.0  0.00122  0.52555  0.69447  1.0000
  C   C238      1.0  0.01682  0.65207  0.71469  1.0000
  S   S78       1.0  0.03018  0.81326  0.75283  1.0000
  H   H290      1.0  0.31414  0.71453  0.72697  1.0000
  H   H291      1.0  0.01485  0.94650  0.72753  1.0000
  C   C239      1.0  0.29527  0.73458  0.67192  1.0000
  C   C240      1.0  0.01365  0.78536  0.61704  1.0000
  S   S79       1.0  0.10967  0.84453  0.72504  1.0000
  C   C241      1.0  0.16501  0.84551  0.53612  1.0000
  C   C242      1.0  0.01197  0.78188  0.73577  1.0000
  C   C243      1.0  0.08462  0.67898  0.68669  1.0000
  C   C244      1.0  0.26088  0.75401  0.63479  1.0000
  C   C245      1.0  0.01433  0.77695  0.70594  1.0000
  C   C246      1.0  0.00305  0.96388  0.68550  1.0000
  H   H292      1.0  0.14353  0.55894  0.94880  1.0000
  H   H293      1.0  0.02811  0.79192  0.69292  1.0000
  H   H294      1.0  0.26194  0.95422  0.72500  1.0000
  H   H295      1.0  0.10355  0.75540  0.68988  1.0000
  H   H296      1.0  0.00444  0.63040  0.71965  1.0000
  H   H297      1.0  0.06028  0.91621  0.92327  1.0000
  H   H298      1.0  0.23025  0.50823  0.75567  1.0000
  H   H299      1.0  0.18997  0.95861  0.92997  1.0000
  H   H300      1.0  0.16587  0.88077  0.77673  1.0000
  H   H301      1.0  0.16218  0.78331  0.52981  1.0000
  C   C247      1.0  0.01381  0.49986  0.68001  1.0000
  C   C248      1.0  0.14281  0.82429  0.49107  1.0000
  C   C249      1.0  0.00824  0.53129  0.72347  1.0000
  C   C250      1.0  0.06035  0.78223  0.59142  1.0000
  H   H302      1.0  0.06762  0.83923  0.49003  1.0000
  C   C251      1.0  0.20775  0.81567  0.59515  1.0000
  C   C252      1.0  0.19996  0.84146  0.61216  1.0000
  C   C253      1.0  0.17301  0.84194  0.62783  1.0000
  C   C254      1.0  0.15361  0.81668  0.62632  1.0000
  C   C255      1.0  0.16146  0.79093  0.60937  1.0000
  C   C256      1.0  0.18846  0.79032  0.59402  1.0000
  H   H303      1.0  0.21474  0.86120  0.61312  1.0000
  H   H304      1.0  0.04660  0.59901  0.70819  1.0000
  H   H305      1.0  0.14659  0.77126  0.60817  1.0000
  H   H306      1.0  0.19413  0.77028  0.58122  1.0000
  H   H307      1.0  0.05271  0.62357  0.67786  1.0000
  C   C257      1.0  0.12099  0.73219  0.49729  1.0000
  C   C258      1.0  0.15188  0.72786  0.49446  1.0000
  H   H308      1.0  0.00753  0.67044  0.72900  1.0000
  C   C259      1.0  0.06480  0.67689  0.71069  1.0000
  S   S80       1.0  0.11897  0.81630  0.64437  1.0000
  H   H309      1.0  0.11121  0.73438  0.51860  1.0000
  H   H310      1.0  0.16572  0.72638  0.51352  1.0000
  N   N18       1.0  0.27176  0.52807  0.77015  1.0000
  C   C260      1.0  0.28186  0.63046  0.81335  1.0000
  H   H311      1.0  0.26100  0.64061  0.82032  1.0000
  H   H312      1.0  0.26131  0.95117  0.79191  1.0000
  H   H313      1.0  0.14628  0.89145  0.87669  1.0000
  C   C261      1.0  0.19539  0.95635  0.81231  1.0000
  C   C262      1.0  0.20772  0.92793  0.82028  1.0000
  H   H314      1.0  0.99184  0.79302  0.52174  1.0000
  S   S81       1.0  0.05806  0.89739  0.73545  1.0000
  C   C263      1.0  0.09836  0.70704  0.67940  1.0000
  H   H315      1.0  0.05566  0.80033  0.63449  1.0000
  S   S82       1.0  0.05331  0.85114  0.67960  1.0000
  H   H316      1.0  0.16448  0.48003  0.87708  1.0000
  H   H317      1.0  0.16710  0.86194  0.64078  1.0000
  C   C264      1.0  0.29340  0.60491  0.82810  1.0000
  S   S83       1.0  0.23635  0.92599  0.84646  1.0000
  C   C265      1.0  0.28260  0.75657  0.69136  1.0000
  C   C266      1.0  0.17990  0.79589  0.51774  1.0000
  C   C267      1.0  0.26289  0.52777  0.80107  1.0000
  C   C268      1.0  0.10274  0.73357  0.47271  1.0000
  C   C269      1.0  0.99901  0.75228  0.69288  1.0000
  S   S84       1.0  0.29183  0.53485  0.92382  1.0000
  H   H318      1.0  0.23186  0.79129  0.64740  1.0000
  Fe  Fe43      1.0  0.05961  0.84607  0.72719  1.0000
  Fe  Fe44      1.0  0.10314  0.85198  0.67717  1.0000
  H   H319      1.0  0.20644  0.87852  0.81337  1.0000
  Fe  Fe45      1.0  0.05494  0.90235  0.68746  1.0000
  H   H320      1.0  0.08975  0.65937  0.67305  1.0000
  H   H321      1.0  0.16803  0.87855  0.90696  1.0000
  Fe  Fe46      1.0  0.25592  0.49831  0.92388  1.0000
  H   H322      1.0  0.04548  0.65768  0.76460  1.0000
  S   S85       1.0  0.02150  0.93434  0.66574  1.0000
  C   C270      1.0  0.29687  0.64297  0.78953  1.0000
  C   C271      1.0  0.16550  0.89738  0.89072  1.0000
  H   H323      1.0  0.00124  0.79211  0.63620  1.0000
  H   H324      1.0  0.00097  0.74854  0.66982  1.0000
  S   S86       1.0  0.13329  0.93398  0.75264  1.0000
  C   C272      1.0  0.19049  0.93521  0.91981  1.0000
  S   S87       1.0  0.30995  0.50841  0.85889  1.0000
  H   H325      1.0  0.11061  0.84532  0.52119  1.0000
  C   C273      1.0  0.17268  0.95758  0.79156  1.0000
  C   C274      1.0  0.16475  0.72532  0.46698  1.0000
  C   C275      1.0  0.19701  0.90065  0.80734  1.0000
  C   C276      1.0  0.28333  0.73363  0.64346  1.0000
  H   H326      1.0  0.20953  0.93530  0.90433  1.0000
  N   N19       1.0  0.16196  0.92794  0.90511  1.0000
  C   C277      1.0  0.17404  0.90185  0.78660  1.0000
  H   H327      1.0  0.01153  0.65880  0.69201  1.0000
  H   H328      1.0  0.18623  0.78150  0.49872  1.0000
  C   C278      1.0  0.05837  0.62053  0.70112  1.0000
  S   S88       1.0  0.26779  0.97053  0.91532  1.0000
  C   C279      1.0  0.28085  0.96022  0.77968  1.0000
  H   H329      1.0  0.26780  0.56016  0.73456  1.0000
  C   C280      1.0  0.09300  0.73363  0.69571  1.0000
  H   H330      1.0  0.15653  0.86915  0.53125  1.0000
  H   H331      1.0  0.28974  0.75869  0.71356  1.0000
  H   H332      1.0  0.04419  0.70514  0.74462  1.0000
  H   H333      1.0  0.20314  0.97745  0.82229  1.0000
  C   C281      1.0  0.30408  0.52167  0.76744  1.0000
  C   C282      1.0  0.08923  0.83129  0.48264  1.0000
  H   H334      1.0  0.27678  0.54398  0.81385  1.0000
  C   C283      1.0  0.24927  0.77553  0.65424  1.0000
  H   H335      1.0  0.27426  0.57796  0.76957  1.0000
  S   S89       1.0  0.99451  0.56410  0.74233  1.0000
  C   C284      1.0  0.07386  0.73232  0.71942  1.0000
  H   H336      1.0  0.03841  0.72177  0.52962  1.0000
  C   C285      1.0  0.04591  0.76914  0.56757  1.0000
  H   H337      1.0  0.19389  0.53800  0.93805  1.0000
  H   H338      1.0  0.17712  0.95490  0.86881  1.0000
  N   N20       1.0  0.31939  0.71303  0.68042  1.0000
  H   H339      1.0  0.15197  0.97474  0.89262  1.0000
  H   H340      1.0  0.28952  0.67760  0.69544  1.0000
  H   H341      1.0  0.29937  0.67438  0.65797  1.0000
  C   C286      1.0  0.10716  0.92089  0.91400  1.0000
  H   H342      1.0  0.08262  0.61583  0.70321  1.0000
  C   C287      1.0  0.08220  0.92055  0.93213  1.0000
  N   N21       1.0  0.00008  0.74918  0.54245  1.0000
  C   C288      1.0  0.00304  0.96419  0.71575  1.0000
  H   H343      1.0  0.26139  0.50218  0.73163  1.0000
  C   C289      1.0  0.01478  0.76321  0.56797  1.0000
  H   H344      1.0  0.20181  0.82842  0.47398  1.0000
  H   H345      1.0  0.10363  0.91654  0.89123  1.0000
  H   H346      1.0  0.25245  0.75319  0.61280  1.0000
  H   H347      1.0  0.18550  0.89684  0.87639  1.0000
  H   H348      1.0  0.14940  0.83372  0.55129  1.0000
  C   C290      1.0  0.13604  0.92716  0.92495  1.0000
  H   H349      1.0  0.16501  0.79989  0.45555  1.0000
  C   C291      1.0  0.26283  0.55859  0.75811  1.0000
  H   H350      1.0  0.21418  0.84627  0.50635  1.0000
  H   H351      1.0  0.26515  0.50452  0.81095  1.0000
  H   H352      1.0  0.13858  0.94598  0.86773  1.0000
  C   C292      1.0  0.25464  0.50371  0.75478  1.0000
  C   C293      1.0  0.19405  0.84251  0.49268  1.0000
  Fe  Fe47      1.0  0.32141  0.49779  0.90519  1.0000
  H   H353      1.0  0.25062  0.79338  0.69754  1.0000
  C   C294      1.0  0.02745  0.51090  0.73795  1.0000
  S   S90       1.0  0.20360  0.72149  0.46247  1.0000
  H   H354      1.0  0.04438  0.61767  0.75571  1.0000
  H   H355      1.0  0.00861  0.49576  0.65749  1.0000
  H   H356      1.0  0.08418  0.78640  0.59086  1.0000
  S   S91       1.0  0.06416  0.73964  0.47725  1.0000
  C   C295      1.0  0.25192  0.97356  0.73759  1.0000
  C   C296      1.0  0.32403  0.63057  0.78032  1.0000
  H   H357      1.0  0.01306  0.70264  0.55353  1.0000
  H   H358      1.0  0.00419  0.70816  0.51578  1.0000
  C   C297      1.0  0.15709  0.95189  0.88263  1.0000
  C   C298      1.0  0.05964  0.70456  0.72664  1.0000
  C   C299      1.0  0.32058  0.59200  0.81887  1.0000
  N   N22       1.0  0.04923  0.64784  0.71868  1.0000
  C   C300      1.0  0.03967  0.48504  0.72365  1.0000
  H   H359      1.0  0.11325  0.70828  0.66092  1.0000
  H   H360      1.0  0.31055  0.63008  0.62246  1.0000
  H   H361      1.0  0.23853  0.56285  0.76071  1.0000
  C   C301      1.0  0.25997  0.77669  0.68248  1.0000
  C   C302      1.0  0.99898  0.77191  0.59348  1.0000
  H   H362      1.0  0.03312  0.51522  0.76034  1.0000
  H   H363      1.0  0.02649  0.77547  0.51191  1.0000
  H   H364      1.0  0.19600  0.91774  0.93664  1.0000
  H   H365      1.0  0.19982  0.79696  0.53186  1.0000
  H   H366      1.0  0.18673  0.86542  0.48428  1.0000
  N   N23       1.0  0.16979  0.82720  0.50922  1.0000
  C   C303      1.0  0.14443  0.80973  0.46353  1.0000
  H   H367      1.0  0.31755  0.56469  0.74541  1.0000
  H   H368      1.0  0.29117  0.71703  0.62760  1.0000
  H   H369      1.0  0.18610  0.84866  0.54839  1.0000
  H   H370      1.0  0.05934  0.76378  0.54873  1.0000
  H   H371      1.0  0.14720  0.49228  0.91037  1.0000
  C   C304      1.0  0.99456  0.76153  0.75244  1.0000
  C   C305      1.0  0.32363  0.66520  0.59191  1.0000
  C   C306      1.0  0.01449  0.71919  0.53515  1.0000
  H   H372      1.0  0.29751  0.96804  0.79590  1.0000
  H   H373      1.0  0.31363  0.95515  0.72641  1.0000
  H   H374      1.0  0.29041  0.94002  0.76800  1.0000
  H   H375      1.0  0.18489  0.47978  0.91027  1.0000
  C   C307      1.0  0.31617  0.49359  0.77826  1.0000
  H   H376      1.0  0.99601  0.88551  0.70827  1.0000
  H   H377      1.0  0.99269  0.76514  0.77556  1.0000
  C   C308      1.0  0.30802  0.68082  0.67967  1.0000
  C   C309      1.0  0.09179  0.81747  0.45550  1.0000
  H   H378      1.0  0.99237  0.84445  0.70573  1.0000
  H   H379      1.0  0.23101  0.96428  0.74740  1.0000
  H   H380      1.0  0.09525  0.97244  0.71591  1.0000
  H   H381      1.0  0.99285  0.76031  0.49747  1.0000
  C   C310      1.0  0.32437  0.54252  0.75396  1.0000
  H   H382      1.0  0.25785  0.48037  0.76457  1.0000
  C   C311      1.0  0.03319  0.47958  0.69450  1.0000
  C   C312      1.0  0.18033  0.52747  0.95474  1.0000
  H   H383      1.0  0.55930  0.40130  0.21141  1.0000
  H   H384      1.0  0.33196  0.02341  0.03722  1.0000
  H   H385      1.0  0.63334  0.26064  0.25556  1.0000
  H   H386      1.0  0.61438  0.23401  0.42001  1.0000
  H   H387      1.0  0.37407  0.24443  0.40314  1.0000
  Fe  Fe48      1.0  0.38084  0.11697  0.25325  1.0000
  S   S92       1.0  0.41511  0.11077  0.28857  1.0000
  S   S93       1.0  0.58043  0.18733  0.45065  1.0000
  S   S94       1.0  0.38479  0.14726  0.21392  1.0000
  C   C313      1.0  0.35120  0.43261  0.17543  1.0000
  C   C314      1.0  0.40854  0.27993  0.44507  1.0000
  Fe  Fe49      1.0  0.49045  0.24954  0.43117  1.0000
  Fe  Fe50      1.0  0.51191  0.23320  0.37084  1.0000
  S   S95       1.0  0.49552  0.22505  0.32531  1.0000
  S   S96       1.0  0.49575  0.27789  0.39065  1.0000
  H   H388      1.0  0.39117  0.39117  0.12647  1.0000
  C   C315      1.0  0.45503  0.10035  0.12266  1.0000
  H   H389      1.0  0.34705  0.31474  0.18224  1.0000
  H   H390      1.0  0.36551  0.24810  0.27429  1.0000
  C   C316      1.0  0.63820  0.39626  0.05405  1.0000
  C   C317      1.0  0.37697  0.21891  0.40236  1.0000
  Fe  Fe51      1.0  0.53120  0.46244  0.08598  1.0000
  H   H391      1.0  0.59109  0.43225  0.05752  1.0000
  C   C318      1.0  0.36822  0.04774  0.99782  1.0000
  C   C319      1.0  0.35744  0.37210  0.15465  1.0000
  C   C320      1.0  0.43751  0.14258  0.29852  1.0000
  C   C321      1.0  0.45462  0.14096  0.32387  1.0000
  C   C322      1.0  0.47214  0.16629  0.33267  1.0000
  C   C323      1.0  0.47306  0.19314  0.31580  1.0000
  C   C324      1.0  0.45622  0.19459  0.29031  1.0000
  C   C325      1.0  0.43836  0.16949  0.28178  1.0000
  H   H392      1.0  0.45424  0.12007  0.33676  1.0000
  H   H393      1.0  0.48538  0.16480  0.35212  1.0000
  H   H394      1.0  0.45695  0.21525  0.27711  1.0000
  H   H395      1.0  0.42544  0.17094  0.26214  1.0000
  C   C326      1.0  0.37194  0.42617  0.15378  1.0000
  H   H396      1.0  0.44124  0.03653  0.08183  1.0000
  Fe  Fe52      1.0  0.36173  0.10802  0.19071  1.0000
  S   S97       1.0  0.49393  0.07505  0.08312  1.0000
  H   H397      1.0  0.37825  0.99674  0.02967  1.0000
  H   H398      1.0  0.44522  0.21798  0.37037  1.0000
  H   H399      1.0  0.59316  0.44911  0.02259  1.0000
  H   H400      1.0  0.47224  0.11734  0.12663  1.0000
  H   H401      1.0  0.42381  0.12126  0.15263  1.0000
  C   C327      1.0  0.43767  0.10423  0.03505  1.0000
  Fe  Fe53      1.0  0.65664  0.37189  0.25944  1.0000
  S   S98       1.0  0.36942  0.08449  0.14744  1.0000
  H   H402      1.0  0.38365  0.21185  0.42461  1.0000
  C   C328      1.0  0.59931  0.42811  0.03508  1.0000
  H   H403      1.0  0.55632  0.34714  0.30030  1.0000
  H   H404      1.0  0.65235  0.45374  0.12261  1.0000
  Fe  Fe54      1.0  0.50418  0.03151  0.05769  1.0000
  S   S99       1.0  0.54662  0.42429  0.11600  1.0000
  N   N24       1.0  0.50020  0.99996  0.16640  1.0000
  H   H405      1.0  0.59827  0.29200  0.28855  1.0000
  C   C329      1.0  0.40294  0.17505  0.38305  1.0000
  C   C330      1.0  0.38441  0.19812  0.32805  1.0000
  C   C331      1.0  0.46001  0.07658  0.10244  1.0000
  H   H406      1.0  0.60968  0.42478  0.21348  1.0000
  H   H407      1.0  0.64444  0.36768  0.33052  1.0000
  N   N25       1.0  0.39920  0.20912  0.38036  1.0000
  Fe  Fe55      1.0  0.54378  0.28385  0.40357  1.0000
  S   S100      1.0  0.56026  0.24116  0.38114  1.0000
  S   S101      1.0  0.57548  0.32442  0.40253  1.0000
  H   H408      1.0  0.62800  0.39991  0.07578  1.0000
  H   H409      1.0  0.38764  0.17341  0.33010  1.0000
  C   C332      1.0  0.37570  0.20867  0.30075  1.0000
  C   C333      1.0  0.39059  0.01798  0.03623  1.0000
  C   C334      1.0  0.62614  0.00660  0.99367  1.0000
  H   H410      1.0  0.42689  0.24926  0.38865  1.0000
  C   C335      1.0  0.40512  0.08107  0.13188  1.0000
  H   H411      1.0  0.38914  0.04682  0.98501  1.0000
  C   C336      1.0  0.55050  0.42429  0.20449  1.0000
  C   C337      1.0  0.60140  0.35850  0.31206  1.0000
  C   C338      1.0  0.62232  0.35870  0.33443  1.0000
  C   C339      1.0  0.61426  0.34819  0.36219  1.0000
  C   C340      1.0  0.58553  0.33670  0.36748  1.0000
  C   C341      1.0  0.56488  0.33587  0.34493  1.0000
  C   C342      1.0  0.57265  0.34724  0.31746  1.0000
  H   H412      1.0  0.48746  0.04808  0.25724  1.0000
  C   C343      1.0  0.64700  0.45065  0.04501  1.0000
  H   H413      1.0  0.54265  0.32718  0.34885  1.0000
  H   H414      1.0  0.60123  0.44758  0.18251  1.0000
  C   C344      1.0  0.58406  0.41960  0.12633  1.0000
  C   C345      1.0  0.59176  0.39400  0.14340  1.0000
  C   C346      1.0  0.62102  0.39011  0.15332  1.0000
  C   C347      1.0  0.44318  0.05568  0.19847  1.0000
  C   C348      1.0  0.63545  0.43698  0.12835  1.0000
  C   C349      1.0  0.60592  0.44131  0.11904  1.0000
  H   H415      1.0  0.57495  0.37714  0.14916  1.0000
  H   H416      1.0  0.62667  0.37027  0.16649  1.0000
  C   C350      1.0  0.41449  0.47484  0.00107  1.0000
  C   C351      1.0  0.38946  0.21918  0.35125  1.0000
  N   N26       1.0  0.63493  0.26290  0.30217  1.0000
  H   H417      1.0  0.42978  0.06321  0.01088  1.0000
  H   H418      1.0  0.34888  0.45608  0.18360  1.0000
  C   C352      1.0  0.37642  0.26139  0.31793  1.0000
  C   C353      1.0  0.48477  0.02055  0.18731  1.0000
  H   H419      1.0  0.63028  0.34897  0.37959  1.0000
  H   H420      1.0  0.64718  0.30665  0.28275  1.0000
  S   S102      1.0  0.50390  0.20452  0.41055  1.0000
  H   H421      1.0  0.38176  0.16254  0.37875  1.0000
  H   H422      1.0  0.63369  0.31409  0.43706  1.0000
  C   C354      1.0  0.65526  0.20192  0.37356  1.0000
  H   H423      1.0  0.42448  0.29006  0.43027  1.0000
  C   C355      1.0  0.64301  0.41146  0.14566  1.0000
  C   C356      1.0  0.62779  0.22539  0.43763  1.0000
  S   S103      1.0  0.52037  0.45202  0.03963  1.0000
  C   C357      1.0  0.45366  0.05979  0.22652  1.0000
  S   S104      1.0  0.48230  0.98706  0.06996  1.0000
  H   H424      1.0  0.44102  0.14399  0.06289  1.0000
  H   H425      1.0  0.63796  0.45819  0.06630  1.0000
  H   H426      1.0  0.52371  0.03830  0.14715  1.0000
  H   H427      1.0  0.36107  0.34935  0.14558  1.0000
  C   C358      1.0  0.62373  0.21665  0.33350  1.0000
  C   C359      1.0  0.64241  0.24215  0.32662  1.0000
  H   H428      1.0  0.46017  0.10675  0.02681  1.0000
  Fe  Fe56      1.0  0.33840  0.16314  0.22573  1.0000
  C   C360      1.0  0.60861  0.01060  0.96899  1.0000
  H   H429      1.0  0.37255  0.19233  0.28315  1.0000
  H   H430      1.0  0.55062  0.42405  0.18046  1.0000
  H   H431      1.0  0.37203  0.30872  0.43095  1.0000
  C   C361      1.0  0.47947  0.04467  0.23533  1.0000
  N   N27       1.0  0.63192  0.42243  0.03413  1.0000
  Fe  Fe57      1.0  0.54150  0.00027  0.01060  1.0000
  S   S105      1.0  0.33607  0.13480  0.26632  1.0000
  C   C362      1.0  0.43772  0.05466  0.09754  1.0000
  H   H432      1.0  0.51467  0.01426  0.22449  1.0000
  C   C363      1.0  0.41036  0.05696  0.11214  1.0000
  S   S106      1.0  0.36162  0.07627  0.22919  1.0000
  H   H433      1.0  0.58659  0.40803  0.02644  1.0000
  Fe  Fe58      1.0  0.55053  0.21745  0.42330  1.0000
  H   H434      1.0  0.44178  0.07479  0.24147  1.0000
  H   H435      1.0  0.35474  0.20868  0.39784  1.0000
  C   C364      1.0  0.45850  0.03651  0.17907  1.0000
  C   C365      1.0  0.38509  0.25114  0.34533  1.0000
  C   C366      1.0  0.42825  0.22362  0.38724  1.0000
  C   C367      1.0  0.42768  0.10255  0.13747  1.0000
  H   H436      1.0  0.64491  0.35341  0.44157  1.0000
  H   H437      1.0  0.33010  0.06470  0.03919  1.0000
  C   C368      1.0  0.62997  0.19711  0.35682  1.0000
  C   C369      1.0  0.63818  0.24564  0.27459  1.0000
  C   C370      1.0  0.60373  0.27398  0.30495  1.0000
  H   H438      1.0  0.58706  0.25529  0.30183  1.0000
  S   S107      1.0  0.49690  0.02451  0.01000  1.0000
  H   H439      1.0  0.61360  0.46625  0.21487  1.0000
  H   H440      1.0  0.49062  0.02736  0.12840  1.0000
  H   H441      1.0  0.43695  0.21569  0.40851  1.0000
  H   H442      1.0  0.35633  0.06937  0.99166  1.0000
  H   H443      1.0  0.42024  0.16625  0.36788  1.0000
  S   S108      1.0  0.55064  0.01189  0.05736  1.0000
  H   H444      1.0  0.57781  0.42356  0.25507  1.0000
  H   H445      1.0  0.64408  0.47023  0.02963  1.0000
  H   H446      1.0  0.39297  0.04031  0.10787  1.0000
  H   H447      1.0  0.60397  0.21174  0.32103  1.0000
  N   N28       1.0  0.56828  0.45016  0.21664  1.0000
  C   C371      1.0  0.49491  0.02525  0.21616  1.0000
  S   S109      1.0  0.60985  0.37314  0.27741  1.0000
  C   C372      1.0  0.65738  0.00868  0.99162  1.0000
  H   H448      1.0  0.65350  0.30433  0.32089  1.0000
  H   H449      1.0  0.62914  0.37416  0.04529  1.0000
  H   H450      1.0  0.38877  0.26852  0.36181  1.0000
  H   H451      1.0  0.41025  0.16831  0.40518  1.0000
  S   S110      1.0  0.43069  0.46527  0.03477  1.0000
  H   H452      1.0  0.42307  0.06752  0.19171  1.0000
  H   H453      1.0  0.61494  0.17829  0.36216  1.0000
  H   H454      1.0  0.52288  0.00377  0.12523  1.0000
  C   C373      1.0  0.59948  0.44711  0.20644  1.0000
  C   C374      1.0  0.37889  0.29054  0.44558  1.0000
  C   C375      1.0  0.56847  0.44643  0.24861  1.0000
  H   H455      1.0  0.34658  0.47349  0.96760  1.0000
  C   C376      1.0  0.42018  0.07913  0.02638  1.0000
  C   C377      1.0  0.33350  0.40891  0.18678  1.0000
  C   C378      1.0  0.37499  0.39602  0.14338  1.0000
  C   C379      1.0  0.50976  0.01812  0.14078  1.0000
  H   H456      1.0  0.61565  0.00178  0.01428  1.0000
  C   C380      1.0  0.42296  0.99628  0.95882  1.0000
  N   N29       1.0  0.37379  0.04666  0.02944  1.0000
  H   H457      1.0  0.33582  0.00311  0.17339  1.0000
  H   H458      1.0  0.56146  0.47066  0.16066  1.0000
  H   H459      1.0  0.44959  0.03432  0.15749  1.0000
  C   C381      1.0  0.64332  0.41524  0.00476  1.0000
  H   H460      1.0  0.38572  0.44456  0.14505  1.0000
  C   C382      1.0  0.39136  0.07413  0.03820  1.0000
  H   H461      1.0  0.39523  0.01617  0.05977  1.0000
  C   C383      1.0  0.37015  0.47746  0.97053  1.0000
  S   S111      1.0  0.53660  0.26051  0.44629  1.0000
  H   H462      1.0  0.35963  0.09433  0.06942  1.0000
  C   C384      1.0  0.42693  0.12526  0.05542  1.0000
  H   H463      1.0  0.54416  0.00187  0.18504  1.0000
  H   H464      1.0  0.34710  0.04270  0.06815  1.0000
  C   C385      1.0  0.38090  0.09631  0.05868  1.0000
  C   C386      1.0  0.38382  0.47018  0.99707  1.0000
  H   H465      1.0  0.35451  0.02776  0.99039  1.0000
  H   H466      1.0  0.52683  0.42586  0.21144  1.0000
  H   H467      1.0  0.60004  0.46147  0.10643  1.0000
  H   H468      1.0  0.41238  0.01684  0.02491  1.0000
  H   H469      1.0  0.59977  0.28431  0.32673  1.0000
  H   H470      1.0  0.60240  0.42458  0.98016  1.0000
  C   C387      1.0  0.39858  0.12141  0.06708  1.0000
  H   H471      1.0  0.39069  0.13726  0.08366  1.0000
  H   H472      1.0  0.37060  0.46066  0.01450  1.0000
  C   C388      1.0  0.33615  0.37785  0.17690  1.0000
  C   C389      1.0  0.62536  0.41714  0.97950  1.0000
  S   S112      1.0  0.56950  0.00600  0.96978  1.0000
  C   C390      1.0  0.37181  0.24017  0.29567  1.0000
  H   H473      1.0  0.44516  0.00549  0.96143  1.0000
  H   H474      1.0  0.46029  0.98455  0.14445  1.0000
  H   H475      1.0  0.62299  0.22537  0.27343  1.0000
  C   C391      1.0  0.34447  0.04440  0.04421  1.0000
  C   C392      1.0  0.65426  0.29074  0.30044  1.0000
  H   H476      1.0  0.54560  0.44737  0.25785  1.0000
  C   C393      1.0  0.63405  0.33365  0.45286  1.0000
  H   H477      1.0  0.58262  0.46421  0.25928  1.0000
  H   H478      1.0  0.34516  0.34907  0.22696  1.0000
  S   S113      1.0  0.32713  0.21353  0.23484  1.0000
  C   C394      1.0  0.65691  0.23646  0.44140  1.0000
  C   C395      1.0  0.52708  0.98462  0.17841  1.0000
  H   H479      1.0  0.37366  0.28592  0.31382  1.0000
  Fe  Fe59      1.0  0.47812  0.47888  0.04645  1.0000
  C   C396      1.0  0.36164  0.03148  0.80951  1.0000
  C   C397      1.0  0.39681  0.24420  0.48373  1.0000
  Fe  Fe60      1.0  0.40089  0.13952  0.75582  1.0000
  S   S114      1.0  0.38571  0.11523  0.71544  1.0000
  S   S115      1.0  0.38000  0.14108  0.80034  1.0000
  Fe  Fe61      1.0  0.46146  0.15660  0.72995  1.0000
  S   S116      1.0  0.45173  0.13249  0.68796  1.0000
  S   S117      1.0  0.50495  0.17972  0.74192  1.0000
  Fe  Fe62      1.0  0.40667  0.15535  0.69142  1.0000
  S   S118      1.0  0.39302  0.18671  0.65413  1.0000
  Fe  Fe63      1.0  0.43195  0.09462  0.71545  1.0000
  S   S119      1.0  0.43664  0.04259  0.70944  1.0000
  S   S120      1.0  0.41781  0.18140  0.73228  1.0000
  S   S121      1.0  0.44562  0.11682  0.75700  1.0000
  C   C398      1.0  0.48640  0.23493  0.71841  1.0000
  C   C399      1.0  0.50748  0.21982  0.73549  1.0000
  H   H480      1.0  0.46852  0.22189  0.70857  1.0000
  C   C400      1.0  0.48760  0.03762  0.74268  1.0000
  H   H481      1.0  0.48453  0.06178  0.74799  1.0000
  C   C401      1.0  0.36132  0.18515  0.63156  1.0000
  C   C402      1.0  0.35859  0.20720  0.60938  1.0000
  C   C403      1.0  0.41510  0.44769  0.70289  1.0000
  H   H482      1.0  0.37591  0.22429  0.60634  1.0000
  H   H483      1.0  0.45478  0.20732  0.51715  1.0000
  C   C404      1.0  0.42656  0.20636  0.84244  1.0000
  C   C405      1.0  0.43623  0.42586  0.69394  1.0000
  C   C406      1.0  0.36719  0.25463  0.48410  1.0000
  C   C407      1.0  0.50685  0.99133  0.92626  1.0000
  C   C408      1.0  0.40235  0.05038  0.78093  1.0000
  H   H484      1.0  0.56102  0.24702  0.69324  1.0000
  S   S122      1.0  0.59452  0.40510  0.82298  1.0000
  C   C409      1.0  0.63652  0.42655  0.86109  1.0000
  C   C410      1.0  0.45969  0.43389  0.67469  1.0000
  Fe  Fe64      1.0  0.57315  0.41912  0.71937  1.0000
  H   H485      1.0  0.50812  0.14118  0.56561  1.0000
  H   H486      1.0  0.52097  0.40404  0.63891  1.0000
  C   C411      1.0  0.32521  0.11745  0.78459  1.0000
  C   C412      1.0  0.46557  0.26681  0.79585  1.0000
  H   H487      1.0  0.48380  0.29673  0.87290  1.0000
  H   H488      1.0  0.52746  0.13054  0.52003  1.0000
  H   H489      1.0  0.35539  0.11463  0.85194  1.0000
  C   C413      1.0  0.63557  0.26353  0.53724  1.0000
  H   H490      1.0  0.63704  0.36775  0.65289  1.0000
  C   C414      1.0  0.61005  0.28330  0.48539  1.0000
  S   S123      1.0  0.61718  0.41297  0.74192  1.0000
  H   H491      1.0  0.40361  0.22630  0.49866  1.0000
  S   S124      1.0  0.51329  0.32428  0.71976  1.0000
  H   H492      1.0  0.39486  0.08022  0.82913  1.0000
  H   H493      1.0  0.41526  0.23743  0.77602  1.0000
  H   H494      1.0  0.35332  0.02439  0.83123  1.0000
  H   H495      1.0  0.33860  0.06647  0.73637  1.0000
  H   H496      1.0  0.35137  0.24477  0.49920  1.0000
  H   H497      1.0  0.62311  0.41206  0.93305  1.0000
  C   C415      1.0  0.51187  0.28409  0.72597  1.0000
  C   C416      1.0  0.48860  0.26696  0.71368  1.0000
  C   C417      1.0  0.53075  0.23696  0.74791  1.0000
  C   C418      1.0  0.53289  0.26909  0.74326  1.0000
  H   H498      1.0  0.47219  0.27846  0.70038  1.0000
  H   H499      1.0  0.54693  0.22539  0.76143  1.0000
  H   H500      1.0  0.55048  0.28228  0.75337  1.0000
  S   S125      1.0  0.45444  0.24273  0.46500  1.0000
  C   C419      1.0  0.35814  0.27790  0.46508  1.0000
  C   C420      1.0  0.47240  0.99144  0.71705  1.0000
  C   C421      1.0  0.46791  0.02289  0.72375  1.0000
  C   C422      1.0  0.51151  0.02107  0.75476  1.0000
  Fe  Fe65      1.0  0.59030  0.38945  0.77645  1.0000
  H   H501      1.0  0.51373  0.45320  0.74257  1.0000
  H   H502      1.0  0.52664  0.03271  0.76933  1.0000
  H   H503      1.0  0.47039  0.14122  0.60333  1.0000
  H   H504      1.0  0.35500  0.46502  0.78404  1.0000
  C   C423      1.0  0.63419  0.19168  0.47889  1.0000
  C   C424      1.0  0.40434  0.00753  0.93670  1.0000
  H   H505      1.0  0.61113  0.99504  0.85269  1.0000
  H   H506      1.0  0.51376  0.98653  0.82085  1.0000
  C   C425      1.0  0.34602  0.12180  0.80668  1.0000
  H   H507      1.0  0.62562  0.17402  0.49323  1.0000
  S   S126      1.0  0.59448  0.34164  0.75728  1.0000
  H   H508      1.0  0.48414  0.14215  0.48776  1.0000
  C   C426      1.0  0.50449  0.42221  0.64502  1.0000
  C   C427      1.0  0.33959  0.11103  0.83464  1.0000
  N   N30       1.0  0.60625  0.26014  0.68288  1.0000
  H   H509      1.0  0.65351  0.36244  0.60170  1.0000
  H   H510      1.0  0.59851  0.27405  0.72719  1.0000
  C   C428      1.0  0.59471  0.29069  0.67323  1.0000
  H   H511      1.0  0.48835  0.46249  0.87659  1.0000
  H   H512      1.0  0.62764  0.35855  0.50680  1.0000
  S   S127      1.0  0.35278  0.01103  0.90523  1.0000
  C   C429      1.0  0.33890  0.16304  0.63522  1.0000
  C   C430      1.0  0.40892  0.00467  0.81278  1.0000
  H   H513      1.0  0.60915  0.02020  0.92322  1.0000
  C   C431      1.0  0.58110  0.23786  0.68195  1.0000
  N   N31       1.0  0.43665  0.22139  0.81522  1.0000
  C   C432      1.0  0.45469  0.19839  0.79901  1.0000
  H   H514      1.0  0.58643  0.21550  0.69266  1.0000
  C   C433      1.0  0.40972  0.22888  0.79807  1.0000
  C   C434      1.0  0.45444  0.24985  0.81988  1.0000
  C   C435      1.0  0.46145  0.26146  0.84789  1.0000
  C   C436      1.0  0.41756  0.25675  0.46423  1.0000
  H   H515      1.0  0.47617  0.19352  0.81007  1.0000
  H   H516      1.0  0.44272  0.17598  0.79630  1.0000
  H   H517      1.0  0.46025  0.20649  0.77688  1.0000
  C   C437      1.0  0.59766  0.25863  0.50085  1.0000
  H   H518      1.0  0.41313  0.18515  0.83799  1.0000
  H   H519      1.0  0.46148  0.25929  0.77389  1.0000
  H   H520      1.0  0.47582  0.18166  0.47893  1.0000
  H   H521      1.0  0.39533  0.20811  0.79489  1.0000
  H   H522      1.0  0.57593  0.29889  0.68713  1.0000
  H   H523      1.0  0.45414  0.25020  0.86749  1.0000
  C   C438      1.0  0.48895  0.15581  0.56232  1.0000
  C   C439      1.0  0.35116  0.02248  0.71831  1.0000
  H   H524      1.0  0.41240  0.02540  0.92229  1.0000
  H   H525      1.0  0.60117  0.22902  0.53802  1.0000
  C   C440      1.0  0.65605  0.35343  0.64757  1.0000
  C   C441      1.0  0.65042  0.35271  0.49899  1.0000
  H   H526      1.0  0.41761  0.20597  0.55574  1.0000
  C   C442      1.0  0.51631  0.98980  0.74771  1.0000
  C   C443      1.0  0.62257  0.01683  0.94237  1.0000
  C   C444      1.0  0.46066  0.46516  0.66503  1.0000
  H   H527      1.0  0.52390  0.46977  0.83618  1.0000
  C   C445      1.0  0.61621  0.26373  0.71329  1.0000
  C   C446      1.0  0.47854  0.28831  0.85138  1.0000
  H   H528      1.0  0.53616  0.20928  0.49294  1.0000
  H   H529      1.0  0.63501  0.28730  0.63458  1.0000
  H   H530      1.0  0.39607  0.24699  0.80900  1.0000
  H   H531      1.0  0.35425  0.01378  0.79355  1.0000
  H   H532      1.0  0.51117  0.99947  0.87197  1.0000
  S   S128      1.0  0.55847  0.46355  0.69720  1.0000
  S   S129      1.0  0.54625  0.39840  0.75509  1.0000
  H   H533      1.0  0.45148  0.37127  0.66644  1.0000
  C   C447      1.0  0.63009  0.40521  0.83898  1.0000
  C   C448      1.0  0.61041  0.24869  0.52662  1.0000
  S   S130      1.0  0.57763  0.37429  0.69465  1.0000
  H   H534      1.0  0.61218  0.30892  0.67457  1.0000
  H   H535      1.0  0.39113  0.07326  0.77847  1.0000
  H   H536      1.0  0.55029  0.15684  0.50017  1.0000
  H   H537      1.0  0.50242  0.32507  0.83007  1.0000
  H   H538      1.0  0.37082  0.03155  0.70753  1.0000
  C   C449      1.0  0.49389  0.16575  0.48588  1.0000
  H   H539      1.0  0.64568  0.25565  0.55716  1.0000
  H   H540      1.0  0.48276  0.38748  0.70745  1.0000
  H   H541      1.0  0.49418  0.43071  0.62466  1.0000
  Fe  Fe66      1.0  0.61864  0.36583  0.72094  1.0000
  C   C450      1.0  0.46638  0.38396  0.65133  1.0000
  H   H542      1.0  0.57453  0.23270  0.65924  1.0000
  N   N32       1.0  0.39447  0.03520  0.80876  1.0000
  C   C451      1.0  0.40353  0.05634  0.83249  1.0000
  H   H543      1.0  0.43431  0.40267  0.70251  1.0000
  C   C452      1.0  0.63120  0.24826  0.66496  1.0000
  H   H544      1.0  0.51040  0.16540  0.46780  1.0000
  H   H545      1.0  0.43478  0.00314  0.77226  1.0000
  H   H546      1.0  0.50991  0.41740  0.70241  1.0000
  H   H547      1.0  0.50100  0.22419  0.50376  1.0000
  H   H548      1.0  0.39767  0.44116  0.71792  1.0000
  H   H549      1.0  0.48683  0.00274  0.91699  1.0000
  C   C453      1.0  0.61652  0.20251  0.45600  1.0000
  C   C454      1.0  0.46738  0.15553  0.58426  1.0000
  C   C455      1.0  0.42889  0.99157  0.79217  1.0000
  H   H550      1.0  0.58613  0.28967  0.65070  1.0000
  C   C456      1.0  0.33367  0.20729  0.59102  1.0000
  H   H551      1.0  0.38836  0.99561  0.85481  1.0000
  C   C457      1.0  0.50877  0.47464  0.73171  1.0000
  H   H552      1.0  0.39503  0.04867  0.85397  1.0000
  H   H553      1.0  0.34998  0.05352  0.80432  1.0000
  H   H554      1.0  0.44576  0.19877  0.85586  1.0000
  H   H555      1.0  0.32979  0.12612  0.76308  1.0000
  H   H556      1.0  0.59930  0.28927  0.46525  1.0000
  C   C458      1.0  0.48249  0.29368  0.79961  1.0000
  C   C459      1.0  0.49774  0.39845  0.69129  1.0000
  H   H557      1.0  0.62238  0.24133  0.72340  1.0000
  H   H558      1.0  0.51433  0.38046  0.68525  1.0000
  C   C460      1.0  0.45904  0.19254  0.53552  1.0000
  N   N33       1.0  0.48175  0.41027  0.66558  1.0000
  C   C461      1.0  0.65183  0.38384  0.83050  1.0000
  H   H559      1.0  0.57866  0.24640  0.49219  1.0000
  H   H560      1.0  0.48251  0.36642  0.64303  1.0000
  Fe  Fe67      1.0  0.55325  0.35314  0.73219  1.0000
  H   H561      1.0  0.34081  0.14590  0.65216  1.0000
  C   C462      1.0  0.64438  0.21913  0.67135  1.0000
  N   N34       1.0  0.64987  0.32503  0.47990  1.0000
  C   C463      1.0  0.48905  0.30436  0.82730  1.0000
  H   H562      1.0  0.39568  0.03604  0.76201  1.0000
  C   C464      1.0  0.37522  0.99614  0.93337  1.0000
  H   H563      1.0  0.42670  0.05487  0.77930  1.0000
  C   C465      1.0  0.65378  0.01863  0.94029  1.0000
  H   H564      1.0  0.52867  0.21650  0.53069  1.0000
  H   H565      1.0  0.49075  0.30625  0.78091  1.0000
  C   C466      1.0  0.44179  0.17357  0.58188  1.0000
  H   H566      1.0  0.42513  0.17325  0.59895  1.0000
  C   C467      1.0  0.43761  0.19200  0.55753  1.0000
  C   C468      1.0  0.48540  0.17446  0.53717  1.0000
  H   H567      1.0  0.61972  0.44303  0.86785  1.0000
  H   H568      1.0  0.41204  0.22204  0.85540  1.0000
  C   C469      1.0  0.63595  0.29879  0.49551  1.0000
  H   H569      1.0  0.54634  0.16218  0.53827  1.0000
  C   C470      1.0  0.64827  0.28809  0.52192  1.0000
  N   N35       1.0  0.50774  0.17562  0.51351  1.0000
  C   C471      1.0  0.51885  0.20777  0.51017  1.0000
  C   C472      1.0  0.53401  0.15535  0.51841  1.0000
  H   H570      1.0  0.42820  0.05804  0.83384  1.0000
  H   H571      1.0  0.45271  0.39210  0.63276  1.0000
  C   C473      1.0  0.64306  0.26474  0.64091  1.0000
  H   H572      1.0  0.47810  0.47385  0.65114  1.0000
  H   H573      1.0  0.63653  0.20528  0.68927  1.0000
  H   H574      1.0  0.64696  0.36714  0.81369  1.0000
  C   C474      1.0  0.33302  0.04209  0.73457  1.0000
  H   H575      1.0  0.52727  0.00358  0.91871  1.0000
  H   H576      1.0  0.63597  0.27927  0.71462  1.0000
  H   H577      1.0  0.33201  0.22422  0.57388  1.0000
  H   H578      1.0  0.51771  0.44136  0.65482  1.0000
  C   C475      1.0  0.63704  0.41022  0.95212  1.0000
  C   C476      1.0  0.40320  0.98708  0.83813  1.0000
  C   C477      1.0  0.34396  0.99122  0.71579  1.0000
  H   H579      1.0  0.50603  0.99525  0.95010  1.0000
  H   H580      1.0  0.45722  0.97982  0.70250  1.0000
  H   H581      1.0  0.61064  0.34082  0.45722  1.0000
  C   C478      1.0  0.41662  0.47805  0.69287  1.0000
  C   C479      1.0  0.48318  0.47874  0.85943  1.0000
  H   H582      1.0  0.61299  0.47900  0.94696  1.0000
  C   C480      1.0  0.42305  0.53077  0.07718  1.0000
  C   C481      1.0  0.47210  0.57450  0.13511  1.0000
  C   C482      1.0  0.32910  0.57959  0.08905  1.0000
  H   H583      1.0  0.49073  0.95844  0.14194  1.0000
  H   H584      1.0  0.54094  0.51973  0.14389  1.0000
  Fe  Fe68      1.0  0.34908  0.64020  0.28508  1.0000
  S   S131      1.0  0.35430  0.66349  0.32880  1.0000
  C   C483      1.0  0.43882  0.72661  0.31287  1.0000
  S   S132      1.0  0.37675  0.65782  0.24827  1.0000
  H   H585      1.0  0.42762  0.63039  0.45109  1.0000
  H   H586      1.0  0.45465  0.67897  0.45060  1.0000
  H   H587      1.0  0.40764  0.51091  0.08055  1.0000
  Fe  Fe69      1.0  0.50207  0.70080  0.40730  1.0000
  S   S133      1.0  0.47855  0.65694  0.39317  1.0000
  S   S134      1.0  0.48568  0.74855  0.39778  1.0000
  S   S135      1.0  0.43546  0.95733  0.00495  1.0000
  H   H588      1.0  0.38107  0.75585  0.23842  1.0000
  H   H589      1.0  0.34716  0.72656  0.30632  1.0000
  C   C484      1.0  0.44725  0.54959  0.17565  1.0000
  Fe  Fe70      1.0  0.54187  0.49818  0.03062  1.0000
  H   H590      1.0  0.45504  0.49077  0.98118  1.0000
  H   H591      1.0  0.64700  0.92900  0.10249  1.0000
  Fe  Fe71      1.0  0.52818  0.96659  0.06717  1.0000
  C   C485      1.0  0.39850  0.75939  0.29401  1.0000
  H   H592      1.0  0.37587  0.94314  0.98789  1.0000
  C   C486      1.0  0.38897  0.66154  0.34635  1.0000
  C   C487      1.0  0.40659  0.63492  0.34472  1.0000
  C   C488      1.0  0.43396  0.63376  0.35934  1.0000
  C   C489      1.0  0.44424  0.65948  0.37498  1.0000
  C   C490      1.0  0.42667  0.68619  0.37642  1.0000
  C   C491      1.0  0.39881  0.68695  0.36268  1.0000
  H   H593      1.0  0.39878  0.61496  0.33274  1.0000
  H   H594      1.0  0.44724  0.61285  0.35855  1.0000
  H   H595      1.0  0.43444  0.70624  0.38818  1.0000
  H   H596      1.0  0.38523  0.70760  0.36413  1.0000
  H   H597      1.0  0.61470  0.73094  0.41025  1.0000
  S   S136      1.0  0.34949  0.59100  0.26892  1.0000
  S   S137      1.0  0.51243  0.71068  0.45373  1.0000
  C   C492      1.0  0.44671  0.78157  0.30834  1.0000
  S   S138      1.0  0.49852  0.52436  0.03422  1.0000
  H   H598      1.0  0.38918  0.56743  0.02152  1.0000
  H   H599      1.0  0.41131  0.80813  0.29079  1.0000
  H   H600      1.0  0.46336  0.62342  0.13094  1.0000
  H   H601      1.0  0.42891  0.62596  0.17313  1.0000
  H   H602      1.0  0.46115  0.80154  0.31100  1.0000
  H   H603      1.0  0.35225  0.78253  0.32308  1.0000
  H   H604      1.0  0.39704  0.70888  0.29993  1.0000
  H   H605      1.0  0.47907  0.75000  0.32566  1.0000
  S   S139      1.0  0.52217  0.95320  0.02033  1.0000
  Fe  Fe72      1.0  0.47831  0.97826  0.02227  1.0000
  C   C493      1.0  0.38383  0.96133  0.97375  1.0000
  C   C494      1.0  0.65355  0.53204  0.00166  1.0000
  C   C495      1.0  0.41922  0.76985  0.44763  1.0000
  Fe  Fe73      1.0  0.49903  0.75936  0.44356  1.0000
  C   C496      1.0  0.36271  0.58340  0.12949  1.0000
  C   C497      1.0  0.54518  0.50324  0.22632  1.0000
  H   H606      1.0  0.44337  0.52900  0.18844  1.0000
  C   C498      1.0  0.43916  0.60418  0.16720  1.0000
  H   H607      1.0  0.52144  0.96957  0.19717  1.0000
  H   H608      1.0  0.32642  0.73975  0.27553  1.0000
  C   C499      1.0  0.60848  0.50559  0.98626  1.0000
  Fe  Fe74      1.0  0.53344  0.75931  0.38646  1.0000
  S   S140      1.0  0.54892  0.71029  0.39326  1.0000
  S   S141      1.0  0.54173  0.77874  0.34136  1.0000
  C   C500      1.0  0.41001  0.72983  0.30178  1.0000
  H   H609      1.0  0.47069  0.96195  0.17549  1.0000
  H   H610      1.0  0.47620  0.52610  0.14536  1.0000
  H   H611      1.0  0.44150  0.52234  0.06326  1.0000
  S   S142      1.0  0.64401  0.87403  0.30634  1.0000
  H   H612      1.0  0.43339  0.76911  0.42876  1.0000
  N   N36       1.0  0.36798  0.76387  0.28263  1.0000
  H   H613      1.0  0.61127  0.53441  0.02421  1.0000
  C   C501      1.0  0.47954  0.97523  0.15672  1.0000
  C   C502      1.0  0.61528  0.84770  0.31575  1.0000
  C   C503      1.0  0.59966  0.83107  0.29468  1.0000
  C   C504      1.0  0.57719  0.81013  0.30293  1.0000
  C   C505      1.0  0.57036  0.80524  0.33227  1.0000
  C   C506      1.0  0.58620  0.82156  0.35337  1.0000
  C   C507      1.0  0.60836  0.84291  0.34510  1.0000
  H   H614      1.0  0.60470  0.83459  0.27202  1.0000
  H   H615      1.0  0.56502  0.79765  0.28645  1.0000
  H   H616      1.0  0.58115  0.81804  0.37604  1.0000
  H   H617      1.0  0.62028  0.85567  0.36156  1.0000
  C   C508      1.0  0.57338  0.92716  0.11984  1.0000
  C   C509      1.0  0.57570  0.91223  0.14678  1.0000
  C   C510      1.0  0.60365  0.90366  0.15794  1.0000
  C   C511      1.0  0.62949  0.90954  0.14199  1.0000
  C   C512      1.0  0.62718  0.92465  0.11513  1.0000
  C   C513      1.0  0.59928  0.93368  0.10420  1.0000
  C   C514      1.0  0.35218  0.78815  0.29956  1.0000
  H   H618      1.0  0.60514  0.89188  0.17854  1.0000
  H   H619      1.0  0.44703  0.70401  0.31928  1.0000
  H   H620      1.0  0.38346  0.52804  0.03416  1.0000
  N   N37       1.0  0.46882  0.63954  0.26319  1.0000
  C   C515      1.0  0.45744  0.65410  0.23627  1.0000
  C   C516      1.0  0.48599  0.61160  0.25477  1.0000
  C   C517      1.0  0.44259  0.62968  0.28048  1.0000
  C   C518      1.0  0.48799  0.66035  0.28056  1.0000
  C   C519      1.0  0.49799  0.65111  0.30838  1.0000
  C   C520      1.0  0.49790  0.68972  0.27037  1.0000
  C   C521      1.0  0.51625  0.67021  0.32510  1.0000
  C   C522      1.0  0.51630  0.70857  0.28730  1.0000
  C   C523      1.0  0.52540  0.69884  0.31458  1.0000
  H   H621      1.0  0.47573  0.65950  0.22079  1.0000
  H   H622      1.0  0.44205  0.63837  0.22443  1.0000
  H   H623      1.0  0.44471  0.67564  0.24110  1.0000
  H   H624      1.0  0.50611  0.61797  0.24199  1.0000
  H   H625      1.0  0.47235  0.59552  0.24128  1.0000
  H   H626      1.0  0.49355  0.59823  0.27394  1.0000
  H   H627      1.0  0.43021  0.65009  0.28905  1.0000
  H   H628      1.0  0.42682  0.61546  0.26748  1.0000
  H   H629      1.0  0.44868  0.61481  0.29911  1.0000
  H   H630      1.0  0.49183  0.62903  0.31761  1.0000
  H   H631      1.0  0.49184  0.69873  0.24943  1.0000
  H   H632      1.0  0.52327  0.66280  0.34646  1.0000
  H   H633      1.0  0.52355  0.73102  0.27940  1.0000
  H   H634      1.0  0.53960  0.71357  0.32759  1.0000
  H   H635      1.0  0.52316  0.55895  0.17871  1.0000
  Fe  Fe75      1.0  0.37384  0.60973  0.22979  1.0000
  H   H636      1.0  0.54561  0.50023  0.24949  1.0000
  H   H637      1.0  0.65258  0.80142  0.30152  1.0000
  C   C524      1.0  0.34932  0.73550  0.28382  1.0000
  S   S143      1.0  0.49649  0.57355  0.10492  1.0000
  H   H638      1.0  0.44872  0.57728  0.04824  1.0000
  S   S144      1.0  0.41242  0.57865  0.21605  1.0000
  N   N38       1.0  0.40756  0.55746  0.06377  1.0000
  S   S145      1.0  0.55497  0.50718  0.07698  1.0000
  C   C525      1.0  0.55580  0.48016  0.20683  1.0000
  C   C526      1.0  0.54227  0.51509  0.16695  1.0000
  Fe  Fe76      1.0  0.50923  0.52883  0.08171  1.0000
  H   H639      1.0  0.38208  0.79587  0.24928  1.0000
  H   H640      1.0  0.43357  0.53658  0.09817  1.0000
  C   C527      1.0  0.45871  0.60268  0.14329  1.0000
  H   H641      1.0  0.41891  0.54017  0.02118  1.0000
  C   C528      1.0  0.42878  0.58362  0.06141  1.0000
  H   H642      1.0  0.36221  0.81148  0.29685  1.0000
  C   C529      1.0  0.43366  0.57764  0.18371  1.0000
  C   C530      1.0  0.62908  0.74085  0.39386  1.0000
  C   C531      1.0  0.62329  0.52467  0.00603  1.0000
  C   C532      1.0  0.38625  0.57402  0.11173  1.0000
  H   H643      1.0  0.40798  0.57252  0.12146  1.0000
  S   S146      1.0  0.53766  0.93660  0.10643  1.0000
  H   H644      1.0  0.62600  0.76503  0.32464  1.0000
  C   C533      1.0  0.46592  0.54788  0.15121  1.0000
  C   C534      1.0  0.45697  0.75245  0.31648  1.0000
  C   C535      1.0  0.38197  0.56689  0.08203  1.0000
  C   C536      1.0  0.35255  0.56998  0.07112  1.0000
  C   C537      1.0  0.39916  0.54800  0.03393  1.0000
  H   H645      1.0  0.37918  0.76126  0.42347  1.0000
  H   H646      1.0  0.43740  0.59101  0.08285  1.0000
  H   H647      1.0  0.59493  0.74253  0.36144  1.0000
  H   H648      1.0  0.55575  0.90690  0.15893  1.0000
  H   H649      1.0  0.59774  0.94502  0.08340  1.0000
  S   S147      1.0  0.54553  0.77494  0.43170  1.0000
  C   C538      1.0  0.36976  0.77375  0.25197  1.0000
  H   H650      1.0  0.41816  0.60419  0.05128  1.0000
  C   C539      1.0  0.41804  0.78506  0.29705  1.0000
  H   H651      1.0  0.34724  0.77722  0.24252  1.0000
  H   H652      1.0  0.39862  0.65181  0.43361  1.0000
  C   C540      1.0  0.61803  0.74718  0.36637  1.0000
  H   H653      1.0  0.34711  0.56522  0.04880  1.0000
  C   C541      1.0  0.53352  0.53128  0.21617  1.0000
  C   C542      1.0  0.53216  0.53722  0.18657  1.0000
  Fe  Fe77      1.0  0.33286  0.66668  0.22655  1.0000
  C   C543      1.0  0.65471  0.50026  0.95855  1.0000
  S   S148      1.0  0.48677  0.48467  0.09408  1.0000
  H   H654      1.0  0.52545  0.54853  0.23133  1.0000
  C   C544      1.0  0.63635  0.76025  0.34522  1.0000
  H   H655      1.0  0.35839  0.71687  0.26978  1.0000
  H   H656      1.0  0.42427  0.70165  0.43830  1.0000
  Fe  Fe78      1.0  0.55792  0.72508  0.43910  1.0000
  S   S149      1.0  0.57011  0.49685  0.98967  1.0000
  C   C545      1.0  0.41282  0.97289  0.97727  1.0000
  C   C546      1.0  0.38845  0.76558  0.44467  1.0000
  H   H657      1.0  0.36677  0.58861  0.15215  1.0000
  H   H658      1.0  0.53802  0.96930  0.16210  1.0000
  H   H659      1.0  0.63988  0.92053  0.96427  1.0000
  C   C547      1.0  0.62432  0.49353  0.96252  1.0000
  C   C548      1.0  0.55396  0.48702  0.17682  1.0000
  C   C549      1.0  0.33418  0.58627  0.11817  1.0000
  C   C550      1.0  0.43139  0.48712  0.97838  1.0000
  S   S150      1.0  0.33248  0.62005  0.20411  1.0000
  H   H660      1.0  0.32853  0.79060  0.29268  1.0000
  S   S151      1.0  0.32664  0.71587  0.21039  1.0000
  H   H661      1.0  0.47938  0.94877  0.95600  1.0000
  H   H662      1.0  0.53559  0.94949  0.95628  1.0000
  C   C551      1.0  0.35735  0.64032  0.62599  1.0000
  S   S152      1.0  0.37134  0.49692  0.91334  1.0000
  Fe  Fe79      1.0  0.38724  0.63693  0.73331  1.0000
  S   S153      1.0  0.39268  0.60111  0.69857  1.0000
  S   S154      1.0  0.34087  0.64743  0.74953  1.0000
  Fe  Fe80      1.0  0.45268  0.65671  0.73009  1.0000
  S   S155      1.0  0.46314  0.62158  0.69556  1.0000
  S   S156      1.0  0.49081  0.68597  0.74689  1.0000
  Fe  Fe81      1.0  0.41993  0.63717  0.67572  1.0000
  S   S157      1.0  0.41724  0.65289  0.62914  1.0000
  Fe  Fe82      1.0  0.43508  0.58895  0.72189  1.0000
  S   S158      1.0  0.44336  0.53939  0.73600  1.0000
  S   S159      1.0  0.41141  0.67424  0.70864  1.0000
  S   S160      1.0  0.42771  0.62283  0.75823  1.0000
  C   C552      1.0  0.47653  0.74171  0.72058  1.0000
  C   C553      1.0  0.49657  0.72532  0.73789  1.0000
  H   H663      1.0  0.45629  0.73067  0.71335  1.0000
  C   C554      1.0  0.49555  0.53107  0.70469  1.0000
  H   H664      1.0  0.49057  0.55279  0.69413  1.0000
  C   C555      1.0  0.38114  0.65752  0.61502  1.0000
  C   C556      1.0  0.37620  0.67840  0.59226  1.0000
  H   H665      1.0  0.44673  0.72492  0.56342  1.0000
  H   H666      1.0  0.39458  0.69166  0.58357  1.0000
  H   H667      1.0  0.53978  0.74187  0.55131  1.0000
  H   H668      1.0  0.34369  0.69890  0.56363  1.0000
  C   C557      1.0  0.41271  0.77698  0.49920  1.0000
  C   C558      1.0  0.38185  0.77242  0.49629  1.0000
  H   H669      1.0  0.37743  0.69990  0.45862  1.0000
  H   H670      1.0  0.42210  0.78146  0.52033  1.0000
  H   H671      1.0  0.50955  0.75240  0.65839  1.0000
  C   C559      1.0  0.53095  0.67882  0.64213  1.0000
  C   C560      1.0  0.42565  0.66024  0.50203  1.0000
  C   C561      1.0  0.64864  0.88500  0.91769  1.0000
  H   H672      1.0  0.50004  0.95087  0.72327  1.0000
  H   H673      1.0  0.45521  0.70763  0.61254  1.0000
  H   H674      1.0  0.35701  0.59536  0.78799  1.0000
  N   N39       1.0  0.51017  0.70556  0.64236  1.0000
  H   H675      1.0  0.36750  0.77336  0.51512  1.0000
  Fe  Fe83      1.0  0.55182  0.85538  0.73167  1.0000
  C   C562      1.0  0.34476  0.71572  0.65993  1.0000
  C   C563      1.0  0.52157  0.73466  0.56525  1.0000
  C   C564      1.0  0.60610  0.90948  0.87747  1.0000
  C   C565      1.0  0.50369  0.71525  0.61224  1.0000
  C   C566      1.0  0.60172  0.80911  0.61059  1.0000
  C   C567      1.0  0.63930  0.77334  0.57395  1.0000
  C   C568      1.0  0.48323  0.49151  0.73965  1.0000
  S   S161      1.0  0.51637  0.82546  0.71054  1.0000
  C   C569      1.0  0.49265  0.73479  0.55449  1.0000
  H   H676      1.0  0.46032  0.95152  0.92201  1.0000
  C   C570      1.0  0.51045  0.97520  0.86636  1.0000
  C   C571      1.0  0.46592  0.65530  0.53767  1.0000
  S   S162      1.0  0.59953  0.84133  0.73743  1.0000
  C   C572      1.0  0.52418  0.73154  0.65839  1.0000
  C   C573      1.0  0.50872  0.78733  0.72229  1.0000
  C   C574      1.0  0.48273  0.77252  0.71263  1.0000
  C   C575      1.0  0.52248  0.74020  0.74763  1.0000
  C   C576      1.0  0.52851  0.77112  0.73997  1.0000
  H   H677      1.0  0.46724  0.78502  0.69908  1.0000
  H   H678      1.0  0.53803  0.72770  0.76112  1.0000
  H   H679      1.0  0.54860  0.78226  0.74754  1.0000
  H   H680      1.0  0.35820  0.97610  0.70304  1.0000
  C   C577      1.0  0.62650  0.96094  0.88331  1.0000
  H   H681      1.0  0.34269  0.96399  0.94962  1.0000
  C   C578      1.0  0.47655  0.51982  0.72628  1.0000
  C   C579      1.0  0.52072  0.51375  0.69622  1.0000
  C   C580      1.0  0.34744  0.68247  0.58089  1.0000
  C   C581      1.0  0.41781  0.63343  0.54831  1.0000
  H   H682      1.0  0.53505  0.52236  0.67919  1.0000
  H   H683      1.0  0.65386  0.76017  0.55980  1.0000
  C   C582      1.0  0.62589  0.72760  0.47918  1.0000
  C   C583      1.0  0.51196  0.96815  0.83681  1.0000
  H   H684      1.0  0.58995  0.86968  0.60236  1.0000
  H   H685      1.0  0.46667  0.53632  0.79730  1.0000
  H   H686      1.0  0.57900  0.95831  0.82603  1.0000
  H   H687      1.0  0.39525  0.49612  0.85615  1.0000
  H   H688      1.0  0.58299  0.79609  0.66388  1.0000
  H   H689      1.0  0.50729  0.90100  0.89202  1.0000
  S   S163      1.0  0.61986  0.85401  0.81905  1.0000
  H   H690      1.0  0.44154  0.49122  0.87810  1.0000
  H   H691      1.0  0.48841  0.74240  0.53246  1.0000
  H   H692      1.0  0.38942  0.70805  0.49486  1.0000
  C   C584      1.0  0.32881  0.64380  0.61414  1.0000
  H   H693      1.0  0.64597  0.68835  0.50030  1.0000
  H   H694      1.0  0.44569  0.92331  0.82503  1.0000
  H   H695      1.0  0.55295  0.68469  0.63260  1.0000
  C   C585      1.0  0.63208  0.80372  0.61738  1.0000
  C   C586      1.0  0.62838  0.75934  0.47368  1.0000
  H   H696      1.0  0.64482  0.91716  0.81851  1.0000
  H   H697      1.0  0.54604  0.73833  0.64916  1.0000
  Fe  Fe84      1.0  0.56321  0.92260  0.75003  1.0000
  H   H698      1.0  0.36364  0.70037  0.66610  1.0000
  C   C587      1.0  0.44698  0.63963  0.55652  1.0000
  C   C588      1.0  0.59319  0.86197  0.62511  1.0000
  C   C589      1.0  0.41865  0.55170  0.86741  1.0000
  C   C590      1.0  0.46919  0.72503  0.57200  1.0000
  H   H699      1.0  0.58100  0.87829  0.63963  1.0000
  S   S164      1.0  0.61228  0.91422  0.75624  1.0000
  S   S165      1.0  0.54905  0.88015  0.77459  1.0000
  H   H700      1.0  0.64222  0.81382  0.63627  1.0000
  H   H701      1.0  0.46679  0.71511  0.66061  1.0000
  H   H702      1.0  0.39020  0.62872  0.46484  1.0000
  H   H703      1.0  0.47243  0.67551  0.64885  1.0000
  H   H704      1.0  0.33872  0.70879  0.63759  1.0000
  C   C591      1.0  0.33605  0.60507  0.79509  1.0000
  H   H705      1.0  0.51235  0.50671  0.79692  1.0000
  C   C592      1.0  0.50826  0.92035  0.87723  1.0000
  C   C593      1.0  0.65402  0.86986  0.83061  1.0000
  C   C594      1.0  0.45560  0.66543  0.51076  1.0000
  Fe  Fe85      1.0  0.59813  0.87046  0.77790  1.0000
  S   S166      1.0  0.56260  0.89882  0.70676  1.0000
  H   H706      1.0  0.54993  0.72549  0.60099  1.0000
  H   H707      1.0  0.61729  0.86480  0.62990  1.0000
  H   H708      1.0  0.52835  0.72541  0.68148  1.0000
  H   H709      1.0  0.53536  0.67019  0.66447  1.0000
  C   C595      1.0  0.58680  0.82124  0.66026  1.0000
  N   N40       1.0  0.58327  0.82954  0.62922  1.0000
  H   H710      1.0  0.48150  0.91757  0.93106  1.0000
  C   C596      1.0  0.59138  0.95058  0.84485  1.0000
  C   C597      1.0  0.39573  0.51252  0.83762  1.0000
  C   C598      1.0  0.43564  0.94585  0.82173  1.0000
  C   C599      1.0  0.58945  0.91990  0.85386  1.0000
  C   C600      1.0  0.47446  0.71521  0.60039  1.0000
  H   H711      1.0  0.45484  0.63226  0.57758  1.0000
  H   H712      1.0  0.54583  0.83763  0.60081  1.0000
  C   C601      1.0  0.49673  0.50370  0.81466  1.0000
  C   C602      1.0  0.50851  0.95138  0.88755  1.0000
  H   H713      1.0  0.39615  0.57076  0.81789  1.0000
  H   H714      1.0  0.44163  0.71182  0.47163  1.0000
  H   H715      1.0  0.50992  0.88973  0.84022  1.0000
  H   H716      1.0  0.52156  0.65915  0.62946  1.0000
  C   C603      1.0  0.59102  0.79597  0.58431  1.0000
  C   C604      1.0  0.45654  0.49550  0.86017  1.0000
  H   H717      1.0  0.57087  0.83408  0.67439  1.0000
  H   H718      1.0  0.53750  0.84207  0.63815  1.0000
  C   C605      1.0  0.34647  0.48668  0.77556  1.0000
  H   H719      1.0  0.60911  0.82729  0.66883  1.0000
  H   H720      1.0  0.36101  0.62388  0.64325  1.0000
  H   H721      1.0  0.48888  0.68910  0.68149  1.0000
  H   H722      1.0  0.53632  0.91908  0.93010  1.0000
  H   H723      1.0  0.64018  0.97793  0.89396  1.0000
  C   C606      1.0  0.52710  0.72516  0.59369  1.0000
  H   H724      1.0  0.36723  0.67457  0.48709  1.0000
  C   C607      1.0  0.50979  0.91361  0.84765  1.0000
  H   H725      1.0  0.43119  0.50292  0.93414  1.0000
  H   H726      1.0  0.51311  0.93224  0.80458  1.0000
  C   C608      1.0  0.53491  0.94462  0.93260  1.0000
  C   C609      1.0  0.47021  0.52071  0.81523  1.0000
  H   H727      1.0  0.45724  0.95320  0.78067  1.0000
  N   N41       1.0  0.41367  0.67129  0.47403  1.0000
  H   H728      1.0  0.38446  0.63787  0.51615  1.0000
  C   C610      1.0  0.43148  0.77552  0.47488  1.0000
  C   C611      1.0  0.48332  0.69599  0.65888  1.0000
  S   S167      1.0  0.64497  0.88978  0.67997  1.0000
  Fe  Fe86      1.0  0.61026  0.88609  0.71538  1.0000
  H   H729      1.0  0.37385  0.52465  0.83781  1.0000
  C   C612      1.0  0.55095  0.82802  0.62257  1.0000
  H   H730      1.0  0.32973  0.57230  0.83019  1.0000
  H   H731      1.0  0.48873  0.65985  0.54400  1.0000
  H   H732      1.0  0.39799  0.56594  0.86865  1.0000
  C   C613      1.0  0.52746  0.48541  0.70962  1.0000
  C   C614      1.0  0.44201  0.96262  0.79673  1.0000
  N   N42       1.0  0.42088  0.53462  0.83955  1.0000
  H   H733      1.0  0.60152  0.76896  0.54604  1.0000
  H   H734      1.0  0.55542  0.95492  0.92298  1.0000
  C   C615      1.0  0.44932  0.51725  0.83823  1.0000
  C   C616      1.0  0.40726  0.64337  0.52145  1.0000
  H   H735      1.0  0.41762  0.53596  0.88641  1.0000
  C   C617      1.0  0.36972  0.76668  0.46896  1.0000
  H   H736      1.0  0.33997  0.74282  0.71219  1.0000
  H   H737      1.0  0.40071  0.49522  0.70030  1.0000
  H   H738      1.0  0.43566  0.57503  0.81610  1.0000
  H   H739      1.0  0.39725  0.49839  0.81755  1.0000
  H   H740      1.0  0.54255  0.80383  0.62388  1.0000
  H   H741      1.0  0.34995  0.70289  0.71519  1.0000
  H   H742      1.0  0.41701  0.54628  0.79423  1.0000
  C   C618      1.0  0.36568  0.50752  0.76208  1.0000
  S   S168      1.0  0.47022  0.77963  0.47910  1.0000
  C   C619      1.0  0.60966  0.97114  0.85973  1.0000
  H   H743      1.0  0.60394  0.88523  0.88269  1.0000
  C   C620      1.0  0.35467  0.53541  0.75147  1.0000
  H   H744      1.0  0.36980  0.55172  0.74130  1.0000
  S   S169      1.0  0.54652  0.97009  0.76392  1.0000
  H   H745      1.0  0.47152  0.67735  0.49724  1.0000
  C   C621      1.0  0.48118  0.94324  0.93245  1.0000
  C   C622      1.0  0.38579  0.68909  0.47891  1.0000
  H   H746      1.0  0.41138  0.94510  0.86193  1.0000
  C   C623      1.0  0.60969  0.77830  0.56637  1.0000
  C   C624      1.0  0.41636  0.95811  0.84245  1.0000
  C   C625      1.0  0.41781  0.49398  0.95171  1.0000
  C   C626      1.0  0.33123  0.71883  0.70995  1.0000
  C   C627      1.0  0.65046  0.78601  0.59939  1.0000
  H   H747      1.0  0.57580  0.90371  0.84178  1.0000
  N   N43       1.0  0.50782  0.95777  0.91907  1.0000
  C   C628      1.0  0.41738  0.55761  0.81589  1.0000
  H   H748      1.0  0.61175  0.77092  0.46073  1.0000
  S   S170      1.0  0.33157  0.75934  0.46404  1.0000
  S   S171      1.0  0.59621  0.70529  0.46519  1.0000
  H   H749      1.0  0.38919  0.50220  0.75990  1.0000
  C   C629      1.0  0.62585  0.92956  0.89251  1.0000
  H   H750      1.0  0.56859  0.79956  0.57676  1.0000
  C   C630      1.0  0.64772  0.71291  0.49602  1.0000
  H   H751      1.0  0.44087  0.51065  0.66701  1.0000
  H   H752      1.0  0.35318  0.73994  0.65897  1.0000
  C   C631      1.0  0.51168  0.93747  0.82751  1.0000
  H   H753      1.0  0.43806  0.56737  0.87046  1.0000
  H   H754      1.0  0.40316  0.62122  0.56312  1.0000
  C   C632      1.0  0.43455  0.69179  0.45810  1.0000
  C   C633      1.0  0.65271  0.77611  0.48474  1.0000
  C   C634      1.0  0.50325  0.48283  0.83672  1.0000
  C   C635      1.0  0.49664  0.97499  0.72879  1.0000
  H   H755      1.0  0.65459  0.80064  0.48030  1.0000
  C   C636      1.0  0.38717  0.48908  0.94762  1.0000
  C   C637      1.0  0.43925  0.48670  0.67393  1.0000
  H   H756      1.0  0.62792  0.87170  0.92190  1.0000
  N   N44       1.0  0.64356  0.91906  0.91774  1.0000
  H   H757      1.0  0.65579  0.83107  0.70925  1.0000
  C   C638      1.0  0.62728  0.92734  0.94454  1.0000
  H   H758      1.0  0.60510  0.91595  0.94545  1.0000
  H   H759      1.0  0.32573  0.66374  0.68526  1.0000
  H   H760      1.0  0.46859  0.48253  0.75624  1.0000
  H   H761      1.0  0.62336  0.95271  0.94599  1.0000
  C   C639      1.0  0.36497  0.97310  0.95210  1.0000
  C   C640      1.0  0.40713  0.64436  0.45516  1.0000
  Fe  Fe87      1.0  0.72121  0.39305  0.25481  1.0000
  S   S172      1.0  0.72976  0.36410  0.21515  1.0000
  S   S173      1.0  0.76025  0.42108  0.27130  1.0000
  Fe  Fe88      1.0  0.70420  0.32690  0.23841  1.0000
  S   S174      1.0  0.71143  0.27485  0.24192  1.0000
  S   S175      1.0  0.69887  0.35439  0.27950  1.0000
  Fe  Fe89      1.0  0.84295  0.15566  0.22916  1.0000
  S   S176      1.0  0.83765  0.12733  0.26968  1.0000
  S   S177      1.0  0.83747  0.20802  0.23026  1.0000
  H   H762      1.0  0.79649  0.45062  0.11262  1.0000
  C   C641      1.0  0.95145  0.15630  0.33713  1.0000
  H   H763      1.0  0.70833  0.39410  0.97051  1.0000
  S   S178      1.0  0.97009  0.24303  0.36222  1.0000
  S   S179      1.0  0.83024  0.44910  0.96970  1.0000
  Fe  Fe90      1.0  0.88117  0.10597  0.25652  1.0000
  S   S180      1.0  0.91536  0.08701  0.28764  1.0000
  H   H764      1.0  0.87572  0.99645  0.34582  1.0000
  S   S181      1.0  0.88833  0.13622  0.21764  1.0000
  H   H765      1.0  0.98338  0.09360  0.36897  1.0000
  C   C642      1.0  0.78744  0.22273  0.32817  1.0000
  H   H766      1.0  0.80530  0.24338  0.39685  1.0000
  H   H767      1.0  0.79231  0.08666  0.98191  1.0000
  Fe  Fe91      1.0  0.95878  0.26523  0.40491  1.0000
  H   H768      1.0  0.66236  0.39295  0.05799  1.0000
  H   H769      1.0  0.89675  0.03730  0.10591  1.0000
  H   H770      1.0  0.80494  0.41817  0.18597  1.0000
  C   C643      1.0  0.74331  0.46329  0.17889  1.0000
  S   S182      1.0  0.90922  0.27509  0.40908  1.0000
  C   C644      1.0  0.96972  0.10695  0.35431  1.0000
  C   C645      1.0  0.86891  0.01064  0.28966  1.0000
  H   H771      1.0  0.76853  0.21537  0.31531  1.0000
  H   H772      1.0  0.85114  0.02564  0.35980  1.0000
  H   H773      1.0  0.90889  0.21094  0.43465  1.0000
  C   C646      1.0  0.74689  0.00914  0.25303  1.0000
  H   H774      1.0  0.73231  0.47633  0.16112  1.0000
  H   H775      1.0  0.92544  0.11562  0.45453  1.0000
  H   H776      1.0  0.93061  0.16023  0.42134  1.0000
  C   C647      1.0  0.94399  0.04571  0.10523  1.0000
  S   S183      1.0  0.71066  0.01640  0.96311  1.0000
  C   C648      1.0  0.78839  0.02231  0.13826  1.0000
  C   C649      1.0  0.93526  0.10836  0.31388  1.0000
  C   C650      1.0  0.93438  0.14080  0.31585  1.0000
  H   H777      1.0  0.72478  0.02900  0.19460  1.0000
  C   C651      1.0  0.79344  0.00539  0.31654  1.0000
  H   H778      1.0  0.75136  0.01805  0.01114  1.0000
  C   C652      1.0  0.95294  0.09165  0.33322  1.0000
  H   H779      1.0  0.92104  0.15382  0.30072  1.0000
  C   C653      1.0  0.74300  0.99995  0.15958  1.0000
  C   C654      1.0  0.76335  0.04946  0.17684  1.0000
  H   H780      1.0  0.95384  0.06665  0.33181  1.0000
  S   S184      1.0  0.81820  0.12198  0.20087  1.0000
  H   H781      1.0  0.81138  0.03743  0.96160  1.0000
  S   S185      1.0  0.67836  0.41328  0.23886  1.0000
  H   H782      1.0  0.81015  0.46218  0.26791  1.0000
  H   H783      1.0  0.84728  0.27263  0.42416  1.0000
  H   H784      1.0  0.94067  0.00686  0.97414  1.0000
  Fe  Fe92      1.0  0.68542  0.38241  0.20048  1.0000
  C   C655      1.0  0.78666  0.04750  0.15703  1.0000
  H   H785      1.0  0.92794  0.10402  0.16754  1.0000
  H   H786      1.0  0.93188  0.45259  0.00845  1.0000
  N   N45       1.0  0.77057  0.44736  0.16840  1.0000
  H   H787      1.0  0.72670  0.44658  0.18772  1.0000
  S   S186      1.0  0.77458  0.06591  0.25277  1.0000
  C   C656      1.0  0.80336  0.46833  0.12770  1.0000
  C   C657      1.0  0.85970  0.27472  0.44404  1.0000
  H   H788      1.0  0.94822  0.02968  0.08769  1.0000
  C   C658      1.0  0.84475  0.07375  0.06259  1.0000
  H   H789      1.0  0.69401  0.22993  0.38032  1.0000
  C   C659      1.0  0.79174  0.47029  0.15633  1.0000
  C   C660      1.0  0.74668  0.25676  0.23841  1.0000
  C   C661      1.0  0.74857  0.22430  0.24022  1.0000
  C   C662      1.0  0.77615  0.20902  0.23743  1.0000
  C   C663      1.0  0.80215  0.22614  0.23286  1.0000
  C   C664      1.0  0.80032  0.25861  0.23134  1.0000
  C   C665      1.0  0.77272  0.27388  0.23404  1.0000
  H   H790      1.0  0.72856  0.21086  0.24360  1.0000
  H   H791      1.0  0.77727  0.18403  0.23880  1.0000
  H   H792      1.0  0.82031  0.27204  0.22782  1.0000
  H   H793      1.0  0.77157  0.29886  0.23265  1.0000
  C   C666      1.0  0.78386  0.22897  0.35756  1.0000
  N   N46       1.0  0.86965  0.23992  0.31634  1.0000
  C   C667      1.0  0.86669  0.26225  0.29211  1.0000
  C   C668      1.0  0.89351  0.25160  0.33571  1.0000
  C   C669      1.0  0.87958  0.20964  0.30454  1.0000
  C   C670      1.0  0.84052  0.23613  0.33099  1.0000
  C   C671      1.0  0.83617  0.24214  0.36101  1.0000
  H   H794      1.0  0.85772  0.28484  0.29989  1.0000
  H   H795      1.0  0.88842  0.26666  0.28125  1.0000
  H   H796      1.0  0.85156  0.25372  0.27486  1.0000
  H   H797      1.0  0.88776  0.27462  0.34515  1.0000
  H   H798      1.0  0.91499  0.25465  0.32400  1.0000
  H   H799      1.0  0.89804  0.23527  0.35382  1.0000
  H   H800      1.0  0.86415  0.20052  0.28778  1.0000
  H   H801      1.0  0.90180  0.21137  0.29392  1.0000
  H   H802      1.0  0.88112  0.19193  0.32196  1.0000
  H   H803      1.0  0.85398  0.24974  0.37499  1.0000
  H   H804      1.0  0.74515  0.40659  0.15729  1.0000
  N   N47       1.0  0.79241  0.04307  0.00441  1.0000
  H   H805      1.0  0.85639  0.00738  0.26918  1.0000
  H   H806      1.0  0.68894  0.40623  0.01866  1.0000
  C   C672      1.0  0.79751  0.02466  0.97766  1.0000
  C   C673      1.0  0.82011  0.05027  0.02043  1.0000
  C   C674      1.0  0.93234  0.08763  0.15031  1.0000
  C   C675      1.0  0.69664  0.97965  0.18211  1.0000
  H   H807      1.0  0.65981  0.18696  0.39188  1.0000
  C   C676      1.0  0.89091  0.27661  0.44305  1.0000
  C   C677      1.0  0.77184  0.02503  0.02309  1.0000
  H   H808      1.0  0.74770  0.99043  0.31785  1.0000
  H   H809      1.0  0.88143  0.98898  0.29393  1.0000
  H   H810      1.0  0.76391  0.03846  0.04212  1.0000
  H   H811      1.0  0.79065  0.44426  0.33204  1.0000
  C   C678      1.0  0.91522  0.46477  0.99600  1.0000
  C   C679      1.0  0.74183  0.02611  0.17830  1.0000
  C   C680      1.0  0.81532  0.22605  0.31508  1.0000
  H   H812      1.0  0.72705  0.02170  0.25930  1.0000
  H   H813      1.0  0.89630  0.04332  0.01683  1.0000
  C   C681      1.0  0.91900  0.16292  0.44184  1.0000
  C   C682      1.0  0.97599  0.04676  0.21137  1.0000
  C   C683      1.0  0.73708  0.47829  0.25672  1.0000
  H   H814      1.0  0.76936  0.41455  0.20362  1.0000
  H   H815      1.0  0.71545  0.46742  0.25708  1.0000
  H   H816      1.0  0.80670  0.02092  0.12303  1.0000
  C   C684      1.0  0.87254  0.06568  0.05151  1.0000
  C   C685      1.0  0.87459  0.04965  0.02541  1.0000
  C   C686      1.0  0.86568  0.01944  0.34111  1.0000
  H   H817      1.0  0.84339  0.08626  0.08301  1.0000
  N   N48       1.0  0.84856  0.01927  0.31376  1.0000
  H   H818      1.0  0.83386  0.98861  0.17862  1.0000
  C   C687      1.0  0.68505  0.40014  0.97323  1.0000
  S   S187      1.0  0.68000  0.40650  0.15730  1.0000
  H   H819      1.0  0.85713  0.06789  0.30599  1.0000
  C   C688      1.0  0.83821  0.05144  0.30836  1.0000
  S   S188      1.0  0.87176  0.07597  0.14968  1.0000
  H   H820      1.0  0.88188  0.42913  0.00100  1.0000
  H   H821      1.0  0.88428  0.03655  0.34029  1.0000
  H   H822      1.0  0.86531  0.99420  0.13581  1.0000
  Fe  Fe93      1.0  0.81661  0.09186  0.24042  1.0000
  C   C689      1.0  0.67446  0.22625  0.36703  1.0000
  C   C690      1.0  0.79895  0.00893  0.23996  1.0000
  H   H823      1.0  0.76222  0.22639  0.36769  1.0000
  C   C691      1.0  0.81886  0.06634  0.04728  1.0000
  S   S189      1.0  0.98156  0.22873  0.43120  1.0000
  C   C692      1.0  0.91483  0.05002  0.11553  1.0000
  H   H824      1.0  0.78628  0.02922  0.31492  1.0000
  Fe  Fe94      1.0  0.86296  0.10005  0.19268  1.0000
  H   H825      1.0  0.95104  0.18128  0.33845  1.0000
  S   S190      1.0  0.85965  0.06817  0.23060  1.0000
  C   C693      1.0  0.66833  0.24610  0.34387  1.0000
  C   C694      1.0  0.90888  0.07092  0.13807  1.0000
  C   C695      1.0  0.91882  0.99686  0.97121  1.0000
  H   H826      1.0  0.79787  0.07380  0.05642  1.0000
  C   C696      1.0  0.82395  0.99655  0.31594  1.0000
  C   C697      1.0  0.96748  0.06243  0.11742  1.0000
  C   C698      1.0  0.77346  0.02536  0.24792  1.0000
  H   H827      1.0  0.78268  0.00347  0.03098  1.0000
  H   H828      1.0  0.77080  0.08660  0.01473  1.0000
  H   H829      1.0  0.74920  0.43377  0.12857  1.0000
  S   S191      1.0  0.66046  0.34242  0.21962  1.0000
  H   H830      1.0  0.98900  0.11283  0.07282  1.0000
  H   H831      1.0  0.81697  0.22072  0.29226  1.0000
  H   H832      1.0  0.80835  0.00208  0.98241  1.0000
  H   H833      1.0  0.82441  0.06052  0.32652  1.0000
  H   H834      1.0  0.70560  0.98068  0.20450  1.0000
  H   H835      1.0  0.76217  0.06908  0.19154  1.0000
  C   C699      1.0  0.96154  0.08356  0.13983  1.0000
  H   H836      1.0  0.96834  0.15829  0.04740  1.0000
  H   H837      1.0  0.89259  0.07223  0.06299  1.0000
  C   C700      1.0  0.84887  0.04214  0.00994  1.0000
  H   H838      1.0  0.75673  0.06765  0.98322  1.0000
  H   H839      1.0  0.79189  0.44737  0.21030  1.0000
  C   C701      1.0  0.90681  0.19148  0.44939  1.0000
  C   C702      1.0  0.67366  0.40700  0.00069  1.0000
  H   H840      1.0  0.81922  0.02110  0.23537  1.0000
  C   C703      1.0  0.78480  0.43117  0.19304  1.0000
  C   C704      1.0  0.97632  0.03910  0.24061  1.0000
  C   C705      1.0  0.67133  0.01437  0.96489  1.0000
  C   C706      1.0  0.80818  0.23855  0.37395  1.0000
  C   C707      1.0  0.76104  0.42333  0.14731  1.0000
  H   H841      1.0  0.80353  0.06549  0.15643  1.0000
  H   H842      1.0  0.86465  0.99950  0.08580  1.0000
  C   C708      1.0  0.77747  0.07227  0.99579  1.0000
  H   H843      1.0  0.69598  0.99386  0.12488  1.0000
  H   H844      1.0  0.77621  0.01922  0.96653  1.0000
  H   H845      1.0  0.88606  0.02875  0.28566  1.0000
  C   C709      1.0  0.76701  0.99876  0.13952  1.0000
  C   C710      1.0  0.88691  0.45152  0.99172  1.0000
  C   C711      1.0  0.78337  0.46818  0.33370  1.0000
  C   C712      1.0  0.76250  0.46090  0.26299  1.0000
  H   H846      1.0  0.67133  0.44724  0.04773  1.0000
  H   H847      1.0  0.68389  0.00122  0.17766  1.0000
  H   H848      1.0  0.85225  0.03038  0.98959  1.0000
  C   C713      1.0  0.96929  0.13927  0.35636  1.0000
  H   H849      1.0  0.66573  0.25334  0.42642  1.0000
  H   H850      1.0  0.82505  0.05286  0.28806  1.0000
  H   H851      1.0  0.67076  0.00559  0.01082  1.0000
  C   C714      1.0  0.86522  0.46683  0.97513  1.0000
  H   H852      1.0  0.78017  0.40932  0.13935  1.0000
  H   H853      1.0  0.66139  0.23692  0.27179  1.0000
  H   H854      1.0  0.97957  0.09671  0.14928  1.0000
  H   H855      1.0  0.68417  0.26444  0.34003  1.0000
  H   H856      1.0  0.67778  0.28453  0.29546  1.0000
  C   C715      1.0  0.98799  0.14680  0.03891  1.0000
  C   C716      1.0  0.79040  0.47549  0.26297  1.0000
  H   H857      1.0  0.73707  0.45600  0.33235  1.0000
  H   H858      1.0  0.90846  0.98131  0.11345  1.0000
  H   H859      1.0  0.87895  0.98017  0.05464  1.0000
  C   C717      1.0  0.75305  0.47474  0.33386  1.0000
  H   H860      1.0  0.96308  0.05238  0.25592  1.0000
  C   C718      1.0  0.77083  0.98322  0.31819  1.0000
  H   H861      1.0  0.96243  0.06602  0.20405  1.0000
  H   H862      1.0  0.76956  0.97937  0.12492  1.0000
  C   C719      1.0  0.66647  0.25257  0.62438  1.0000
  H   H863      1.0  0.70088  0.40361  0.69925  1.0000
  Fe  Fe95      1.0  0.75755  0.02122  0.86010  1.0000
  H   H864      1.0  0.91464  0.06485  0.82307  1.0000
  S   S192      1.0  0.75593  0.04705  0.81757  1.0000
  C   C720      1.0  0.94317  0.38450  0.73359  1.0000
  H   H865      1.0  0.66813  0.29844  0.53075  1.0000
  C   C721      1.0  0.89891  0.05831  0.80554  1.0000
  C   C722      1.0  0.70402  0.41868  0.77138  1.0000
  H   H866      1.0  0.80713  0.14962  0.70382  1.0000
  H   H867      1.0  0.77524  0.16447  0.74576  1.0000
  Fe  Fe96      1.0  0.79277  0.26901  0.53579  1.0000
  S   S193      1.0  0.77630  0.22108  0.52581  1.0000
  S   S194      1.0  0.84178  0.28065  0.53041  1.0000
  Fe  Fe97      1.0  0.73209  0.28963  0.56074  1.0000
  S   S195      1.0  0.71167  0.24299  0.55297  1.0000
  S   S196      1.0  0.70083  0.32815  0.57482  1.0000
  Fe  Fe98      1.0  0.75497  0.22412  0.56979  1.0000
  S   S197      1.0  0.75626  0.18583  0.60299  1.0000
  Fe  Fe99      1.0  0.73464  0.24477  0.50995  1.0000
  C   C723      1.0  0.84435  0.27568  0.47064  1.0000
  S   S198      1.0  0.77365  0.27070  0.58102  1.0000
  S   S199      1.0  0.75300  0.29268  0.51657  1.0000
  H   H868      1.0  0.93073  0.28129  0.46844  1.0000
  Fe  Fe100     1.0  0.89222  0.13261  0.74891  1.0000
  S   S200      1.0  0.88535  0.09655  0.71460  1.0000
  S   S201      1.0  0.86178  0.13933  0.78751  1.0000
  Fe  Fe101     1.0  0.95266  0.15393  0.72441  1.0000
  S   S202      1.0  0.95013  0.11890  0.68843  1.0000
  C   C724      1.0  0.66544  0.35043  0.61862  1.0000
  Fe  Fe102     1.0  0.90228  0.13388  0.68454  1.0000
  S   S203      1.0  0.88695  0.14772  0.63972  1.0000
  Fe  Fe103     1.0  0.93381  0.08504  0.72164  1.0000
  H   H869      1.0  0.91191  0.05900  0.78508  1.0000
  S   S204      1.0  0.90584  0.17100  0.71857  1.0000
  S   S205      1.0  0.93941  0.11910  0.75793  1.0000
  C   C725      1.0  0.79278  0.18109  0.75268  1.0000
  Fe  Fe104     1.0  0.73619  0.00675  0.92152  1.0000
  H   H870      1.0  0.67569  0.39610  0.92788  1.0000
  C   C726      1.0  0.67465  0.22569  0.46422  1.0000
  C   C727      1.0  0.71515  0.44685  0.71820  1.0000
  C   C728      1.0  0.79240  0.17630  0.61474  1.0000
  C   C729      1.0  0.79675  0.15155  0.63394  1.0000
  C   C730      1.0  0.82566  0.14317  0.64267  1.0000
  C   C731      1.0  0.85024  0.15986  0.63256  1.0000
  C   C732      1.0  0.84573  0.18512  0.61405  1.0000
  C   C733      1.0  0.81697  0.19318  0.60498  1.0000
  H   H871      1.0  0.77780  0.13836  0.64146  1.0000
  H   H872      1.0  0.82899  0.12322  0.65642  1.0000
  H   H873      1.0  0.86458  0.19853  0.60667  1.0000
  H   H874      1.0  0.81377  0.21255  0.59050  1.0000
  C   C734      1.0  0.69015  0.33197  0.61144  1.0000
  C   C735      1.0  0.67150  0.33811  0.66953  1.0000
  C   C736      1.0  0.83466  0.21229  0.73929  1.0000
  N   N49       1.0  0.96547  0.40938  0.72898  1.0000
  H   H875      1.0  0.89314  0.02689  0.75182  1.0000
  C   C737      1.0  0.70563  0.31676  0.63344  1.0000
  H   H876      1.0  0.67533  0.26566  0.60628  1.0000
  S   S206      1.0  0.77160  0.03860  0.90379  1.0000
  H   H877      1.0  0.72482  0.30275  0.62810  1.0000
  H   H878      1.0  0.85097  0.21920  0.72236  1.0000
  H   H879      1.0  0.67886  0.44614  0.81802  1.0000
  C   C738      1.0  0.89131  0.28141  0.49549  1.0000
  C   C739      1.0  0.86010  0.27934  0.49647  1.0000
  H   H880      1.0  0.93163  0.37781  0.71331  1.0000
  H   H881      1.0  0.94253  0.44606  0.92911  1.0000
  C   C740      1.0  0.78581  0.07219  0.80940  1.0000
  C   C741      1.0  0.80259  0.08599  0.83136  1.0000
  C   C742      1.0  0.82573  0.10660  0.82433  1.0000
  C   C743      1.0  0.83317  0.11249  0.79533  1.0000
  C   C744      1.0  0.81702  0.09791  0.77334  1.0000
  C   C745      1.0  0.79289  0.07855  0.78039  1.0000
  H   H882      1.0  0.79720  0.08147  0.85378  1.0000
  H   H883      1.0  0.83800  0.11792  0.84146  1.0000
  H   H884      1.0  0.82259  0.10202  0.75093  1.0000
  H   H885      1.0  0.78002  0.06794  0.76329  1.0000
  H   H886      1.0  0.97533  0.39422  0.68524  1.0000
  H   H887      1.0  0.69213  0.33604  0.45998  1.0000
  S   S207      1.0  0.72160  0.40403  0.88256  1.0000
  H   H888      1.0  0.69491  0.31178  0.49104  1.0000
  C   C746      1.0  0.67896  0.22403  0.63134  1.0000
  C   C747      1.0  0.66472  0.42692  0.87427  1.0000
  H   H889      1.0  0.69605  0.36632  0.83828  1.0000
  C   C748      1.0  0.71431  0.44976  0.77135  1.0000
  H   H890      1.0  0.69133  0.37872  0.74639  1.0000
  N   N50       1.0  0.81064  0.19227  0.72767  1.0000
  H   H891      1.0  0.83057  0.21876  0.67707  1.0000
  C   C749      1.0  0.67958  0.38340  0.84448  1.0000
  H   H892      1.0  0.83718  0.15070  0.72946  1.0000
  C   C750      1.0  0.79301  0.20966  0.70602  1.0000
  C   C751      1.0  0.80705  0.22203  0.68101  1.0000
  C   C752      1.0  0.76179  0.21462  0.70878  1.0000
  C   C753      1.0  0.79091  0.23831  0.66015  1.0000
  C   C754      1.0  0.74586  0.23080  0.68763  1.0000
  C   C755      1.0  0.76037  0.24246  0.66333  1.0000
  H   H893      1.0  0.84777  0.20018  0.75637  1.0000
  H   H894      1.0  0.82537  0.23384  0.74900  1.0000
  H   H895      1.0  0.78234  0.20063  0.76472  1.0000
  H   H896      1.0  0.69903  0.40678  0.79133  1.0000
  H   H897      1.0  0.74909  0.20606  0.72692  1.0000
  H   H898      1.0  0.80203  0.24710  0.64099  1.0000
  H   H899      1.0  0.72207  0.23420  0.68992  1.0000
  H   H900      1.0  0.74790  0.25439  0.64668  1.0000
  H   H901      1.0  0.96058  0.02867  0.67410  1.0000
  H   H902      1.0  0.84035  0.17123  0.69632  1.0000
  N   N51       1.0  0.87496  0.17392  0.52463  1.0000
  C   C756      1.0  0.86482  0.20602  0.53081  1.0000
  C   C757      1.0  0.84849  0.15350  0.52642  1.0000
  C   C758      1.0  0.89619  0.16509  0.54778  1.0000
  C   C759      1.0  0.88940  0.17045  0.49591  1.0000
  C   C760      1.0  0.89211  0.19529  0.47588  1.0000
  C   C761      1.0  0.90151  0.14146  0.48723  1.0000
  S   S208      1.0  0.71885  0.99345  0.87755  1.0000
  H   H903      1.0  0.68151  0.29605  0.45783  1.0000
  N   N52       1.0  0.71815  0.46663  0.79904  1.0000
  H   H904      1.0  0.84758  0.21382  0.51515  1.0000
  H   H905      1.0  0.85443  0.20821  0.55260  1.0000
  H   H906      1.0  0.88360  0.22283  0.53036  1.0000
  H   H907      1.0  0.85435  0.12859  0.52443  1.0000
  H   H908      1.0  0.83225  0.15910  0.50901  1.0000
  H   H909      1.0  0.83663  0.15623  0.54755  1.0000
  H   H910      1.0  0.88636  0.16810  0.56974  1.0000
  H   H911      1.0  0.90298  0.14041  0.54655  1.0000
  H   H912      1.0  0.91668  0.17955  0.54678  1.0000
  H   H913      1.0  0.88314  0.21802  0.48014  1.0000
  H   H914      1.0  0.89980  0.12136  0.50104  1.0000
  C   C762      1.0  0.92302  0.45350  0.91722  1.0000
  H   H915      1.0  0.82033  0.27413  0.47113  1.0000
  H   H916      1.0  0.71923  0.45768  0.69741  1.0000
  C   C763      1.0  0.98258  0.41270  0.75628  1.0000
  C   C764      1.0  0.68624  0.40510  0.86615  1.0000
  C   C765      1.0  0.91843  0.46585  0.68529  1.0000
  C   C766      1.0  0.82088  0.00757  0.74370  1.0000
  H   H917      1.0  0.90365  0.28429  0.51538  1.0000
  H   H918      1.0  0.85455  0.04609  0.84283  1.0000
  H   H919      1.0  0.92530  0.00719  0.82719  1.0000
  C   C767      1.0  0.90845  0.00360  0.80988  1.0000
  S   S209      1.0  0.85034  0.00732  0.91470  1.0000
  C   C768      1.0  0.87256  0.44433  0.90193  1.0000
  N   N53       1.0  0.88493  0.02768  0.81081  1.0000
  H   H920      1.0  0.67663  0.19495  0.50078  1.0000
  H   H921      1.0  0.90481  0.46558  0.66595  1.0000
  S   S210      1.0  0.78898  0.45519  0.89425  1.0000
  C   C769      1.0  0.86255  0.02103  0.78812  1.0000
  C   C770      1.0  0.89809  0.43440  0.91615  1.0000
  C   C771      1.0  0.95060  0.43838  0.71977  1.0000
  H   H922      1.0  0.89821  0.41223  0.92713  1.0000
  H   H923      1.0  0.90889  0.02393  0.93322  1.0000
  Fe  Fe105     1.0  0.80168  0.99693  0.90482  1.0000
  H   H924      1.0  0.80680  0.16847  0.76866  1.0000
  C   C772      1.0  0.69947  0.40235  0.74568  1.0000
  C   C773      1.0  0.93226  0.43866  0.69478  1.0000
  H   H925      1.0  0.85692  0.01616  0.71410  1.0000
  S   S211      1.0  0.71193  0.23848  0.46658  1.0000
  H   H926      1.0  0.95385  0.22825  0.74356  1.0000
  S   S212      1.0  0.95217  0.03858  0.73649  1.0000
  C   C774      1.0  0.95438  0.46711  0.73449  1.0000
  C   C775      1.0  0.71991  0.46343  0.74387  1.0000
  Fe  Fe106     1.0  0.74075  0.44689  0.90360  1.0000
  C   C776      1.0  0.66671  0.40149  0.94907  1.0000
  C   C777      1.0  0.68896  0.46912  0.81390  1.0000
  H   H927      1.0  0.88182  0.07683  0.80427  1.0000
  C   C778      1.0  0.82437  0.16480  0.71369  1.0000
  C   C779      1.0  0.70488  0.41640  0.71911  1.0000
  H   H928      1.0  0.96031  0.28481  0.75186  1.0000
  H   H929      1.0  0.67773  0.18506  0.66001  1.0000
  H   H930      1.0  0.70840  0.30796  0.67929  1.0000
  C   C780      1.0  0.87230  0.02821  0.84061  1.0000
  C   C781      1.0  0.83255  0.01322  0.79456  1.0000
  C   C782      1.0  0.69632  0.31983  0.66238  1.0000
  C   C783      1.0  0.73914  0.44945  0.81790  1.0000
  C   C784      1.0  0.97217  0.01081  0.71605  1.0000
  C   C785      1.0  0.97246  0.01085  0.68579  1.0000
  H   H931      1.0  0.73070  0.42622  0.82408  1.0000
  H   H932      1.0  0.98747  0.98723  0.75432  1.0000
  C   C786      1.0  0.71157  0.98308  0.77497  1.0000
  C   C787      1.0  0.68089  0.31695  0.47188  1.0000
  C   C788      1.0  0.98652  0.39923  0.70612  1.0000
  H   H933      1.0  0.82394  0.01302  0.81634  1.0000
  C   C789      1.0  0.87234  0.99363  0.94379  1.0000
  C   C790      1.0  0.97915  0.27092  0.74521  1.0000
  C   C791      1.0  0.81219  0.00642  0.77261  1.0000
  C   C792      1.0  0.90671  0.27968  0.46893  1.0000
  H   H934      1.0  0.95381  0.36282  0.74177  1.0000
  H   H935      1.0  0.88940  0.03376  0.85723  1.0000
  H   H936      1.0  0.66470  0.34925  0.51840  1.0000
  H   H937      1.0  0.86288  0.00533  0.84694  1.0000
  H   H938      1.0  0.74329  0.46186  0.83864  1.0000
  H   H939      1.0  0.85294  0.42971  0.90193  1.0000
  C   C793      1.0  0.66303  0.20362  0.48330  1.0000
  H   H940      1.0  0.96801  0.41991  0.77459  1.0000
  H   H941      1.0  0.92602  0.39176  0.74964  1.0000
  S   S213      1.0  0.74664  0.45558  0.95110  1.0000
  H   H942      1.0  0.69732  0.21486  0.61860  1.0000
  C   C794      1.0  0.97542  0.23884  0.74049  1.0000
  C   C795      1.0  0.85013  0.01506  0.73661  1.0000
  H   H943      1.0  0.66957  0.44366  0.89107  1.0000
  H   H944      1.0  0.71061  0.00754  0.78041  1.0000
  H   H945      1.0  0.92078  0.00366  0.78893  1.0000
  H   H946      1.0  0.92891  0.41792  0.68209  1.0000
  H   H947      1.0  0.76107  0.44618  0.80710  1.0000
  H   H948      1.0  0.65948  0.37337  0.48760  1.0000
  C   C796      1.0  0.87073  0.02146  0.75843  1.0000
  Fe  Fe107     1.0  0.79391  0.46880  0.94078  1.0000
  H   H949      1.0  0.66426  0.02372  0.91974  1.0000
  S   S214      1.0  0.66031  0.34070  0.70608  1.0000
  S   S215      1.0  0.78949  0.98147  0.85997  1.0000
  H   H950      1.0  0.96859  0.46963  0.75314  1.0000
  H   H951      1.0  0.80481  0.00300  0.72678  1.0000
  H   H952      1.0  0.68020  0.98669  0.74012  1.0000
  H   H953      1.0  0.78922  0.00135  0.77815  1.0000
  C   C797      1.0  0.90077  0.00644  0.94799  1.0000
  C   C798      1.0  0.98749  0.98739  0.73091  1.0000
  C   C799      1.0  0.66792  0.20732  0.65477  1.0000
  H   H954      1.0  0.89875  0.98008  0.81283  1.0000
  C   C800      1.0  0.87173  0.47353  0.88890  1.0000
  H   H955      1.0  0.98750  0.98719  0.64717  1.0000
  C   C801      1.0  0.98763  0.98727  0.67059  1.0000
  C   C802      1.0  0.91616  0.13788  0.46064  1.0000
  Fe  Fe108     1.0  0.72926  0.89254  0.23794  1.0000
  S   S216      1.0  0.72430  0.86099  0.19964  1.0000
  S   S217      1.0  0.77233  0.91957  0.24047  1.0000
  Fe  Fe109     1.0  0.70817  0.82517  0.23108  1.0000
  S   S218      1.0  0.71806  0.77391  0.23721  1.0000
  S   S219      1.0  0.71704  0.85540  0.26950  1.0000
  Fe  Fe110     1.0  0.84212  0.65089  0.21870  1.0000
  S   S220      1.0  0.82240  0.63365  0.26012  1.0000
  S   S221      1.0  0.83684  0.70112  0.20498  1.0000
  H   H956      1.0  0.69961  0.76638  0.38575  1.0000
  H   H957      1.0  0.72817  0.77419  0.30805  1.0000
  H   H958      1.0  0.71983  0.52345  0.24584  1.0000
  Fe  Fe111     1.0  0.87427  0.58958  0.20719  1.0000
  C   C803      1.0  0.69415  0.81402  0.34044  1.0000
  Fe  Fe112     1.0  0.86806  0.61480  0.26881  1.0000
  S   S222      1.0  0.88205  0.62199  0.31537  1.0000
  H   H959      1.0  0.94092  0.52729  0.07427  1.0000
  S   S223      1.0  0.88868  0.63424  0.22842  1.0000
  C   C804      1.0  0.77194  0.96025  0.24347  1.0000
  H   H960      1.0  0.82731  0.48532  0.33335  1.0000
  H   H961      1.0  0.80729  0.56156  0.29069  1.0000
  C   C805      1.0  0.71391  0.76434  0.32558  1.0000
  Fe  Fe113     1.0  0.96786  0.75564  0.42709  1.0000
  Fe  Fe114     1.0  0.81394  0.58898  0.23671  1.0000
  C   C806      1.0  0.76755  0.52455  0.25003  1.0000
  S   S224      1.0  0.97569  0.76066  0.37920  1.0000
  C   C807      1.0  0.94557  0.58723  0.15801  1.0000
  C   C808      1.0  0.93039  0.55899  0.15920  1.0000
  C   C809      1.0  0.80768  0.53355  0.04752  1.0000
  H   H962      1.0  0.71945  0.92573  0.16988  1.0000
  C   C810      1.0  0.82007  0.94222  0.16838  1.0000
  C   C811      1.0  0.79298  0.50711  0.25621  1.0000
  C   C812      1.0  0.81583  0.55571  0.06798  1.0000
  C   C813      1.0  0.85964  0.52308  0.03786  1.0000
  H   H963      1.0  0.84176  0.97216  0.06686  1.0000
  H   H964      1.0  0.82115  0.54901  0.38114  1.0000
  S   S225      1.0  0.95734  0.51092  0.98713  1.0000
  C   C814      1.0  0.67711  0.76087  0.37941  1.0000
  S   S226      1.0  0.89562  0.55502  0.17649  1.0000
  H   H965      1.0  0.70856  0.74009  0.31918  1.0000
  C   C815      1.0  0.91612  0.64046  0.32327  1.0000
  C   C816      1.0  0.94013  0.63931  0.30398  1.0000
  C   C817      1.0  0.96744  0.65306  0.31152  1.0000
  C   C818      1.0  0.97073  0.66851  0.33809  1.0000
  C   C819      1.0  0.94646  0.67032  0.35704  1.0000
  C   C820      1.0  0.91935  0.65605  0.34976  1.0000
  H   H966      1.0  0.93793  0.62720  0.28359  1.0000
  C   C821      1.0  0.66657  0.76752  0.35112  1.0000
  H   H967      1.0  0.94877  0.68218  0.37756  1.0000
  H   H968      1.0  0.90085  0.65711  0.36476  1.0000
  S   S227      1.0  0.76968  0.56433  0.24148  1.0000
  H   H969      1.0  0.89286  0.92621  0.05547  1.0000
  S   S228      1.0  0.85786  0.56852  0.24888  1.0000
  S   S229      1.0  0.91947  0.75220  0.44149  1.0000
  H   H970      1.0  0.70849  0.82669  0.32484  1.0000
  C   C822      1.0  0.82228  0.91773  0.14888  1.0000
  H   H971      1.0  0.85054  0.57943  0.08940  1.0000
  S   S230      1.0  0.66006  0.83952  0.22663  1.0000
  H   H972      1.0  0.93671  0.60725  0.16923  1.0000
  C   C823      1.0  0.76404  0.52956  0.33584  1.0000
  H   H973      1.0  0.70630  0.81330  0.36132  1.0000
  H   H974      1.0  0.66629  0.76357  0.29107  1.0000
  S   S231      1.0  0.70702  0.53078  0.97239  1.0000
  S   S232      1.0  0.68304  0.91184  0.23577  1.0000
  H   H975      1.0  0.78436  0.52918  0.04305  1.0000
  H   H976      1.0  0.68835  0.95383  0.13201  1.0000
  C   C824      1.0  0.73960  0.51006  0.25050  1.0000
  N   N54       1.0  0.90090  0.55197  0.06281  1.0000
  H   H977      1.0  0.91687  0.50595  0.05158  1.0000
  C   C825      1.0  0.75178  0.75472  0.22876  1.0000
  C   C826      1.0  0.75422  0.72299  0.23500  1.0000
  C   C827      1.0  0.78026  0.70645  0.22809  1.0000
  C   C828      1.0  0.80413  0.72151  0.21474  1.0000
  C   C829      1.0  0.80196  0.75339  0.20892  1.0000
  C   C830      1.0  0.77589  0.77000  0.21596  1.0000
  H   H978      1.0  0.73562  0.71096  0.24477  1.0000
  H   H979      1.0  0.78152  0.68189  0.23243  1.0000
  H   H980      1.0  0.82032  0.76518  0.19853  1.0000
  H   H981      1.0  0.77422  0.79443  0.21103  1.0000
  S   S233      1.0  0.82945  0.60791  0.19400  1.0000
  H   H982      1.0  0.81860  0.96399  0.23334  1.0000
  H   H983      1.0  0.93047  0.51126  0.14550  1.0000
  C   C831      1.0  0.80736  0.94238  0.31894  1.0000
  C   C832      1.0  0.90685  0.57429  0.08661  1.0000
  H   H984      1.0  0.66689  0.74308  0.42201  1.0000
  H   H985      1.0  0.85568  0.91675  0.06525  1.0000
  C   C833      1.0  0.97200  0.58969  0.14166  1.0000
  N   N55       1.0  0.87778  0.72716  0.28527  1.0000
  C   C834      1.0  0.85772  0.70028  0.28167  1.0000
  C   C835      1.0  0.86861  0.75185  0.26476  1.0000
  C   C836      1.0  0.90827  0.71715  0.27685  1.0000
  C   C837      1.0  0.87560  0.73823  0.31555  1.0000
  C   C838      1.0  0.89909  0.73465  0.33583  1.0000
  C   C839      1.0  0.84859  0.75121  0.32610  1.0000
  C   C840      1.0  0.89560  0.74362  0.36471  1.0000
  C   C841      1.0  0.84555  0.76054  0.35498  1.0000
  C   C842      1.0  0.86905  0.75672  0.37426  1.0000
  H   H986      1.0  0.83386  0.70670  0.28393  1.0000
  H   H987      1.0  0.86028  0.68965  0.25991  1.0000
  H   H988      1.0  0.86260  0.68201  0.29796  1.0000
  H   H989      1.0  0.84458  0.75766  0.26645  1.0000
  H   H990      1.0  0.87181  0.74451  0.24180  1.0000
  H   H991      1.0  0.88166  0.77341  0.26831  1.0000
  H   H992      1.0  0.91560  0.69664  0.28951  1.0000
  H   H993      1.0  0.90939  0.70983  0.25372  1.0000
  H   H994      1.0  0.92473  0.73612  0.27989  1.0000
  H   H995      1.0  0.92033  0.72458  0.33015  1.0000
  H   H996      1.0  0.82946  0.75370  0.31217  1.0000
  H   H997      1.0  0.91358  0.74011  0.37995  1.0000
  H   H998      1.0  0.82479  0.77044  0.36259  1.0000
  H   H999      1.0  0.86676  0.76364  0.39675  1.0000
  H   H1000     1.0  0.83174  0.53414  0.17784  1.0000
  H   H1001     1.0  0.98347  0.61167  0.14044  1.0000
  C   C843      1.0  0.98321  0.56400  0.12642  1.0000
  C   C844      1.0  0.80425  0.49219  0.33414  1.0000
  N   N56       1.0  0.72070  0.97469  0.16043  1.0000
  H   H1002     1.0  0.80625  0.93983  0.18752  1.0000
  H   H1003     1.0  0.74761  0.94689  0.18864  1.0000
  H   H1004     1.0  0.79868  0.56842  0.07957  1.0000
  H   H1005     1.0  0.83184  0.58504  0.36444  1.0000
  S   S234      1.0  0.98821  0.97458  0.07830  1.0000
  H   H1006     1.0  0.88681  0.90294  0.08666  1.0000
  C   C845      1.0  0.90010  0.50897  0.96751  1.0000
  H   H1007     1.0  0.81021  0.89642  0.15317  1.0000
  H   H1008     1.0  0.79327  0.57531  0.36818  1.0000
  H   H1009     1.0  0.75193  0.93769  0.15096  1.0000
  C   C846      1.0  0.79515  0.52378  0.33472  1.0000
  Fe  Fe115     1.0  0.67704  0.87865  0.19859  1.0000
  H   H1010     1.0  0.84982  0.52774  0.30815  1.0000
  C   C847      1.0  0.79840  0.97651  0.23842  1.0000
  C   C848      1.0  0.86883  0.54557  0.05841  1.0000
  H   H1011     1.0  0.85212  0.52882  0.12857  1.0000
  H   H1012     1.0  0.89765  0.56590  0.10759  1.0000
  H   H1013     1.0  0.72782  0.76355  0.34536  1.0000
  C   C849      1.0  0.91370  0.56506  0.03587  1.0000
  S   S235      1.0  0.93003  0.96196  0.02044  1.0000
  Fe  Fe116     1.0  0.97766  0.97636  0.03078  1.0000
  C   C850      1.0  0.67247  0.78631  0.30072  1.0000
  N   N57       1.0  0.87612  0.95134  0.09269  1.0000
  C   C851      1.0  0.82476  0.48941  0.11778  1.0000
  C   C852      1.0  0.73566  0.94508  0.16768  1.0000
  Fe  Fe117     1.0  0.66979  0.87128  0.26398  1.0000
  S   S236      1.0  0.66511  0.89805  0.15426  1.0000
  C   C853      1.0  0.88005  0.96160  0.98638  1.0000
  C   C854      1.0  0.96836  0.53567  0.12831  1.0000
  H   H1014     1.0  0.89743  0.59760  0.08198  1.0000
  C   C855      1.0  0.94201  0.53323  0.14448  1.0000
  C   C856      1.0  0.70631  0.97160  0.13170  1.0000
  C   C857      1.0  0.84590  0.56183  0.07340  1.0000
  N   N58       1.0  0.81659  0.54986  0.33487  1.0000
  H   H1015     1.0  0.86324  0.56024  0.32822  1.0000
  C   C858      1.0  0.80869  0.57279  0.31226  1.0000
  H   H1016     1.0  0.87569  0.51009  0.02541  1.0000
  H   H1017     1.0  0.78710  0.58452  0.31625  1.0000
  H   H1018     1.0  0.82319  0.50006  0.01644  1.0000
  C   C859      1.0  0.92200  0.49341  0.98359  1.0000
  H   H1019     1.0  0.90725  0.51142  0.08918  1.0000
  H   H1020     1.0  0.85653  0.52498  0.34682  1.0000
  H   H1021     1.0  0.83356  0.48740  0.09598  1.0000
  H   H1022     1.0  0.93793  0.57001  0.03819  1.0000
  H   H1023     1.0  0.84044  0.96065  0.95979  1.0000
  H   H1024     1.0  0.91168  0.54886  0.01729  1.0000
  H   H1025     1.0  0.90516  0.53128  0.95812  1.0000
  H   H1026     1.0  0.82545  0.59167  0.31078  1.0000
  H   H1027     1.0  0.84103  0.90026  0.11025  1.0000
  C   C860      1.0  0.81564  0.56548  0.36343  1.0000
  C   C861      1.0  0.74604  0.97663  0.25051  1.0000
  H   H1028     1.0  0.93116  0.57784  0.09000  1.0000
  H   H1029     1.0  0.81464  0.51787  0.25571  1.0000
  N   N59       1.0  0.68627  0.78271  0.32969  1.0000
  C   C862      1.0  0.82956  0.51720  0.03254  1.0000
  C   C863      1.0  0.87775  0.92301  0.07438  1.0000
  C   C864      1.0  0.66937  0.51997  0.97786  1.0000
  C   C865      1.0  0.85670  0.94782  0.11845  1.0000
  C   C866      1.0  0.83509  0.51288  0.13591  1.0000
  C   C867      1.0  0.84781  0.54006  0.32928  1.0000
  C   C868      1.0  0.84025  0.92031  0.12423  1.0000
  C   C869      1.0  0.82367  0.51581  0.16378  1.0000
  H   H1030     1.0  0.90228  0.58695  0.02970  1.0000
  C   C870      1.0  0.77774  0.95180  0.31897  1.0000
  C   C871      1.0  0.91698  0.52286  0.06976  1.0000
  H   H1031     1.0  0.72208  0.96411  0.11456  1.0000
  H   H1032     1.0  0.81257  0.91786  0.31935  1.0000
  C   C872      1.0  0.87180  0.49580  0.96336  1.0000
  C   C873      1.0  0.86207  0.97105  0.96305  1.0000
  H   H1033     1.0  0.66468  0.54745  0.01660  1.0000
  H   H1034     1.0  0.97719  0.51555  0.11739  1.0000
  H   H1035     1.0  0.92229  0.96058  0.08302  1.0000
  H   H1036     1.0  0.68778  0.79766  0.28514  1.0000
  H   H1037     1.0  0.76006  0.93470  0.31912  1.0000
  H   H1038     1.0  0.87202  0.94397  0.00103  1.0000
  H   H1039     1.0  0.67380  0.82834  0.34393  1.0000
  H   H1040     1.0  0.75535  0.55286  0.33692  1.0000
  H   H1041     1.0  0.72562  0.96423  0.25485  1.0000
  C   C874      1.0  0.80229  0.49498  0.17387  1.0000
  H   H1042     1.0  0.79444  0.49817  0.19579  1.0000
  H   H1043     1.0  0.91591  0.94059  0.11651  1.0000
  H   H1044     1.0  0.68020  0.96026  0.18196  1.0000
  C   C875      1.0  0.85369  0.97245  0.13872  1.0000
  H   H1045     1.0  0.71975  0.51037  0.33493  1.0000
  C   C876      1.0  0.74339  0.50536  0.33508  1.0000
  C   C877      1.0  0.86483  0.97690  0.07430  1.0000
  C   C878      1.0  0.90854  0.97435  0.99050  1.0000
  H   H1046     1.0  0.85279  0.95584  0.31818  1.0000
  C   C879      1.0  0.83020  0.96435  0.31786  1.0000
  C   C880      1.0  0.90691  0.95880  0.10191  1.0000
  C   C881      1.0  0.83572  0.96953  0.16335  1.0000
  H   H1047     1.0  0.98616  0.65151  0.29682  1.0000
  C   C882      1.0  0.65857  0.74767  0.40039  1.0000
  H   H1048     1.0  0.74796  0.47996  0.19659  1.0000
  C   C883      1.0  0.88797  0.52250  0.84569  1.0000
  H   H1049     1.0  0.74915  0.89234  0.72150  1.0000
  Fe  Fe118     1.0  0.77562  0.50447  0.88584  1.0000
  C   C884      1.0  0.92183  0.67718  0.62155  1.0000
  S   S237      1.0  0.79252  0.51791  0.84097  1.0000
  H   H1050     1.0  0.67264  0.48230  0.80065  1.0000
  H   H1051     1.0  0.91583  0.62782  0.62199  1.0000
  C   C885      1.0  0.90340  0.82649  0.64489  1.0000
  H   H1052     1.0  0.97529  0.76869  0.59581  1.0000
  H   H1053     1.0  0.95426  0.91968  0.70399  1.0000
  H   H1054     1.0  0.90514  0.50837  0.83436  1.0000
  Fe  Fe119     1.0  0.80381  0.77177  0.56542  1.0000
  S   S238      1.0  0.77978  0.73835  0.53644  1.0000
  S   S239      1.0  0.85160  0.78803  0.55792  1.0000
  Fe  Fe120     1.0  0.75367  0.76979  0.61120  1.0000
  S   S240      1.0  0.72689  0.73552  0.58565  1.0000
  S   S241      1.0  0.73693  0.78096  0.65632  1.0000
  Fe  Fe121     1.0  0.77083  0.71205  0.57756  1.0000
  S   S242      1.0  0.77725  0.66019  0.57964  1.0000
  Fe  Fe122     1.0  0.73837  0.76526  0.54745  1.0000
  S   S243      1.0  0.70461  0.78347  0.51514  1.0000
  S   S244      1.0  0.79675  0.74387  0.60590  1.0000
  S   S245      1.0  0.76307  0.80124  0.57364  1.0000
  H   H1055     1.0  0.74519  0.91777  0.79789  1.0000
  Fe  Fe123     1.0  0.90100  0.62526  0.75556  1.0000
  S   S246      1.0  0.90729  0.58007  0.73252  1.0000
  S   S247      1.0  0.87339  0.62924  0.79667  1.0000
  H   H1056     1.0  0.87370  0.54423  0.91503  1.0000
  H   H1057     1.0  0.94227  0.49663  0.90690  1.0000
  S   S248      1.0  0.76739  0.96615  0.92542  1.0000
  Fe  Fe124     1.0  0.90036  0.60840  0.69221  1.0000
  S   S249      1.0  0.87167  0.58859  0.65685  1.0000
  H   H1058     1.0  0.68422  0.84695  0.75143  1.0000
  H   H1059     1.0  0.94147  0.53203  0.86915  1.0000
  S   S250      1.0  0.89094  0.65290  0.71536  1.0000
  H   H1060     1.0  0.94393  0.51584  0.73617  1.0000
  H   H1061     1.0  0.92798  0.54754  0.90324  1.0000
  S   S251      1.0  0.94972  0.63756  0.75472  1.0000
  C   C886      1.0  0.92232  0.54359  0.88005  1.0000
  C   C887      1.0  0.90055  0.78647  0.52196  1.0000
  H   H1062     1.0  0.88715  0.54564  0.83505  1.0000
  C   C888      1.0  0.80386  0.64220  0.60221  1.0000
  C   C889      1.0  0.80697  0.61007  0.60007  1.0000
  C   C890      1.0  0.82789  0.59433  0.61692  1.0000
  C   C891      1.0  0.84595  0.61040  0.63640  1.0000
  C   C892      1.0  0.84294  0.64268  0.63889  1.0000
  C   C893      1.0  0.82196  0.65860  0.62168  1.0000
  H   H1063     1.0  0.79312  0.59719  0.58516  1.0000
  H   H1064     1.0  0.83002  0.56945  0.61485  1.0000
  H   H1065     1.0  0.85689  0.65539  0.65376  1.0000
  H   H1066     1.0  0.81968  0.68341  0.62368  1.0000
  C   C894      1.0  0.71006  0.81028  0.66125  1.0000
  C   C895      1.0  0.70816  0.83559  0.64248  1.0000
  H   H1067     1.0  0.90830  0.67430  0.51517  1.0000
  N   N60       1.0  0.89458  0.52515  0.87704  1.0000
  C   C896      1.0  0.90791  0.79587  0.65329  1.0000
  H   H1068     1.0  0.71746  0.84569  0.86380  1.0000
  H   H1069     1.0  0.72272  0.83688  0.62383  1.0000
  H   H1070     1.0  0.96566  0.72142  0.75230  1.0000
  C   C897      1.0  0.94387  0.86721  0.73160  1.0000
  C   C898      1.0  0.96786  0.74290  0.54678  1.0000
  C   C899      1.0  0.69454  0.97131  0.75233  1.0000
  C   C900      1.0  0.85548  0.76449  0.50230  1.0000
  C   C901      1.0  0.87018  0.77931  0.52504  1.0000
  C   C902      1.0  0.68806  0.85983  0.64841  1.0000
  H   H1071     1.0  0.83204  0.75932  0.50412  1.0000
  C   C903      1.0  0.81426  0.54965  0.82928  1.0000
  C   C904      1.0  0.81912  0.57577  0.84655  1.0000
  C   C905      1.0  0.83723  0.60008  0.83629  1.0000
  C   C906      1.0  0.85073  0.59834  0.80885  1.0000
  C   C907      1.0  0.84552  0.57235  0.79151  1.0000
  C   C908      1.0  0.82724  0.54826  0.80162  1.0000
  H   H1072     1.0  0.80885  0.57732  0.86772  1.0000
  H   H1073     1.0  0.84083  0.62031  0.84970  1.0000
  H   H1074     1.0  0.85552  0.57078  0.77029  1.0000
  H   H1075     1.0  0.82349  0.52817  0.78807  1.0000
  H   H1076     1.0  0.93937  0.78453  0.49402  1.0000
  H   H1077     1.0  0.68866  0.71814  0.52009  1.0000
  C   C909      1.0  0.93624  0.84481  0.68385  1.0000
  C   C910      1.0  0.91616  0.77855  0.49645  1.0000
  N   N61       1.0  0.71476  0.88562  0.75338  1.0000
  H   H1078     1.0  0.66966  0.88215  0.73734  1.0000
  C   C911      1.0  0.91555  0.70480  0.60729  1.0000
  H   H1079     1.0  0.74593  0.70930  0.64547  1.0000
  Fe  Fe125     1.0  0.73601  0.50491  0.94007  1.0000
  Fe  Fe126     1.0  0.95531  0.59380  0.72860  1.0000
  C   C912      1.0  0.67465  0.84999  0.84349  1.0000
  H   H1080     1.0  0.89672  0.77727  0.64188  1.0000
  C   C913      1.0  0.94028  0.49409  0.72489  1.0000
  N   N62       1.0  0.79468  0.63091  0.72325  1.0000
  C   C914      1.0  0.81788  0.61178  0.70892  1.0000
  C   C915      1.0  0.80869  0.64634  0.74856  1.0000
  C   C916      1.0  0.77105  0.61014  0.73445  1.0000
  C   C917      1.0  0.78175  0.65288  0.70209  1.0000
  C   C918      1.0  0.76804  0.64167  0.67647  1.0000
  C   C919      1.0  0.78208  0.68558  0.70617  1.0000
  C   C920      1.0  0.75518  0.66185  0.65643  1.0000
  C   C921      1.0  0.76921  0.70553  0.68587  1.0000
  C   C922      1.0  0.75576  0.69369  0.66113  1.0000
  H   H1081     1.0  0.83486  0.62669  0.69843  1.0000
  H   H1082     1.0  0.82968  0.59643  0.72448  1.0000
  H   H1083     1.0  0.80881  0.59648  0.69171  1.0000
  H   H1084     1.0  0.79232  0.66029  0.76115  1.0000
  H   H1085     1.0  0.82754  0.66150  0.74190  1.0000
  H   H1086     1.0  0.81815  0.62924  0.76400  1.0000
  H   H1087     1.0  0.76112  0.59563  0.71710  1.0000
  H   H1088     1.0  0.77984  0.59391  0.75113  1.0000
  H   H1089     1.0  0.75269  0.62377  0.74456  1.0000
  H   H1090     1.0  0.76740  0.61721  0.67151  1.0000
  H   H1091     1.0  0.79218  0.69644  0.72475  1.0000
  H   H1092     1.0  0.74521  0.65283  0.63676  1.0000
  H   H1093     1.0  0.76962  0.73043  0.68919  1.0000
  H   H1094     1.0  0.69226  0.93779  0.83862  1.0000
  N   N63       1.0  0.86990  0.67683  0.54303  1.0000
  C   C923      1.0  0.85843  0.64586  0.53447  1.0000
  C   C924      1.0  0.84378  0.69736  0.54700  1.0000
  C   C925      1.0  0.88819  0.68888  0.51877  1.0000
  C   C926      1.0  0.88782  0.67645  0.56988  1.0000
  C   C927      1.0  0.73106  0.93171  0.78421  1.0000
  H   H1095     1.0  0.87542  0.68947  0.49812  1.0000
  H   H1096     1.0  0.85933  0.74520  0.45941  1.0000
  H   H1097     1.0  0.88882  0.83144  0.62674  1.0000
  C   C928      1.0  0.94297  0.90153  0.69080  1.0000
  H   H1098     1.0  0.84371  0.63600  0.55160  1.0000
  C   C929      1.0  0.67336  0.93411  0.91851  1.0000
  H   H1099     1.0  0.87682  0.62930  0.52984  1.0000
  H   H1100     1.0  0.83072  0.69060  0.56642  1.0000
  H   H1101     1.0  0.82861  0.69653  0.52803  1.0000
  H   H1102     1.0  0.84997  0.72199  0.54994  1.0000
  H   H1103     1.0  0.68718  0.87966  0.63413  1.0000
  H   H1104     1.0  0.92010  0.56693  0.86997  1.0000
  H   H1105     1.0  0.89575  0.71304  0.52264  1.0000
  H   H1106     1.0  0.84465  0.64710  0.51449  1.0000
  C   C930      1.0  0.67194  0.72972  0.50723  1.0000
  H   H1107     1.0  0.68829  0.92365  0.93501  1.0000
  H   H1108     1.0  0.72544  0.86788  0.79567  1.0000
  C   C931      1.0  0.66924  0.85853  0.67266  1.0000
  C   C932      1.0  0.91734  0.85072  0.65980  1.0000
  C   C933      1.0  0.89891  0.70456  0.58174  1.0000
  C   C934      1.0  0.92666  0.78926  0.67643  1.0000
  S   S252      1.0  0.72669  0.49530  0.89295  1.0000
  H   H1109     1.0  0.91187  0.79852  0.53925  1.0000
  C   C935      1.0  0.87100  0.75660  0.47690  1.0000
  H   H1110     1.0  0.91291  0.87384  0.65204  1.0000
  S   S253      1.0  0.78403  0.51896  0.93217  1.0000
  H   H1111     1.0  0.73348  0.84174  0.76667  1.0000
  H   H1112     1.0  0.68209  0.93177  0.72761  1.0000
  H   H1113     1.0  0.91861  0.90565  0.69284  1.0000
  H   H1114     1.0  0.66975  0.82551  0.84527  1.0000
  C   C936      1.0  0.71393  0.91892  0.76122  1.0000
  C   C937      1.0  0.89469  0.64868  0.58502  1.0000
  H   H1115     1.0  0.93434  0.67738  0.64154  1.0000
  Fe  Fe127     1.0  0.75206  0.95496  0.88026  1.0000
  H   H1116     1.0  0.95769  0.73225  0.52715  1.0000
  H   H1117     1.0  0.66657  0.49086  0.94012  1.0000
  H   H1118     1.0  0.86599  0.51152  0.84157  1.0000
  H   H1119     1.0  0.73252  0.51030  0.81702  1.0000
  Fe  Fe128     1.0  0.94034  0.66069  0.71222  1.0000
  C   C938      1.0  0.67458  0.76140  0.50154  1.0000
  H   H1120     1.0  0.71212  0.89360  0.70719  1.0000
  N   N64       1.0  0.95123  0.86979  0.70034  1.0000
  H   H1121     1.0  0.67226  0.95901  0.92444  1.0000
  C   C939      1.0  0.67044  0.83267  0.69080  1.0000
  H   H1122     1.0  0.91936  0.86725  0.73510  1.0000
  H   H1123     1.0  0.84802  0.53222  0.88760  1.0000
  S   S254      1.0  0.96102  0.70313  0.69133  1.0000
  S   S255      1.0  0.94904  0.61761  0.68600  1.0000
  S   S256      1.0  0.74241  0.90568  0.86696  1.0000
  C   C940      1.0  0.70808  0.89311  0.85271  1.0000
  C   C941      1.0  0.68747  0.91328  0.83990  1.0000
  H   H1124     1.0  0.71477  0.51334  0.78271  1.0000
  C   C942      1.0  0.97936  0.73667  0.73935  1.0000
  C   C943      1.0  0.70165  0.86145  0.85405  1.0000
  H   H1125     1.0  0.67374  0.78268  0.60488  1.0000
  H   H1126     1.0  0.72794  0.85728  0.71690  1.0000
  C   C944      1.0  0.89656  0.49383  0.88995  1.0000
  C   C945      1.0  0.94072  0.81327  0.69146  1.0000
  H   H1127     1.0  0.69238  0.78932  0.69991  1.0000
  C   C946      1.0  0.69111  0.80892  0.68539  1.0000
  H   H1128     1.0  0.95516  0.80687  0.70916  1.0000
  C   C947      1.0  0.90138  0.76346  0.47386  1.0000
  H   H1129     1.0  0.85507  0.50784  0.95094  1.0000
  H   H1130     1.0  0.75728  0.87426  0.77230  1.0000
  C   C948      1.0  0.73363  0.86668  0.77291  1.0000
  C   C949      1.0  0.68427  0.87253  0.75442  1.0000
  C   C950      1.0  0.72654  0.88209  0.72352  1.0000
  C   C951      1.0  0.91152  0.64923  0.61041  1.0000
  H   H1131     1.0  0.92321  0.72650  0.61643  1.0000
  H   H1132     1.0  0.75253  0.49841  0.78558  1.0000
  C   C952      1.0  0.69572  0.93977  0.74541  1.0000
  H   H1133     1.0  0.96409  0.72658  0.56504  1.0000
  H   H1134     1.0  0.89424  0.72662  0.57159  1.0000
  H   H1135     1.0  0.95013  0.90598  0.66806  1.0000
  C   C953      1.0  0.87026  0.54283  0.89125  1.0000
  H   H1136     1.0  0.72778  0.48690  0.74162  1.0000
  H   H1137     1.0  0.88669  0.62624  0.57824  1.0000
  H   H1138     1.0  0.95358  0.88667  0.74433  1.0000
  H   H1139     1.0  0.93022  0.76537  0.68290  1.0000
  C   C954      1.0  0.92244  0.49351  0.70032  1.0000
  H   H1140     1.0  0.98643  0.54105  0.68306  1.0000
  H   H1141     1.0  0.86887  0.56698  0.88294  1.0000
  C   C955      1.0  0.66062  0.90158  0.82845  1.0000
  C   C956      1.0  0.72977  0.96333  0.79083  1.0000
  H   H1142     1.0  0.68487  0.93205  0.89729  1.0000
  H   H1143     1.0  0.91204  0.51467  0.69268  1.0000
  C   C957      1.0  0.98382  0.86667  0.69684  1.0000
  C   C958      1.0  0.72999  0.49854  0.79565  1.0000
  H   H1144     1.0  0.67340  0.87742  0.77549  1.0000
  H   H1145     1.0  0.69088  0.48073  0.83537  1.0000
  C   C959      1.0  0.98133  0.73223  0.70943  1.0000
  C   C960      1.0  0.92245  0.48279  0.90433  1.0000
  H   H1146     1.0  0.85117  0.48038  0.87861  1.0000
  H   H1147     1.0  0.74266  0.97259  0.80869  1.0000
  H   H1148     1.0  0.95520  0.76462  0.55092  1.0000
  H   H1149     1.0  0.99028  0.86792  0.67357  1.0000
  H   H1150     1.0  0.95301  0.84573  0.74149  1.0000
  H   H1151     1.0  0.66446  0.87768  0.93488  1.0000
  H   H1152     1.0  0.65818  0.87726  0.89664  1.0000
