data_image0
_chemical_formula_structural       SFeS2Fe2SFeHS2H3CHC2H3C6H4CH2CHCH5CSH2NC9H7C3H2CHC2H2SC3H2C2H3NHC2H3C3H2FeS2FeS2Fe2S3FeS2FeS2FeCFeS3CHC2HC4HC6H4C3NHC3H4CHNH2C3HNC2NH8C2H2CH2CH5C5H2CNCH3CH2C2H2CH5CHCHCH2CH2C3HCH2CH5C2H2CH2CHFeS2FeS2FeSFeS3H3C3HCHCH2CH5C6H5C2HNH2NHCHC4H5CHCHCH3CHC2H2CH2CHCHC3H4C2HC6HC2SHCSC4H4NH2CHCH2C3HC2HC2H6CFeS2FeSHFeSFeS3FeS2FeS2FeSFeHS2HCNHCHC3H4C3H2C6H4C2HNHCH3CH7NH3C3HC3H6CH2CH2C3H4C2H2C2HNC2HCHCHCH3CH2CH3SH3CHCHC3HNHC3H3CHCFeS2FeS2FeSFeS3FeS2FeS2FeSFeS3CH2CHC2H2C6H4C6H4C3H2NH4C6H3C3HC2HSC3HC2H6C3H3CH3CHNCH3C2HC2H2C2H2CH9CH2CHC2HC3HC3HNHC2H3C2H2CHFeSHFeS2FeSFeCS3FeS2FeS2FeHFeS2C6H4C2HC6H4SH2CH3NC7H4CSC3H2CH6C2S2HCHCHNH6NH2CHC2H2CH2SH2CHCHCH3CHC3H4C2H2NCHC2HFeS2FeSFeSFeS3FeS2HSFeSFeS3C3H2C6H4C2H4C2H2CHCHCH3CHCHCH8NCH3NH2C2HC2FeCHC2HC3H2CHCH3C2H2C2H3CH6CHC5NH3C2H4C2H3C2H2SFeS2Fe2CFeS3HC4HC2HC6H7NC6HSCH12C2SCHCHCHCH2CHCHCHCH2CHC2H2NCFeSFeS2FeSFeS3FeS2FeS2FeHFeS3H4C3H2C6H4CHC4H3CHCH4CH2CH3CH2NC2H2C4HCHC2H2C2HCNC8H12C2HCH2CHC2HC3H2CFeS2FeS2FeSFeS3CNH2SH2CHCHCHCNC7H4C3H7CHC4H3CHCHC2HC2HCHCH7C2H2CH3C2H2CH2SCH2C2HCNH2CH
_chemical_formula_sum              "S128 Fe64 H576 C480 N32"
_cell_length_a       45.3121
_cell_length_b       45.3237
_cell_length_c       39.0316
_cell_angle_alpha    92.5326
_cell_angle_beta     87.7265
_cell_angle_gamma    122.736

_space_group_name_H-M_alt    "P 1"
_space_group_IT_number       1

loop_
  _space_group_symop_operation_xyz
  'x, y, z'

loop_
  _atom_site_type_symbol
  _atom_site_label
  _atom_site_symmetry_multiplicity
  _atom_site_fract_x
  _atom_site_fract_y
  _atom_site_fract_z
  _atom_site_occupancy
  S   S1        1.0  0.30390  0.19114  0.30909  1.0000
  Fe  Fe1       1.0  0.33981  0.16631  0.10589  1.0000
  S   S2        1.0  0.35721  0.22073  0.09110  1.0000
  S   S3        1.0  0.33278  0.14651  0.16031  1.0000
  Fe  Fe2       1.0  0.33970  0.14182  0.03074  1.0000
  Fe  Fe3       1.0  0.39571  0.21676  0.05570  1.0000
  S   S4        1.0  0.45180  0.26489  0.05576  1.0000
  Fe  Fe4       1.0  0.31877  0.19520  0.04765  1.0000
  H   H1        1.0  0.44325  0.24537  0.30454  1.0000
  S   S5        1.0  0.37996  0.16341  0.07248  1.0000
  S   S6        1.0  0.29832  0.14034  0.06541  1.0000
  H   H2        1.0  0.23694  0.11946  0.11554  1.0000
  H   H3        1.0  0.45623  0.28976  0.16165  1.0000
  H   H4        1.0  0.21532  0.20738  0.01827  1.0000
  C   C1        1.0  0.07990  0.28904  0.06477  1.0000
  H   H5        1.0  0.08165  0.24272  0.06182  1.0000
  C   C2        1.0  0.48039  0.26876  0.26263  1.0000
  C   C3        1.0  0.42464  0.22304  0.22001  1.0000
  H   H6        1.0  0.31580  0.22236  0.24309  1.0000
  H   H7        1.0  0.07107  0.33095  0.07089  1.0000
  H   H8        1.0  0.46868  0.21081  0.05788  1.0000
  C   C4        1.0  0.31598  0.18114  0.26842  1.0000
  C   C5        1.0  0.32019  0.15285  0.26368  1.0000
  C   C6        1.0  0.32597  0.14317  0.23048  1.0000
  C   C7        1.0  0.32822  0.16191  0.20167  1.0000
  C   C8        1.0  0.32569  0.19125  0.20659  1.0000
  C   C9        1.0  0.31891  0.20037  0.23970  1.0000
  H   H9        1.0  0.31782  0.13768  0.28544  1.0000
  H   H10       1.0  0.32815  0.12058  0.22705  1.0000
  H   H11       1.0  0.32832  0.20654  0.18491  1.0000
  H   H12       1.0  0.38747  0.04201  0.05083  1.0000
  C   C10       1.0  0.03798  0.23525  0.09347  1.0000
  H   H13       1.0  0.25596  0.12431  0.16847  1.0000
  H   H14       1.0  0.33589  0.03642  0.02451  1.0000
  C   C11       1.0  0.26524  0.03938  0.00252  1.0000
  H   H15       1.0  0.22809  0.14179  0.08539  1.0000
  C   C12       1.0  0.49244  0.24072  0.15856  1.0000
  H   H16       1.0  0.21885  0.12851  0.26938  1.0000
  H   H17       1.0  0.01461  0.24259  0.17487  1.0000
  H   H18       1.0  0.20331  0.18010  0.18992  1.0000
  H   H19       1.0  0.19628  0.16368  0.24942  1.0000
  H   H20       1.0  0.24764  0.10842  0.22832  1.0000
  C   C13       1.0  0.03226  0.28542  0.09877  1.0000
  S   S7        1.0  0.27366  0.20234  0.03527  1.0000
  H   H21       1.0  0.26265  0.05361  0.02418  1.0000
  H   H22       1.0  0.41127  0.22618  0.15086  1.0000
  N   N1        1.0  0.23744  0.16483  0.13660  1.0000
  C   C14       1.0  0.22172  0.18474  0.12691  1.0000
  C   C15       1.0  0.27590  0.18789  0.13132  1.0000
  C   C16       1.0  0.22376  0.13393  0.11273  1.0000
  C   C17       1.0  0.23007  0.15346  0.17262  1.0000
  C   C18       1.0  0.24187  0.13262  0.18498  1.0000
  C   C19       1.0  0.21308  0.16416  0.19681  1.0000
  C   C20       1.0  0.23739  0.12346  0.21937  1.0000
  C   C21       1.0  0.20884  0.15489  0.23124  1.0000
  C   C22       1.0  0.22124  0.13485  0.24254  1.0000
  H   H23       1.0  0.23287  0.20988  0.14191  1.0000
  H   H24       1.0  0.22733  0.19217  0.09939  1.0000
  H   H25       1.0  0.19267  0.16891  0.13034  1.0000
  H   H26       1.0  0.28741  0.21088  0.14952  1.0000
  H   H27       1.0  0.28281  0.19826  0.10496  1.0000
  H   H28       1.0  0.28944  0.17388  0.13502  1.0000
  H   H29       1.0  0.19511  0.11510  0.11702  1.0000
  C   C23       1.0  0.06211  0.30441  0.07779  1.0000
  C   C24       1.0  0.01876  0.24994  0.10665  1.0000
  C   C25       1.0  0.43301  0.22165  0.14707  1.0000
  H   H30       1.0  0.48535  0.21491  0.16829  1.0000
  H   H31       1.0  0.10234  0.30337  0.04753  1.0000
  C   C26       1.0  0.27091  0.23198  0.00866  1.0000
  H   H32       1.0  0.49715  0.24037  0.13039  1.0000
  C   C27       1.0  0.02672  0.22912  0.00119  1.0000
  C   C28       1.0  0.45804  0.24641  0.20456  1.0000
  H   H33       1.0  0.25206  0.21633  0.32101  1.0000
  H   H34       1.0  0.39385  0.20502  0.26689  1.0000
  S   S8        1.0  0.35865  0.19560  0.01105  1.0000
  C   C29       1.0  0.47604  0.28302  0.15488  1.0000
  C   C30       1.0  0.41956  0.22288  0.25564  1.0000
  C   C31       1.0  0.06809  0.25470  0.07287  1.0000
  H   H35       1.0  0.40198  0.20459  0.20517  1.0000
  H   H36       1.0  0.47990  0.28460  0.12647  1.0000
  C   C32       1.0  0.48575  0.26930  0.22703  1.0000
  C   C33       1.0  0.33645  0.01312  0.02834  1.0000
  H   H37       1.0  0.43889  0.22332  0.11895  1.0000
  H   H38       1.0  0.00184  0.27244  0.16498  1.0000
  H   H39       1.0  0.02991  0.20856  0.09794  1.0000
  N   N2        1.0  0.46445  0.24767  0.16695  1.0000
  H   H40       1.0  0.01945  0.29859  0.10812  1.0000
  C   C34       1.0  0.44735  0.24563  0.27690  1.0000
  C   C35       1.0  0.49189  0.26664  0.05854  1.0000
  H   H41       1.0  0.42320  0.19422  0.15408  1.0000
  H   H42       1.0  0.02966  0.29216  0.32577  1.0000
  H   H43       1.0  0.03006  0.20763  0.00510  1.0000
  C   C36       1.0  0.23817  0.22822  0.00516  1.0000
  C   C37       1.0  0.49279  0.23634  0.05978  1.0000
  C   C38       1.0  0.36553  0.01630  0.04310  1.0000
  H   H44       1.0  0.02430  0.32868  0.32975  1.0000
  H   H45       1.0  0.25309  0.25573  0.32998  1.0000
  Fe  Fe5       1.0  0.32218  0.20375  0.43591  1.0000
  S   S9        1.0  0.28776  0.15432  0.40427  1.0000
  S   S10       1.0  0.29076  0.21636  0.47496  1.0000
  Fe  Fe6       1.0  0.39003  0.21419  0.40170  1.0000
  S   S11       1.0  0.35884  0.16575  0.36828  1.0000
  S   S12       1.0  0.44766  0.24408  0.38396  1.0000
  Fe  Fe7       1.0  0.32319  0.18446  0.35972  1.0000
  Fe  Fe8       1.0  0.32655  0.13978  0.41596  1.0000
  S   S13       1.0  0.31730  0.08561  0.42525  1.0000
  S   S14       1.0  0.35566  0.23448  0.39075  1.0000
  S   S15       1.0  0.35951  0.18747  0.45006  1.0000
  Fe  Fe9       1.0  0.21923  0.34253  0.53812  1.0000
  S   S16       1.0  0.17706  0.30337  0.57360  1.0000
  S   S17       1.0  0.26099  0.33818  0.50722  1.0000
  Fe  Fe10      1.0  0.19989  0.39755  0.55435  1.0000
  S   S18       1.0  0.15593  0.36162  0.59051  1.0000
  S   S19       1.0  0.20700  0.45084  0.54675  1.0000
  Fe  Fe11      1.0  0.19364  0.34905  0.61065  1.0000
  C   C39       1.0  0.25269  0.31559  0.60666  1.0000
  Fe  Fe12      1.0  0.14212  0.31879  0.55063  1.0000
  S   S20       1.0  0.08682  0.27264  0.53678  1.0000
  S   S21       1.0  0.23834  0.38754  0.57665  1.0000
  S   S22       1.0  0.18354  0.35532  0.51283  1.0000
  C   C40       1.0  0.32908  0.27655  0.55600  1.0000
  H   H46       1.0  0.43808  0.10139  0.41137  1.0000
  C   C41       1.0  0.30567  0.26188  0.58359  1.0000
  C   C42       1.0  0.24329  0.27772  0.39408  1.0000
  H   H47       1.0  0.30105  0.27783  0.37246  1.0000
  C   C43       1.0  0.28919  0.05322  0.45566  1.0000
  C   C44       1.0  0.07226  0.30581  0.63489  1.0000
  C   C45       1.0  0.27027  0.05925  0.48113  1.0000
  C   C46       1.0  0.42062  0.16230  0.44007  1.0000
  H   H48       1.0  0.27219  0.08412  0.48251  1.0000
  C   C47       1.0  0.28259  0.25049  0.48283  1.0000
  C   C48       1.0  0.25542  0.24464  0.50603  1.0000
  C   C49       1.0  0.24828  0.27096  0.51379  1.0000
  C   C50       1.0  0.26838  0.30366  0.49848  1.0000
  C   C51       1.0  0.29569  0.30959  0.47545  1.0000
  C   C52       1.0  0.30282  0.28329  0.46770  1.0000
  H   H49       1.0  0.23981  0.21954  0.51818  1.0000
  H   H50       1.0  0.22715  0.26583  0.53147  1.0000
  H   H51       1.0  0.31161  0.33486  0.46366  1.0000
  H   H52       1.0  0.32452  0.28877  0.45069  1.0000
  C   C53       1.0  0.04741  0.29889  0.51495  1.0000
  C   C54       1.0  0.05045  0.26990  0.51708  1.0000
  C   C55       1.0  0.02326  0.23717  0.50397  1.0000
  N   N3        1.0  0.43642  0.14791  0.41630  1.0000
  H   H53       1.0  0.06793  0.32425  0.52489  1.0000
  C   C56       1.0  0.10643  0.27941  0.63481  1.0000
  C   C57       1.0  0.42090  0.14306  0.38208  1.0000
  C   C58       1.0  0.09670  0.34620  0.43169  1.0000
  H   H54       1.0  0.47028  0.25104  0.45552  1.0000
  H   H55       1.0  0.28089  0.47920  0.56219  1.0000
  H   H56       1.0  0.26550  0.00011  0.60736  1.0000
  H   H57       1.0  0.43345  0.11340  0.45481  1.0000
  C   C59       1.0  0.01743  0.29499  0.50022  1.0000
  H   H58       1.0  0.48358  0.18582  0.36192  1.0000
  N   N4        1.0  0.25075  0.22828  0.37500  1.0000
  H   H59       1.0  0.23868  0.28894  0.61744  1.0000
  H   H60       1.0  0.10576  0.27656  0.60634  1.0000
  C   C60       1.0  0.49389  0.17878  0.44705  1.0000
  C   C61       1.0  0.23490  0.24299  0.39826  1.0000
  C   C62       1.0  0.20515  0.27258  0.44176  1.0000
  H   H61       1.0  0.02799  0.26399  0.41599  1.0000
  N   N5        1.0  0.07457  0.27727  0.64909  1.0000
  C   C63       1.0  0.42583  0.11270  0.42795  1.0000
  C   C64       1.0  0.49536  0.18857  0.38631  1.0000
  N   N6        1.0  0.00233  0.29277  0.37180  1.0000
  H   H62       1.0  0.13083  0.30484  0.64148  1.0000
  H   H63       1.0  0.35824  0.32132  0.52421  1.0000
  H   H64       1.0  0.39675  0.09401  0.42726  1.0000
  H   H65       1.0  0.33801  0.35527  0.55409  1.0000
  H   H66       1.0  0.33541  0.38722  0.60173  1.0000
  H   H67       1.0  0.23642  0.31922  0.41288  1.0000
  H   H68       1.0  0.12005  0.35978  0.44719  1.0000
  H   H69       1.0  0.30219  0.24032  0.35943  1.0000
  C   C65       1.0  0.04416  0.29208  0.41324  1.0000
  C   C66       1.0  0.24427  0.49418  0.55311  1.0000
  H   H70       1.0  0.17862  0.22362  0.46754  1.0000
  H   H71       1.0  0.01530  0.31757  0.49899  1.0000
  C   C67       1.0  0.24919  0.03322  0.50525  1.0000
  H   H72       1.0  0.24637  0.31246  0.57893  1.0000
  H   H73       1.0  0.29742  0.24849  0.40408  1.0000
  C   C68       1.0  0.08817  0.36509  0.41157  1.0000
  H   H74       1.0  0.28903  0.35283  0.66285  1.0000
  H   H75       1.0  0.02517  0.21448  0.50558  1.0000
  H   H76       1.0  0.29988  0.37103  0.57183  1.0000
  H   H77       1.0  0.39175  0.12499  0.38303  1.0000
  H   H78       1.0  0.10900  0.25830  0.64481  1.0000
  C   C69       1.0  0.22875  0.29225  0.41570  1.0000
  C   C70       1.0  0.03464  0.31055  0.39239  1.0000
  C   C71       1.0  0.28946  0.24977  0.37787  1.0000
  C   C72       1.0  0.30639  0.37110  0.59911  1.0000
  C   C73       1.0  0.19619  0.23841  0.44652  1.0000
  H   H79       1.0  0.39141  0.14528  0.44034  1.0000
  H   H80       1.0  0.10515  0.39347  0.41138  1.0000
  C   C74       1.0  0.23569  0.47122  0.64841  1.0000
  N   N7        1.0  0.29114  0.33486  0.61113  1.0000
  C   C75       1.0  0.24652  0.00074  0.50427  1.0000
  H   H81       1.0  0.19471  0.28431  0.45908  1.0000
  H   H82       1.0  0.01866  0.23999  0.64667  1.0000
  H   H83       1.0  0.05207  0.36344  0.37712  1.0000
  C   C76       1.0  0.29833  0.33749  0.64830  1.0000
  H   H84       1.0  0.43090  0.13146  0.36291  1.0000
  H   H85       1.0  0.30069  0.01554  0.43492  1.0000
  C   C77       1.0  0.21095  0.22375  0.42538  1.0000
  C   C78       1.0  0.30508  0.31564  0.59236  1.0000
  H   H86       1.0  0.24637  0.18965  0.40887  1.0000
  H   H87       1.0  0.06970  0.30313  0.60639  1.0000
  C   C79       1.0  0.29384  0.28105  0.60162  1.0000
  H   H88       1.0  0.26167  0.29417  0.37442  1.0000
  H   H89       1.0  0.42651  0.16844  0.37244  1.0000
  H   H90       1.0  0.27521  0.26826  0.62244  1.0000
  H   H91       1.0  0.09591  0.33224  0.64006  1.0000
  H   H92       1.0  0.42879  0.16459  0.46699  1.0000
  C   C80       1.0  0.23894  0.19157  0.38252  1.0000
  H   H93       1.0  0.42830  0.18895  0.43239  1.0000
  C   C81       1.0  0.47517  0.17162  0.41625  1.0000
  H   H94       1.0  0.23506  0.03846  0.52501  1.0000
  C   C82       1.0  0.24168  0.22865  0.33898  1.0000
  H   H95       1.0  0.32695  0.35055  0.65269  1.0000
  H   H96       1.0  0.33739  0.26124  0.54140  1.0000
  C   C83       1.0  0.34079  0.31045  0.54633  1.0000
  H   H97       1.0  0.22913  0.45611  0.62440  1.0000
  H   H98       1.0  0.24124  0.32962  0.61973  1.0000
  C   C84       1.0  0.01151  0.30037  0.33495  1.0000
  C   C85       1.0  0.32890  0.32977  0.56394  1.0000
  C   C86       1.0  0.28626  0.02060  0.45448  1.0000
  H   H99       1.0  0.29613  0.23521  0.59054  1.0000
  C   C87       1.0  0.05770  0.34763  0.39210  1.0000
  H   H100      1.0  0.08129  0.29524  0.44851  1.0000
  H   H101      1.0  0.48037  0.16742  0.47094  1.0000
  C   C88       1.0  0.07487  0.30980  0.43233  1.0000
  H   H102      1.0  0.20375  0.19761  0.43139  1.0000
  H   H103      1.0  0.29581  0.38500  0.61415  1.0000
  H   H104      1.0  0.04237  0.24215  0.60802  1.0000
  H   H105      1.0  0.25140  0.18139  0.36457  1.0000
  H   H106      1.0  0.21008  0.17348  0.37993  1.0000
  C   C89       1.0  0.04367  0.24348  0.63663  1.0000
  C   C90       1.0  0.49318  0.26288  0.43876  1.0000
  H   H107      1.0  0.28467  0.31146  0.66037  1.0000
  H   H108      1.0  0.04918  0.30573  0.64592  1.0000
  C   C91       1.0  0.48933  0.26334  0.40340  1.0000
  H   H109      1.0  0.04488  0.22067  0.64383  1.0000
  H   H110      1.0  0.21273  0.21406  0.33602  1.0000
  C   C92       1.0  0.02650  0.22528  0.90325  1.0000
  H   H111      1.0  0.12948  0.34067  0.74944  1.0000
  Fe  Fe13      1.0  0.19888  0.36722  0.90710  1.0000
  S   S23       1.0  0.14368  0.32671  0.88989  1.0000
  S   S24       1.0  0.22549  0.42476  0.89215  1.0000
  Fe  Fe14      1.0  0.21397  0.31065  0.92496  1.0000
  S   S25       1.0  0.16070  0.26703  0.90742  1.0000
  S   S26       1.0  0.26102  0.30813  0.94123  1.0000
  Fe  Fe15      1.0  0.16805  0.30013  0.86231  1.0000
  S   S27       1.0  0.15171  0.27578  0.80816  1.0000
  Fe  Fe16      1.0  0.13992  0.29673  0.93632  1.0000
  S   S28       1.0  0.09253  0.26082  0.97118  1.0000
  S   S29       1.0  0.22282  0.34126  0.87737  1.0000
  S   S30       1.0  0.19341  0.33936  0.95595  1.0000
  H   H112      1.0  0.32340  0.47417  0.87985  1.0000
  H   H113      1.0  0.25257  0.07883  0.92897  1.0000
  H   H114      1.0  0.01473  0.30607  0.98807  1.0000
  C   C93       1.0  0.25101  0.47474  0.94626  1.0000
  C   C94       1.0  0.24643  0.20934  0.91343  1.0000
  C   C95       1.0  0.30758  0.41337  0.89536  1.0000
  H   H115      1.0  0.21864  0.08736  0.93249  1.0000
  C   C96       1.0  0.26779  0.12992  0.97717  1.0000
  H   H116      1.0  0.33212  0.39266  0.94143  1.0000
  C   C97       1.0  0.23052  0.45467  0.67930  1.0000
  H   H117      1.0  0.09047  0.29094  0.78654  1.0000
  H   H118      1.0  0.03370  0.22777  0.69976  1.0000
  C   C98       1.0  0.29885  0.03636  0.95449  1.0000
  H   H119      1.0  0.31939  0.30299  0.95800  1.0000
  H   H120      1.0  0.27131  0.37959  0.94995  1.0000
  H   H121      1.0  0.32254  0.04853  0.93875  1.0000
  H   H122      1.0  0.31190  0.12217  0.93540  1.0000
  H   H123      1.0  0.28633  0.41537  0.88451  1.0000
  C   C99       1.0  0.19226  0.33386  0.70580  1.0000
  C   C100      1.0  0.16878  0.29743  0.70610  1.0000
  C   C101      1.0  0.15686  0.28004  0.73760  1.0000
  C   C102      1.0  0.16831  0.29876  0.76913  1.0000
  C   C103      1.0  0.19207  0.33512  0.76875  1.0000
  C   C104      1.0  0.20402  0.35247  0.73729  1.0000
  H   H124      1.0  0.02986  0.17989  0.89912  1.0000
  H   H125      1.0  0.13856  0.25191  0.73761  1.0000
  H   H126      1.0  0.20112  0.34990  0.79275  1.0000
  H   H127      1.0  0.22239  0.38061  0.73746  1.0000
  H   H128      1.0  0.05384  0.24321  0.89601  1.0000
  C   C105      1.0  0.24626  0.46791  0.91089  1.0000
  C   C106      1.0  0.05461  0.25307  0.70917  1.0000
  H   H129      1.0  0.27528  0.11179  0.98585  1.0000
  N   N8        1.0  0.31557  0.42797  0.93103  1.0000
  H   H130      1.0  0.28665  0.41607  0.97934  1.0000
  H   H131      1.0  0.34621  0.42765  0.97210  1.0000
  N   N9        1.0  0.27108  0.13336  0.93942  1.0000
  H   H132      1.0  0.24028  0.22866  0.90774  1.0000
  C   C107      1.0  0.10806  0.31650  0.73816  1.0000
  H   H133      1.0  0.31554  0.20019  0.91079  1.0000
  C   C108      1.0  0.26304  0.15953  0.92980  1.0000
  C   C109      1.0  0.22899  0.15316  0.93608  1.0000
  C   C110      1.0  0.28865  0.19235  0.91550  1.0000
  C   C111      1.0  0.28023  0.21671  0.90743  1.0000
  H   H134      1.0  0.24063  0.11974  0.98683  1.0000
  H   H135      1.0  0.29809  0.38494  0.89416  1.0000
  H   H136      1.0  0.36709  0.43643  0.93039  1.0000
  H   H137      1.0  0.24650  0.10041  0.89480  1.0000
  H   H138      1.0  0.19493  0.17264  0.93340  1.0000
  C   C112      1.0  0.34145  0.42103  0.94432  1.0000
  H   H139      1.0  0.20853  0.12945  0.94808  1.0000
  C   C113      1.0  0.33209  0.48584  0.90509  1.0000
  H   H140      1.0  0.16007  0.28260  0.68221  1.0000
  C   C114      1.0  0.10388  0.31290  0.70262  1.0000
  H   H141      1.0  0.30022  0.24189  0.89717  1.0000
  H   H142      1.0  0.31145  0.14636  0.90075  1.0000
  H   H143      1.0  0.06955  0.31028  0.96735  1.0000
  C   C115      1.0  0.04908  0.28692  0.97994  1.0000
  H   H144      1.0  0.20920  0.24771  0.98235  1.0000
  C   C116      1.0  0.22090  0.17771  0.92786  1.0000
  C   C117      1.0  0.30010  0.25910  0.99138  1.0000
  H   H145      1.0  0.28498  0.15585  0.99023  1.0000
  H   H146      1.0  0.33119  0.42695  0.87825  1.0000
  C   C118      1.0  0.29655  0.28213  0.97113  1.0000
  H   H147      1.0  0.01648  0.26620  0.91172  1.0000
  H   H148      1.0  0.24123  0.45322  0.96350  1.0000
  C   C119      1.0  0.05357  0.25913  0.98443  1.0000
  H   H149      1.0  0.32754  0.16721  0.94245  1.0000
  C   C120      1.0  0.26381  0.27837  0.96760  1.0000
  H   H150      1.0  0.25549  0.49151  0.86164  1.0000
  C   C121      1.0  0.30704  0.14287  0.92892  1.0000
  C   C122      1.0  0.05931  0.25690  0.74471  1.0000
  C   C123      1.0  0.29600  0.05555  0.98238  1.0000
  H   H151      1.0  0.12290  0.33492  0.68747  1.0000
  H   H152      1.0  0.21998  0.42675  0.67938  1.0000
  H   H153      1.0  0.33745  0.47071  0.98895  1.0000
  H   H154      1.0  0.04264  0.23505  0.76123  1.0000
  C   C124      1.0  0.28270  0.40840  0.95170  1.0000
  C   C125      1.0  0.08607  0.28846  0.75913  1.0000
  H   H155      1.0  0.26262  0.41311  0.94266  1.0000
  C   C126      1.0  0.01800  0.28449  0.99186  1.0000
  C   C127      1.0  0.24608  0.09859  0.92319  1.0000
  C   C128      1.0  0.00540  0.23818  0.91211  1.0000
  C   C129      1.0  0.33974  0.48420  0.96591  1.0000
  C   C130      1.0  0.01290  0.18953  0.90520  1.0000
  C   C131      1.0  0.23458  0.25112  0.98477  1.0000
  H   H156      1.0  0.23551  0.46113  0.73402  1.0000
  C   C132      1.0  0.07700  0.28105  0.68696  1.0000
  C   C133      1.0  0.32938  0.46601  0.93369  1.0000
  S   S31       1.0  0.33192  0.09917  0.99125  1.0000
  H   H157      1.0  0.32549  0.26252  0.99371  1.0000
  C   C134      1.0  0.23801  0.00436  0.99510  1.0000
  S   S32       1.0  0.20862  0.35754  0.66712  1.0000
  C   C135      1.0  0.23926  0.47412  0.71005  1.0000
  C   C136      1.0  0.27158  0.00134  0.94700  1.0000
  C   C137      1.0  0.25901  0.49640  0.88901  1.0000
  C   C138      1.0  0.33829  0.95329  0.03740  1.0000
  H   H158      1.0  0.03992  0.80396  0.02700  1.0000
  H   H159      1.0  0.08860  0.77320  0.04389  1.0000
  H   H160      1.0  0.24632  0.90951  0.05485  1.0000
  H   H161      1.0  0.46901  0.81112  0.04369  1.0000
  N   N10       1.0  0.27816  0.91469  0.01025  1.0000
  H   H162      1.0  0.28300  0.88265  0.04608  1.0000
  H   H163      1.0  0.15077  0.79706  0.02768  1.0000
  C   C139      1.0  0.36645  0.98648  0.04766  1.0000
  H   H164      1.0  0.38927  0.98917  0.05902  1.0000
  C   C140      1.0  0.09520  0.76074  0.02333  1.0000
  H   H165      1.0  0.49386  0.76437  0.02386  1.0000
  H   H166      1.0  0.34091  0.93140  0.04136  1.0000
  C   C141      1.0  0.13015  0.77417  0.01406  1.0000
  C   C142      1.0  0.03157  0.78689  0.00439  1.0000
  C   C143      1.0  0.30818  0.98011  0.01813  1.0000
  H   H167      1.0  0.30417  0.88641  0.00450  1.0000
  C   C144      1.0  0.30814  0.94914  0.02230  1.0000
  C   C145      1.0  0.24492  0.90806  0.02638  1.0000
  H   H168      1.0  0.23837  0.92715  0.01859  1.0000
  C   C146      1.0  0.06858  0.73171  0.00557  1.0000
  C   C147      1.0  0.28115  0.88460  0.01803  1.0000
  H   H169      1.0  0.45514  0.76067  0.00870  1.0000
  H   H170      1.0  0.22204  0.88181  0.01862  1.0000
  H   H171      1.0  0.21459  0.99197  0.01121  1.0000
  H   H172      1.0  0.25790  0.85910  0.00901  1.0000
  H   H173      1.0  0.04136  0.72191  0.01231  1.0000
  H   H174      1.0  0.28642  0.97907  0.00658  1.0000
  C   C148      1.0  0.48379  0.77302  0.00357  1.0000
  Fe  Fe17      1.0  0.40246  0.73874  0.58009  1.0000
  S   S33       1.0  0.36713  0.70432  0.53688  1.0000
  S   S34       1.0  0.46102  0.77786  0.58865  1.0000
  Fe  Fe18      1.0  0.34114  0.70719  0.63203  1.0000
  S   S35       1.0  0.30161  0.67020  0.59382  1.0000
  H   H175      1.0  0.26236  0.88331  0.63491  1.0000
  Fe  Fe19      1.0  0.34271  0.65999  0.57444  1.0000
  S   S36       1.0  0.33935  0.60769  0.56946  1.0000
  Fe  Fe20      1.0  0.32819  0.71719  0.55987  1.0000
  S   S37       1.0  0.29043  0.72701  0.53321  1.0000
  S   S38       1.0  0.38047  0.69391  0.61578  1.0000
  S   S39       1.0  0.36529  0.75455  0.59973  1.0000
  Fe  Fe21      1.0  0.21827  0.85543  0.55893  1.0000
  S   S40       1.0  0.22062  0.89860  0.59232  1.0000
  S   S41       1.0  0.26520  0.85097  0.56876  1.0000
  Fe  Fe22      1.0  0.14746  0.83545  0.52980  1.0000
  S   S42       1.0  0.14567  0.87673  0.56167  1.0000
  S   S43       1.0  0.10331  0.79696  0.49387  1.0000
  Fe  Fe23      1.0  0.20267  0.91260  0.54629  1.0000
  S   S44       1.0  0.21986  0.96934  0.53596  1.0000
  Fe  Fe24      1.0  0.16424  0.85958  0.60478  1.0000
  H   H176      1.0  0.25427  0.56752  0.62802  1.0000
  S   S45       1.0  0.20384  0.87203  0.51175  1.0000
  S   S46       1.0  0.16233  0.81559  0.57388  1.0000
  H   H177      1.0  0.08096  0.74598  0.58811  1.0000
  C   C149      1.0  0.00536  0.75803  0.45691  1.0000
  N   N11       1.0  0.25658  0.74486  0.65608  1.0000
  H   H178      1.0  0.26331  0.96971  0.47729  1.0000
  C   C150      1.0  0.07182  0.79901  0.59189  1.0000
  H   H179      1.0  0.11296  0.93620  0.49837  1.0000
  C   C151      1.0  0.05179  0.81288  0.50157  1.0000
  C   C152      1.0  0.06182  0.79100  0.48631  1.0000
  C   C153      1.0  0.03837  0.76356  0.46398  1.0000
  H   H180      1.0  0.08064  0.92380  0.45127  1.0000
  H   H181      1.0  0.06944  0.83425  0.51852  1.0000
  H   H182      1.0  0.04583  0.74653  0.45188  1.0000
  H   H183      1.0  0.03114  0.76909  0.64680  1.0000
  C   C154      1.0  0.30215  0.56434  0.56296  1.0000
  C   C155      1.0  0.30613  0.53575  0.56521  1.0000
  C   C156      1.0  0.26900  0.55766  0.55599  1.0000
  H   H184      1.0  0.33163  0.54055  0.57061  1.0000
  H   H185      1.0  0.26549  0.57931  0.55400  1.0000
  C   C157      1.0  0.28394  0.76182  0.54318  1.0000
  C   C158      1.0  0.25372  0.75947  0.53147  1.0000
  C   C159      1.0  0.24738  0.78634  0.53916  1.0000
  C   C160      1.0  0.27152  0.81615  0.55829  1.0000
  C   C161      1.0  0.30179  0.81856  0.56991  1.0000
  C   C162      1.0  0.30791  0.79152  0.56256  1.0000
  H   H186      1.0  0.23510  0.73671  0.51630  1.0000
  H   H187      1.0  0.22407  0.78414  0.52988  1.0000
  H   H188      1.0  0.32078  0.84159  0.58450  1.0000
  H   H189      1.0  0.33149  0.79395  0.57135  1.0000
  C   C163      1.0  0.15675  0.89969  0.46551  1.0000
  C   C164      1.0  0.10138  0.89021  0.44393  1.0000
  H   H190      1.0  0.11034  0.84794  0.43006  1.0000
  N   N12       1.0  0.45818  0.67550  0.56494  1.0000
  H   H191      1.0  0.29958  0.88104  0.64293  1.0000
  C   C165      1.0  0.43926  0.68807  0.54639  1.0000
  H   H192      1.0  0.31007  0.57299  0.63771  1.0000
  H   H193      1.0  0.06578  0.81669  0.60670  1.0000
  H   H194      1.0  0.30183  0.75060  0.62917  1.0000
  C   C166      1.0  0.23867  0.73721  0.62277  1.0000
  H   H195      1.0  0.05496  0.80982  0.40206  1.0000
  H   H196      1.0  0.43914  0.70968  0.56090  1.0000
  H   H197      1.0  0.45177  0.69825  0.52086  1.0000
  H   H198      1.0  0.40192  0.61146  0.54390  1.0000
  H   H199      1.0  0.44039  0.68157  0.61536  1.0000
  H   H200      1.0  0.03678  0.71210  0.57796  1.0000
  H   H201      1.0  0.25114  0.69445  0.65244  1.0000
  N   N13       1.0  0.13433  0.91411  0.46256  1.0000
  H   H202      1.0  0.06316  0.74787  0.54905  1.0000
  H   H203      1.0  0.45793  0.57418  0.48629  1.0000
  H   H204      1.0  0.15004  0.93743  0.51341  1.0000
  C   C167      1.0  0.42703  0.61613  0.53520  1.0000
  C   C168      1.0  0.03732  0.75207  0.63092  1.0000
  C   C169      1.0  0.15537  0.94779  0.44457  1.0000
  H   H205      1.0  0.24664  0.76173  0.60950  1.0000
  C   C170      1.0  0.06120  0.83510  0.41251  1.0000
  C   C171      1.0  0.05644  0.74079  0.57653  1.0000
  C   C172      1.0  0.24032  0.52281  0.55096  1.0000
  H   H206      1.0  0.33642  0.92086  0.60226  1.0000
  H   H207      1.0  0.16566  0.89526  0.43992  1.0000
  H   H208      1.0  0.14144  0.96173  0.44353  1.0000
  H   H209      1.0  0.00467  0.71880  0.53737  1.0000
  H   H210      1.0  0.45152  0.64896  0.61171  1.0000
  H   H211      1.0  0.21487  0.51798  0.54522  1.0000
  C   C173      1.0  0.12598  0.92132  0.49790  1.0000
  H   H212      1.0  0.22357  0.55761  0.66314  1.0000
  H   H213      1.0  0.45749  0.77489  0.66149  1.0000
  C   C174      1.0  0.07608  0.89923  0.44084  1.0000
  H   H214      1.0  0.02459  0.88325  0.42368  1.0000
  H   H215      1.0  0.41127  0.64050  0.59469  1.0000
  C   C175      1.0  0.27739  0.50087  0.56045  1.0000
  C   C176      1.0  0.09314  0.85750  0.42882  1.0000
  C   C177      1.0  0.25187  0.57331  0.65560  1.0000
  H   H216      1.0  0.20962  0.72148  0.62610  1.0000
  H   H217      1.0  0.10837  0.89648  0.51157  1.0000
  H   H218      1.0  0.41129  0.66706  0.54209  1.0000
  H   H219      1.0  0.18102  0.91802  0.48007  1.0000
  C   C178      1.0  0.28862  0.97176  0.62229  1.0000
  C   C179      1.0  0.01877  0.80726  0.49464  1.0000
  H   H220      1.0  0.16174  0.94347  0.41771  1.0000
  H   H221      1.0  0.01519  0.72437  0.63406  1.0000
  C   C180      1.0  0.04404  0.87639  0.42486  1.0000
  C   C181      1.0  0.03653  0.84429  0.41093  1.0000
  H   H222      1.0  0.18069  0.96617  0.45769  1.0000
  N   N14       1.0  0.04347  0.76149  0.59425  1.0000
  C   C182      1.0  0.45886  0.64795  0.54374  1.0000
  C   C183      1.0  0.49046  0.65200  0.53025  1.0000
  H   H223      1.0  0.47797  0.76465  0.51817  1.0000
  C   C184      1.0  0.42681  0.58986  0.51484  1.0000
  H   H224      1.0  0.26076  0.60157  0.65681  1.0000
  C   C185      1.0  0.43956  0.66092  0.59805  1.0000
  H   H225      1.0  0.07708  0.80719  0.56479  1.0000
  C   C186      1.0  0.26811  0.98612  0.62773  1.0000
  H   H226      1.0  0.35622  0.93780  0.66144  1.0000
  H   H227      1.0  0.32112  0.61224  0.66115  1.0000
  H   H228      1.0  0.25367  0.51888  0.62354  1.0000
  C   C187      1.0  0.28691  0.89586  0.64983  1.0000
  H   H229      1.0  0.14263  0.87446  0.47928  1.0000
  H   H230      1.0  0.40205  0.56590  0.50861  1.0000
  C   C188      1.0  0.45821  0.59452  0.50224  1.0000
  H   H231      1.0  0.24553  0.72196  0.60465  1.0000
  H   H232      1.0  0.06108  0.75534  0.64249  1.0000
  H   H233      1.0  0.09670  0.80424  0.60235  1.0000
  S   S47       1.0  0.13695  0.84895  0.65722  1.0000
  H   H234      1.0  0.35826  0.97859  0.66084  1.0000
  H   H235      1.0  0.30203  0.92476  0.58762  1.0000
  H   H236      1.0  0.49216  0.72628  0.58956  1.0000
  C   C189      1.0  0.32372  0.93605  0.60637  1.0000
  H   H237      1.0  0.30445  0.79104  0.63897  1.0000
  C   C190      1.0  0.48994  0.62552  0.50989  1.0000
  H   H238      1.0  0.01126  0.82615  0.39942  1.0000
  C   C191      1.0  0.29079  0.95146  0.64773  1.0000
  C   C192      1.0  0.29490  0.76459  0.64881  1.0000
  C   C193      1.0  0.26500  0.99447  0.47850  1.0000
  H   H239      1.0  0.21524  0.77354  0.64793  1.0000
  N   N15       1.0  0.31018  0.93374  0.64213  1.0000
  H   H240      1.0  0.01126  0.82426  0.50671  1.0000
  C   C194      1.0  0.49364  0.70640  0.57306  1.0000
  C   C195      1.0  0.24945  0.50724  0.64820  1.0000
  C   C196      1.0  0.01102  0.75564  0.57950  1.0000
  H   H241      1.0  0.00677  0.79160  0.61541  1.0000
  H   H242      1.0  0.30133  0.97584  0.59740  1.0000
  H   H243      1.0  0.34372  0.96357  0.59949  1.0000
  C   C197      1.0  0.30918  0.58357  0.66375  1.0000
  H   H244      1.0  0.23349  0.99199  0.66251  1.0000
  C   C198      1.0  0.24993  0.98146  0.65871  1.0000
  Fe  Fe25      1.0  0.31866  0.68779  0.89332  1.0000
  S   S48       1.0  0.29737  0.63118  0.87729  1.0000
  S   S49       1.0  0.28434  0.70962  0.88225  1.0000
  Fe  Fe26      1.0  0.39319  0.70224  0.90502  1.0000
  S   S50       1.0  0.37705  0.64712  0.89035  1.0000
  S   S51       1.0  0.44960  0.74941  0.91208  1.0000
  Fe  Fe27      1.0  0.34794  0.65171  0.84810  1.0000
  S   S52       1.0  0.35284  0.63313  0.79523  1.0000
  Fe  Fe28      1.0  0.32739  0.62991  0.92100  1.0000
  S   S53       1.0  0.30477  0.58197  0.95474  1.0000
  S   S54       1.0  0.36724  0.70793  0.86011  1.0000
  S   S55       1.0  0.34563  0.68545  0.93984  1.0000
  Fe  Fe29      1.0  0.20862  0.83325  0.91710  1.0000
  S   S56       1.0  0.16858  0.80613  0.87585  1.0000
  S   S57       1.0  0.23930  0.81400  0.94365  1.0000
  Fe  Fe30      1.0  0.19705  0.89471  0.92446  1.0000
  S   S58       1.0  0.15629  0.87177  0.88295  1.0000
  S   S59       1.0  0.20683  0.94005  0.96131  1.0000
  Fe  Fe31      1.0  0.13475  0.81984  0.90822  1.0000
  S   S60       1.0  0.07600  0.77755  0.91420  1.0000
  Fe  Fe32      1.0  0.19279  0.85967  0.85365  1.0000
  S   S61       1.0  0.21373  0.86960  0.79819  1.0000
  S   S62       1.0  0.17320  0.84313  0.95100  1.0000
  S   S63       1.0  0.23509  0.88641  0.89353  1.0000
  C   C199      1.0  0.10627  0.67532  0.94680  1.0000
  H   H245      1.0  0.32635  0.57998  0.68038  1.0000
  H   H246      1.0  0.28024  0.78941  0.97106  1.0000
  C   C200      1.0  0.25795  0.52781  0.67904  1.0000
  H   H247      1.0  0.27441  0.98691  0.92569  1.0000
  C   C201      1.0  0.04599  0.77117  0.94850  1.0000
  C   C202      1.0  0.23292  0.80356  0.72999  1.0000
  H   H248      1.0  0.16978  0.75740  0.92347  1.0000
  H   H249      1.0  0.45733  0.80578  0.97894  1.0000
  C   C203      1.0  0.15854  0.85478  0.69628  1.0000
  C   C204      1.0  0.13958  0.84763  0.72752  1.0000
  C   C205      1.0  0.15590  0.85190  0.75903  1.0000
  C   C206      1.0  0.19140  0.86337  0.75954  1.0000
  C   C207      1.0  0.21026  0.87031  0.72828  1.0000
  C   C208      1.0  0.19400  0.86610  0.69681  1.0000
  H   H250      1.0  0.11214  0.83887  0.72740  1.0000
  H   H251      1.0  0.14106  0.84646  0.78288  1.0000
  H   H252      1.0  0.23761  0.87888  0.72856  1.0000
  H   H253      1.0  0.43878  0.69548  0.78640  1.0000
  C   C209      1.0  0.34436  0.65471  0.76498  1.0000
  C   C210      1.0  0.35588  0.65572  0.73108  1.0000
  C   C211      1.0  0.34950  0.67319  0.70665  1.0000
  C   C212      1.0  0.33160  0.68963  0.71597  1.0000
  C   C213      1.0  0.32033  0.68886  0.75000  1.0000
  C   C214      1.0  0.32676  0.67143  0.77454  1.0000
  H   H254      1.0  0.36989  0.64315  0.72378  1.0000
  H   H255      1.0  0.43448  0.70742  0.83011  1.0000
  H   H256      1.0  0.30652  0.70160  0.75744  1.0000
  H   H257      1.0  0.31764  0.67056  0.80076  1.0000
  C   C215      1.0  0.28139  0.53817  0.93739  1.0000
  C   C216      1.0  0.27639  0.53124  0.90210  1.0000
  C   C217      1.0  0.26848  0.50968  0.95938  1.0000
  H   H258      1.0  0.28615  0.55277  0.88482  1.0000
  H   H259      1.0  0.27219  0.51472  0.98671  1.0000
  N   N16       1.0  0.11991  0.71230  0.93879  1.0000
  H   H260      1.0  0.40692  0.70597  0.79818  1.0000
  H   H261      1.0  0.28295  0.61034  0.71064  1.0000
  H   H262      1.0  0.46921  0.80118  0.81027  1.0000
  H   H263      1.0  0.46650  0.69633  0.92227  1.0000
  C   C218      1.0  0.25241  0.78565  0.92584  1.0000
  C   C219      1.0  0.24262  0.77022  0.89300  1.0000
  C   C220      1.0  0.25268  0.74715  0.88030  1.0000
  C   C221      1.0  0.27299  0.73939  0.89994  1.0000
  C   C222      1.0  0.28294  0.75499  0.93273  1.0000
  C   C223      1.0  0.27256  0.77780  0.94560  1.0000
  H   H264      1.0  0.22729  0.77599  0.87734  1.0000
  H   H265      1.0  0.24483  0.73531  0.85492  1.0000
  H   H266      1.0  0.29838  0.74923  0.94825  1.0000
  C   C224      1.0  0.25295  0.51020  0.71012  1.0000
  C   C225      1.0  0.13869  0.75876  0.98686  1.0000
  C   C226      1.0  0.45816  0.76970  0.68820  1.0000
  H   H267      1.0  0.26035  0.71374  0.69425  1.0000
  C   C227      1.0  0.49479  0.75901  0.80733  1.0000
  C   C228      1.0  0.34493  0.52164  0.90870  1.0000
  H   H268      1.0  0.40363  0.75003  0.69753  1.0000
  S   S64       1.0  0.32290  0.71097  0.68540  1.0000
  C   C229      1.0  0.21912  0.79656  0.69721  1.0000
  C   C230      1.0  0.46002  0.75681  0.75842  1.0000
  C   C231      1.0  0.10264  0.71290  0.90753  1.0000
  H   H269      1.0  0.05602  0.83593  0.90463  1.0000
  C   C232      1.0  0.27414  0.58226  0.71231  1.0000
  C   C233      1.0  0.49068  0.72121  0.91758  1.0000
  H   H270      1.0  0.16318  0.71659  0.90849  1.0000
  H   H271      1.0  0.21728  0.69534  0.67756  1.0000
  H   H272      1.0  0.26548  0.79780  0.76401  1.0000
  H   H273      1.0  0.07356  0.69729  0.90995  1.0000
  H   H274      1.0  0.04635  0.85601  0.96132  1.0000
  H   H275      1.0  0.11788  0.67386  0.97081  1.0000
  C   C234      1.0  0.00095  0.80181  0.89441  1.0000
  C   C235      1.0  0.43413  0.71339  0.80277  1.0000
  C   C236      1.0  0.02951  0.82642  0.91386  1.0000
  H   H276      1.0  0.22662  0.81774  0.74896  1.0000
  H   H277      1.0  0.31026  0.76812  0.67187  1.0000
  H   H278      1.0  0.34570  0.53605  0.88684  1.0000
  C   C237      1.0  0.48647  0.82073  0.97608  1.0000
  H   H279      1.0  0.05507  0.69417  0.96493  1.0000
  H   H280      1.0  0.25452  0.88881  0.96237  1.0000
  H   H281      1.0  0.23843  0.95926  0.70875  1.0000
  C   C238      1.0  0.11208  0.72925  0.96797  1.0000
  H   H282      1.0  0.29312  0.58210  0.72951  1.0000
  N   N17       1.0  0.27292  0.56604  0.67798  1.0000
  C   C239      1.0  0.48952  0.75050  0.91030  1.0000
  H   H283      1.0  0.33218  0.94700  0.69282  1.0000
  H   H284      1.0  0.36328  0.56601  0.94348  1.0000
  H   H285      1.0  0.20881  0.87162  0.67298  1.0000
  C   C240      1.0  0.27315  0.94859  0.67949  1.0000
  C   C241      1.0  0.42863  0.74929  0.74314  1.0000
  H   H286      1.0  0.08331  0.81459  0.98029  1.0000
  C   C242      1.0  0.27564  0.91492  0.97255  1.0000
  C   C243      1.0  0.48937  0.77721  0.70223  1.0000
  H   H287      1.0  0.11261  0.66199  0.92586  1.0000
  H   H288      1.0  0.16631  0.77085  0.98082  1.0000
  C   C244      1.0  0.15800  0.72966  0.93062  1.0000
  C   C245      1.0  0.35222  0.51994  0.96923  1.0000
  H   H289      1.0  0.07727  0.65956  0.95039  1.0000
  H   H290      1.0  0.45176  0.76990  0.84397  1.0000
  C   C246      1.0  0.01065  0.74322  0.94602  1.0000
  H   H291      1.0  0.26947  0.93425  0.96459  1.0000
  H   H292      1.0  0.49242  0.81419  0.94996  1.0000
  H   H293      1.0  0.25953  0.52369  0.73484  1.0000
  H   H294      1.0  0.17279  0.72928  0.95253  1.0000
  H   H295      1.0  0.27452  0.93465  0.70047  1.0000
  H   H296      1.0  0.35850  0.67391  0.68071  1.0000
  H   H297      1.0  0.40435  0.73847  0.75784  1.0000
  H   H298      1.0  0.35898  0.53312  0.99420  1.0000
  H   H299      1.0  0.48589  0.76162  0.97850  1.0000
  C   C247      1.0  0.05629  0.79302  0.97791  1.0000
  H   H300      1.0  0.27970  0.76540  0.72211  1.0000
  H   H301      1.0  0.30059  0.92139  0.95932  1.0000
  C   C248      1.0  0.26255  0.77354  0.71431  1.0000
  H   H302      1.0  0.24782  0.56871  0.72517  1.0000
  C   C249      1.0  0.25474  0.79223  0.73846  1.0000
  C   C250      1.0  0.07676  0.71614  0.97831  1.0000
  H   H303      1.0  0.10956  0.70235  0.88446  1.0000
  C   C251      1.0  0.24103  0.98499  0.96748  1.0000
  C   C252      1.0  0.49051  0.77096  0.73683  1.0000
  C   C253      1.0  0.35487  0.53862  0.94066  1.0000
  H   H304      1.0  0.11054  0.74014  0.90208  1.0000
  C   C254      1.0  0.42786  0.75575  0.70859  1.0000
  C   C255      1.0  0.22674  0.77787  0.67282  1.0000
  C   C256      1.0  0.24842  0.76534  0.68086  1.0000
  H   H305      1.0  0.20213  0.80546  0.69078  1.0000
  N   N18       1.0  0.46030  0.75073  0.79538  1.0000
  H   H306      1.0  0.00233  0.72613  0.92344  1.0000
  C   C257      1.0  0.45091  0.77293  0.81594  1.0000
  C   C258      1.0  0.02398  0.83768  0.94584  1.0000
  H   H307      1.0  0.42384  0.76597  0.81094  1.0000
  H   H308      1.0  0.49374  0.75360  0.83510  1.0000
  H   H309      1.0  0.27928  0.89119  0.67737  1.0000
  C   C259      1.0  0.25270  0.96300  0.68466  1.0000
  C   C260      1.0  0.24576  0.71066  0.67075  1.0000
  H   H310      1.0  0.49585  0.84901  0.97665  1.0000
  H   H311      1.0  0.00550  0.79249  0.86995  1.0000
  C   C261      1.0  0.34052  0.94997  0.66532  1.0000
  H   H312      1.0  0.81238  0.33033  0.13175  1.0000
  Fe  Fe33      1.0  0.84394  0.12777  0.03805  1.0000
  S   S65       1.0  0.85105  0.17635  0.01544  1.0000
  H   H313      1.0  0.84873  0.47903  0.14287  1.0000
  Fe  Fe34      1.0  0.86674  0.16436  0.11019  1.0000
  S   S66       1.0  0.87545  0.21496  0.09225  1.0000
  S   S67       1.0  0.87638  0.15249  0.16349  1.0000
  Fe  Fe35      1.0  0.82484  0.18084  0.06411  1.0000
  S   S68       1.0  0.77846  0.18771  0.07023  1.0000
  Fe  Fe36      1.0  0.90126  0.20648  0.04528  1.0000
  C   C262      1.0  0.81965  0.46520  0.14442  1.0000
  S   S69       1.0  0.81452  0.13011  0.08483  1.0000
  S   S70       1.0  0.89580  0.15813  0.06513  1.0000
  S   S71       1.0  0.66202  0.29862  0.29879  1.0000
  Fe  Fe37      1.0  0.71504  0.39140  0.04820  1.0000
  S   S72       1.0  0.67779  0.37421  0.09379  1.0000
  S   S73       1.0  0.73772  0.44103  0.01721  1.0000
  Fe  Fe38      1.0  0.72648  0.32999  0.05345  1.0000
  S   S74       1.0  0.69046  0.30871  0.09940  1.0000
  S   S75       1.0  0.76541  0.31582  0.03301  1.0000
  Fe  Fe39      1.0  0.65428  0.31925  0.07126  1.0000
  H   H314      1.0  0.75991  0.45863  0.16311  1.0000
  Fe  Fe40      1.0  0.71609  0.36461  0.11778  1.0000
  S   S76       1.0  0.74203  0.38722  0.16856  1.0000
  S   S77       1.0  0.75456  0.38545  0.07410  1.0000
  C   C263      1.0  0.68328  0.32369  0.26260  1.0000
  C   C264      1.0  0.67304  0.30822  0.22980  1.0000
  C   C265      1.0  0.69042  0.32781  0.20062  1.0000
  C   C266      1.0  0.71862  0.36259  0.20434  1.0000
  C   C267      1.0  0.72915  0.37786  0.23713  1.0000
  C   C268      1.0  0.71122  0.35858  0.26623  1.0000
  H   H315      1.0  0.65129  0.28126  0.22695  1.0000
  H   H316      1.0  0.68202  0.31598  0.17535  1.0000
  H   H317      1.0  0.75085  0.40483  0.24006  1.0000
  H   H318      1.0  0.71895  0.37081  0.29141  1.0000
  C   C269      1.0  0.55685  0.27202  0.06593  1.0000
  C   C270      1.0  0.55594  0.30231  0.06447  1.0000
  H   H319      1.0  0.58011  0.32782  0.06622  1.0000
  C   C271      1.0  0.77481  0.22258  0.05701  1.0000
  C   C272      1.0  0.80317  0.25304  0.04287  1.0000
  C   C273      1.0  0.79944  0.28085  0.03464  1.0000
  C   C274      1.0  0.76758  0.27879  0.04099  1.0000
  C   C275      1.0  0.73910  0.24816  0.05475  1.0000
  C   C276      1.0  0.74268  0.22015  0.06248  1.0000
  H   H320      1.0  0.82802  0.25528  0.03845  1.0000
  H   H321      1.0  0.71432  0.24605  0.05933  1.0000
  H   H322      1.0  0.72048  0.19651  0.07305  1.0000
  H   H323      1.0  0.96711  0.17962  0.10280  1.0000
  S   S78       1.0  0.95221  0.25247  0.02252  1.0000
  H   H324      1.0  0.77984  0.24010  0.12939  1.0000
  H   H325      1.0  0.99103  0.18695  0.14182  1.0000
  C   C277      1.0  0.52365  0.29959  0.06084  1.0000
  H   H326      1.0  0.82431  0.27989  0.24719  1.0000
  H   H327      1.0  0.74614  0.19113  0.25075  1.0000
  H   H328      1.0  0.74370  0.30038  0.20046  1.0000
  N   N19       1.0  0.76511  0.28842  0.15540  1.0000
  C   C278      1.0  0.78863  0.24921  0.15534  1.0000
  C   C279      1.0  0.89150  0.20523  0.27085  1.0000
  C   C280      1.0  0.87948  0.16966  0.26701  1.0000
  C   C281      1.0  0.87434  0.15390  0.23397  1.0000
  C   C282      1.0  0.88017  0.17313  0.20437  1.0000
  C   C283      1.0  0.89129  0.20853  0.20818  1.0000
  C   C284      1.0  0.89733  0.22456  0.24124  1.0000
  H   H329      1.0  0.87506  0.15446  0.28943  1.0000
  H   H330      1.0  0.86591  0.12656  0.23133  1.0000
  H   H331      1.0  0.89610  0.22374  0.18569  1.0000
  H   H332      1.0  0.90677  0.25213  0.24390  1.0000
  C   C285      1.0  0.74730  0.23156  0.28321  1.0000
  S   S79       1.0  0.90212  0.22718  0.31174  1.0000
  C   C286      1.0  0.69610  0.22476  0.24001  1.0000
  C   C287      1.0  0.97267  0.19189  0.12905  1.0000
  C   C288      1.0  0.79642  0.28482  0.20647  1.0000
  H   H333      1.0  0.95465  0.22621  0.08659  1.0000
  H   H334      1.0  0.93247  0.21562  0.12781  1.0000
  C   C289      1.0  0.75363  0.48377  0.03459  1.0000
  H   H335      1.0  0.78548  0.33693  0.18492  1.0000
  H   H336      1.0  0.96320  0.25996  0.11762  1.0000
  H   H337      1.0  0.82159  0.30440  0.02387  1.0000
  H   H338      1.0  0.67563  0.22159  0.22377  1.0000
  H   H339      1.0  0.73519  0.31545  0.29593  1.0000
  H   H340      1.0  0.71563  0.26900  0.13102  1.0000
  C   C290      1.0  0.81881  0.24672  0.20376  1.0000
  C   C291      1.0  0.78315  0.27415  0.17271  1.0000
  S   S80       1.0  0.59647  0.27361  0.07207  1.0000
  S   S81       1.0  0.68915  0.33703  0.02357  1.0000
  H   H341      1.0  0.97609  0.20410  0.02716  1.0000
  C   C292      1.0  0.52506  0.23907  0.06356  1.0000
  H   H342      1.0  0.77746  0.32257  0.28502  1.0000
  C   C293      1.0  0.73558  0.20751  0.25544  1.0000
  H   H343      1.0  0.83251  0.23626  0.21548  1.0000
  N   N20       1.0  0.98638  0.22998  0.12798  1.0000
  H   H344      1.0  0.52546  0.21547  0.06454  1.0000
  H   H345      1.0  0.96954  0.22982  0.18044  1.0000
  H   H346      1.0  0.80984  0.21670  0.15664  1.0000
  H   H347      1.0  0.73104  0.24052  0.12617  1.0000
  H   H348      1.0  0.50150  0.30395  0.16585  1.0000
  H   H349      1.0  0.79032  0.29071  0.10651  1.0000
  N   N21       1.0  0.74595  0.27949  0.31869  1.0000
  H   H350      1.0  0.52333  0.32323  0.05981  1.0000
  H   H351      1.0  0.77276  0.31768  0.10996  1.0000
  C   C294      1.0  0.81412  0.27131  0.22155  1.0000
  H   H352      1.0  0.75934  0.48579  0.13171  1.0000
  C   C295      1.0  0.71019  0.20424  0.23379  1.0000
  C   C296      1.0  0.72984  0.25926  0.14446  1.0000
  H   H353      1.0  0.69550  0.26377  0.27166  1.0000
  H   H354      1.0  0.70108  0.18539  0.21245  1.0000
  C   C297      1.0  0.80604  0.23569  0.17072  1.0000
  H   H355      1.0  0.76659  0.23226  0.29922  1.0000
  H   H356      1.0  0.71337  0.24410  0.16675  1.0000
  S   S82       1.0  0.83760  0.08091  0.00588  1.0000
  H   H357      1.0  0.74622  0.32299  0.16304  1.0000
  H   H358      1.0  0.80834  0.44038  0.12873  1.0000
  C   C298      1.0  0.76004  0.31314  0.17717  1.0000
  H   H359      1.0  0.81114  0.45693  0.17130  1.0000
  C   C299      1.0  0.73403  0.25348  0.28980  1.0000
  H   H360      1.0  0.79358  0.30366  0.22161  1.0000
  C   C300      1.0  0.70775  0.24898  0.26756  1.0000
  H   H361      1.0  0.51184  0.28786  0.21721  1.0000
  H   H362      1.0  0.75530  0.44514  0.11917  1.0000
  H   H363      1.0  0.72001  0.46666  0.07939  1.0000
  C   C301      1.0  0.78598  0.30758  0.12470  1.0000
  H   H364      1.0  0.94750  0.17728  0.14402  1.0000
  C   C302      1.0  0.75735  0.31457  0.30589  1.0000
  C   C303      1.0  0.76901  0.46858  0.13679  1.0000
  C   C304      1.0  0.95808  0.23313  0.11444  1.0000
  H   H365      1.0  0.80266  0.46750  0.08016  1.0000
  H   H366      1.0  0.76237  0.05459  0.00155  1.0000
  H   H367      1.0  0.50195  0.28642  0.27933  1.0000
  H   H368      1.0  0.51819  0.26117  0.16940  1.0000
  C   C305      1.0  0.99116  0.25444  0.00856  1.0000
  C   C306      1.0  0.74090  0.48904  0.06591  1.0000
  H   H369      1.0  0.79873  0.29078  0.32007  1.0000
  H   H370      1.0  0.98766  0.28612  0.31874  1.0000
  N   N22       1.0  0.80772  0.48765  0.13249  1.0000
  C   C307      1.0  0.81633  0.49281  0.09522  1.0000
  H   H371      1.0  0.76871  0.33518  0.32666  1.0000
  C   C308      1.0  0.99345  0.24438  0.16363  1.0000
  C   C309      1.0  0.99592  0.22692  0.01352  1.0000
  H   H372      1.0  0.80211  0.49558  0.20209  1.0000
  Fe  Fe41      1.0  0.90457  0.21701  0.43910  1.0000
  S   S83       1.0  0.84969  0.17860  0.45976  1.0000
  S   S84       1.0  0.95294  0.25913  0.46916  1.0000
  Fe  Fe42      1.0  0.88090  0.20158  0.36390  1.0000
  S   S85       1.0  0.82517  0.16180  0.37898  1.0000
  Fe  Fe43      1.0  0.83060  0.19998  0.42094  1.0000
  S   S86       1.0  0.78172  0.20280  0.42948  1.0000
  Fe  Fe44      1.0  0.84714  0.14239  0.41674  1.0000
  S   S87       1.0  0.81864  0.08231  0.41775  1.0000
  S   S88       1.0  0.88510  0.24096  0.40390  1.0000
  S   S89       1.0  0.90314  0.17955  0.39811  1.0000
  Fe  Fe45      1.0  0.71453  0.40112  0.38760  1.0000
  S   S90       1.0  0.70441  0.37443  0.43805  1.0000
  S   S91       1.0  0.75106  0.45938  0.37426  1.0000
  H   H373      1.0  0.72441  0.28777  0.36566  1.0000
  S   S92       1.0  0.66613  0.29869  0.39569  1.0000
  Fe  Fe46      1.0  0.65002  0.33491  0.41754  1.0000
  S   S93       1.0  0.59921  0.31156  0.44946  1.0000
  Fe  Fe47      1.0  0.72094  0.34003  0.41141  1.0000
  S   S94       1.0  0.76657  0.33540  0.42699  1.0000
  S   S95       1.0  0.65923  0.36385  0.36889  1.0000
  S   S96       1.0  0.73394  0.36882  0.36236  1.0000
  C   C310      1.0  0.55329  0.29445  0.39592  1.0000
  C   C311      1.0  0.55722  0.29387  0.43121  1.0000
  C   C312      1.0  0.52696  0.27809  0.45253  1.0000
  H   H374      1.0  0.57622  0.30642  0.37916  1.0000
  H   H375      1.0  0.52970  0.27754  0.47985  1.0000
  C   C313      1.0  0.77822  0.24004  0.42760  1.0000
  C   C314      1.0  0.74468  0.23490  0.42681  1.0000
  C   C315      1.0  0.74055  0.26363  0.42638  1.0000
  C   C316      1.0  0.76999  0.29800  0.42721  1.0000
  C   C317      1.0  0.80353  0.30315  0.42795  1.0000
  C   C318      1.0  0.80767  0.27440  0.42779  1.0000
  H   H376      1.0  0.72168  0.20848  0.42687  1.0000
  H   H377      1.0  0.71456  0.25915  0.42621  1.0000
  H   H378      1.0  0.82653  0.32955  0.42868  1.0000
  H   H379      1.0  0.83363  0.27885  0.42862  1.0000
  C   C319      1.0  0.80440  0.05235  0.45194  1.0000
  C   C320      1.0  0.81779  0.06306  0.48500  1.0000
  H   H380      1.0  0.81761  0.04673  0.53622  1.0000
  H   H381      1.0  0.69719  0.08164  0.43036  1.0000
  H   H382      1.0  0.83718  0.09045  0.49048  1.0000
  H   H383      1.0  0.66419  0.03728  0.46756  1.0000
  C   C321      1.0  0.99352  0.23338  0.48882  1.0000
  C   C322      1.0  0.78168  0.00227  0.50434  1.0000
  H   H384      1.0  0.76928  0.12987  0.51281  1.0000
  H   H385      1.0  0.57748  0.23629  0.41906  1.0000
  C   C323      1.0  0.98132  0.25404  0.37481  1.0000
  H   H386      1.0  0.54674  0.22458  0.36456  1.0000
  C   C324      1.0  0.71683  0.06401  0.48955  1.0000
  H   H387      1.0  0.73126  0.48109  0.43904  1.0000
  C   C325      1.0  0.71654  0.26866  0.34362  1.0000
  H   H388      1.0  0.70722  0.24251  0.35414  1.0000
  H   H389      1.0  0.78313  0.10519  0.46327  1.0000
  H   H390      1.0  0.77291  0.12823  0.43504  1.0000
  C   C326      1.0  0.53189  0.21101  0.38738  1.0000
  H   H391      1.0  0.75213  0.08145  0.43012  1.0000
  C   C327      1.0  0.54933  0.21761  0.41808  1.0000
  H   H392      1.0  0.80022  0.44491  0.39907  1.0000
  C   C328      1.0  0.80673  0.03813  0.51087  1.0000
  H   H393      1.0  0.68477  0.09746  0.46834  1.0000
  H   H394      1.0  0.54409  0.20778  0.47185  1.0000
  H   H395      1.0  0.82783  0.40000  0.45243  1.0000
  H   H396      1.0  0.80294  0.40761  0.40363  1.0000
  H   H397      1.0  0.71987  0.12739  0.44059  1.0000
  H   H398      1.0  0.51700  0.27986  0.35483  1.0000
  H   H399      1.0  0.95434  0.29186  0.36896  1.0000
  H   H400      1.0  0.86883  0.43827  0.44096  1.0000
  N   N23       1.0  0.73246  0.09819  0.47277  1.0000
  C   C329      1.0  0.72340  0.02585  0.52714  1.0000
  H   H401      1.0  0.75757  0.15316  0.48711  1.0000
  H   H402      1.0  0.97226  0.24638  0.40176  1.0000
  H   H403      1.0  0.77487  0.43843  0.45623  1.0000
  N   N24       1.0  0.82569  0.44585  0.44529  1.0000
  H   H404      1.0  0.72652  0.12325  0.51828  1.0000
  H   H405      1.0  0.84157  0.44901  0.39216  1.0000
  C   C330      1.0  0.84423  0.42910  0.45621  1.0000
  C   C331      1.0  0.51959  0.27929  0.38218  1.0000
  H   H406      1.0  0.95727  0.24147  0.35904  1.0000
  C   C332      1.0  0.79236  0.43039  0.46547  1.0000
  C   C333      1.0  0.76134  0.10350  0.44934  1.0000
  Fe  Fe48      1.0  0.67832  0.32991  0.34842  1.0000
  C   C334      1.0  0.70723  0.10104  0.45221  1.0000
  H   H407      1.0  0.85035  0.43415  0.48399  1.0000
  C   C335      1.0  0.74698  0.12722  0.49894  1.0000
  C   C336      1.0  0.53039  0.20159  0.44786  1.0000
  H   H408      1.0  0.79735  0.43841  0.49306  1.0000
  C   C337      1.0  0.77943  0.01647  0.44537  1.0000
  C   C338      1.0  0.99025  0.26226  0.48707  1.0000
  C   C339      1.0  0.73732  0.05803  0.51141  1.0000
  H   H409      1.0  0.97288  0.20799  0.47902  1.0000
  H   H410      1.0  0.78520  0.30432  0.35787  1.0000
  C   C340      1.0  0.68169  0.03553  0.48408  1.0000
  H   H411      1.0  0.77697  0.40114  0.46381  1.0000
  C   C341      1.0  0.81733  0.43650  0.40849  1.0000
  H   H412      1.0  0.76455  0.07796  0.51598  1.0000
  H   H413      1.0  0.73959  0.02175  0.54357  1.0000
  H   H414      1.0  0.76881  0.00785  0.41992  1.0000
  C   C342      1.0  0.66819  0.00330  0.49969  1.0000
  C   C343      1.0  0.97951  0.30568  0.38310  1.0000
  H   H415      1.0  0.97280  0.30134  0.41096  1.0000
  H   H416      1.0  0.76830  0.25895  0.35083  1.0000
  C   C344      1.0  0.77585  0.28339  0.33745  1.0000
  C   C345      1.0  0.68901  0.99848  0.52112  1.0000
  H   H417      1.0  0.89421  0.49144  0.47060  1.0000
  H   H418      1.0  0.99638  0.24221  0.36582  1.0000
  H   H419      1.0  0.99199  0.33412  0.37895  1.0000
  C   C346      1.0  0.84625  0.48453  0.45011  1.0000
  H   H420      1.0  0.80567  0.49117  0.43107  1.0000
  H   H421      1.0  0.69359  0.26689  0.33200  1.0000
  H   H422      1.0  0.90755  0.11026  0.90635  1.0000
  H   H423      1.0  0.74782  0.03031  0.75159  1.0000
  H   H424      1.0  0.71240  0.99875  0.97727  1.0000
  H   H425      1.0  0.89728  0.15928  0.89192  1.0000
  C   C347      1.0  0.90592  0.11745  0.93365  1.0000
  H   H426      1.0  0.86706  0.14279  0.92807  1.0000
  C   C348      1.0  0.97077  0.21550  0.92342  1.0000
  C   C349      1.0  0.89493  0.16172  0.92023  1.0000
  C   C350      1.0  0.75394  0.00343  0.79236  1.0000
  C   C351      1.0  0.80035  0.04074  0.99051  1.0000
  C   C352      1.0  0.97807  0.16644  0.91588  1.0000
  N   N25       1.0  0.91933  0.15542  0.93808  1.0000
  H   H427      1.0  0.96951  0.13922  0.91738  1.0000
  H   H428      1.0  0.93535  0.15796  0.98974  1.0000
  H   H429      1.0  0.92621  0.19069  0.98040  1.0000
  C   C353      1.0  0.95579  0.17879  0.92512  1.0000
  C   C354      1.0  0.91801  0.16301  0.97513  1.0000
  H   H430      1.0  0.87791  0.10063  0.94217  1.0000
  H   H431      1.0  0.89960  0.18807  0.92653  1.0000
  H   H432      1.0  0.92028  0.10972  0.94975  1.0000
  H   H433      1.0  0.95632  0.22725  0.93206  1.0000
  C   C355      1.0  0.80526  0.01453  0.97628  1.0000
  C   C356      1.0  0.76662  0.03470  0.99087  1.0000
  H   H434      1.0  0.89106  0.14639  0.98597  1.0000
  H   H435      1.0  0.78869  0.02095  0.85622  1.0000
  H   H436      1.0  0.75501  0.02222  0.81107  1.0000
  C   C357      1.0  0.73829  0.00295  0.97704  1.0000
  C   C358      1.0  0.74970  0.00839  0.75816  1.0000
  H   H437      1.0  0.74163  0.99889  0.86384  1.0000
  H   H438      1.0  0.83117  0.01880  0.97593  1.0000
  S   S97       1.0  0.89358  0.70643  0.30377  1.0000
  Fe  Fe49      1.0  0.85812  0.71728  0.10789  1.0000
  S   S98       1.0  0.80982  0.67962  0.07785  1.0000
  S   S99       1.0  0.84793  0.73289  0.16140  1.0000
  Fe  Fe50      1.0  0.90719  0.71978  0.04931  1.0000
  Fe  Fe51      1.0  0.83806  0.71199  0.03177  1.0000
  C   C359      1.0  0.49741  0.82448  0.03665  1.0000
  Fe  Fe52      1.0  0.83667  0.65060  0.06584  1.0000
  S   S100      1.0  0.80299  0.59415  0.08423  1.0000
  S   S101      1.0  0.88416  0.75242  0.06270  1.0000
  S   S102      1.0  0.88437  0.68777  0.09726  1.0000
  H   H439      1.0  0.86549  0.60756  0.20973  1.0000
  C   C360      1.0  0.78750  0.57956  0.27854  1.0000
  C   C361      1.0  0.78261  0.55258  0.06271  1.0000
  C   C362      1.0  0.79449  0.54748  0.03075  1.0000
  C   C363      1.0  0.75536  0.52325  0.07988  1.0000
  H   H440      1.0  0.74564  0.52691  0.10437  1.0000
  C   C364      1.0  0.82414  0.52086  0.15312  1.0000
  C   C365      1.0  0.80899  0.61509  0.27154  1.0000
  H   H441      1.0  0.64685  0.75085  0.02391  1.0000
  C   C366      1.0  0.88264  0.71682  0.26481  1.0000
  C   C367      1.0  0.85889  0.72743  0.26372  1.0000
  C   C368      1.0  0.84943  0.73333  0.23190  1.0000
  C   C369      1.0  0.86340  0.72850  0.20086  1.0000
  C   C370      1.0  0.88776  0.71866  0.20203  1.0000
  C   C371      1.0  0.89716  0.71271  0.23381  1.0000
  H   H442      1.0  0.84754  0.73074  0.28734  1.0000
  H   H443      1.0  0.83075  0.74117  0.23133  1.0000
  H   H444      1.0  0.89905  0.71523  0.17843  1.0000
  H   H445      1.0  0.91568  0.70466  0.23439  1.0000
  H   H446      1.0  0.81707  0.77878  0.03330  1.0000
  H   H447      1.0  0.81541  0.56977  0.01721  1.0000
  H   H448      1.0  0.82832  0.54995  0.23678  1.0000
  N   N26       1.0  0.78024  0.61885  0.18233  1.0000
  C   C372      1.0  0.77186  0.64602  0.18939  1.0000
  C   C373      1.0  0.81448  0.63515  0.16383  1.0000
  C   C374      1.0  0.75325  0.59192  0.15876  1.0000
  C   C375      1.0  0.78235  0.60469  0.21500  1.0000
  C   C376      1.0  0.80647  0.62750  0.24035  1.0000
  C   C377      1.0  0.76107  0.56845  0.22275  1.0000
  H   H449      1.0  0.74694  0.52863  0.25982  1.0000
  S   S103      1.0  0.96642  0.75300  0.03638  1.0000
  C   C378      1.0  0.77992  0.51319  0.01671  1.0000
  H   H450      1.0  0.79264  0.66902  0.20413  1.0000
  H   H451      1.0  0.76966  0.65694  0.16526  1.0000
  H   H452      1.0  0.74684  0.63528  0.20431  1.0000
  H   H453      1.0  0.83626  0.65636  0.17906  1.0000
  H   H454      1.0  0.81432  0.64725  0.13973  1.0000
  H   H455      1.0  0.82114  0.61542  0.15668  1.0000
  H   H456      1.0  0.72645  0.57919  0.17042  1.0000
  H   H457      1.0  0.75286  0.60358  0.13431  1.0000
  H   H458      1.0  0.75892  0.57151  0.15100  1.0000
  H   H459      1.0  0.82355  0.65530  0.23629  1.0000
  H   H460      1.0  0.74210  0.54903  0.20507  1.0000
  H   H461      1.0  0.80787  0.50919  0.08426  1.0000
  C   C379      1.0  0.72280  0.73052  0.04525  1.0000
  C   C380      1.0  0.84545  0.55448  0.13840  1.0000
  S   S104      1.0  0.86161  0.67990  0.01690  1.0000
  C   C381      1.0  0.86034  0.58524  0.15877  1.0000
  H   H462      1.0  0.82763  0.63336  0.29047  1.0000
  C   C382      1.0  0.85415  0.58359  0.19410  1.0000
  H   H463      1.0  0.85076  0.55790  0.11114  1.0000
  C   C383      1.0  0.80374  0.77698  0.01017  1.0000
  H   H464      1.0  0.87640  0.61057  0.14689  1.0000
  C   C384      1.0  0.81837  0.52017  0.18921  1.0000
  H   H465      1.0  0.78923  0.57011  0.30298  1.0000
  H   H466      1.0  0.74471  0.69857  0.04476  1.0000
  C   C385      1.0  0.76366  0.55628  0.25417  1.0000
  H   H467      1.0  0.79442  0.81741  0.02683  1.0000
  C   C386      1.0  0.79083  0.79889  0.00640  1.0000
  H   H468      1.0  0.50811  0.85309  0.03737  1.0000
  C   C387      1.0  0.72633  0.70323  0.03301  1.0000
  H   H469      1.0  0.73851  0.74697  0.06662  1.0000
  C   C388      1.0  0.70069  0.73798  0.02898  1.0000
  H   H470      1.0  0.70049  0.76046  0.03898  1.0000
  H   H471      1.0  0.84493  0.50541  0.08996  1.0000
  C   C389      1.0  0.83317  0.55112  0.20928  1.0000
  H   H472      1.0  0.61165  0.68616  0.01017  1.0000
  C   C390      1.0  0.99616  0.75909  0.00185  1.0000
  C   C391      1.0  0.68087  0.71768  0.00003  1.0000
  H   H473      1.0  0.51052  0.81949  0.05712  1.0000
  H   H474      1.0  0.93426  0.79353  0.00655  1.0000
  N   N27       1.0  0.50281  0.81191  0.00268  1.0000
  C   C392      1.0  0.70738  0.68291  0.00471  1.0000
  Fe  Fe53      1.0  0.87668  0.71142  0.35858  1.0000
  S   S105      1.0  0.82077  0.68545  0.37767  1.0000
  Fe  Fe54      1.0  0.90710  0.73727  0.43062  1.0000
  S   S106      1.0  0.85293  0.71223  0.45481  1.0000
  S   S107      1.0  0.95366  0.77373  0.46549  1.0000
  Fe  Fe55      1.0  0.83733  0.66518  0.41958  1.0000
  S   S108      1.0  0.79991  0.61049  0.44163  1.0000
  Fe  Fe56      1.0  0.83985  0.73405  0.41167  1.0000
  S   S109      1.0  0.80782  0.75990  0.41608  1.0000
  S   S110      1.0  0.89258  0.68848  0.39908  1.0000
  S   S111      1.0  0.89474  0.76169  0.38887  1.0000
  Fe  Fe57      1.0  0.65806  0.84370  0.54226  1.0000
  S   S112      1.0  0.67750  0.89234  0.57539  1.0000
  S   S113      1.0  0.60517  0.81397  0.51553  1.0000
  Fe  Fe58      1.0  0.72472  0.84312  0.55141  1.0000
  S   S114      1.0  0.74785  0.89116  0.58670  1.0000
  S   S115      1.0  0.75608  0.81675  0.54323  1.0000
  Fe  Fe59      1.0  0.69428  0.86663  0.61143  1.0000
  H   H475      1.0  0.89848  0.58710  0.46157  1.0000
  Fe  Fe60      1.0  0.72970  0.91355  0.54809  1.0000
  S   S116      1.0  0.76894  0.97236  0.53836  1.0000
  S   S117      1.0  0.67215  0.81679  0.57930  1.0000
  S   S118      1.0  0.70920  0.86664  0.51173  1.0000
  H   H476      1.0  0.53152  0.81421  0.61203  1.0000
  H   H477      1.0  0.77389  0.92825  0.47888  1.0000
  H   H478      1.0  0.83502  0.97928  0.49345  1.0000
  H   H479      1.0  0.74827  0.96429  0.46598  1.0000
  C   C393      1.0  0.78532  0.56868  0.42166  1.0000
  C   C394      1.0  0.76116  0.53799  0.43933  1.0000
  C   C395      1.0  0.79779  0.56524  0.38931  1.0000
  H   H480      1.0  0.75138  0.54024  0.46440  1.0000
  H   H481      1.0  0.81652  0.58850  0.37544  1.0000
  C   C396      1.0  0.79409  0.77593  0.45183  1.0000
  C   C397      1.0  0.80120  0.77322  0.48571  1.0000
  C   C398      1.0  0.78934  0.78586  0.51316  1.0000
  C   C399      1.0  0.77027  0.80142  0.50727  1.0000
  C   C400      1.0  0.76334  0.80435  0.47338  1.0000
  C   C401      1.0  0.77514  0.79162  0.44591  1.0000
  H   H482      1.0  0.81594  0.76154  0.49078  1.0000
  H   H483      1.0  0.79493  0.78349  0.53923  1.0000
  H   H484      1.0  0.74880  0.81626  0.46831  1.0000
  H   H485      1.0  0.76957  0.79400  0.41983  1.0000
  C   C402      1.0  0.78730  0.91667  0.46470  1.0000
  H   H486      1.0  0.50854  0.72030  0.54949  1.0000
  C   C403      1.0  0.88413  0.55876  0.45848  1.0000
  C   C404      1.0  0.53393  0.78633  0.51739  1.0000
  C   C405      1.0  0.56529  0.80446  0.53593  1.0000
  C   C406      1.0  0.56410  0.81430  0.57017  1.0000
  H   H487      1.0  0.70124  0.73237  0.46154  1.0000
  H   H488      1.0  0.53466  0.77888  0.49080  1.0000
  H   H489      1.0  0.58799  0.82832  0.58474  1.0000
  C   C407      1.0  0.85593  0.89267  0.41066  1.0000
  H   H490      1.0  0.83851  0.55482  0.43872  1.0000
  C   C408      1.0  0.86091  0.86953  0.42801  1.0000
  H   H491      1.0  0.92706  0.74427  0.53990  1.0000
  H   H492      1.0  0.95428  0.78378  0.59048  1.0000
  H   H493      1.0  0.76862  0.88766  0.46331  1.0000
  H   H494      1.0  0.69551  0.69809  0.56335  1.0000
  C   C409      1.0  0.83170  0.50407  0.44136  1.0000
  H   H495      1.0  0.83520  0.92483  0.53315  1.0000
  H   H496      1.0  0.85099  0.97362  0.45285  1.0000
  C   C410      1.0  0.84347  0.91148  0.42831  1.0000
  H   H497      1.0  0.68748  0.73371  0.52319  1.0000
  H   H498      1.0  0.78542  0.65477  0.48795  1.0000
  H   H499      1.0  0.92571  0.55481  0.47729  1.0000
  C   C411      1.0  0.81157  0.91758  0.51842  1.0000
  H   H500      1.0  0.76226  0.64516  0.43273  1.0000
  H   H501      1.0  0.77031  0.68833  0.43496  1.0000
  N   N28       1.0  0.82016  0.92604  0.48160  1.0000
  C   C412      1.0  0.96531  0.76923  0.57976  1.0000
  C   C413      1.0  0.99534  0.77989  0.47224  1.0000
  H   H502      1.0  0.83974  0.92889  0.41371  1.0000
  H   H503      1.0  0.72749  0.65095  0.42373  1.0000
  C   C414      1.0  0.96402  0.72841  0.53720  1.0000
  C   C415      1.0  0.99436  0.73282  0.55067  1.0000
  C   C416      1.0  0.83510  0.90722  0.46395  1.0000
  C   C417      1.0  0.89936  0.54048  0.46729  1.0000
  H   H504      1.0  0.64148  0.98173  0.49492  1.0000
  C   C418      1.0  0.75030  0.66043  0.44064  1.0000
  H   H505      1.0  0.83485  0.87812  0.50785  1.0000
  C   C419      1.0  0.76238  0.50090  0.39277  1.0000
  C   C420      1.0  0.78649  0.53160  0.37510  1.0000
  H   H506      1.0  0.79149  0.88916  0.52174  1.0000
  H   H507      1.0  0.70693  0.61243  0.51043  1.0000
  C   C421      1.0  0.94972  0.74677  0.55148  1.0000
  C   C422      1.0  0.84540  0.96450  0.47967  1.0000
  H   H508      1.0  0.87078  0.97257  0.49141  1.0000
  C   C423      1.0  0.85396  0.86551  0.46312  1.0000
  N   N29       1.0  0.73974  0.65621  0.47752  1.0000
  C   C424      1.0  0.77159  0.66780  0.49753  1.0000
  C   C425      1.0  0.71421  0.61830  0.48293  1.0000
  C   C426      1.0  0.72407  0.67648  0.48918  1.0000
  C   C427      1.0  0.71831  0.69669  0.46671  1.0000
  C   C428      1.0  0.71454  0.67681  0.52426  1.0000
  C   C429      1.0  0.70448  0.71635  0.47893  1.0000
  C   C430      1.0  0.70139  0.69714  0.53627  1.0000
  C   C431      1.0  0.69658  0.71704  0.51367  1.0000
  H   H509      1.0  0.79039  0.69669  0.49591  1.0000
  H   H510      1.0  0.76565  0.66156  0.52508  1.0000
  H   H511      1.0  0.72516  0.60233  0.47379  1.0000
  H   H512      1.0  0.68964  0.60870  0.46872  1.0000
  H   H513      1.0  0.72535  0.69883  0.43974  1.0000
  H   H514      1.0  0.71790  0.66192  0.54282  1.0000
  H   H515      1.0  0.80054  0.93219  0.53101  1.0000
  H   H516      1.0  0.86125  0.89558  0.38327  1.0000
  H   H517      1.0  0.79678  0.52936  0.35032  1.0000
  H   H518      1.0  0.86961  0.85416  0.41418  1.0000
  H   H519      1.0  0.79191  0.92639  0.43818  1.0000
  H   H520      1.0  0.67868  0.97334  0.53285  1.0000
  C   C432      1.0  0.53199  0.80624  0.58558  1.0000
  C   C433      1.0  0.84101  0.88378  0.48096  1.0000
  H   H521      1.0  0.95232  0.71186  0.51449  1.0000
  C   C434      1.0  0.88084  0.50388  0.46326  1.0000
  H   H522      1.0  0.50934  0.69887  0.58722  1.0000
  H   H523      1.0  0.98765  0.73684  0.43968  1.0000
  C   C435      1.0  0.85035  0.54056  0.44558  1.0000
  H   H524      1.0  0.85738  0.84706  0.47639  1.0000
  C   C436      1.0  0.99542  0.77357  0.59372  1.0000
  C   C437      1.0  0.76786  0.99161  0.47142  1.0000
  H   H525      1.0  0.51594  0.67548  0.53479  1.0000
  C   C438      1.0  0.50062  0.78795  0.56716  1.0000
  C   C439      1.0  0.50173  0.77808  0.53289  1.0000
  C   C440      1.0  0.74968  0.50433  0.42500  1.0000
  H   H526      1.0  0.51433  0.62922  0.49975  1.0000
  H   H527      1.0  0.52387  0.70179  0.92680  1.0000
  C   C441      1.0  0.66869  0.73238  0.94560  1.0000
  Fe  Fe61      1.0  0.72577  0.83425  0.93551  1.0000
  S   S119      1.0  0.74933  0.88431  0.90622  1.0000
  S   S120      1.0  0.75580  0.82404  0.97451  1.0000
  Fe  Fe62      1.0  0.65066  0.80852  0.91337  1.0000
  S   S121      1.0  0.66831  0.85616  0.88238  1.0000
  S   S122      1.0  0.59549  0.76006  0.92192  1.0000
  Fe  Fe63      1.0  0.71263  0.85034  0.86372  1.0000
  S   S123      1.0  0.73695  0.85909  0.80987  1.0000
  Fe  Fe64      1.0  0.70413  0.88754  0.92656  1.0000
  S   S124      1.0  0.70671  0.93757  0.94501  1.0000
  S   S125      1.0  0.69262  0.80015  0.89149  1.0000
  S   S126      1.0  0.68276  0.84003  0.95897  1.0000
  C   C442      1.0  0.72507  0.93482  0.84755  1.0000
  N   N30       1.0  0.75838  0.96717  0.83763  1.0000
  H   H528      1.0  0.70224  0.93741  0.84459  1.0000
  H   H529      1.0  0.90631  0.73156  0.93204  1.0000
  S   S127      1.0  0.81365  0.72340  0.98775  1.0000
  H   H530      1.0  0.89979  0.77512  0.90290  1.0000
  H   H531      1.0  0.66828  0.71033  0.93159  1.0000
  C   C443      1.0  0.77295  0.79676  0.97674  1.0000
  H   H532      1.0  0.92149  0.74026  0.97527  1.0000
  C   C444      1.0  0.59351  0.82759  0.98205  1.0000
  H   H533      1.0  0.51557  0.78725  0.80439  1.0000
  C   C445      1.0  0.76871  0.77276  0.95050  1.0000
  H   H534      1.0  0.75449  0.92867  0.77968  1.0000
  C   C446      1.0  0.74922  0.95648  0.74063  1.0000
  N   N31       1.0  0.92357  0.78359  0.95244  1.0000
  C   C447      1.0  0.90283  0.78904  0.92790  1.0000
  C   C448      1.0  0.69321  0.86248  0.70640  1.0000
  C   C449      1.0  0.72399  0.86244  0.70768  1.0000
  C   C450      1.0  0.73650  0.86051  0.73950  1.0000
  C   C451      1.0  0.71821  0.85810  0.77033  1.0000
  C   C452      1.0  0.68719  0.85770  0.76903  1.0000
  C   C453      1.0  0.67493  0.86009  0.73726  1.0000
  H   H535      1.0  0.73842  0.86444  0.68421  1.0000
  H   H536      1.0  0.76067  0.86111  0.74024  1.0000
  H   H537      1.0  0.67294  0.85612  0.79249  1.0000
  H   H538      1.0  0.65119  0.86028  0.73654  1.0000
  C   C454      1.0  0.55390  0.78578  0.90684  1.0000
  C   C455      1.0  0.55512  0.75679  0.91535  1.0000
  C   C456      1.0  0.52330  0.72444  0.92032  1.0000
  H   H539      1.0  0.57810  0.81085  0.90296  1.0000
  H   H540      1.0  0.87934  0.73268  0.96583  1.0000
  H   H541      1.0  0.87559  0.77882  0.93790  1.0000
  H   H542      1.0  0.95896  0.71542  0.97016  1.0000
  H   H543      1.0  0.75558  0.77108  0.92729  1.0000
  H   H544      1.0  0.60218  0.69852  0.97077  1.0000
  H   H545      1.0  0.67086  0.67337  0.96655  1.0000
  C   C457      1.0  0.75370  0.95144  0.77462  1.0000
  H   H546      1.0  0.69600  0.75576  0.94372  1.0000
  C   C458      1.0  0.98588  0.73719  0.97244  1.0000
  C   C459      1.0  0.78752  0.96154  0.84126  1.0000
  C   C460      1.0  0.77686  0.98259  0.96293  1.0000
  C   C461      1.0  0.76426  0.99556  0.86254  1.0000
  H   H547      1.0  0.64194  0.87733  0.97467  1.0000
  H   H548      1.0  0.78109  0.96264  0.95245  1.0000
  H   H549      1.0  0.78246  0.93710  0.82777  1.0000
  C   C462      1.0  0.52132  0.78269  0.90464  1.0000
  H   H550      1.0  0.60547  0.81254  0.97704  1.0000
  C   C463      1.0  0.96673  0.78841  0.90683  1.0000
  H   H551      1.0  0.72009  0.91158  0.83171  1.0000
  C   C464      1.0  0.74719  0.98487  0.73240  1.0000
  C   C465      1.0  0.96008  0.79916  0.93942  1.0000
  H   H552      1.0  0.54325  0.78197  0.98921  1.0000
  C   C466      1.0  0.74315  0.97662  0.96315  1.0000
  C   C467      1.0  0.75606  0.97462  0.80160  1.0000
  H   H553      1.0  0.74665  0.93782  0.72062  1.0000
  C   C468      1.0  0.90702  0.74540  0.95647  1.0000
  H   H554      1.0  0.91531  0.81743  0.92295  1.0000
  C   C469      1.0  0.79887  0.75251  0.98423  1.0000
  H   H555      1.0  0.76682  0.98942  0.88923  1.0000
  H   H556      1.0  0.81265  0.98389  0.83096  1.0000
  H   H557      1.0  0.98767  0.83315  0.98420  1.0000
  H   H558      1.0  0.52089  0.80559  0.89896  1.0000
  H   H559      1.0  0.77782  0.73216  0.93395  1.0000
  H   H560      1.0  0.65135  0.73777  0.93130  1.0000
  H   H561      1.0  0.79139  0.95838  0.86857  1.0000
  C   C470      1.0  0.78157  0.75081  0.95429  1.0000
  C   C471      1.0  0.55749  0.81026  0.98922  1.0000
  H   H562      1.0  0.72528  0.92874  0.87479  1.0000
  H   H563      1.0  0.94548  0.76890  0.89106  1.0000
  C   C472      1.0  0.98988  0.82420  0.95871  1.0000
  H   H564      1.0  0.93275  0.82737  0.98510  1.0000
  H   H565      1.0  0.55196  0.88257  0.99722  1.0000
  H   H566      1.0  0.71100  0.66231  0.99478  1.0000
  C   C473      1.0  0.92105  0.79861  0.98622  1.0000
  C   C474      1.0  0.54090  0.82923  0.99510  1.0000
  H   H567      1.0  0.74328  0.98835  0.70599  1.0000
  H   H568      1.0  0.51291  0.78823  0.68615  1.0000
  C   C475      1.0  0.61404  0.86401  0.98047  1.0000
  H   H569      1.0  0.61841  0.67036  0.96948  1.0000
  H   H570      1.0  0.51563  0.77762  0.74598  1.0000
  S   S128      1.0  0.67734  0.86727  0.66746  1.0000
  C   C476      1.0  0.68475  0.68974  0.98856  1.0000
  H   H571      1.0  0.63876  0.75994  0.98234  1.0000
  H   H572      1.0  0.78958  0.50936  0.99221  1.0000
  C   C477      1.0  0.56265  0.86637  0.99327  1.0000
  C   C478      1.0  0.62082  0.69355  0.98319  1.0000
  H   H573      1.0  0.61490  0.91176  0.98459  1.0000
  C   C479      1.0  0.59866  0.88338  0.98606  1.0000
  N   N32       1.0  0.65723  0.72476  0.98198  1.0000
  H   H574      1.0  0.50313  0.74267  0.79335  1.0000
  H   H575      1.0  0.89319  0.78664  0.99499  1.0000
  C   C480      1.0  0.65644  0.75511  0.99680  1.0000
  H   H576      1.0  0.68293  0.77981  0.99565  1.0000
