data_image0
_chemical_formula_structural       CHCH2SHC2H2SHCH2CHCH3CHCHS2CFeS2FeS2FeSFeS3HSH2C2FeSFeSCHFeS2H2SH2C2SC6HC3FeHCHNC7H4NHCHSCHC2HC7H3C3HCNC6H6C3H3CSNH2CHC2H2CH3FeSCNCH2FeH2C2HCH3CFeH2FeCHS2CHC2H2CH4CHSCNC9H14C2H3CHC4H5CHCHC2H6C2H2CHCH8C3H10S2H2NH2SH2SHFeHSFeS2FeSHFeSFeS3HCH4CH2SNC2HCH5C2H2C7H4C5H3C2HNC6H4C6H4CH2SCSNCHC2HFeCH4CSC2H6C2H2C2SCH3C6HCH3C2HFeC3HSC2H2C3NHCHCHCHCH4NCHC2HS2H7CH2CHC2FeNC2HSHCHNC3H10C3H3FeC4HSC2HCHC2H4SH5C2HC2HSC3H2C2H3CHSH3C2H3SFeHC2H2FeS2FeS2NSHCHFeHC2HC2FeS2HCFeS4HFeS6FeS2FeS2FeSFeS3HC7H4SNC2H2C3HCH4C3HC6HCH2C6H4C3HC2H2FeH2C3H3C2H5CFeC2H2FeSHC3H2CSH3C6H4NC9H14CH5NHC3H4SHC2SH3CSCFeHCHCH2CSHFeH5CFeC2H2C2HC2H4C2H2SNH4CNH3C6HSHC2H3CH2CSC3FeHCH2C2HC3HC3HCH3FeHSH2CHC2H2FeH2SH2FeCHCFeSCHCHC5S3FeH3CHC4HCHC3H3C2HFeH2NH2CH2C3NH4C4HC2SC2NCHC2H2CH2CHFeCSHCH4SHSHSH2C2H4CFeHCH3C2H4CH8CHCHNHSHCHC3HN2C2H3NCSH3CH2CH2CHS2C3H3FeHCSHC2H2CS2CSCHSHFeHFeSH2FeHS3FeS2FeS3HSCFeSFeSFeS3CFeH2SCNHC6H5CHC4H2SC5H3C6H4C3HCHC2HC3H3CH3CFeH2SHSFeCHCHNC2H2CFeHNCNHC6H4C4H7SCH3CH2FeH3CNHCHC2HC4H5C3HCH2FeC2H6SH5CH2NCNC7H2CHCH3CH2C2H3C7HCHC2H3CHSH2S2HC2H3CH3C2HCHFeH2CH2CHCH3CHCH2CH7C3HCHCHCH2CH2SCH2SHFeSCSHC2HFeS2FeS2FeSFeS2HSHC2FeS2FeS2FeS2FeSFeS3HCSC6H4SC3HC2HFeCHC3H3CHC5H4C3HC2H5CH2C2H2CFeCNH2C2SHC2SC2H2SHC4H4CH7C3H2C3H2NCH2CH2CHSC2H2C4H3C2HCH4C2HC2FeNH7CHSH3S2H2C2SHC2HNH2C4NC9H12CHC2H6CH2CFeH4C2SC2H2NC6H4FeH8CHCH2C3HCH2C3HC2HNH3CFeC2HNH4C3SC2H2C4HNH4SH3CSH3C5FeC2HSHCHC2HFeSH3SCSH2CNH2C2HCH2FeS2NH2CHCS2FeS2FeS2FeSFeS2FeCSHSHFeSHS2CFeH2C6HCH2FeHC2H2SC2SC4H3CHNHC6H3C2H3C2H4CH2FeSC6H4CHCH3FeHSC5HNCHC6H4C2HFeH2CH2C2H4C2SCNC3H3CH2C2HC5H3C3H3CH2FeH3C3S2H3CHCHCHSFeS2H2CS2HFeSFeHCHSHC5FeHCH2SH3CHNCH2C7HC2HSC2NC9H13C2H2FeSHSHSHCNC9H11CHCNC3HCH7C2FeSH3CH2CH3CHCHCH4CH2C3HCH2CH6CFeH2C3SH5SFeS2FeSFeS2CFeS2FeS2FeSFeS3HSHSFeCFeS3H2CHFeCFeS2HC2H2C6S2H2C2HC5H2C6H5C6H4CH2CHCHSHC6H4CH5CHSCSCNH5C4H2CSC2HCHC2HSH2CH2C2H2CHCHSCH2CNC9H15CH2CH3C2HCNCH2CNCHC2FeHC2HCH2CH4FeH2CH2CH2C2H4CHC2HCFeHCH2CHCH2C2HFeHFeH3NH4FeH2C2SH2SCH2CHC4HCH4SHCFeSHFeS2FeS2FeS2FeSFeS3C7H4CHC2SH2C4H3C7H3C7H4CH2NHFeNH2CNH2NC3H3CH2CHC2HCH2CFeH4C2SHCNH2CHC3H2SCHSH4C5SC2SHC2H2CHCHC2FeC2SHCH8CHCH3FeH6SNCH2C2HC3HC2FeHS2NC2NHC2SH2CSCH2FeCHSH2C2H3CHFeHCHCH2CH2CH4CHC2H2C3HCHCHSCSCH3C3HC2H4CH2CH2CSHFeCSHCHSHCH5CHCHNHC2H2C2H3CH3SCH2C4H2CS2CHFeSFeS2FeSFeSFeS3FeHCFeS2FeH2CS2FeS2FeS2FeSFe2S2HCH2NHCHC2SHFeS2C2H2SNCH3CSCSC2HC8HC3FeCHCHC2HC6H5C7H6C2H2SNHC6H2C2H2C2HCH3C3H2CHC4H2CH2NCHC2H4C2H4CNH3C3HC2H3CH6S2H2CHCH8NC6H2CH10CH2CH2SCH2CH2CHCHSC2FeC2H2CH2NC9H14SC2H3CHCHCHCHSH2CFeH3C2SC3H2NSHNSH3CHFeHC4SH3CH6C2HCHCHC2HC3HCSHCH9C3HC4H5C2SFeHC3HFeHCFeHSHCH2SCHC4H3CHCH2CH2SCHCFe2CH2CSCHSH3SHS2H5CHCFeSFeS2C2S3CFeSFeSH2CHC5H3C6H4CHC3H4C2H2CH4SC2HFeH2NH2CHSC7H4C2FeS2CHFe2CH4C2HNH2FeNC3HCH7CNSH3SCHFeHCHFeSHFeCHCFeHCHCHC2H3NH4SC3HC8HCSCHCFeCSH2CHFeH2SCNHCNC6H2C2HC2H5CH2FeCHCH2C2HCS2H2CH3CFeNCH3CHSCSCHCH5CH2SCHC3HCH4CSC2H2CH2SCS2HFeS2FeS2FeSFeS5CHNCHCSFeC2SH2SC4HFeCH4CH4CSH2C7H3C3H2CHCHNC6H7C6H5C4HCHC2HC2H2CH4CHCHCH2SH2CH3C2NC7Fe2H13SHC2HCH5FeH2SCHCHCH3CFeH3CSNCFeNCH3C2H2SH4C3HCHSCHC3HC4H2C3SHC3H2CH2NC2NC2H2CSHCH3SCH2CHC2NCSHCHFeH2CHC3HCH7CHCHCH2C2HSH2FeS2C3HFeHFe2S2FeS4H4NH2FeHCH2S2H2FeC3FeSHFe2CSFeHCH3CFeS4CHCH3SCSH2C4HC2H2C3H3C2H3C2HC2H2CH3SH2SH3C3HCH2CHCHC6H4C2H2C6H4CHCSC2SHCHC4HC2H3CHC2HCFe2SH2CHSHS2H3SCSHC2HC2H3CH4N2C2H2NSHC3H5SHFeHC2H3CHFeCSFeNH3C3SH2NFeCSHNCH2CHC2HCHNC9HSH10FeHNC4HCHC2H6CFeC5H2CSHCH3C2SC4H2C2HC5H2C2HCH3CHSH2C5HC2HCFeHCH4NHC3HC2HCH2CH2CHCH2CHCH4C2HCHCSCHCHFeHCHCH5CH3C2HCH3SNC2H4CH2CHSCH2FeSC2H3CFeS2FeS2FeSFeS3FeSC2HS2HSHFeSFeSFeSHSC4HCH2C7H4C6H3C6H4FeC5HC9HC4HCHSHFe2C2H2CHC4H2C3H2CSH2NCHC4H2SH4CHSH4CH3C2SHCHC2NHSC3H4NH2CH2SH4CSC2SCFeHNC2S2HC2HCHCHSCHC2H2SH7SCH2NHCFeCH3CH3NH2C2H5NC2HCH2C3S2HSHSHCH2FeHFeH4SFeCH4C3FeCH3CH2CHC2H2C2HC4H2CH3CNFeHC2HNH4C2HC2HCHC2H4CHC2HCHSC2H3CH3SCH9CH3CHCHFeC3H5CHFeC2H3CHSCHC2H2C2S2CFeS2FeS2FeSFeS3FeSCFeS2FeS3C2H3SHCHC3H3FeH2CS2H5CHC3SH4C2HC2H4C4H2C6H2C6H4CFeHC6H4C5HS2HCNH2C3NCFeHCH7SC3NFeNC4HCH2NH3C3H3CH2C3HSHC2SH2C2HCH3CH7SH3CHFeH2NH5CFeH2C5H2NC9H10C3HCH3C2H2CHNC9H14CH2C3H2C2HCHCHCH2SHCHFeNH6FeH2CHCH3CSC3HCHSC2SHC3SC2HCH2C2H5CSC2H2C2NCH2SCHCHCSH3CHFeS2FeSFeS4H2CH2C2SHC3FeHSC3H2SFeS2CSFeCFeS3FeH3CHSCHFeSHC2H2FeH2C2HC3HSHSHCH2SCHCH3FeCH2SCHNCHC6SCH2CHSC7H5C3H4CNHSHC4H2C3H2CHCFeHC2HSH3C5H8C2SHC2HCH3C2NCH2C2HCH2CHSHCH3CHCH2C5H2CH2CSHNH2CH2CH3CH2C2HCFeH4CSH2CHCH2CH3CH3CHC5HFeCNC9H15SCFeC2N3C2H3SC3SH5C2SHC2HC3SHC3HCH2CHC2HSCHFeH2CH3CHCH3C3HCNCHCH7C2HC2FeSHCSFeS2FeSHFeSFeCSH3C2SCH4NSC3FeSH2SFeS2FeSFeS2CHCSH4CHC2FeHC3H6C7H4C6H4C2HNCH2CHSC4SCHCH4SH2CH4C2SH3SCSH3CHC7H5CFeSC2H4SHC2HCH2CHSC2FeCSNC8H10CH2C2FeHSCHC3S2H4C3HCH2CH4CHC2H5NHFeCHC7SCH2NCH4CH2C2NHCHCNH10C2H3CH2C2HCSNH2CHCH4CHS2H2FeS2FeS2FeSFeS3CH2SC2H2CNCHSHC2SHCHSH2SHCHCHFeSC4H2SC3H3CHSH2C3HC2H2CHC3H6CHC6H6C2SCNC9H2C2NC9H14C2HSCSHFeHC2FeHCHFe2H2CH2C3HCSCH2NHCH4CH2CH2CHCFeCHC2HC4H3SFeHNHCHC2H3CH4CHCH3CHSH4FeH3C3NH2CHNCHSCHCH2SHSHCH2FeSCHFeHSFeS2FeSCS3FeS2FeHSFeSHCFeSHSH2CHC2FeH2FeSCH2FeHCH2C6HCH2C6H7CH2C2SC3SHC4H3C2NH3SHCHFeCH2CHCSHCSCHCHCHCH2NCH11FeSH2C2H2CH2NCH2C2FeCSCH4FeHC3H6NC2H3CH2CH2C5FeC5S2HSC3H2CH2C2FeCHCSNH2C2HSC3SHCHCH3CH4C3FeCSFe2HSH2CHCHCNCHC3H5SH2CH2C2HC4HCH2CH3C2HC3H2NHNCHFeHNFeS2FeS2FeSFeS4C2HFeS2H2CSH4CHCH5FeSC2HC2HCH3C7H4C2HFeHCHCHC6H4CH2C3SH2FeSHC2HCHCH4C2H6CFeHCHSH3C2H4C2H2C2FeCS2CH2CHCH2CH2CHCHCHC2SCH2C2HCHNHNHC3H2CFeC2NC2HC2HCH2CH4CH4CH6CHCH2SH3CH2FeSCH3C2FeSHSHC2HFeHCSCHCH2NC2FeSHFeS2FeSFeS3HC6H4CH2CH2CHC3H6SNHSH2C5H3CH3CNH3S2C2H3C2SH3SHCHCH3SCHC2HC2SHCHCH5CHC2HFeC3H2C3SCHCHCNHFeCHCH2CH2CHCHSFeHSHS2HCHCHFeS2FeS2FeSFeS3HFeH2FeS2FeHFeS3H2CHC2H2NH6CH5CNC3H3CHCH3C2HCH2CH2CHC2H4C7H4C3H2C5HCHSC3HC2HCHCH3C2HCSHNH2C2S2HCSCHSFeCHC2HC2NH3C2H2CHCHCHC2H3CHFeSCH4CH4SCFeHN2H4FeCSCHC2H3FeH4CHC4H2CHCHSCHSCH2C2SCHNC4HC4H7CH3CHFeC5H3CHC2H4CHCNHSHS2HNC3HCHC2HCH4CHC2H2SC2HC5HCHNCHSFeS2CHCSFe2SFeSCFeS2CHC2SFeCSHCSFeS2FeS2FeSFeS3C3SHC2H3C7H8C4FeH3SCHCSHSH3CH2C8H4C2HC3H2SH2CH2CSHCHC4SHC2HC3H4NC6H12SH2CH4C3HFeHCHSH2C2H4CHNSH2CFeC2FeSHCHCH2CHC2SFeC2HCFeH6NC9HNH2CH9NC9H4CH9NC5H8FeCHNCHC2H2SHCHC2HFeH4CHS2CSCFeC2HCHCHCH4SH2CHCHCHCH2CH3FeH2C2SC3NH3CSH3CHCH2CHSFeS3C2SC3SCH3FeHSCSH5S2CHCFeC2FeC8H2CSHCSHFeCSCH2FeHFeHFeNS2CNHCHCH3C2HFeCHNH2CH2NSFeC4HCH2C3HCHCH3CFeH2C2HCH7C2SC2HCHSC3HC6H9CSH2FeH6CH2CH4CSNCHC2H2CH7SHNHCH3CH2C2HC2HSC3H3C2FeHCH2SH4C2HCH4CSFeS2FeS2FeHFeS3CSCSH2SFeSH2C2SC2HCH3C2HC2HC2H4C2HC8H4C6H7C6H4FeHC7H4SCH2CH2SCHSH2CHCFeH6NH2SFeSHCH4CH4CNHFeH2CHCHSHNC4H6C2H2SNHC8FeCH2CH6CHCHNH2C3SC2HCHCFeNCH2C2HCH5CH2SHC3HCH2NCHSH7CHCHCHC2HSHC3HSCH2C2H2CH
_chemical_formula_sum              "C2880 H3456 S768 Fe384 N192"
_cell_length_a       68.9782
_cell_length_b       70.0343
_cell_length_c       70.5595
_cell_angle_alpha    76.0592
_cell_angle_beta     75.2452
_cell_angle_gamma    75.9931

_space_group_name_H-M_alt    "P 1"
_space_group_IT_number       1

loop_
  _space_group_symop_operation_xyz
  'x, y, z'

loop_
  _atom_site_type_symbol
  _atom_site_label
  _atom_site_symmetry_multiplicity
  _atom_site_fract_x
  _atom_site_fract_y
  _atom_site_fract_z
  _atom_site_occupancy
  C   C1        1.0  0.16041  0.00265  0.21552  1.0000
  H   H1        1.0  0.12402  0.18837  0.39815  1.0000
  C   C2        1.0  0.22122  0.03261  0.41376  1.0000
  H   H2        1.0  0.22707  0.00055  0.38269  1.0000
  H   H3        1.0  0.18703  0.19252  0.38077  1.0000
  S   S1        1.0  0.10788  0.17320  0.45836  1.0000
  H   H4        1.0  0.14206  0.16996  0.41062  1.0000
  C   C3        1.0  0.27730  0.10113  0.31361  1.0000
  C   C4        1.0  0.29261  0.07218  0.38142  1.0000
  H   H5        1.0  0.26764  0.06726  0.34790  1.0000
  H   H6        1.0  0.01712  0.02729  0.20752  1.0000
  S   S2        1.0  0.06902  0.18587  0.42082  1.0000
  H   H7        1.0  0.27436  0.00435  0.07568  1.0000
  C   C5        1.0  0.01077  0.03707  0.21879  1.0000
  H   H8        1.0  0.10879  0.15451  0.36491  1.0000
  H   H9        1.0  0.04775  0.19571  0.04331  1.0000
  C   C6        1.0  0.00246  0.22170  0.47043  1.0000
  H   H10       1.0  0.19927  0.05681  0.21215  1.0000
  C   C7        1.0  0.21799  0.02026  0.20520  1.0000
  H   H11       1.0  0.31497  0.22824  0.41727  1.0000
  H   H12       1.0  0.17979  0.17095  0.39874  1.0000
  H   H13       1.0  0.05681  0.18825  0.15577  1.0000
  C   C8        1.0  0.09161  0.16847  0.38970  1.0000
  H   H14       1.0  0.13608  0.19523  0.41438  1.0000
  C   C9        1.0  0.05943  0.18651  0.34250  1.0000
  H   H15       1.0  0.02407  0.22987  0.04249  1.0000
  S   S3        1.0  0.27560  0.02297  0.33470  1.0000
  S   S4        1.0  0.30870  0.02638  0.28037  1.0000
  C   C10       1.0  0.32349  0.04000  0.43391  1.0000
  Fe  Fe1       1.0  0.09375  0.13060  0.14799  1.0000
  S   S5        1.0  0.06308  0.13091  0.16902  1.0000
  S   S6        1.0  0.10404  0.14767  0.11681  1.0000
  Fe  Fe2       1.0  0.11627  0.10034  0.17805  1.0000
  S   S7        1.0  0.08768  0.09844  0.20158  1.0000
  S   S8        1.0  0.14789  0.08384  0.18203  1.0000
  Fe  Fe3       1.0  0.07313  0.09717  0.17670  1.0000
  S   S9        1.0  0.05942  0.06957  0.17992  1.0000
  Fe  Fe4       1.0  0.08026  0.13203  0.19212  1.0000
  S   S10       1.0  0.06786  0.15362  0.21384  1.0000
  S   S11       1.0  0.10250  0.09712  0.15386  1.0000
  S   S12       1.0  0.10999  0.13388  0.17044  1.0000
  H   H16       1.0  0.32634  0.01791  0.46072  1.0000
  S   S13       1.0  0.09082  0.20819  0.29095  1.0000
  H   H17       1.0  0.16626  0.20043  0.98780  1.0000
  H   H18       1.0  0.06752  0.20641  0.12416  1.0000
  C   C11       1.0  0.27125  0.98674  0.35937  1.0000
  C   C12       1.0  0.01184  0.20208  0.01549  1.0000
  Fe  Fe5       1.0  0.11432  0.21724  0.26381  1.0000
  S   S14       1.0  0.12326  0.20206  0.23682  1.0000
  Fe  Fe6       1.0  0.11343  0.20988  0.30822  1.0000
  S   S15       1.0  0.12196  0.18546  0.33364  1.0000
  C   C13       1.0  0.01879  0.22675  0.03013  1.0000
  H   H19       1.0  0.02351  0.09785  0.16818  1.0000
  Fe  Fe7       1.0  0.28986  0.00946  0.45084  1.0000
  S   S16       1.0  0.25874  0.00419  0.45210  1.0000
  S   S17       1.0  0.29811  0.03900  0.43479  1.0000
  H   H20       1.0  0.20900  0.99479  0.24011  1.0000
  H   H21       1.0  0.19254  0.04950  0.23907  1.0000
  S   S18       1.0  0.15095  0.20535  0.44395  1.0000
  H   H22       1.0  0.27720  0.11508  0.31861  1.0000
  H   H23       1.0  0.17026  0.18042  0.35831  1.0000
  C   C14       1.0  0.17459  0.18716  0.39295  1.0000
  C   C15       1.0  0.01950  0.04418  0.16527  1.0000
  S   S19       1.0  0.29824  0.00564  0.23697  1.0000
  C   C16       1.0  0.10670  0.18650  0.35753  1.0000
  C   C17       1.0  0.10304  0.16849  0.37025  1.0000
  C   C18       1.0  0.08445  0.18637  0.39687  1.0000
  C   C19       1.0  0.08854  0.20446  0.38440  1.0000
  C   C20       1.0  0.09952  0.20455  0.36459  1.0000
  C   C21       1.0  0.33184  0.99350  0.09319  1.0000
  H   H24       1.0  0.10271  0.21844  0.35491  1.0000
  C   C22       1.0  0.03841  0.06684  0.17130  1.0000
  C   C23       1.0  0.02226  0.20689  0.99534  1.0000
  C   C24       1.0  0.28082  0.99303  0.23254  1.0000
  Fe  Fe8       1.0  0.07564  0.22480  0.46747  1.0000
  H   H25       1.0  0.05899  0.20094  0.36583  1.0000
  C   C25       1.0  0.03685  0.04751  0.17012  1.0000
  H   H26       1.0  0.11141  0.19196  0.14846  1.0000
  N   N1        1.0  0.29526  0.08549  0.31781  1.0000
  C   C26       1.0  0.13869  0.18589  0.40296  1.0000
  C   C27       1.0  0.08377  0.16572  0.22135  1.0000
  C   C28       1.0  0.07493  0.17883  0.23486  1.0000
  C   C29       1.0  0.08689  0.18963  0.24020  1.0000
  C   C30       1.0  0.10781  0.18768  0.23179  1.0000
  C   C31       1.0  0.11664  0.17454  0.21831  1.0000
  C   C32       1.0  0.10477  0.16342  0.21333  1.0000
  H   H27       1.0  0.05871  0.18074  0.24117  1.0000
  H   H28       1.0  0.07987  0.19975  0.25052  1.0000
  H   H29       1.0  0.13281  0.17285  0.21180  1.0000
  H   H30       1.0  0.11189  0.15320  0.20316  1.0000
  N   N2        1.0  0.20241  0.02491  0.22316  1.0000
  H   H31       1.0  0.15877  0.98874  0.21248  1.0000
  C   C33       1.0  0.21728  0.99365  0.41473  1.0000
  H   H32       1.0  0.27922  0.06294  0.31631  1.0000
  S   S20       1.0  0.13788  0.21692  0.28115  1.0000
  C   C34       1.0  0.27661  0.01213  0.37442  1.0000
  H   H33       1.0  0.16537  0.05350  0.22447  1.0000
  C   C35       1.0  0.29464  0.08103  0.33956  1.0000
  C   C36       1.0  0.14568  0.21884  0.35698  1.0000
  H   H34       1.0  0.27950  0.02692  0.37303  1.0000
  C   C37       1.0  0.16735  0.02407  0.16089  1.0000
  C   C38       1.0  0.18159  0.03201  0.16611  1.0000
  C   C39       1.0  0.17552  0.05042  0.17262  1.0000
  C   C40       1.0  0.15518  0.06068  0.17424  1.0000
  C   C41       1.0  0.14092  0.05245  0.16946  1.0000
  C   C42       1.0  0.14703  0.03426  0.16267  1.0000
  C   C43       1.0  0.20318  0.04530  0.22529  1.0000
  H   H35       1.0  0.18655  0.05681  0.17631  1.0000
  H   H36       1.0  0.12512  0.05998  0.17114  1.0000
  H   H37       1.0  0.09593  0.00355  0.15613  1.0000
  C   C44       1.0  0.15825  0.17705  0.37187  1.0000
  C   C45       1.0  0.07127  0.21954  0.12669  1.0000
  C   C46       1.0  0.04161  0.19460  0.03052  1.0000
  H   H38       1.0  0.13595  0.02812  0.15875  1.0000
  C   C47       1.0  0.15004  0.21237  0.37643  1.0000
  N   N3        1.0  0.15530  0.19095  0.38573  1.0000
  C   C48       1.0  0.06135  0.19922  0.08534  1.0000
  C   C49       1.0  0.05316  0.18587  0.10208  1.0000
  C   C50       1.0  0.06609  0.17006  0.11202  1.0000
  C   C51       1.0  0.08726  0.16742  0.10506  1.0000
  C   C52       1.0  0.09540  0.18069  0.08824  1.0000
  C   C53       1.0  0.08251  0.19664  0.07846  1.0000
  H   H39       1.0  0.03679  0.18784  0.10746  1.0000
  H   H40       1.0  0.05968  0.15983  0.12490  1.0000
  H   H41       1.0  0.11178  0.17872  0.08282  1.0000
  H   H42       1.0  0.08895  0.20689  0.06561  1.0000
  H   H43       1.0  0.08834  0.15452  0.39925  1.0000
  H   H44       1.0  0.13056  0.21013  0.98621  1.0000
  C   C54       1.0  0.05274  0.20233  0.35292  1.0000
  C   C55       1.0  0.28150  0.98890  0.08024  1.0000
  C   C56       1.0  0.01454  0.20496  0.97954  1.0000
  H   H45       1.0  0.31481  0.10746  0.30865  1.0000
  H   H46       1.0  0.32145  0.09320  0.33897  1.0000
  H   H47       1.0  0.04902  0.03497  0.17332  1.0000
  C   C57       1.0  0.05221  0.18746  0.32553  1.0000
  S   S21       1.0  0.04478  0.21906  0.07344  1.0000
  N   N4        1.0  0.01995  0.20503  0.03189  1.0000
  H   H48       1.0  0.03609  0.21290  0.99154  1.0000
  H   H49       1.0  0.05066  0.21364  0.17818  1.0000
  C   C58       1.0  0.02258  0.08293  0.16719  1.0000
  H   H50       1.0  0.32802  0.08185  0.30824  1.0000
  C   C59       1.0  0.22331  0.00615  0.39651  1.0000
  C   C60       1.0  0.29448  0.06719  0.31110  1.0000
  H   H51       1.0  0.28762  0.00361  0.20068  1.0000
  H   H52       1.0  0.01976  0.03144  0.23074  1.0000
  C   C61       1.0  0.20235  0.99599  0.47008  1.0000
  H   H53       1.0  0.03316  0.20522  0.30534  1.0000
  H   H54       1.0  0.06657  0.19408  0.19203  1.0000
  H   H55       1.0  0.22313  0.04763  0.41334  1.0000
  Fe  Fe9       1.0  0.11828  0.20199  0.45535  1.0000
  S   S22       1.0  0.06156  0.19800  0.47222  1.0000
  C   C62       1.0  0.27851  0.99482  0.21288  1.0000
  N   N5        1.0  0.07961  0.20196  0.16059  1.0000
  C   C63       1.0  0.10119  0.19538  0.16273  1.0000
  H   H56       1.0  0.21625  0.00045  0.47155  1.0000
  H   H57       1.0  0.27657  0.00387  0.40590  1.0000
  Fe  Fe10      1.0  0.29620  0.00813  0.30990  1.0000
  H   H58       1.0  0.08294  0.21834  0.38993  1.0000
  H   H59       1.0  0.15141  0.22379  0.40205  1.0000
  C   C64       1.0  0.07786  0.21964  0.14419  1.0000
  C   C65       1.0  0.06677  0.20734  0.17962  1.0000
  H   H60       1.0  0.19818  0.20522  0.98666  1.0000
  C   C66       1.0  0.17922  0.00467  0.21807  1.0000
  H   H61       1.0  0.13165  0.99143  0.16053  1.0000
  H   H62       1.0  0.27715  0.10504  0.29737  1.0000
  H   H63       1.0  0.07401  0.17170  0.17026  1.0000
  C   C67       1.0  0.20815  0.01061  0.24101  1.0000
  Fe  Fe11      1.0  0.08282  0.19266  0.44345  1.0000
  H   H64       1.0  0.14391  0.17785  0.36704  1.0000
  H   H65       1.0  0.26625  0.05995  0.38384  1.0000
  Fe  Fe12      1.0  0.30664  0.00058  0.26734  1.0000
  C   C68       1.0  0.07301  0.18449  0.15739  1.0000
  H   H66       1.0  0.19732  0.02422  0.16461  1.0000
  S   S23       1.0  0.09525  0.22058  0.43766  1.0000
  S   S24       1.0  0.17473  0.00224  0.15078  1.0000
  C   C69       1.0  0.00853  0.19742  0.05215  1.0000
  H   H67       1.0  0.07240  0.21841  0.18474  1.0000
  C   C70       1.0  0.22538  0.02554  0.39602  1.0000
  C   C71       1.0  0.27456  0.00608  0.35762  1.0000
  H   H68       1.0  0.07064  0.17365  0.34737  1.0000
  H   H69       1.0  0.19902  0.18082  0.98158  1.0000
  C   C72       1.0  0.27906  0.07163  0.35314  1.0000
  H   H70       1.0  0.29781  0.06904  0.29454  1.0000
  H   H71       1.0  0.01840  0.02921  0.16465  1.0000
  H   H72       1.0  0.30568  0.05409  0.31680  1.0000
  H   H73       1.0  0.23338  0.02209  0.20589  1.0000
  C   C73       1.0  0.00514  0.07958  0.16247  1.0000
  H   H74       1.0  0.01383  0.05229  0.21115  1.0000
  S   S25       1.0  0.31132  0.99576  0.04674  1.0000
  C   C74       1.0  0.03828  0.20425  0.31892  1.0000
  N   N6        1.0  0.15726  0.08849  0.11036  1.0000
  C   C75       1.0  0.16445  0.09994  0.09016  1.0000
  C   C76       1.0  0.15251  0.10189  0.12500  1.0000
  C   C77       1.0  0.17446  0.07209  0.11538  1.0000
  C   C78       1.0  0.13861  0.08127  0.11084  1.0000
  C   C79       1.0  0.12115  0.09508  0.10551  1.0000
  C   C80       1.0  0.13687  0.06075  0.11709  1.0000
  C   C81       1.0  0.10296  0.08886  0.10694  1.0000
  C   C82       1.0  0.11857  0.05470  0.11851  1.0000
  C   C83       1.0  0.10161  0.06873  0.11361  1.0000
  H   H75       1.0  0.15342  0.11401  0.08627  1.0000
  H   H76       1.0  0.17912  0.10458  0.08897  1.0000
  H   H77       1.0  0.16681  0.09080  0.07856  1.0000
  H   H78       1.0  0.14052  0.11532  0.12171  1.0000
  H   H79       1.0  0.16615  0.10746  0.12546  1.0000
  H   H80       1.0  0.14685  0.09388  0.14034  1.0000
  H   H81       1.0  0.17897  0.06143  0.10488  1.0000
  H   H82       1.0  0.18828  0.07793  0.11480  1.0000
  H   H83       1.0  0.17045  0.06354  0.13086  1.0000
  H   H84       1.0  0.12113  0.11097  0.10098  1.0000
  H   H85       1.0  0.14929  0.04907  0.12134  1.0000
  H   H86       1.0  0.08964  0.09985  0.10349  1.0000
  H   H87       1.0  0.11745  0.03905  0.12381  1.0000
  H   H88       1.0  0.08729  0.06406  0.11524  1.0000
  C   C84       1.0  0.21492  0.02032  0.43209  1.0000
  C   C85       1.0  0.03865  0.21973  0.34658  1.0000
  H   H89       1.0  0.31952  0.08502  0.37448  1.0000
  H   H90       1.0  0.17294  0.19477  0.40556  1.0000
  H   H91       1.0  0.21381  0.03016  0.19137  1.0000
  C   C86       1.0  0.18210  0.02297  0.22126  1.0000
  H   H92       1.0  0.05191  0.20112  0.01692  1.0000
  C   C87       1.0  0.16477  0.03888  0.22241  1.0000
  C   C88       1.0  0.10255  0.98768  0.15741  1.0000
  C   C89       1.0  0.14597  0.03660  0.22008  1.0000
  C   C90       1.0  0.14384  0.01862  0.21643  1.0000
  H   H93       1.0  0.23063  0.03493  0.38186  1.0000
  H   H94       1.0  0.21991  0.00453  0.20343  1.0000
  H   H95       1.0  0.21871  0.04630  0.22643  1.0000
  H   H96       1.0  0.05781  0.17539  0.31719  1.0000
  H   H97       1.0  0.03827  0.22016  0.38640  1.0000
  C   C91       1.0  0.27809  0.06737  0.37374  1.0000
  H   H98       1.0  0.19683  0.01357  0.25485  1.0000
  C   C92       1.0  0.03152  0.22017  0.32924  1.0000
  H   H99       1.0  0.10321  0.18157  0.17435  1.0000
  C   C93       1.0  0.27508  0.99902  0.39299  1.0000
  C   C94       1.0  0.31392  0.09289  0.30555  1.0000
  H   H100      1.0  0.26266  0.09616  0.32146  1.0000
  H   H101      1.0  0.13318  0.04920  0.22026  1.0000
  H   H102      1.0  0.16282  0.16112  0.37903  1.0000
  H   H103      1.0  0.08288  0.17872  0.14401  1.0000
  H   H104      1.0  0.02122  0.23293  0.32290  1.0000
  H   H105      1.0  0.29201  0.06847  0.39738  1.0000
  C   C95       1.0  0.00344  0.06019  0.16165  1.0000
  C   C96       1.0  0.30892  0.08618  0.34796  1.0000
  H   H106      1.0  0.14539  0.20850  0.34794  1.0000
  H   H107      1.0  0.12942  0.01723  0.21396  1.0000
  C   C97       1.0  0.30798  0.08156  0.36855  1.0000
  H   H108      1.0  0.04328  0.17840  0.03048  1.0000
  C   C98       1.0  0.21286  0.00033  0.43313  1.0000
  H   H109      1.0  0.00281  0.23514  0.03065  1.0000
  H   H110      1.0  0.10680  0.20684  0.16729  1.0000
  H   H111      1.0  0.21215  0.02673  0.44521  1.0000
  H   H112      1.0  0.17504  0.99410  0.44918  1.0000
  H   H113      1.0  0.32780  0.00832  0.09780  1.0000
  H   H114      1.0  0.01379  0.22008  0.38182  1.0000
  H   H115      1.0  0.18978  0.00938  0.46968  1.0000
  H   H116      1.0  0.02839  0.23330  0.01595  1.0000
  C   C99       1.0  0.02561  0.22933  0.37910  1.0000
  C   C100      1.0  0.15211  0.23089  0.43924  1.0000
  C   C101      1.0  0.14911  0.22755  0.38697  1.0000
  H   H117      1.0  0.31733  0.98832  0.09535  1.0000
  H   H118      1.0  0.32541  0.06229  0.40688  1.0000
  H   H119      1.0  0.18128  0.22762  0.41873  1.0000
  H   H120      1.0  0.05057  0.23283  0.44255  1.0000
  H   H121      1.0  0.26289  0.98682  0.19374  1.0000
  H   H122      1.0  0.00844  0.18116  0.05432  1.0000
  H   H123      1.0  0.01554  0.19924  0.06408  1.0000
  H   H124      1.0  0.22350  0.01141  0.24286  1.0000
  H   H125      1.0  0.06342  0.23534  0.35998  1.0000
  H   H126      1.0  0.31433  0.09545  0.28926  1.0000
  S   S26       1.0  0.32684  0.99233  0.31611  1.0000
  S   S27       1.0  0.07335  0.23526  0.01737  1.0000
  H   H127      1.0  0.32799  0.99316  0.37234  1.0000
  H   H128      1.0  0.19160  0.99181  0.21728  1.0000
  N   N7        1.0  0.20635  0.98677  0.45222  1.0000
  H   H129      1.0  0.00520  0.18972  0.47673  1.0000
  H   H130      1.0  0.32564  0.18030  0.92071  1.0000
  S   S28       1.0  0.28656  0.01804  0.71562  1.0000
  H   H131      1.0  0.06603  0.21516  0.75848  1.0000
  H   H132      1.0  0.03348  0.01409  0.61655  1.0000
  S   S29       1.0  0.32689  0.10206  0.87393  1.0000
  H   H133      1.0  0.02254  0.20911  0.96426  1.0000
  Fe  Fe13      1.0  0.30930  0.00740  0.73631  1.0000
  H   H134      1.0  0.24319  0.00595  0.67603  1.0000
  S   S30       1.0  0.24663  0.21478  0.90611  1.0000
  Fe  Fe14      1.0  0.07299  0.15111  0.67070  1.0000
  S   S31       1.0  0.09530  0.15686  0.64162  1.0000
  S   S32       1.0  0.06460  0.17310  0.69222  1.0000
  Fe  Fe15      1.0  0.06028  0.11744  0.65771  1.0000
  S   S33       1.0  0.08145  0.12143  0.62762  1.0000
  H   H135      1.0  0.06636  0.14167  0.58746  1.0000
  Fe  Fe16      1.0  0.10406  0.12341  0.64460  1.0000
  S   S34       1.0  0.13676  0.10839  0.63413  1.0000
  Fe  Fe17      1.0  0.07087  0.15438  0.62709  1.0000
  S   S35       1.0  0.06591  0.17848  0.59999  1.0000
  S   S36       1.0  0.08374  0.11750  0.67498  1.0000
  S   S37       1.0  0.04768  0.15051  0.65591  1.0000
  H   H136      1.0  0.23251  0.00069  0.74260  1.0000
  C   C102      1.0  0.20488  0.19505  0.97570  1.0000
  H   H137      1.0  0.30012  0.23180  0.88159  1.0000
  H   H138      1.0  0.19927  0.19730  0.84787  1.0000
  H   H139      1.0  0.26526  0.13773  0.80455  1.0000
  H   H140      1.0  0.11989  0.22569  0.95423  1.0000
  C   C103      1.0  0.25575  0.99210  0.55319  1.0000
  H   H141      1.0  0.02592  0.11251  0.63385  1.0000
  H   H142      1.0  0.11891  0.04740  0.62949  1.0000
  S   S38       1.0  0.15246  0.01376  0.65850  1.0000
  N   N8        1.0  0.20030  0.20471  0.95573  1.0000
  C   C104      1.0  0.00845  0.19025  0.82898  1.0000
  C   C105      1.0  0.23136  0.19260  0.86455  1.0000
  H   H143      1.0  0.30785  0.07624  0.80805  1.0000
  C   C106      1.0  0.20913  0.22314  0.94896  1.0000
  H   H144      1.0  0.01670  0.18460  0.50755  1.0000
  H   H145      1.0  0.00296  0.10331  0.61691  1.0000
  H   H146      1.0  0.14222  0.18117  0.49838  1.0000
  H   H147      1.0  0.16551  0.05390  0.70361  1.0000
  H   H148      1.0  0.26907  0.99666  0.55478  1.0000
  C   C107      1.0  0.16592  0.03756  0.70572  1.0000
  C   C108      1.0  0.04427  0.02116  0.61982  1.0000
  H   H149      1.0  0.22164  0.19122  0.97516  1.0000
  H   H150      1.0  0.20998  0.19751  0.92615  1.0000
  C   C109      1.0  0.00963  0.06055  0.65158  1.0000
  C   C110      1.0  0.14942  0.04001  0.65229  1.0000
  C   C111      1.0  0.16340  0.04960  0.63727  1.0000
  C   C112      1.0  0.15964  0.07066  0.63201  1.0000
  C   C113      1.0  0.14177  0.08212  0.64153  1.0000
  C   C114      1.0  0.12801  0.07245  0.65672  1.0000
  C   C115      1.0  0.13197  0.05148  0.66224  1.0000
  H   H151      1.0  0.17690  0.04083  0.62948  1.0000
  H   H152      1.0  0.17036  0.07809  0.62026  1.0000
  H   H153      1.0  0.11434  0.08116  0.66430  1.0000
  H   H154      1.0  0.12132  0.04410  0.67412  1.0000
  C   C116      1.0  0.07067  0.17212  0.57637  1.0000
  C   C117      1.0  0.07528  0.18668  0.55925  1.0000
  C   C118      1.0  0.07930  0.18208  0.54016  1.0000
  C   C119      1.0  0.07377  0.14843  0.55520  1.0000
  C   C120      1.0  0.07004  0.15293  0.57432  1.0000
  H   H155      1.0  0.07594  0.20150  0.56078  1.0000
  H   H156      1.0  0.05056  0.18925  0.74855  1.0000
  H   H157      1.0  0.11824  0.17659  0.60380  1.0000
  C   C121      1.0  0.02814  0.08477  0.65519  1.0000
  C   C122      1.0  0.07830  0.16302  0.53808  1.0000
  H   H158      1.0  0.16221  0.16890  0.57918  1.0000
  N   N9        1.0  0.18676  0.02621  0.69907  1.0000
  C   C123      1.0  0.29702  0.17690  0.86674  1.0000
  C   C124      1.0  0.29027  0.16909  0.88693  1.0000
  C   C125      1.0  0.27508  0.18098  0.89901  1.0000
  C   C126      1.0  0.26666  0.20072  0.89099  1.0000
  C   C127      1.0  0.27390  0.20869  0.87096  1.0000
  C   C128      1.0  0.28902  0.19681  0.85889  1.0000
  H   H159      1.0  0.29637  0.15374  0.89310  1.0000
  H   H160      1.0  0.26967  0.17472  0.91452  1.0000
  H   H161      1.0  0.23683  0.22861  0.84294  1.0000
  H   H162      1.0  0.29440  0.20298  0.84334  1.0000
  C   C129      1.0  0.10030  0.19166  0.72976  1.0000
  C   C130      1.0  0.08506  0.20555  0.72123  1.0000
  C   C131      1.0  0.07473  0.19977  0.70928  1.0000
  C   C132      1.0  0.07993  0.18026  0.70513  1.0000
  C   C133      1.0  0.09574  0.16661  0.71300  1.0000
  C   C134      1.0  0.10572  0.17225  0.72537  1.0000
  H   H163      1.0  0.08105  0.22070  0.72395  1.0000
  H   H164      1.0  0.06257  0.21045  0.70324  1.0000
  H   H165      1.0  0.09977  0.15151  0.71013  1.0000
  H   H166      1.0  0.05789  0.16712  0.78783  1.0000
  C   C135      1.0  0.01331  0.19988  0.49969  1.0000
  H   H167      1.0  0.02723  0.05568  0.67416  1.0000
  H   H168      1.0  0.05886  0.99394  0.63626  1.0000
  S   S39       1.0  0.00461  0.21264  0.87727  1.0000
  C   C136      1.0  0.26257  0.01088  0.69337  1.0000
  S   S40       1.0  0.21453  0.99886  0.64404  1.0000
  N   N10       1.0  0.04385  0.19774  0.77733  1.0000
  C   C137      1.0  0.25829  0.15026  0.81211  1.0000
  H   H169      1.0  0.26246  0.02632  0.68592  1.0000
  C   C138      1.0  0.04304  0.22230  0.51961  1.0000
  C   C139      1.0  0.13585  0.16679  0.55671  1.0000
  H   H170      1.0  0.05496  0.06712  0.61287  1.0000
  Fe  Fe18      1.0  0.32418  0.01935  0.76885  1.0000
  C   C140      1.0  0.02147  0.09802  0.63882  1.0000
  H   H171      1.0  0.17459  0.00421  0.69113  1.0000
  H   H172      1.0  0.19727  0.06064  0.70202  1.0000
  H   H173      1.0  0.03474  0.19168  0.54875  1.0000
  H   H174      1.0  0.17872  0.99807  0.71596  1.0000
  C   C141      1.0  0.21084  0.19065  0.94192  1.0000
  S   S41       1.0  0.31498  0.04408  0.78711  1.0000
  C   C142      1.0  0.14818  0.18767  0.52445  1.0000
  C   C143      1.0  0.26919  0.15625  0.82304  1.0000
  H   H175      1.0  0.11079  0.03897  0.61128  1.0000
  H   H176      1.0  0.04039  0.22844  0.76074  1.0000
  H   H177      1.0  0.23951  0.03414  0.74041  1.0000
  H   H178      1.0  0.19319  0.05106  0.67480  1.0000
  H   H179      1.0  0.33112  0.05373  0.91374  1.0000
  H   H180      1.0  0.11754  0.16139  0.73179  1.0000
  C   C144      1.0  0.07201  0.03992  0.62897  1.0000
  C   C145      1.0  0.20456  0.04722  0.71078  1.0000
  H   H181      1.0  0.32521  0.05929  0.96701  1.0000
  H   H182      1.0  0.00824  0.18062  0.84357  1.0000
  C   C146      1.0  0.03950  0.23019  0.82341  1.0000
  C   C147      1.0  0.26028  0.17233  0.83285  1.0000
  S   S42       1.0  0.04384  0.09095  0.66828  1.0000
  C   C148      1.0  0.14205  0.21197  0.97252  1.0000
  H   H183      1.0  0.12004  0.14435  0.55341  1.0000
  H   H184      1.0  0.04071  0.20473  0.84765  1.0000
  H   H185      1.0  0.15194  0.19133  0.55227  1.0000
  C   C149      1.0  0.12829  0.15632  0.54606  1.0000
  C   C150      1.0  0.00249  0.07403  0.63555  1.0000
  C   C151      1.0  0.00909  0.21598  0.79195  1.0000
  C   C152      1.0  0.00664  0.20259  0.48190  1.0000
  C   C153      1.0  0.15065  0.22427  0.93706  1.0000
  C   C154      1.0  0.02617  0.20019  0.79425  1.0000
  H   H186      1.0  0.15504  0.03605  0.69711  1.0000
  C   C155      1.0  0.01624  0.21642  0.50636  1.0000
  H   H187      1.0  0.04076  0.18373  0.52538  1.0000
  H   H188      1.0  0.22587  0.21981  0.94852  1.0000
  H   H189      1.0  0.20015  0.99586  0.69503  1.0000
  C   C156      1.0  0.06158  0.18239  0.78292  1.0000
  C   C157      1.0  0.30293  0.99729  0.64696  1.0000
  H   H190      1.0  0.20174  0.23406  0.95901  1.0000
  Fe  Fe19      1.0  0.18260  0.99340  0.64932  1.0000
  C   C158      1.0  0.01303  0.22649  0.85353  1.0000
  C   C159      1.0  0.19435  0.03455  0.67774  1.0000
  C   C160      1.0  0.32686  0.19028  0.90627  1.0000
  H   H191      1.0  0.15984  0.03210  0.72183  1.0000
  S   S43       1.0  0.29076  0.99438  0.48261  1.0000
  C   C161      1.0  0.23847  0.16044  0.81089  1.0000
  C   C162      1.0  0.25299  0.99245  0.53407  1.0000
  H   H192      1.0  0.01496  0.18601  0.54021  1.0000
  H   H193      1.0  0.20295  0.22098  0.85024  1.0000
  C   C163      1.0  0.22833  0.03259  0.73276  1.0000
  C   C164      1.0  0.17817  0.20990  0.95564  1.0000
  C   C165      1.0  0.21833  0.04933  0.72132  1.0000
  N   N11       1.0  0.23089  0.19969  0.84305  1.0000
  H   H194      1.0  0.20909  0.99618  0.72447  1.0000
  C   C166      1.0  0.31212  0.00464  0.65853  1.0000
  H   H195      1.0  0.24710  0.18663  0.86714  1.0000
  C   C167      1.0  0.24001  0.18290  0.83220  1.0000
  H   H196      1.0  0.23009  0.15578  0.80226  1.0000
  C   C168      1.0  0.22937  0.17656  0.82072  1.0000
  H   H197      1.0  0.03178  0.05052  0.60519  1.0000
  C   C169      1.0  0.02524  0.18718  0.81324  1.0000
  H   H198      1.0  0.06549  0.05208  0.66255  1.0000
  H   H199      1.0  0.29913  0.00721  0.63356  1.0000
  H   H200      1.0  0.20413  0.17690  0.94601  1.0000
  H   H201      1.0  0.22748  0.18599  0.94196  1.0000
  N   N12       1.0  0.08631  0.04933  0.63449  1.0000
  C   C170      1.0  0.02216  0.06603  0.66150  1.0000
  H   H202      1.0  0.13386  0.99493  0.61756  1.0000
  C   C171      1.0  0.22436  0.01372  0.73397  1.0000
  C   C172      1.0  0.07240  0.01901  0.63539  1.0000
  H   H203      1.0  0.32388  0.99860  0.68529  1.0000
  S   S44       1.0  0.08221  0.15712  0.51436  1.0000
  S   S45       1.0  0.31412  0.16191  0.85046  1.0000
  H   H204      1.0  0.12464  0.15343  0.51746  1.0000
  H   H205      1.0  0.08762  0.07393  0.60922  1.0000
  H   H206      1.0  0.05292  0.22362  0.78116  1.0000
  H   H207      1.0  0.07296  0.13366  0.55365  1.0000
  H   H208      1.0  0.05765  0.22832  0.86446  1.0000
  H   H209      1.0  0.22257  0.18036  0.87130  1.0000
  H   H210      1.0  0.07483  0.18133  0.77002  1.0000
  C   C173      1.0  0.08203  0.04703  0.65654  1.0000
  H   H211      1.0  0.22490  0.20492  0.87318  1.0000
  H   H212      1.0  0.15570  0.19996  0.51597  1.0000
  C   C174      1.0  0.13077  0.16144  0.52526  1.0000
  H   H213      1.0  0.03169  0.17742  0.76710  1.0000
  C   C175      1.0  0.00849  0.09275  0.62923  1.0000
  C   C176      1.0  0.14592  0.18261  0.54522  1.0000
  Fe  Fe20      1.0  0.08757  0.18126  0.48692  1.0000
  N   N13       1.0  0.02400  0.21414  0.52469  1.0000
  C   C177      1.0  0.05103  0.21703  0.76908  1.0000
  C   C178      1.0  0.10771  0.03938  0.62746  1.0000
  H   H214      1.0  0.06934  0.07976  0.63152  1.0000
  S   S46       1.0  0.11213  0.19738  0.74688  1.0000
  H   H215      1.0  0.04959  0.22041  0.53298  1.0000
  C   C179      1.0  0.04344  0.04169  0.61332  1.0000
  H   H216      1.0  0.00859  0.22633  0.77792  1.0000
  N   N14       1.0  0.13337  0.16200  0.57873  1.0000
  C   C180      1.0  0.12156  0.17986  0.58718  1.0000
  C   C181      1.0  0.12250  0.14513  0.58852  1.0000
  C   C182      1.0  0.15370  0.15637  0.58416  1.0000
  H   H217      1.0  0.12970  0.19264  0.58241  1.0000
  H   H218      1.0  0.10660  0.18518  0.58253  1.0000
  H   H219      1.0  0.09588  0.07758  0.62995  1.0000
  H   H220      1.0  0.10668  0.14863  0.58598  1.0000
  H   H221      1.0  0.12102  0.14187  0.60501  1.0000
  H   H222      1.0  0.13080  0.13097  0.58333  1.0000
  H   H223      1.0  0.15234  0.15182  0.60067  1.0000
  H   H224      1.0  0.16330  0.14346  0.57741  1.0000
  H   H225      1.0  0.24213  0.22223  0.81879  1.0000
  H   H226      1.0  0.21402  0.18379  0.81907  1.0000
  C   C183      1.0  0.00852  0.22540  0.53893  1.0000
  C   C184      1.0  0.31256  0.21928  0.88423  1.0000
  C   C185      1.0  0.32918  0.04909  0.80247  1.0000
  H   H227      1.0  0.08307  0.00972  0.64432  1.0000
  H   H228      1.0  0.08316  0.19328  0.52709  1.0000
  H   H229      1.0  0.09023  0.05626  0.66138  1.0000
  Fe  Fe21      1.0  0.10560  0.22671  0.75820  1.0000
  C   C186      1.0  0.03755  0.19167  0.76142  1.0000
  C   C187      1.0  0.20060  0.02812  0.71121  1.0000
  C   C188      1.0  0.14061  0.17711  0.51449  1.0000
  C   C189      1.0  0.03191  0.21909  0.84205  1.0000
  H   H230      1.0  0.08643  0.03126  0.66414  1.0000
  S   S47       1.0  0.30202  0.99987  0.76990  1.0000
  C   C190      1.0  0.21078  0.01138  0.72336  1.0000
  C   C191      1.0  0.08465  0.07107  0.62581  1.0000
  H   H231      1.0  0.18543  0.03173  0.66794  1.0000
  C   C192      1.0  0.05698  0.05106  0.61785  1.0000
  H   H232      1.0  0.03740  0.17474  0.81649  1.0000
  C   C193      1.0  0.31729  0.99267  0.67604  1.0000
  C   C194      1.0  0.02875  0.19297  0.53514  1.0000
  H   H233      1.0  0.25914  0.21077  0.83549  1.0000
  H   H234      1.0  0.05488  0.21459  0.50852  1.0000
  H   H235      1.0  0.11145  0.02380  0.63579  1.0000
  H   H236      1.0  0.01355  0.22344  0.55321  1.0000
  S   S48       1.0  0.09188  0.22651  0.79082  1.0000
  H   H237      1.0  0.05401  0.22424  0.81483  1.0000
  H   H238      1.0  0.26778  0.22393  0.86469  1.0000
  H   H239      1.0  0.06709  0.18614  0.79486  1.0000
  H   H240      1.0  0.29754  0.20908  0.91440  1.0000
  H   H241      1.0  0.22154  0.06398  0.72040  1.0000
  C   C195      1.0  0.20930  0.20857  0.84170  1.0000
  C   C196      1.0  0.17142  0.21886  0.93755  1.0000
  H   H242      1.0  0.00533  0.04601  0.65650  1.0000
  C   C197      1.0  0.05868  0.00984  0.63087  1.0000
  C   C198      1.0  0.25166  0.99933  0.68769  1.0000
  H   H243      1.0  0.26952  0.17637  0.84099  1.0000
  S   S49       1.0  0.09986  0.20876  0.48494  1.0000
  C   C199      1.0  0.24280  0.21594  0.83474  1.0000
  C   C200      1.0  0.32965  0.21572  0.86891  1.0000
  C   C201      1.0  0.16280  0.20660  0.97321  1.0000
  H   H244      1.0  0.32797  0.08541  0.82800  1.0000
  H   H245      1.0  0.20785  0.21539  0.82602  1.0000
  C   C202      1.0  0.27347  0.00269  0.70876  1.0000
  C   C203      1.0  0.18506  0.00515  0.70042  1.0000
  H   H246      1.0  0.21062  0.02767  0.67265  1.0000
  H   H247      1.0  0.28467  0.14840  0.82399  1.0000
  H   H248      1.0  0.18214  0.22232  0.92369  1.0000
  C   C204      1.0  0.13600  0.22081  0.95451  1.0000
  H   H249      1.0  0.27021  0.99925  0.63062  1.0000
  S   S50       1.0  0.32940  0.02877  0.73542  1.0000
  H   H250      1.0  0.26407  0.99744  0.52108  1.0000
  H   H251      1.0  0.20735  0.23084  0.93360  1.0000
  H   H252      1.0  0.14589  0.23191  0.92320  1.0000
  C   C205      1.0  0.31109  0.20650  0.90279  1.0000
  C   C206      1.0  0.32211  0.06657  0.81066  1.0000
  H   H253      1.0  0.02529  0.20318  0.75535  1.0000
  H   H254      1.0  0.31493  0.01983  0.65417  1.0000
  H   H255      1.0  0.32953  0.22604  0.85484  1.0000
  S   S51       1.0  0.33184  0.08668  0.92971  1.0000
  Fe  Fe22      1.0  0.26089  0.98655  0.48292  1.0000
  H   H256      1.0  0.09212  0.23403  0.85997  1.0000
  C   C207      1.0  0.01146  0.23570  0.49444  1.0000
  C   C208      1.0  0.23597  0.98639  0.53183  1.0000
  H   H257      1.0  0.06125  0.30092  0.40703  1.0000
  H   H258      1.0  0.25928  0.45738  0.02287  1.0000
  Fe  Fe23      1.0  0.03157  0.35027  0.38220  1.0000
  S   S52       1.0  0.04585  0.32381  0.36758  1.0000
  S   S53       1.0  0.05072  0.36061  0.39754  1.0000
  Fe  Fe24      1.0  0.03149  0.34183  0.34219  1.0000
  S   S54       1.0  0.04977  0.34336  0.31074  1.0000
  S   S55       1.0  0.32394  0.35037  0.41086  1.0000
  N   N15       1.0  0.30063  0.29804  0.41386  1.0000
  S   S56       1.0  0.01961  0.36919  0.35578  1.0000
  H   H259      1.0  0.03533  0.24335  0.41288  1.0000
  C   C209      1.0  0.04029  0.40756  0.29128  1.0000
  H   H260      1.0  0.27117  0.41467  0.45635  1.0000
  Fe  Fe25      1.0  0.00684  0.45826  0.22998  1.0000
  H   H261      1.0  0.03429  0.29336  0.45251  1.0000
  C   C210      1.0  0.10372  0.31261  0.24750  1.0000
  C   C211      1.0  0.15326  0.27196  0.43059  1.0000
  H   H262      1.0  0.31330  0.30941  0.43316  1.0000
  C   C212      1.0  0.12475  0.32325  0.03128  1.0000
  C   C213      1.0  0.07463  0.30561  0.40935  1.0000
  Fe  Fe26      1.0  0.15774  0.42067  0.22085  1.0000
  S   S57       1.0  0.15129  0.42942  0.25078  1.0000
  S   S58       1.0  0.15654  0.39090  0.21464  1.0000
  H   H263      1.0  0.24954  0.46447  0.21553  1.0000
  C   C214      1.0  0.18034  0.25734  0.31249  1.0000
  Fe  Fe27      1.0  0.17947  0.44321  0.23896  1.0000
  S   S59       1.0  0.20490  0.43787  0.25580  1.0000
  S   S60       1.0  0.13954  0.44894  0.20649  1.0000
  S   S61       1.0  0.18737  0.43147  0.21041  1.0000
  S   S62       1.0  0.30538  0.39281  0.42695  1.0000
  H   H264      1.0  0.04118  0.41315  0.19247  1.0000
  Fe  Fe28      1.0  0.29560  0.36364  0.43098  1.0000
  S   S63       1.0  0.26276  0.36150  0.43346  1.0000
  S   S64       1.0  0.13906  0.36051  0.34271  1.0000
  S   S65       1.0  0.17404  0.34062  0.38408  1.0000
  S   S66       1.0  0.03653  0.26951  0.03680  1.0000
  S   S67       1.0  0.05628  0.31616  0.04445  1.0000
  S   S68       1.0  0.07585  0.28307  0.00426  1.0000
  Fe  Fe29      1.0  0.11503  0.40144  0.10477  1.0000
  S   S69       1.0  0.08944  0.41984  0.12314  1.0000
  S   S70       1.0  0.14452  0.41155  0.08859  1.0000
  Fe  Fe30      1.0  0.09301  0.36641  0.11329  1.0000
  S   S71       1.0  0.06550  0.38187  0.13285  1.0000
  S   S72       1.0  0.09658  0.33467  0.10842  1.0000
  Fe  Fe31      1.0  0.06939  0.40923  0.10908  1.0000
  S   S73       1.0  0.04217  0.43025  0.09913  1.0000
  Fe  Fe32      1.0  0.08792  0.39110  0.14536  1.0000
  S   S74       1.0  0.08127  0.39362  0.17775  1.0000
  S   S75       1.0  0.09513  0.39321  0.08846  1.0000
  S   S76       1.0  0.11529  0.37325  0.12814  1.0000
  H   H265      1.0  0.18195  0.26399  0.41061  1.0000
  C   C215      1.0  0.03094  0.31473  0.30720  1.0000
  C   C216      1.0  0.06754  0.32090  0.06241  1.0000
  C   C217      1.0  0.07997  0.30565  0.07326  1.0000
  C   C218      1.0  0.08879  0.31007  0.08727  1.0000
  C   C219      1.0  0.08538  0.32978  0.09051  1.0000
  C   C220      1.0  0.07317  0.34506  0.07946  1.0000
  C   C221      1.0  0.06429  0.34061  0.06552  1.0000
  H   H266      1.0  0.08273  0.29047  0.07091  1.0000
  H   H267      1.0  0.09827  0.29818  0.09569  1.0000
  H   H268      1.0  0.07037  0.36028  0.08183  1.0000
  H   H269      1.0  0.05472  0.35252  0.05720  1.0000
  S   S77       1.0  0.01613  0.28179  0.39378  1.0000
  N   N16       1.0  0.12159  0.31642  0.01409  1.0000
  C   C222      1.0  0.05024  0.48472  0.06873  1.0000
  C   C223      1.0  0.21777  0.39336  0.34347  1.0000
  H   H270      1.0  0.31226  0.30456  0.38216  1.0000
  H   H271      1.0  0.11091  0.32366  0.04361  1.0000
  C   C224      1.0  0.13087  0.45099  0.09358  1.0000
  C   C225      1.0  0.14513  0.43730  0.08296  1.0000
  C   C226      1.0  0.10494  0.33159  0.17420  1.0000
  H   H272      1.0  0.07268  0.41937  0.31396  1.0000
  C   C227      1.0  0.06765  0.28962  0.29394  1.0000
  H   H273      1.0  0.11918  0.44578  0.10579  1.0000
  H   H274      1.0  0.17165  0.43360  0.05927  1.0000
  H   H275      1.0  0.27137  0.28895  0.42514  1.0000
  H   H276      1.0  0.13353  0.31176  0.16663  1.0000
  C   C228      1.0  0.13696  0.25779  0.98062  1.0000
  C   C229      1.0  0.16692  0.25788  0.30025  1.0000
  C   C230      1.0  0.10053  0.30557  0.36693  1.0000
  H   H277      1.0  0.25779  0.44228  0.31566  1.0000
  C   C231      1.0  0.25490  0.35587  0.41378  1.0000
  C   C232      1.0  0.26694  0.35747  0.39446  1.0000
  C   C233      1.0  0.26042  0.35248  0.37923  1.0000
  C   C234      1.0  0.24183  0.34591  0.38315  1.0000
  C   C235      1.0  0.22973  0.34445  0.40244  1.0000
  C   C236      1.0  0.23623  0.34949  0.41767  1.0000
  H   H278      1.0  0.28121  0.36265  0.39122  1.0000
  C   C237      1.0  0.01588  0.25257  0.35052  1.0000
  H   H279      1.0  0.21535  0.33946  0.40562  1.0000
  H   H280      1.0  0.22677  0.34828  0.43256  1.0000
  C   C238      1.0  0.13573  0.39184  0.20416  1.0000
  C   C239      1.0  0.11722  0.40487  0.20924  1.0000
  C   C240      1.0  0.10053  0.40522  0.20114  1.0000
  C   C241      1.0  0.10247  0.39296  0.18748  1.0000
  C   C242      1.0  0.12107  0.38008  0.18217  1.0000
  C   C243      1.0  0.13762  0.37937  0.19069  1.0000
  H   H281      1.0  0.11567  0.41444  0.21968  1.0000
  H   H282      1.0  0.08618  0.41522  0.20526  1.0000
  H   H283      1.0  0.12259  0.37043  0.17178  1.0000
  H   H284      1.0  0.15193  0.36924  0.18672  1.0000
  C   C244      1.0  0.30064  0.43789  0.34904  1.0000
  C   C245      1.0  0.29609  0.42136  0.36389  1.0000
  C   C246      1.0  0.31120  0.40896  0.37373  1.0000
  H   H285      1.0  0.10234  0.35237  0.23812  1.0000
  C   C247      1.0  0.13677  0.26481  0.44426  1.0000
  C   C248      1.0  0.32045  0.44187  0.34388  1.0000
  H   H286      1.0  0.28085  0.41814  0.36783  1.0000
  H   H287      1.0  0.30761  0.39606  0.38491  1.0000
  Fe  Fe33      1.0  0.01568  0.31442  0.38057  1.0000
  H   H288      1.0  0.14602  0.25906  0.38621  1.0000
  H   H289      1.0  0.20871  0.46355  0.10264  1.0000
  C   C249      1.0  0.03971  0.35113  0.25018  1.0000
  C   C250      1.0  0.23420  0.45336  0.26393  1.0000
  C   C251      1.0  0.22371  0.41000  0.32896  1.0000
  H   H290      1.0  0.24197  0.43792  0.26702  1.0000
  H   H291      1.0  0.14285  0.30997  0.24909  1.0000
  H   H292      1.0  0.13957  0.26938  0.35199  1.0000
  C   C252      1.0  0.19143  0.39240  0.32686  1.0000
  C   C253      1.0  0.02944  0.36175  0.23492  1.0000
  H   H293      1.0  0.21927  0.43874  0.34949  1.0000
  H   H294      1.0  0.27519  0.47340  0.00545  1.0000
  H   H295      1.0  0.13761  0.45750  0.13142  1.0000
  H   H296      1.0  0.12799  0.33870  0.02689  1.0000
  H   H297      1.0  0.24553  0.43503  0.35121  1.0000
  C   C254      1.0  0.27968  0.29810  0.41179  1.0000
  Fe  Fe34      1.0  0.18901  0.29763  0.35373  1.0000
  C   C255      1.0  0.30722  0.26025  0.41573  1.0000
  C   C256      1.0  0.02389  0.43553  0.12041  1.0000
  H   H298      1.0  0.27210  0.41068  0.33239  1.0000
  H   H299      1.0  0.04470  0.44399  0.13363  1.0000
  Fe  Fe35      1.0  0.16293  0.33858  0.35753  1.0000
  S   S78       1.0  0.12905  0.24801  0.00616  1.0000
  H   H300      1.0  0.10665  0.34513  0.00006  1.0000
  C   C257      1.0  0.11450  0.43837  0.04787  1.0000
  C   C258      1.0  0.05404  0.35917  0.25497  1.0000
  C   C259      1.0  0.10205  0.30450  0.34706  1.0000
  H   H301      1.0  0.07164  0.30709  0.42526  1.0000
  H   H302      1.0  0.09762  0.32412  0.99717  1.0000
  C   C260      1.0  0.04366  0.26241  0.44947  1.0000
  S   S79       1.0  0.20266  0.29559  0.38013  1.0000
  H   H303      1.0  0.26983  0.35369  0.36432  1.0000
  H   H304      1.0  0.25750  0.39195  0.34546  1.0000
  H   H305      1.0  0.21584  0.46492  0.21469  1.0000
  C   C261      1.0  0.07519  0.36118  0.38225  1.0000
  C   C262      1.0  0.09225  0.35723  0.39092  1.0000
  C   C263      1.0  0.11194  0.35666  0.37884  1.0000
  C   C264      1.0  0.11455  0.36083  0.35803  1.0000
  C   C265      1.0  0.09746  0.36511  0.34935  1.0000
  C   C266      1.0  0.07786  0.36487  0.36144  1.0000
  H   H306      1.0  0.09028  0.35426  0.40701  1.0000
  H   H307      1.0  0.12508  0.35336  0.38564  1.0000
  H   H308      1.0  0.09938  0.36843  0.33329  1.0000
  H   H309      1.0  0.06479  0.36787  0.35462  1.0000
  N   N17       1.0  0.16098  0.36010  0.28174  1.0000
  C   C267      1.0  0.16408  0.37729  0.28865  1.0000
  C   C268      1.0  0.16926  0.34135  0.29469  1.0000
  C   C269      1.0  0.17326  0.35981  0.26113  1.0000
  C   C270      1.0  0.13893  0.36239  0.28212  1.0000
  C   C271      1.0  0.12606  0.35050  0.29678  1.0000
  C   C272      1.0  0.12944  0.37759  0.26815  1.0000
  C   C273      1.0  0.10525  0.35325  0.29684  1.0000
  C   C274      1.0  0.10863  0.38026  0.26838  1.0000
  C   C275      1.0  0.09656  0.36807  0.28271  1.0000
  H   H310      1.0  0.15475  0.37836  0.30388  1.0000
  H   H311      1.0  0.18036  0.37601  0.28916  1.0000
  H   H312      1.0  0.15947  0.39179  0.27879  1.0000
  H   H313      1.0  0.16240  0.34127  0.31078  1.0000
  H   H314      1.0  0.18601  0.33947  0.29351  1.0000
  H   H315      1.0  0.16673  0.32790  0.29061  1.0000
  H   H316      1.0  0.17086  0.37463  0.25102  1.0000
  H   H317      1.0  0.18998  0.35599  0.26075  1.0000
  H   H318      1.0  0.16952  0.34868  0.25440  1.0000
  H   H319      1.0  0.13159  0.33934  0.30870  1.0000
  H   H320      1.0  0.13798  0.38782  0.25715  1.0000
  H   H321      1.0  0.09558  0.34423  0.30827  1.0000
  H   H322      1.0  0.10185  0.39209  0.25758  1.0000
  H   H323      1.0  0.08031  0.37033  0.28329  1.0000
  C   C276      1.0  0.15005  0.29125  0.30569  1.0000
  H   H324      1.0  0.18883  0.41464  0.30013  1.0000
  H   H325      1.0  0.16159  0.30307  0.32535  1.0000
  H   H326      1.0  0.01884  0.30396  0.42259  1.0000
  H   H327      1.0  0.05611  0.25189  0.33821  1.0000
  H   H328      1.0  0.11191  0.31417  0.39807  1.0000
  N   N18       1.0  0.02132  0.39232  0.20869  1.0000
  H   H329      1.0  0.32248  0.43666  0.44246  1.0000
  C   C277      1.0  0.07383  0.25434  0.11369  1.0000
  C   C278      1.0  0.02687  0.38168  0.19170  1.0000
  C   C279      1.0  0.03302  0.38097  0.22419  1.0000
  H   H330      1.0  0.01862  0.35480  0.23160  1.0000
  H   H331      1.0  0.00715  0.38296  0.40365  1.0000
  H   H332      1.0  0.23292  0.38464  0.46152  1.0000
  H   H333      1.0  0.01034  0.41461  0.33683  1.0000
  S   S80       1.0  0.05598  0.25504  0.46973  1.0000
  H   H334      1.0  0.29212  0.26057  0.41373  1.0000
  C   C280      1.0  0.01469  0.44548  0.15269  1.0000
  C   C281      1.0  0.08273  0.46111  0.05961  1.0000
  S   S81       1.0  0.01350  0.46875  0.19685  1.0000
  H   H335      1.0  0.06973  0.38387  0.24782  1.0000
  H   H336      1.0  0.08435  0.26866  0.13181  1.0000
  H   H337      1.0  0.06401  0.23630  0.09861  1.0000
  C   C282      1.0  0.16917  0.25856  0.42117  1.0000
  S   S82       1.0  0.28111  0.45332  0.33748  1.0000
  C   C283      1.0  0.26465  0.46318  0.00670  1.0000
  Fe  Fe36      1.0  0.05830  0.24181  0.04796  1.0000
  H   H338      1.0  0.27544  0.47333  0.22750  1.0000
  C   C284      1.0  0.08070  0.25488  0.13046  1.0000
  H   H339      1.0  0.01107  0.37257  0.31612  1.0000
  C   C285      1.0  0.07202  0.43594  0.24321  1.0000
  H   H340      1.0  0.10407  0.29771  0.24424  1.0000
  H   H341      1.0  0.26390  0.39653  0.31868  1.0000
  C   C286      1.0  0.02612  0.27443  0.41557  1.0000
  S   S83       1.0  0.30758  0.35105  0.45909  1.0000
  H   H342      1.0  0.21769  0.44027  0.07893  1.0000
  Fe  Fe37      1.0  0.28977  0.47814  0.31195  1.0000
  H   H343      1.0  0.21604  0.43000  0.30148  1.0000
  H   H344      1.0  0.23199  0.44850  0.31285  1.0000
  H   H345      1.0  0.14207  0.30620  0.19905  1.0000
  H   H346      1.0  0.18891  0.32370  0.98206  1.0000
  H   H347      1.0  0.07514  0.32080  0.40013  1.0000
  C   C287      1.0  0.11448  0.32587  0.21233  1.0000
  Fe  Fe38      1.0  0.13528  0.45872  0.23546  1.0000
  C   C288      1.0  0.09383  0.27152  0.35757  1.0000
  C   C289      1.0  0.33089  0.41314  0.36892  1.0000
  H   H348      1.0  0.16850  0.24527  0.29326  1.0000
  H   H349      1.0  0.09021  0.33210  0.02036  1.0000
  C   C290      1.0  0.04374  0.24837  0.43829  1.0000
  C   C291      1.0  0.08436  0.46443  0.24639  1.0000
  H   H350      1.0  0.10684  0.30976  0.26278  1.0000
  C   C292      1.0  0.06783  0.30855  0.29720  1.0000
  C   C293      1.0  0.09258  0.27194  0.41819  1.0000
  H   H351      1.0  0.10635  0.26030  0.41437  1.0000
  H   H352      1.0  0.07865  0.26631  0.41883  1.0000
  H   H353      1.0  0.09164  0.27353  0.43377  1.0000
  H   H354      1.0  0.11005  0.29928  0.42219  1.0000
  C   C294      1.0  0.16881  0.23797  0.42583  1.0000
  C   C295      1.0  0.21554  0.45779  0.25773  1.0000
  H   H355      1.0  0.08856  0.25942  0.38851  1.0000
  H   H356      1.0  0.08220  0.31319  0.29516  1.0000
  S   S84       1.0  0.19428  0.32877  0.33984  1.0000
  N   N19       1.0  0.24541  0.40212  0.47524  1.0000
  H   H357      1.0  0.01539  0.42142  0.18992  1.0000
  H   H358      1.0  0.01671  0.32440  0.31230  1.0000
  H   H359      1.0  0.09990  0.28675  0.32691  1.0000
  H   H360      1.0  0.01895  0.45052  0.16403  1.0000
  C   C296      1.0  0.24522  0.43581  0.31397  1.0000
  N   N20       1.0  0.15705  0.43121  0.14427  1.0000
  H   H361      1.0  0.02169  0.42172  0.21282  1.0000
  H   H362      1.0  0.07166  0.41136  0.28210  1.0000
  H   H363      1.0  0.20816  0.46618  0.19204  1.0000
  C   C297      1.0  0.17377  0.43331  0.12639  1.0000
  C   C298      1.0  0.17986  0.41979  0.11287  1.0000
  C   C299      1.0  0.18506  0.44881  0.12245  1.0000
  C   C300      1.0  0.02515  0.41302  0.20071  1.0000
  C   C301      1.0  0.20062  0.45132  0.10547  1.0000
  C   C302      1.0  0.03492  0.25434  0.42147  1.0000
  H   H364      1.0  0.08487  0.34585  0.21872  1.0000
  S   S85       1.0  0.16281  0.47332  0.22602  1.0000
  H   H365      1.0  0.04663  0.25896  0.36232  1.0000
  C   C303      1.0  0.08225  0.43183  0.04641  1.0000
  C   C304      1.0  0.07194  0.44875  0.05460  1.0000
  H   H366      1.0  0.24706  0.42572  0.44925  1.0000
  H   H367      1.0  0.13047  0.28512  0.02650  1.0000
  H   H368      1.0  0.17463  0.43521  0.16388  1.0000
  C   C305      1.0  0.07833  0.47319  0.19231  1.0000
  H   H369      1.0  0.07363  0.42231  0.04327  1.0000
  H   H370      1.0  0.18199  0.45911  0.13251  1.0000
  C   C306      1.0  0.16049  0.44413  0.06741  1.0000
  S   S86       1.0  0.31235  0.40213  0.47332  1.0000
  C   C307      1.0  0.09247  0.27232  0.37752  1.0000
  C   C308      1.0  0.31019  0.31098  0.39568  1.0000
  C   C309      1.0  0.16321  0.29056  0.31824  1.0000
  Fe  Fe39      1.0  0.09486  0.25469  0.01745  1.0000
  H   H371      1.0  0.08191  0.27994  0.28898  1.0000
  C   C310      1.0  0.17857  0.27367  0.32149  1.0000
  H   H372      1.0  0.26025  0.40132  0.44447  1.0000
  H   H373      1.0  0.17901  0.38572  0.32626  1.0000
  C   C311      1.0  0.04827  0.38837  0.22902  1.0000
  C   C312      1.0  0.19551  0.42238  0.09597  1.0000
  H   H374      1.0  0.17254  0.40727  0.11477  1.0000
  C   C313      1.0  0.32025  0.24147  0.41773  1.0000
  C   C314      1.0  0.02321  0.41361  0.32441  1.0000
  C   C315      1.0  0.32979  0.44137  0.42651  1.0000
  H   H375      1.0  0.10136  0.33388  0.15959  1.0000
  C   C316      1.0  0.10435  0.45537  0.05596  1.0000
  C   C317      1.0  0.04912  0.28314  0.29756  1.0000
  C   C318      1.0  0.31377  0.27784  0.41627  1.0000
  H   H376      1.0  0.13839  0.24385  0.33361  1.0000
  C   C319      1.0  0.23595  0.45765  0.99689  1.0000
  H   H377      1.0  0.27402  0.45020  0.99994  1.0000
  H   H378      1.0  0.13099  0.43396  0.04587  1.0000
  H   H379      1.0  0.03648  0.33661  0.25845  1.0000
  Fe  Fe40      1.0  0.06139  0.28570  0.03608  1.0000
  H   H380      1.0  0.12591  0.28880  0.40137  1.0000
  S   S87       1.0  0.23436  0.33976  0.36353  1.0000
  H   H381      1.0  0.02310  0.36646  0.19618  1.0000
  H   H382      1.0  0.10560  0.31706  0.33530  1.0000
  C   C320      1.0  0.04131  0.41727  0.32708  1.0000
  H   H383      1.0  0.06177  0.35099  0.26695  1.0000
  C   C321      1.0  0.14205  0.25364  0.35887  1.0000
  C   C322      1.0  0.13933  0.31625  0.99703  1.0000
  H   H384      1.0  0.19940  0.41217  0.08560  1.0000
  H   H385      1.0  0.22263  0.46423  0.98963  1.0000
  Fe  Fe41      1.0  0.20525  0.32788  0.36766  1.0000
  H   H386      1.0  0.01434  0.39429  0.43114  1.0000
  H   H387      1.0  0.32410  0.45449  0.33230  1.0000
  S   S88       1.0  0.08185  0.25841  0.04928  1.0000
  H   H388      1.0  0.16889  0.25132  0.98159  1.0000
  H   H389      1.0  0.10368  0.29545  0.03396  1.0000
  Fe  Fe42      1.0  0.05312  0.26403  0.00611  1.0000
  C   C323      1.0  0.04948  0.32090  0.30424  1.0000
  H   H390      1.0  0.13732  0.31290  0.03796  1.0000
  C   C324      1.0  0.00726  0.38234  0.30209  1.0000
  Fe  Fe43      1.0  0.17066  0.30838  0.39448  1.0000
  S   S89       1.0  0.15351  0.29770  0.42533  1.0000
  C   C325      1.0  0.15188  0.27492  0.29667  1.0000
  H   H391      1.0  0.28816  0.32203  0.43049  1.0000
  C   C326      1.0  0.03439  0.28243  0.44393  1.0000
  H   H392      1.0  0.29212  0.29733  0.44554  1.0000
  C   C327      1.0  0.12310  0.31918  0.17819  1.0000
  C   C328      1.0  0.20574  0.43821  0.09217  1.0000
  C   C329      1.0  0.10334  0.33002  0.00756  1.0000
  C   C330      1.0  0.13598  0.24439  0.44826  1.0000
  C   C331      1.0  0.14562  0.24784  0.37815  1.0000
  S   S90       1.0  0.19572  0.27260  0.33662  1.0000
  S   S91       1.0  0.03249  0.43656  0.24242  1.0000
  S   S92       1.0  0.15691  0.30755  0.36928  1.0000
  Fe  Fe44      1.0  0.31979  0.37930  0.45339  1.0000
  H   H393      1.0  0.11389  0.28998  0.00954  1.0000
  H   H394      1.0  0.10320  0.43540  0.24420  1.0000
  H   H395      1.0  0.12870  0.35129  0.22610  1.0000
  C   C332      1.0  0.09597  0.33821  0.20781  1.0000
  H   H396      1.0  0.15182  0.31780  0.22291  1.0000
  C   C333      1.0  0.04867  0.46765  0.24546  1.0000
  C   C334      1.0  0.05232  0.44755  0.24374  1.0000
  C   C335      1.0  0.25919  0.40392  0.33190  1.0000
  C   C336      1.0  0.19691  0.40865  0.31228  1.0000
  H   H397      1.0  0.07733  0.35077  0.18578  1.0000
  C   C337      1.0  0.13802  0.31155  0.97895  1.0000
  H   H398      1.0  0.27991  0.29258  0.39818  1.0000
  C   C338      1.0  0.11778  0.34280  0.23739  1.0000
  C   C339      1.0  0.08805  0.44440  0.24441  1.0000
  C   C340      1.0  0.11111  0.29867  0.40632  1.0000
  H   H399      1.0  0.10245  0.31942  0.36975  1.0000
  H   H400      1.0  0.01639  0.29106  0.30634  1.0000
  H   H401      1.0  0.13832  0.30437  0.30305  1.0000
  C   C341      1.0  0.13958  0.31103  0.23416  1.0000
  C   C342      1.0  0.09872  0.28752  0.34236  1.0000
  H   H402      1.0  0.12157  0.34106  0.25223  1.0000
  Fe  Fe45      1.0  0.12336  0.24909  0.28246  1.0000
  H   H403      1.0  0.32506  0.43285  0.41753  1.0000
  H   H404      1.0  0.25053  0.43047  0.29956  1.0000
  N   N21       1.0  0.11895  0.32307  0.23240  1.0000
  H   H405      1.0  0.12063  0.48209  0.09634  1.0000
  H   H406      1.0  0.22531  0.38680  0.35587  1.0000
  C   C343      1.0  0.09138  0.34101  0.18901  1.0000
  H   H407      1.0  0.09131  0.25831  0.35384  1.0000
  H   H408      1.0  0.01877  0.39007  0.17946  1.0000
  C   C344      1.0  0.11721  0.29590  0.02136  1.0000
  C   C345      1.0  0.12786  0.31622  0.19696  1.0000
  C   C346      1.0  0.10347  0.42664  0.04307  1.0000
  N   N22       1.0  0.09370  0.29119  0.40380  1.0000
  H   H409      1.0  0.23130  0.41563  0.36304  1.0000
  H   H410      1.0  0.30069  0.32629  0.39317  1.0000
  H   H411      1.0  0.14104  0.29523  0.23264  1.0000
  H   H412      1.0  0.12927  0.44929  0.15795  1.0000
  C   C347      1.0  0.26645  0.48476  0.21813  1.0000
  C   C348      1.0  0.03075  0.29591  0.30375  1.0000
  C   C349      1.0  0.09604  0.28938  0.38280  1.0000
  C   C350      1.0  0.20191  0.38474  0.34235  1.0000
  H   H413      1.0  0.07488  0.42042  0.24184  1.0000
  C   C351      1.0  0.25644  0.41139  0.45551  1.0000
  C   C352      1.0  0.02571  0.28845  0.42693  1.0000
  S   S93       1.0  0.29421  0.47455  0.28030  1.0000
  C   C353      1.0  0.14292  0.45080  0.14565  1.0000
  C   C354      1.0  0.16599  0.42435  0.16232  1.0000
  N   N23       1.0  0.24017  0.41922  0.33087  1.0000
  C   C355      1.0  0.21277  0.41741  0.31324  1.0000
  H   H414      1.0  0.07201  0.26764  0.10217  1.0000
  C   C356      1.0  0.23376  0.42748  0.34947  1.0000
  C   C357      1.0  0.05845  0.37765  0.24428  1.0000
  H   H415      1.0  0.25742  0.46518  0.27055  1.0000
  H   H416      1.0  0.15011  0.46188  0.14898  1.0000
  C   C358      1.0  0.02929  0.44185  0.13539  1.0000
  H   H417      1.0  0.02071  0.26001  0.33473  1.0000
  H   H418      1.0  0.19212  0.24421  0.31503  1.0000
  C   C359      1.0  0.02218  0.40850  0.30639  1.0000
  H   H419      1.0  0.15400  0.42236  0.17616  1.0000
  Fe  Fe46      1.0  0.16859  0.46053  0.19846  1.0000
  C   C360      1.0  0.29850  0.30705  0.43148  1.0000
  S   S94       1.0  0.13601  0.27669  0.28007  1.0000
  H   H420      1.0  0.08816  0.23891  0.15821  1.0000
  C   C361      1.0  0.16132  0.46455  0.06210  1.0000
  H   H421      1.0  0.05547  0.45142  0.05745  1.0000
  H   H422      1.0  0.08786  0.32127  0.24816  1.0000
  H   H423      1.0  0.24324  0.48564  0.16377  1.0000
  H   H424      1.0  0.24588  0.44600  0.98841  1.0000
  S   S95       1.0  0.04877  0.25882  0.29540  1.0000
  H   H425      1.0  0.12448  0.27512  0.45164  1.0000
  S   S96       1.0  0.10248  0.25039  0.26220  1.0000
  H   H426      1.0  0.09112  0.46843  0.20038  1.0000
  S   S97       1.0  0.10427  0.47518  0.24796  1.0000
  H   H427      1.0  0.19780  0.37195  0.35360  1.0000
  H   H428      1.0  0.04355  0.37992  0.18514  1.0000
  C   C362      1.0  0.14684  0.47837  0.07232  1.0000
  C   C363      1.0  0.13173  0.47155  0.08826  1.0000
  H   H429      1.0  0.20662  0.47690  0.01932  1.0000
  H   H430      1.0  0.12302  0.23909  0.45859  1.0000
  H   H431      1.0  0.32544  0.31291  0.39657  1.0000
  H   H432      1.0  0.27019  0.31351  0.41025  1.0000
  C   C364      1.0  0.06464  0.47602  0.24697  1.0000
  Fe  Fe47      1.0  0.08081  0.24125  0.29066  1.0000
  H   H433      1.0  0.32319  0.45745  0.42182  1.0000
  C   C365      1.0  0.06925  0.23669  0.11176  1.0000
  H   H434      1.0  0.07999  0.46162  0.18331  1.0000
  H   H435      1.0  0.05258  0.40252  0.22127  1.0000
  H   H436      1.0  0.08988  0.46885  0.09239  1.0000
  C   C366      1.0  0.14458  0.41659  0.14429  1.0000
  C   C367      1.0  0.05049  0.24611  0.35438  1.0000
  H   H437      1.0  0.15352  0.40097  0.14568  1.0000
  H   H438      1.0  0.11362  0.46368  0.05975  1.0000
  H   H439      1.0  0.06658  0.45966  0.09842  1.0000
  H   H440      1.0  0.01133  0.26480  0.35932  1.0000
  C   C368      1.0  0.05817  0.41169  0.29397  1.0000
  H   H441      1.0  0.04188  0.42077  0.34107  1.0000
  H   H442      1.0  0.23451  0.45855  0.19281  1.0000
  H   H443      1.0  0.03350  0.47669  0.24593  1.0000
  H   H444      1.0  0.00178  0.25306  0.46763  1.0000
  H   H445      1.0  0.11136  0.41320  0.03727  1.0000
  H   H446      1.0  0.06393  0.47263  0.20383  1.0000
  H   H447      1.0  0.16083  0.32403  0.01089  1.0000
  H   H448      1.0  0.04070  0.40376  0.27722  1.0000
  C   C369      1.0  0.15824  0.32056  0.99775  1.0000
  H   H449      1.0  0.13840  0.42032  0.13044  1.0000
  C   C370      1.0  0.05872  0.41638  0.31187  1.0000
  H   H450      1.0  0.17309  0.46967  0.04986  1.0000
  N   N24       1.0  0.00350  0.40383  0.30326  1.0000
  H   H451      1.0  0.17674  0.40969  0.16192  1.0000
  S   S98       1.0  0.17911  0.47577  0.16705  1.0000
  H   H452      1.0  0.13128  0.41632  0.15712  1.0000
  C   C371      1.0  0.24300  0.46878  0.26588  1.0000
  H   H453      1.0  0.09984  0.48366  0.15451  1.0000
  C   C372      1.0  0.22783  0.39556  0.47184  1.0000
  C   C373      1.0  0.17459  0.32042  0.98123  1.0000
  C   C374      1.0  0.20583  0.47781  0.25328  1.0000
  H   H454      1.0  0.02030  0.37834  0.28980  1.0000
  N   N25       1.0  0.07227  0.47843  0.06942  1.0000
  N   N26       1.0  0.03261  0.23667  0.35739  1.0000
  C   C375      1.0  0.22032  0.46905  0.19813  1.0000
  C   C376      1.0  0.08276  0.23779  0.14549  1.0000
  H   H455      1.0  0.21726  0.40840  0.46479  1.0000
  H   H456      1.0  0.00910  0.41124  0.27097  1.0000
  H   H457      1.0  0.01882  0.24193  0.38730  1.0000
  N   N27       1.0  0.24722  0.47326  0.99688  1.0000
  C   C377      1.0  0.07378  0.47287  0.09069  1.0000
  S   S99       1.0  0.10081  0.24185  0.31091  1.0000
  H   H458      1.0  0.26328  0.37238  0.47389  1.0000
  H   H459      1.0  0.06377  0.48600  0.15916  1.0000
  H   H460      1.0  0.23067  0.44947  0.01226  1.0000
  C   C378      1.0  0.14158  0.23922  0.34850  1.0000
  H   H461      1.0  0.04136  0.47304  0.07776  1.0000
  H   H462      1.0  0.00199  0.26320  0.00349  1.0000
  C   C379      1.0  0.00229  0.25941  0.98944  1.0000
  H   H463      1.0  0.19126  0.48139  0.24890  1.0000
  H   H464      1.0  0.00203  0.24642  0.35198  1.0000
  C   C380      1.0  0.25137  0.47991  0.21112  1.0000
  H   H465      1.0  0.06605  0.48539  0.09880  1.0000
  S   S100      1.0  0.00218  0.33965  0.39740  1.0000
  S   S101      1.0  0.00243  0.32988  0.35358  1.0000
  C   C381      1.0  0.00392  0.43291  0.12269  1.0000
  C   C382      1.0  0.00467  0.23823  0.47679  1.0000
  C   C383      1.0  0.31655  0.44805  0.97894  1.0000
  H   H466      1.0  0.26525  0.41424  0.86381  1.0000
  H   H467      1.0  0.16484  0.31685  0.74976  1.0000
  H   H468      1.0  0.04709  0.46354  0.61468  1.0000
  Fe  Fe48      1.0  0.32011  0.39948  0.90623  1.0000
  H   H469      1.0  0.20217  0.34493  0.87014  1.0000
  C   C384      1.0  0.02869  0.30768  0.85737  1.0000
  S   S102      1.0  0.03793  0.26335  0.79300  1.0000
  H   H470      1.0  0.12903  0.29494  0.76172  1.0000
  C   C385      1.0  0.07016  0.44206  0.58764  1.0000
  C   C386      1.0  0.08031  0.43227  0.60357  1.0000
  H   H471      1.0  0.18535  0.31592  0.95087  1.0000
  H   H472      1.0  0.10897  0.41858  0.61253  1.0000
  C   C387      1.0  0.03923  0.45303  0.57302  1.0000
  S   S103      1.0  0.18793  0.44701  0.55945  1.0000
  S   S104      1.0  0.12422  0.24416  0.81873  1.0000
  C   C388      1.0  0.07029  0.25781  0.83493  1.0000
  S   S105      1.0  0.08385  0.25434  0.74749  1.0000
  C   C389      1.0  0.09221  0.34761  0.74563  1.0000
  H   H473      1.0  0.00034  0.27038  0.82178  1.0000
  S   S106      1.0  0.09242  0.27470  0.78136  1.0000
  H   H474      1.0  0.09120  0.31623  0.75667  1.0000
  Fe  Fe49      1.0  0.07163  0.25516  0.78007  1.0000
  H   H475      1.0  0.22331  0.42653  0.85132  1.0000
  Fe  Fe50      1.0  0.10687  0.27106  0.74993  1.0000
  S   S107      1.0  0.11796  0.29564  0.72527  1.0000
  H   H476      1.0  0.04739  0.38283  0.67661  1.0000
  H   H477      1.0  0.02064  0.43595  0.60712  1.0000
  Fe  Fe51      1.0  0.11599  0.41136  0.65718  1.0000
  H   H478      1.0  0.13896  0.32859  0.74896  1.0000
  S   S108      1.0  0.14015  0.39566  0.63526  1.0000
  S   S109      1.0  0.15713  0.28146  0.91387  1.0000
  S   S110      1.0  0.09501  0.43999  0.64816  1.0000
  Fe  Fe52      1.0  0.22917  0.28963  0.87799  1.0000
  S   S111      1.0  0.21891  0.27085  0.90801  1.0000
  S   S112      1.0  0.24755  0.31433  0.87142  1.0000
  Fe  Fe53      1.0  0.21125  0.26691  0.85600  1.0000
  S   S113      1.0  0.20762  0.26258  0.82622  1.0000
  S   S114      1.0  0.19910  0.29501  0.86863  1.0000
  S   S115      1.0  0.24243  0.26328  0.86244  1.0000
  H   H479      1.0  0.04869  0.47894  0.59033  1.0000
  S   S116      1.0  0.29479  0.39718  0.89282  1.0000
  C   C390      1.0  0.12907  0.27305  0.94808  1.0000
  Fe  Fe54      1.0  0.29196  0.41729  0.94048  1.0000
  S   S117      1.0  0.26379  0.41642  0.93039  1.0000
  Fe  Fe55      1.0  0.27978  0.38567  0.92433  1.0000
  S   S118      1.0  0.26125  0.36076  0.93307  1.0000
  Fe  Fe56      1.0  0.28073  0.42785  0.89976  1.0000
  S   S119      1.0  0.26506  0.45054  0.87714  1.0000
  S   S120      1.0  0.30656  0.38551  0.93747  1.0000
  S   S121      1.0  0.30745  0.43121  0.91017  1.0000
  C   C391      1.0  0.23757  0.40548  0.89546  1.0000
  Fe  Fe57      1.0  0.10026  0.44869  0.67477  1.0000
  H   H480      1.0  0.01099  0.38455  0.72364  1.0000
  H   H481      1.0  0.12997  0.42666  0.57873  1.0000
  S   S122      1.0  0.20011  0.24645  0.88431  1.0000
  C   C392      1.0  0.18274  0.25343  0.80618  1.0000
  N   N28       1.0  0.06570  0.25761  0.85670  1.0000
  H   H482      1.0  0.31687  0.45724  0.53782  1.0000
  C   C393      1.0  0.25857  0.34700  0.91606  1.0000
  C   C394      1.0  0.26860  0.35018  0.89601  1.0000
  C   C395      1.0  0.26521  0.33991  0.88263  1.0000
  C   C396      1.0  0.25207  0.32602  0.88919  1.0000
  C   C397      1.0  0.24244  0.32239  0.90938  1.0000
  C   C398      1.0  0.24558  0.33295  0.92270  1.0000
  H   H483      1.0  0.27904  0.36051  0.89084  1.0000
  H   H484      1.0  0.27283  0.34270  0.86709  1.0000
  H   H485      1.0  0.23232  0.31173  0.91464  1.0000
  H   H486      1.0  0.23786  0.33028  0.93822  1.0000
  H   H487      1.0  0.21881  0.37640  0.90622  1.0000
  C   C399      1.0  0.25454  0.42426  0.49363  1.0000
  H   H488      1.0  0.00556  0.24180  0.53289  1.0000
  C   C400      1.0  0.16770  0.25716  0.84032  1.0000
  C   C401      1.0  0.18440  0.25751  0.82421  1.0000
  C   C402      1.0  0.10025  0.36195  0.72990  1.0000
  C   C403      1.0  0.22611  0.38892  0.87403  1.0000
  H   H489      1.0  0.00216  0.24827  0.93807  1.0000
  H   H490      1.0  0.25182  0.37699  0.49872  1.0000
  S   S123      1.0  0.12306  0.42062  0.68248  1.0000
  C   C404      1.0  0.30269  0.45172  0.53904  1.0000
  C   C405      1.0  0.11079  0.32102  0.72751  1.0000
  C   C406      1.0  0.09755  0.32716  0.74451  1.0000
  C   C407      1.0  0.11339  0.35580  0.71290  1.0000
  C   C408      1.0  0.11865  0.33541  0.71174  1.0000
  H   H491      1.0  0.02942  0.33183  0.87094  1.0000
  H   H492      1.0  0.11968  0.36673  0.70067  1.0000
  H   H493      1.0  0.12887  0.33076  0.69852  1.0000
  C   C409      1.0  0.17362  0.43372  0.58052  1.0000
  C   C410      1.0  0.15974  0.44320  0.59534  1.0000
  C   C411      1.0  0.14915  0.43170  0.61227  1.0000
  C   C412      1.0  0.15254  0.41080  0.61431  1.0000
  C   C413      1.0  0.16622  0.40152  0.59936  1.0000
  C   C414      1.0  0.17667  0.41293  0.58253  1.0000
  H   H494      1.0  0.15734  0.45926  0.59384  1.0000
  H   H495      1.0  0.13862  0.43888  0.62385  1.0000
  H   H496      1.0  0.16879  0.38540  0.60085  1.0000
  H   H497      1.0  0.18730  0.40555  0.57110  1.0000
  C   C415      1.0  0.23941  0.41662  0.48891  1.0000
  C   C416      1.0  0.02795  0.45160  0.65526  1.0000
  C   C417      1.0  0.03690  0.31702  0.86798  1.0000
  H   H498      1.0  0.07059  0.33752  0.82232  1.0000
  C   C418      1.0  0.03809  0.28847  0.85376  1.0000
  H   H499      1.0  0.08091  0.26815  0.82665  1.0000
  C   C419      1.0  0.02132  0.34236  0.73287  1.0000
  C   C420      1.0  0.24927  0.43837  0.50605  1.0000
  H   H500      1.0  0.04021  0.35884  0.68079  1.0000
  C   C421      1.0  0.04819  0.36769  0.68641  1.0000
  C   C422      1.0  0.22449  0.38592  0.85533  1.0000
  C   C423      1.0  0.20820  0.35748  0.87123  1.0000
  H   H501      1.0  0.07780  0.28126  0.87726  1.0000
  H   H502      1.0  0.16071  0.31638  0.79455  1.0000
  H   H503      1.0  0.15572  0.28510  0.76044  1.0000
  C   C424      1.0  0.15022  0.32362  0.75889  1.0000
  H   H504      1.0  0.20349  0.34999  0.90315  1.0000
  H   H505      1.0  0.32820  0.42348  0.86974  1.0000
  H   H506      1.0  0.26607  0.38784  0.86698  1.0000
  C   C425      1.0  0.22394  0.42489  0.86722  1.0000
  Fe  Fe58      1.0  0.18582  0.47985  0.55751  1.0000
  H   H507      1.0  0.06090  0.31448  0.88330  1.0000
  H   H508      1.0  0.15496  0.29180  0.80286  1.0000
  S   S124      1.0  0.09067  0.39619  0.67621  1.0000
  H   H509      1.0  0.21546  0.36777  0.83955  1.0000
  S   S125      1.0  0.29038  0.43364  0.96497  1.0000
  Fe  Fe59      1.0  0.18984  0.27421  0.89759  1.0000
  C   C426      1.0  0.20414  0.42693  0.61328  1.0000
  H   H510      1.0  0.12065  0.28933  0.81088  1.0000
  C   C427      1.0  0.33028  0.40527  0.48568  1.0000
  H   H511      1.0  0.32475  0.40073  0.97027  1.0000
  N   N29       1.0  0.23594  0.40520  0.87494  1.0000
  C   C428      1.0  0.21793  0.37569  0.89135  1.0000
  C   C429      1.0  0.00165  0.24502  0.84620  1.0000
  H   H512      1.0  0.24692  0.39127  0.90198  1.0000
  H   H513      1.0  0.11898  0.34825  0.77226  1.0000
  C   C430      1.0  0.25694  0.40297  0.86246  1.0000
  Fe  Fe60      1.0  0.07025  0.42596  0.66981  1.0000
  H   H514      1.0  0.18026  0.26430  0.94517  1.0000
  N   N30       1.0  0.29946  0.43545  0.55666  1.0000
  C   C431      1.0  0.29852  0.44303  0.57486  1.0000
  N   N31       1.0  0.17327  0.46470  0.64576  1.0000
  H   H515      1.0  0.06468  0.36064  0.68403  1.0000
  C   C432      1.0  0.28002  0.42930  0.55791  1.0000
  C   C433      1.0  0.27909  0.40989  0.55571  1.0000
  C   C434      1.0  0.26125  0.44324  0.56065  1.0000
  C   C435      1.0  0.26045  0.40490  0.55626  1.0000
  C   C436      1.0  0.24277  0.43808  0.56115  1.0000
  C   C437      1.0  0.24234  0.41897  0.55897  1.0000
  H   H516      1.0  0.31340  0.44666  0.57489  1.0000
  H   H517      1.0  0.03088  0.28174  0.84575  1.0000
  H   H518      1.0  0.14644  0.46695  0.63467  1.0000
  H   H519      1.0  0.08568  0.48219  0.59806  1.0000
  C   C438      1.0  0.12265  0.26570  0.96849  1.0000
  C   C439      1.0  0.04181  0.46638  0.60046  1.0000
  C   C440      1.0  0.27298  0.48332  0.88759  1.0000
  C   C441      1.0  0.22884  0.44526  0.51414  1.0000
  H   H520      1.0  0.19603  0.48182  0.62725  1.0000
  H   H521      1.0  0.29254  0.39833  0.55341  1.0000
  H   H522      1.0  0.26076  0.45840  0.56212  1.0000
  H   H523      1.0  0.26006  0.39007  0.55445  1.0000
  H   H524      1.0  0.22866  0.44903  0.56303  1.0000
  H   H525      1.0  0.22790  0.41519  0.55918  1.0000
  H   H526      1.0  0.25714  0.40508  0.84633  1.0000
  S   S126      1.0  0.09308  0.38754  0.73132  1.0000
  C   C442      1.0  0.02822  0.24873  0.81600  1.0000
  H   H527      1.0  0.04454  0.44043  0.56472  1.0000
  H   H528      1.0  0.11788  0.27909  0.93878  1.0000
  H   H529      1.0  0.17400  0.29676  0.78085  1.0000
  C   C443      1.0  0.14987  0.27221  0.93956  1.0000
  H   H530      1.0  0.08789  0.30224  0.83101  1.0000
  H   H531      1.0  0.29460  0.43179  0.58862  1.0000
  Fe  Fe61      1.0  0.09565  0.40797  0.70103  1.0000
  H   H532      1.0  0.22233  0.40799  0.90560  1.0000
  H   H533      1.0  0.20795  0.42700  0.87600  1.0000
  H   H534      1.0  0.04582  0.37953  0.73105  1.0000
  C   C444      1.0  0.19577  0.44493  0.62013  1.0000
  N   N32       1.0  0.03902  0.36894  0.70765  1.0000
  H   H535      1.0  0.07656  0.45492  0.55555  1.0000
  C   C445      1.0  0.05126  0.37936  0.71481  1.0000
  H   H536      1.0  0.02496  0.47170  0.60370  1.0000
  C   C446      1.0  0.03916  0.34852  0.71996  1.0000
  C   C447      1.0  0.05773  0.33423  0.71971  1.0000
  H   H537      1.0  0.01484  0.31528  0.85204  1.0000
  C   C448      1.0  0.05833  0.31492  0.73129  1.0000
  C   C449      1.0  0.01988  0.25978  0.97433  1.0000
  C   C450      1.0  0.04061  0.30936  0.74376  1.0000
  C   C451      1.0  0.05462  0.30722  0.87492  1.0000
  H   H538      1.0  0.27909  0.47297  0.89970  1.0000
  H   H539      1.0  0.11131  0.47708  0.62119  1.0000
  H   H540      1.0  0.17270  0.45384  0.67719  1.0000
  H   H541      1.0  0.28721  0.45721  0.57610  1.0000
  H   H542      1.0  0.15291  0.30826  0.94877  1.0000
  C   C452      1.0  0.31769  0.41903  0.55461  1.0000
  C   C453      1.0  0.21870  0.42381  0.49763  1.0000
  C   C454      1.0  0.02216  0.32305  0.74457  1.0000
  H   H543      1.0  0.07206  0.33792  0.71073  1.0000
  C   C455      1.0  0.31312  0.43158  0.97307  1.0000
  H   H544      1.0  0.07270  0.30425  0.73070  1.0000
  H   H545      1.0  0.04121  0.29443  0.75292  1.0000
  Fe  Fe62      1.0  0.23027  0.24485  0.89180  1.0000
  C   C456      1.0  0.11345  0.43102  0.58119  1.0000
  C   C457      1.0  0.08277  0.44675  0.56843  1.0000
  H   H546      1.0  0.20127  0.46862  0.65122  1.0000
  H   H547      1.0  0.13782  0.27872  0.78287  1.0000
  H   H548      1.0  0.08161  0.35237  0.75858  1.0000
  H   H549      1.0  0.13667  0.25265  0.85098  1.0000
  H   H550      1.0  0.03666  0.24866  0.86175  1.0000
  H   H551      1.0  0.15311  0.33706  0.76269  1.0000
  S   S127      1.0  0.07330  0.43719  0.69586  1.0000
  H   H552      1.0  0.22472  0.45627  0.52370  1.0000
  H   H553      1.0  0.06760  0.37196  0.71258  1.0000
  H   H554      1.0  0.04323  0.41768  0.60021  1.0000
  H   H555      1.0  0.08666  0.36016  0.79295  1.0000
  H   H556      1.0  0.05026  0.46495  0.66130  1.0000
  C   C458      1.0  0.25916  0.38391  0.48348  1.0000
  H   H557      1.0  0.24512  0.41775  0.89564  1.0000
  H   H558      1.0  0.23073  0.43752  0.86807  1.0000
  N   N33       1.0  0.04760  0.44827  0.59143  1.0000
  C   C459      1.0  0.08518  0.33195  0.81328  1.0000
  N   N34       1.0  0.14303  0.30915  0.77706  1.0000
  C   C460      1.0  0.15884  0.30328  0.78932  1.0000
  C   C461      1.0  0.14133  0.29122  0.77032  1.0000
  C   C462      1.0  0.12319  0.31727  0.78926  1.0000
  C   C463      1.0  0.11301  0.33757  0.78493  1.0000
  C   C464      1.0  0.11365  0.30482  0.80640  1.0000
  C   C465      1.0  0.09426  0.34468  0.79678  1.0000
  C   C466      1.0  0.09490  0.31208  0.81812  1.0000
  H   H559      1.0  0.10720  0.48370  0.53963  1.0000
  H   H560      1.0  0.23025  0.39542  0.84155  1.0000
  C   C467      1.0  0.16427  0.26445  0.95165  1.0000
  H   H561      1.0  0.03307  0.25648  0.94385  1.0000
  C   C468      1.0  0.03756  0.43221  0.60544  1.0000
  H   H562      1.0  0.15564  0.47732  0.67148  1.0000
  H   H563      1.0  0.16338  0.24594  0.79033  1.0000
  H   H564      1.0  0.04349  0.46682  0.56280  1.0000
  C   C469      1.0  0.20900  0.36034  0.88984  1.0000
  H   H565      1.0  0.30375  0.44663  0.52500  1.0000
  H   H566      1.0  0.07766  0.24268  0.83147  1.0000
  C   C470      1.0  0.05623  0.27806  0.86053  1.0000
  C   C471      1.0  0.01961  0.25597  0.95572  1.0000
  H   H567      1.0  0.19567  0.25349  0.79370  1.0000
  H   H568      1.0  0.07199  0.42904  0.61881  1.0000
  H   H569      1.0  0.04001  0.42987  0.62084  1.0000
  C   C472      1.0  0.16445  0.24922  0.80422  1.0000
  C   C473      1.0  0.32776  0.42356  0.49171  1.0000
  C   C474      1.0  0.14948  0.25288  0.83839  1.0000
  C   C475      1.0  0.10159  0.42654  0.60024  1.0000
  C   C476      1.0  0.32731  0.41355  0.97466  1.0000
  C   C477      1.0  0.21363  0.43791  0.51004  1.0000
  C   C478      1.0  0.21584  0.37029  0.85401  1.0000
  H   H570      1.0  0.02220  0.45622  0.57637  1.0000
  C   C479      1.0  0.03650  0.46768  0.65560  1.0000
  H   H571      1.0  0.31660  0.40647  0.56768  1.0000
  C   C480      1.0  0.15780  0.25728  0.97220  1.0000
  C   C481      1.0  0.01826  0.38161  0.70835  1.0000
  H   H572      1.0  0.29004  0.46494  0.53977  1.0000
  H   H573      1.0  0.01493  0.47400  0.71068  1.0000
  H   H574      1.0  0.11338  0.44500  0.55059  1.0000
  C   C482      1.0  0.10407  0.44124  0.56536  1.0000
  H   H575      1.0  0.08427  0.48186  0.70456  1.0000
  S   S128      1.0  0.10982  0.47862  0.66504  1.0000
  H   H576      1.0  0.01876  0.39663  0.69845  1.0000
  H   H577      1.0  0.09679  0.25867  0.85637  1.0000
  S   S129      1.0  0.04017  0.42684  0.66268  1.0000
  S   S130      1.0  0.12983  0.24336  0.75855  1.0000
  H   H578      1.0  0.18269  0.39480  0.65271  1.0000
  C   C483      1.0  0.00211  0.25136  0.95239  1.0000
  C   C484      1.0  0.00920  0.25606  0.82740  1.0000
  H   H579      1.0  0.16846  0.42542  0.66550  1.0000
  H   H580      1.0  0.20546  0.39509  0.61944  1.0000
  H   H581      1.0  0.21916  0.38785  0.48600  1.0000
  C   C485      1.0  0.16233  0.46248  0.66701  1.0000
  H   H582      1.0  0.05645  0.26254  0.82842  1.0000
  H   H583      1.0  0.33205  0.42430  0.55348  1.0000
  H   H584      1.0  0.00845  0.31862  0.75441  1.0000
  C   C486      1.0  0.26511  0.47614  0.87475  1.0000
  C   C487      1.0  0.18684  0.40878  0.64389  1.0000
  H   H585      1.0  0.31543  0.43571  0.48803  1.0000
  C   C488      1.0  0.17857  0.42665  0.65101  1.0000
  H   H586      1.0  0.16880  0.26028  0.85427  1.0000
  Fe  Fe63      1.0  0.11378  0.24594  0.79012  1.0000
  H   H587      1.0  0.14909  0.45501  0.66979  1.0000
  H   H588      1.0  0.16558  0.47937  0.61725  1.0000
  C   C489      1.0  0.18285  0.44534  0.63930  1.0000
  H   H589      1.0  0.19775  0.44324  0.51661  1.0000
  H   H590      1.0  0.00654  0.35218  0.73431  1.0000
  C   C490      1.0  0.14770  0.24904  0.82033  1.0000
  H   H591      1.0  0.05073  0.39519  0.70674  1.0000
  C   C491      1.0  0.06422  0.28801  0.87132  1.0000
  H   H592      1.0  0.32002  0.41309  0.54076  1.0000
  H   H593      1.0  0.21341  0.42708  0.59836  1.0000
  H   H594      1.0  0.26108  0.44405  0.50938  1.0000
  C   C492      1.0  0.18891  0.47697  0.64317  1.0000
  H   H595      1.0  0.19888  0.45859  0.60994  1.0000
  C   C493      1.0  0.15826  0.47582  0.63332  1.0000
  H   H596      1.0  0.20607  0.41887  0.49509  1.0000
  H   H597      1.0  0.01356  0.24898  0.49833  1.0000
  C   C494      1.0  0.19964  0.40891  0.62511  1.0000
  H   H598      1.0  0.31486  0.48437  0.81036  1.0000
  H   H599      1.0  0.04068  0.23857  0.51303  1.0000
  H   H600      1.0  0.27385  0.38711  0.48448  1.0000
  H   H601      1.0  0.25094  0.48419  0.84931  1.0000
  H   H602      1.0  0.26298  0.47005  0.96672  1.0000
  H   H603      1.0  0.27059  0.41948  0.48762  1.0000
  H   H604      1.0  0.00818  0.37458  0.70319  1.0000
  C   C495      1.0  0.17264  0.31606  0.96363  1.0000
  C   C496      1.0  0.15437  0.31172  0.96248  1.0000
  C   C497      1.0  0.00990  0.45527  0.64825  1.0000
  H   H605      1.0  0.07463  0.48552  0.63122  1.0000
  C   C498      1.0  0.08514  0.24914  0.86373  1.0000
  H   H606      1.0  0.00317  0.44288  0.64809  1.0000
  C   C499      1.0  0.00050  0.47499  0.64136  1.0000
  H   H607      1.0  0.10664  0.26572  0.97467  1.0000
  C   C500      1.0  0.25521  0.48186  0.97571  1.0000
  H   H608      1.0  0.12437  0.30754  0.97745  1.0000
  H   H609      1.0  0.08280  0.24722  0.88023  1.0000
  C   C501      1.0  0.05127  0.24392  0.86701  1.0000
  H   H610      1.0  0.30580  0.46208  0.97746  1.0000
  H   H611      1.0  0.04732  0.24337  0.88342  1.0000
  S   S131      1.0  0.04229  0.26566  0.97759  1.0000
  C   C502      1.0  0.24295  0.50606  0.00758  1.0000
  H   H612      1.0  0.29136  0.56053  0.45478  1.0000
  H   H613      1.0  0.28641  0.53754  0.42430  1.0000
  S   S132      1.0  0.29536  0.52293  0.26765  1.0000
  H   H614      1.0  0.02545  0.49992  0.12652  1.0000
  Fe  Fe64      1.0  0.29152  0.52261  0.30044  1.0000
  S   S133      1.0  0.28840  0.55108  0.31206  1.0000
  C   C503      1.0  0.16055  0.49665  0.16044  1.0000
  S   S134      1.0  0.11352  0.58947  0.45498  1.0000
  H   H615      1.0  0.04179  0.72935  0.12354  1.0000
  C   C504      1.0  0.05994  0.66876  0.01564  1.0000
  C   C505      1.0  0.02381  0.67979  0.33055  1.0000
  H   H616      1.0  0.31850  0.55908  0.98163  1.0000
  Fe  Fe65      1.0  0.17772  0.60575  0.40962  1.0000
  S   S135      1.0  0.17152  0.63707  0.39265  1.0000
  S   S136      1.0  0.20935  0.58753  0.40247  1.0000
  Fe  Fe66      1.0  0.13388  0.60810  0.43198  1.0000
  S   S137      1.0  0.12365  0.63970  0.41696  1.0000
  S   S138      1.0  0.10151  0.72754  0.04295  1.0000
  Fe  Fe67      1.0  0.14321  0.62943  0.38929  1.0000
  S   S139      1.0  0.13441  0.63973  0.35962  1.0000
  Fe  Fe68      1.0  0.15283  0.64473  0.42163  1.0000
  S   S140      1.0  0.15082  0.59722  0.40375  1.0000
  S   S141      1.0  0.16157  0.61393  0.43933  1.0000
  H   H617      1.0  0.09216  0.71727  0.38753  1.0000
  S   S142      1.0  0.24450  0.50878  0.26232  1.0000
  H   H618      1.0  0.20327  0.53168  0.03719  1.0000
  C   C506      1.0  0.17464  0.56077  0.01108  1.0000
  C   C507      1.0  0.00569  0.70797  0.45655  1.0000
  Fe  Fe69      1.0  0.07666  0.71215  0.04256  1.0000
  S   S143      1.0  0.06833  0.68587  0.06653  1.0000
  S   S144      1.0  0.01805  0.60874  0.46107  1.0000
  Fe  Fe70      1.0  0.10324  0.57122  0.07089  1.0000
  S   S145      1.0  0.08004  0.56833  0.09982  1.0000
  S   S146      1.0  0.10773  0.59909  0.04731  1.0000
  Fe  Fe71      1.0  0.12279  0.52672  0.07824  1.0000
  S   S147      1.0  0.10155  0.52010  0.10768  1.0000
  S   S148      1.0  0.14799  0.50396  0.06426  1.0000
  Fe  Fe72      1.0  0.07715  0.53986  0.09231  1.0000
  S   S149      1.0  0.04858  0.52739  0.09811  1.0000
  Fe  Fe73      1.0  0.10636  0.54878  0.11274  1.0000
  S   S150      1.0  0.11028  0.54883  0.14326  1.0000
  S   S151      1.0  0.09802  0.54427  0.06215  1.0000
  S   S152      1.0  0.12993  0.55389  0.08452  1.0000
  H   H619      1.0  0.06386  0.72642  0.08010  1.0000
  C   C508      1.0  0.27740  0.53842  0.41348  1.0000
  S   S153      1.0  0.27410  0.63797  0.40165  1.0000
  C   C509      1.0  0.08057  0.66172  0.06188  1.0000
  C   C510      1.0  0.09539  0.65919  0.04452  1.0000
  C   C511      1.0  0.10375  0.63988  0.04034  1.0000
  C   C512      1.0  0.09766  0.62294  0.05365  1.0000
  C   C513      1.0  0.08323  0.62544  0.07127  1.0000
  C   C514      1.0  0.07467  0.64478  0.07533  1.0000
  H   H620      1.0  0.10028  0.67211  0.03417  1.0000
  H   H621      1.0  0.11499  0.63806  0.02674  1.0000
  H   H622      1.0  0.07845  0.61249  0.08165  1.0000
  H   H623      1.0  0.06328  0.64661  0.08884  1.0000
  S   S154      1.0  0.15412  0.67452  0.42714  1.0000
  C   C515      1.0  0.13398  0.66557  0.35249  1.0000
  C   C516      1.0  0.13223  0.67554  0.33309  1.0000
  C   C517      1.0  0.13165  0.69629  0.32756  1.0000
  H   H624      1.0  0.03967  0.66737  0.05363  1.0000
  C   C518      1.0  0.13463  0.69704  0.36080  1.0000
  C   C519      1.0  0.13506  0.67638  0.36636  1.0000
  H   H625      1.0  0.13120  0.66725  0.32239  1.0000
  Fe  Fe74      1.0  0.10791  0.73045  0.00963  1.0000
  C   C520      1.0  0.25412  0.54066  0.38482  1.0000
  H   H626      1.0  0.13628  0.66889  0.38138  1.0000
  C   C521      1.0  0.22128  0.61854  0.41095  1.0000
  C   C522      1.0  0.22740  0.60136  0.40247  1.0000
  C   C523      1.0  0.24803  0.59517  0.39408  1.0000
  H   H627      1.0  0.10248  0.49452  0.20462  1.0000
  H   H628      1.0  0.20543  0.62325  0.41772  1.0000
  H   H629      1.0  0.25290  0.58193  0.38750  1.0000
  C   C524      1.0  0.31775  0.50932  0.99025  1.0000
  H   H630      1.0  0.06174  0.49153  0.24848  1.0000
  C   C525      1.0  0.14658  0.50609  0.17516  1.0000
  C   C526      1.0  0.13164  0.52268  0.16972  1.0000
  C   C527      1.0  0.13018  0.52934  0.14969  1.0000
  C   C528      1.0  0.14396  0.51968  0.13504  1.0000
  C   C529      1.0  0.15938  0.50357  0.14037  1.0000
  H   H631      1.0  0.14736  0.50080  0.19070  1.0000
  H   H632      1.0  0.12094  0.53015  0.18105  1.0000
  H   H633      1.0  0.14288  0.52473  0.11955  1.0000
  H   H634      1.0  0.17502  0.70735  0.38598  1.0000
  C   C530      1.0  0.30417  0.55339  0.32733  1.0000
  C   C531      1.0  0.30031  0.57109  0.33489  1.0000
  C   C532      1.0  0.31222  0.57323  0.34751  1.0000
  H   H635      1.0  0.04672  0.52773  0.18498  1.0000
  C   C533      1.0  0.03529  0.52779  0.12280  1.0000
  C   C534      1.0  0.14174  0.66156  0.46757  1.0000
  H   H636      1.0  0.28804  0.58322  0.33101  1.0000
  H   H637      1.0  0.30913  0.58692  0.35323  1.0000
  H   H638      1.0  0.18775  0.50337  0.03736  1.0000
  H   H639      1.0  0.29777  0.49665  0.97995  1.0000
  H   H640      1.0  0.32510  0.49502  0.99768  1.0000
  C   C535      1.0  0.25736  0.51939  0.20264  1.0000
  H   H641      1.0  0.00800  0.67671  0.00086  1.0000
  H   H642      1.0  0.15070  0.57452  0.03278  1.0000
  C   C536      1.0  0.22805  0.49457  0.16945  1.0000
  C   C537      1.0  0.21189  0.52012  0.02880  1.0000
  H   H643      1.0  0.22855  0.51065  0.16326  1.0000
  H   H644      1.0  0.01052  0.72028  0.39262  1.0000
  C   C538      1.0  0.03480  0.70710  0.34710  1.0000
  Fe  Fe75      1.0  0.27152  0.50342  0.27710  1.0000
  C   C539      1.0  0.25159  0.52626  0.35755  1.0000
  N   N35       1.0  0.22281  0.49029  0.19159  1.0000
  H   H645      1.0  0.16771  0.68569  0.38298  1.0000
  H   H646      1.0  0.23112  0.64249  0.41800  1.0000
  C   C540      1.0  0.01505  0.51212  0.15351  1.0000
  C   C541      1.0  0.25634  0.62358  0.40221  1.0000
  S   S155      1.0  0.33199  0.61841  0.37415  1.0000
  H   H647      1.0  0.26261  0.60108  0.44841  1.0000
  C   C542      1.0  0.21054  0.57978  0.45743  1.0000
  C   C543      1.0  0.23461  0.48944  0.00744  1.0000
  S   S156      1.0  0.30925  0.58592  0.41002  1.0000
  C   C544      1.0  0.06146  0.49745  0.16847  1.0000
  C   C545      1.0  0.08207  0.49609  0.05978  1.0000
  H   H648      1.0  0.23357  0.52680  0.18651  1.0000
  H   H649      1.0  0.06900  0.67791  0.42288  1.0000
  S   S157      1.0  0.00329  0.52751  0.18788  1.0000
  H   H650      1.0  0.18321  0.57067  0.47631  1.0000
  C   C546      1.0  0.04471  0.60394  0.45829  1.0000
  C   C547      1.0  0.05645  0.61841  0.44772  1.0000
  C   C548      1.0  0.07775  0.61406  0.44626  1.0000
  C   C549      1.0  0.08725  0.59520  0.45521  1.0000
  H   H651      1.0  0.25549  0.60463  0.47384  1.0000
  H   H652      1.0  0.08488  0.69836  0.09514  1.0000
  H   H653      1.0  0.04910  0.63304  0.44113  1.0000
  H   H654      1.0  0.08670  0.62538  0.43858  1.0000
  C   C550      1.0  0.02467  0.54360  0.15181  1.0000
  H   H655      1.0  0.26700  0.52786  0.34834  1.0000
  H   H656      1.0  0.17015  0.49635  0.12892  1.0000
  H   H657      1.0  0.24872  0.54028  0.43470  1.0000
  H   H658      1.0  0.17507  0.70478  0.36155  1.0000
  H   H659      1.0  0.05261  0.69875  0.44845  1.0000
  H   H660      1.0  0.14142  0.70996  0.44362  1.0000
  H   H661      1.0  0.22033  0.67223  0.39499  1.0000
  C   C551      1.0  0.03628  0.71037  0.32644  1.0000
  C   C552      1.0  0.00941  0.72563  0.45979  1.0000
  C   C553      1.0  0.25629  0.53982  0.41928  1.0000
  H   H662      1.0  0.07137  0.65450  0.01720  1.0000
  H   H663      1.0  0.03931  0.71749  0.35341  1.0000
  C   C554      1.0  0.32845  0.55785  0.35224  1.0000
  C   C555      1.0  0.31401  0.54543  0.98121  1.0000
  C   C556      1.0  0.09846  0.73543  0.12228  1.0000
  H   H664      1.0  0.17776  0.67816  0.34882  1.0000
  H   H665      1.0  0.08354  0.49922  0.04331  1.0000
  N   N36       1.0  0.08195  0.70064  0.42863  1.0000
  C   C557      1.0  0.26245  0.60638  0.39376  1.0000
  H   H666      1.0  0.24235  0.52640  0.34665  1.0000
  H   H667      1.0  0.04525  0.57407  0.47574  1.0000
  C   C558      1.0  0.23090  0.58065  0.45609  1.0000
  H   H668      1.0  0.05086  0.70662  0.11405  1.0000
  H   H669      1.0  0.22839  0.54270  0.41061  1.0000
  C   C559      1.0  0.02497  0.70103  0.02837  1.0000
  H   H670      1.0  0.09783  0.50930  0.15597  1.0000
  S   S158      1.0  0.01461  0.65448  0.36588  1.0000
  C   C560      1.0  0.02771  0.69013  0.35953  1.0000
  C   C561      1.0  0.24025  0.57331  0.47287  1.0000
  H   H671      1.0  0.32823  0.53726  0.28538  1.0000
  H   H672      1.0  0.21911  0.52675  0.38853  1.0000
  C   C562      1.0  0.00949  0.68799  0.00819  1.0000
  C   C563      1.0  0.03600  0.64978  0.01412  1.0000
  C   C564      1.0  0.02423  0.68466  0.02015  1.0000
  C   C565      1.0  0.23171  0.52115  0.01808  1.0000
  H   H673      1.0  0.19872  0.50100  0.21489  1.0000
  H   H674      1.0  0.06856  0.54676  0.22717  1.0000
  H   H675      1.0  0.25887  0.56395  0.34824  1.0000
  C   C566      1.0  0.18612  0.59820  0.99836  1.0000
  C   C567      1.0  0.07543  0.58088  0.46581  1.0000
  H   H676      1.0  0.23976  0.62574  0.35520  1.0000
  C   C568      1.0  0.22626  0.63735  0.35393  1.0000
  H   H677      1.0  0.19784  0.68849  0.40448  1.0000
  H   H678      1.0  0.13561  0.70528  0.37153  1.0000
  H   H679      1.0  0.27822  0.60196  0.38655  1.0000
  H   H680      1.0  0.09184  0.68335  0.40527  1.0000
  C   C569      1.0  0.10228  0.72571  0.42950  1.0000
  C   C570      1.0  0.03509  0.54345  0.13199  1.0000
  H   H681      1.0  0.05909  0.70929  0.13538  1.0000
  C   C571      1.0  0.05832  0.52492  0.19358  1.0000
  C   C572      1.0  0.32005  0.53784  0.33250  1.0000
  Fe  Fe76      1.0  0.00162  0.65585  0.39809  1.0000
  N   N37       1.0  0.07319  0.72548  0.10734  1.0000
  H   H682      1.0  0.20728  0.50874  0.25125  1.0000
  H   H683      1.0  0.30338  0.53786  0.38898  1.0000
  H   H684      1.0  0.20377  0.58539  0.44440  1.0000
  H   H685      1.0  0.25943  0.53476  0.19986  1.0000
  H   H686      1.0  0.02043  0.64620  0.01979  1.0000
  H   H687      1.0  0.21657  0.49088  0.16297  1.0000
  H   H688      1.0  0.18474  0.64970  0.33279  1.0000
  C   C573      1.0  0.22061  0.54101  0.37763  1.0000
  H   H689      1.0  0.04317  0.55095  0.20645  1.0000
  S   S159      1.0  0.08497  0.71251  0.00961  1.0000
  H   H690      1.0  0.04705  0.63546  0.01725  1.0000
  H   H691      1.0  0.21242  0.54158  0.36572  1.0000
  H   H692      1.0  0.03162  0.69932  0.30231  1.0000
  S   S160      1.0  0.26559  0.50593  0.30924  1.0000
  S   S161      1.0  0.01948  0.65857  0.41941  1.0000
  H   H693      1.0  0.04687  0.64265  0.04867  1.0000
  H   H694      1.0  0.13036  0.70399  0.31255  1.0000
  C   C574      1.0  0.06219  0.71001  0.43999  1.0000
  C   C575      1.0  0.24244  0.51468  0.19529  1.0000
  S   S162      1.0  0.32398  0.62262  0.42131  1.0000
  H   H695      1.0  0.02462  0.55575  0.15885  1.0000
  C   C576      1.0  0.23340  0.48885  0.26122  1.0000
  C   C577      1.0  0.24299  0.56209  0.35567  1.0000
  H   H696      1.0  0.08499  0.67232  0.44948  1.0000
  N   N38       1.0  0.24241  0.54242  0.36934  1.0000
  H   H697      1.0  0.33246  0.56927  0.28642  1.0000
  H   H698      1.0  0.03863  0.65457  0.99757  1.0000
  C   C578      1.0  0.33228  0.54017  0.34469  1.0000
  C   C579      1.0  0.03050  0.69685  0.31825  1.0000
  C   C580      1.0  0.09422  0.71629  0.41835  1.0000
  C   C581      1.0  0.07036  0.53623  0.21757  1.0000
  N   N39       1.0  0.07787  0.62527  0.37608  1.0000
  C   C582      1.0  0.09173  0.61002  0.36490  1.0000
  C   C583      1.0  0.08430  0.62231  0.39530  1.0000
  C   C584      1.0  0.05677  0.62150  0.38075  1.0000
  C   C585      1.0  0.07847  0.64561  0.36378  1.0000
  C   C586      1.0  0.08339  0.66113  0.37045  1.0000
  C   C587      1.0  0.07415  0.65034  0.34437  1.0000
  C   C588      1.0  0.08457  0.67988  0.35810  1.0000
  C   C589      1.0  0.07579  0.66900  0.33202  1.0000
  C   C590      1.0  0.08114  0.68368  0.33882  1.0000
  H   H699      1.0  0.10750  0.61325  0.35998  1.0000
  H   H700      1.0  0.09271  0.59464  0.37415  1.0000
  H   H701      1.0  0.08663  0.60949  0.35136  1.0000
  H   H702      1.0  0.10027  0.62458  0.39277  1.0000
  H   H703      1.0  0.08392  0.60684  0.40414  1.0000
  H   H704      1.0  0.07392  0.63264  0.40493  1.0000
  H   H705      1.0  0.05123  0.62205  0.36710  1.0000
  H   H706      1.0  0.05546  0.60656  0.39042  1.0000
  H   H707      1.0  0.04585  0.63303  0.38866  1.0000
  H   H708      1.0  0.08716  0.65894  0.38482  1.0000
  H   H709      1.0  0.06942  0.63964  0.33860  1.0000
  H   H710      1.0  0.08901  0.69129  0.36317  1.0000
  C   C591      1.0  0.19539  0.65087  0.34126  1.0000
  H   H711      1.0  0.08241  0.69813  0.32917  1.0000
  C   C592      1.0  0.27559  0.53945  0.37950  1.0000
  C   C593      1.0  0.02512  0.51218  0.13352  1.0000
  H   H712      1.0  0.28167  0.59552  0.46282  1.0000
  H   H713      1.0  0.27189  0.54578  0.46057  1.0000
  H   H714      1.0  0.21122  0.70574  0.34812  1.0000
  H   H715      1.0  0.10872  0.67918  0.43500  1.0000
  H   H716      1.0  0.23008  0.69204  0.36236  1.0000
  H   H717      1.0  0.01972  0.66918  0.32408  1.0000
  C   C594      1.0  0.08696  0.52030  0.21685  1.0000
  H   H718      1.0  0.05319  0.72129  0.42983  1.0000
  H   H719      1.0  0.00757  0.49990  0.16188  1.0000
  C   C595      1.0  0.23882  0.49482  0.19947  1.0000
  Fe  Fe77      1.0  0.31769  0.49406  0.27347  1.0000
  H   H720      1.0  0.04306  0.49842  0.07524  1.0000
  H   H721      1.0  0.28042  0.50823  0.22031  1.0000
  H   H722      1.0  0.02678  0.68745  0.37545  1.0000
  H   H723      1.0  0.28371  0.53964  0.36428  1.0000
  C   C596      1.0  0.13911  0.69735  0.45573  1.0000
  C   C597      1.0  0.07504  0.50841  0.19258  1.0000
  S   S163      1.0  0.31533  0.49490  0.30576  1.0000
  C   C598      1.0  0.14445  0.67789  0.45184  1.0000
  C   C599      1.0  0.05609  0.53854  0.20594  1.0000
  H   H724      1.0  0.06393  0.67863  0.02365  1.0000
  H   H725      1.0  0.21213  0.55381  0.38510  1.0000
  N   N40       1.0  0.20005  0.68503  0.37417  1.0000
  C   C600      1.0  0.17856  0.69615  0.37614  1.0000
  C   C601      1.0  0.20382  0.67710  0.39473  1.0000
  C   C602      1.0  0.21369  0.69938  0.36358  1.0000
  C   C603      1.0  0.20442  0.66855  0.36298  1.0000
  C   C604      1.0  0.22240  0.65355  0.36356  1.0000
  C   C605      1.0  0.02241  0.67639  0.35117  1.0000
  H   H726      1.0  0.07315  0.50990  0.06532  1.0000
  H   H727      1.0  0.16076  0.60752  0.02164  1.0000
  H   H728      1.0  0.06216  0.67596  0.99956  1.0000
  H   H729      1.0  0.19615  0.66413  0.40216  1.0000
  Fe  Fe78      1.0  0.00356  0.63494  0.44046  1.0000
  H   H730      1.0  0.06088  0.51223  0.15804  1.0000
  H   H731      1.0  0.23858  0.53353  0.01813  1.0000
  H   H732      1.0  0.11089  0.48954  0.17226  1.0000
  H   H733      1.0  0.02036  0.65494  0.05223  1.0000
  H   H734      1.0  0.23358  0.65405  0.37165  1.0000
  H   H735      1.0  0.32678  0.68909  0.43016  1.0000
  H   H736      1.0  0.06750  0.70051  0.40486  1.0000
  H   H737      1.0  0.04275  0.55562  0.12376  1.0000
  C   C606      1.0  0.21266  0.63589  0.34298  1.0000
  H   H738      1.0  0.06425  0.71799  0.45098  1.0000
  C   C607      1.0  0.16950  0.59524  0.01424  1.0000
  H   H739      1.0  0.25304  0.51120  0.36743  1.0000
  H   H740      1.0  0.07256  0.67224  0.31721  1.0000
  C   C608      1.0  0.05424  0.58527  0.46744  1.0000
  C   C609      1.0  0.01483  0.52785  0.16265  1.0000
  C   C610      1.0  0.28700  0.53841  0.39360  1.0000
  H   H741      1.0  0.25838  0.50737  0.99972  1.0000
  C   C611      1.0  0.16377  0.57660  0.02058  1.0000
  H   H742      1.0  0.14605  0.64649  0.46463  1.0000
  H   H743      1.0  0.09926  0.72215  0.44558  1.0000
  C   C612      1.0  0.26932  0.50446  0.21406  1.0000
  C   C613      1.0  0.09297  0.68516  0.44274  1.0000
  C   C614      1.0  0.24472  0.54101  0.40522  1.0000
  H   H744      1.0  0.09429  0.69840  0.11640  1.0000
  C   C615      1.0  0.21483  0.49327  0.25483  1.0000
  C   C616      1.0  0.08934  0.50661  0.20454  1.0000
  H   H745      1.0  0.03596  0.69978  0.03736  1.0000
  N   N41       1.0  0.26207  0.57372  0.47085  1.0000
  H   H746      1.0  0.23469  0.56397  0.34352  1.0000
  H   H747      1.0  0.19023  0.49929  0.19336  1.0000
  H   H748      1.0  0.21550  0.62315  0.33580  1.0000
  C   C617      1.0  0.07746  0.69016  0.41472  1.0000
  Fe  Fe79      1.0  0.30568  0.61925  0.40062  1.0000
  C   C618      1.0  0.19141  0.66715  0.35082  1.0000
  C   C619      1.0  0.01193  0.71958  0.02470  1.0000
  H   H749      1.0  0.09441  0.69104  0.45551  1.0000
  N   N42       1.0  0.03874  0.66539  0.02370  1.0000
  H   H750      1.0  0.23593  0.57467  0.36388  1.0000
  H   H751      1.0  0.09798  0.51835  0.22606  1.0000
  H   H752      1.0  0.21097  0.71207  0.37147  1.0000
  H   H753      1.0  0.08266  0.56636  0.47296  1.0000
  C   C620      1.0  0.20275  0.50300  0.19832  1.0000
  C   C621      1.0  0.13307  0.70699  0.34139  1.0000
  C   C622      1.0  0.23579  0.62950  0.41101  1.0000
  S   S164      1.0  0.04568  0.73093  0.31030  1.0000
  C   C623      1.0  0.30219  0.51028  0.98033  1.0000
  C   C624      1.0  0.27474  0.56139  0.45610  1.0000
  H   H754      1.0  0.23933  0.58698  0.44174  1.0000
  H   H755      1.0  0.09750  0.49421  0.06294  1.0000
  C   C625      1.0  0.21428  0.48892  0.01842  1.0000
  C   C626      1.0  0.08974  0.70818  0.10266  1.0000
  C   C627      1.0  0.32356  0.52694  0.99079  1.0000
  C   C628      1.0  0.03626  0.65725  0.04546  1.0000
  H   H756      1.0  0.16994  0.54634  0.01601  1.0000
  N   N43       1.0  0.07789  0.49356  0.17980  1.0000
  H   H757      1.0  0.19897  0.55090  0.98806  1.0000
  H   H758      1.0  0.18952  0.61310  0.99415  1.0000
  H   H759      1.0  0.27169  0.56772  0.44087  1.0000
  H   H760      1.0  0.32296  0.52404  0.32708  1.0000
  S   S165      1.0  0.14080  0.72249  0.99432  1.0000
  H   H761      1.0  0.11003  0.72238  0.11954  1.0000
  H   H762      1.0  0.05699  0.71201  0.98052  1.0000
  H   H763      1.0  0.20246  0.51921  0.19228  1.0000
  C   C629      1.0  0.09801  0.72308  0.39730  1.0000
  S   S166      1.0  0.13334  0.73268  0.33448  1.0000
  H   H764      1.0  0.23763  0.57089  0.98817  1.0000
  H   H765      1.0  0.00759  0.67620  0.46728  1.0000
  H   H766      1.0  0.10343  0.71326  0.09225  1.0000
  C   C630      1.0  0.09749  0.49392  0.16505  1.0000
  C   C631      1.0  0.26553  0.59462  0.46368  1.0000
  C   C632      1.0  0.01022  0.68993  0.46978  1.0000
  C   C633      1.0  0.19127  0.56354  0.99516  1.0000
  C   C634      1.0  0.20318  0.50411  0.02889  1.0000
  Fe  Fe80      1.0  0.32979  0.58908  0.42845  1.0000
  C   C635      1.0  0.19756  0.58236  0.98830  1.0000
  C   C636      1.0  0.13057  0.70062  0.47519  1.0000
  H   H767      1.0  0.04800  0.48811  0.05311  1.0000
  S   S167      1.0  0.32445  0.57418  0.46072  1.0000
  H   H768      1.0  0.01330  0.73213  0.03045  1.0000
  C   C637      1.0  0.01701  0.72540  0.47654  1.0000
  H   H769      1.0  0.04624  0.49718  0.17872  1.0000
  C   C638      1.0  0.05545  0.71736  0.12068  1.0000
  C   C639      1.0  0.19892  0.57154  0.47540  1.0000
  H   H770      1.0  0.22455  0.60842  0.97906  1.0000
  Fe  Fe81      1.0  0.03499  0.51864  0.56293  1.0000
  S   S168      1.0  0.03515  0.53296  0.58791  1.0000
  H   H771      1.0  0.05981  0.59654  0.58669  1.0000
  H   H772      1.0  0.32977  0.48982  0.84652  1.0000
  H   H773      1.0  0.13221  0.65226  0.49949  1.0000
  S   S169      1.0  0.03140  0.58870  0.56732  1.0000
  C   C640      1.0  0.10184  0.56636  0.59131  1.0000
  S   S170      1.0  0.02137  0.54705  0.54454  1.0000
  H   H774      1.0  0.26686  0.49092  0.97408  1.0000
  H   H775      1.0  0.14247  0.68337  0.72194  1.0000
  C   C641      1.0  0.29898  0.54631  0.97070  1.0000
  N   N44       1.0  0.09305  0.50505  0.60948  1.0000
  H   H776      1.0  0.03923  0.54138  0.65081  1.0000
  H   H777      1.0  0.11717  0.49926  0.62534  1.0000
  C   C642      1.0  0.08363  0.53216  0.69618  1.0000
  C   C643      1.0  0.04227  0.60418  0.61482  1.0000
  H   H778      1.0  0.26816  0.54968  0.49561  1.0000
  C   C644      1.0  0.11551  0.70356  0.87210  1.0000
  H   H779      1.0  0.03325  0.49986  0.64965  1.0000
  H   H780      1.0  0.14911  0.73405  0.89103  1.0000
  Fe  Fe82      1.0  0.18134  0.51395  0.57888  1.0000
  S   S171      1.0  0.17241  0.52062  0.60993  1.0000
  S   S172      1.0  0.18681  0.53629  0.55036  1.0000
  N   N45       1.0  0.01654  0.55133  0.67537  1.0000
  H   H781      1.0  0.02490  0.69049  0.55789  1.0000
  H   H782      1.0  0.23328  0.60667  0.95328  1.0000
  C   C645      1.0  0.13393  0.66480  0.48722  1.0000
  H   H783      1.0  0.08023  0.58417  0.51948  1.0000
  C   C646      1.0  0.32838  0.50435  0.92668  1.0000
  S   S173      1.0  0.10151  0.70101  0.80292  1.0000
  S   S174      1.0  0.09368  0.66623  0.77096  1.0000
  Fe  Fe83      1.0  0.09396  0.60532  0.64690  1.0000
  S   S175      1.0  0.09964  0.60094  0.67778  1.0000
  S   S176      1.0  0.11669  0.60583  0.61776  1.0000
  Fe  Fe84      1.0  0.04794  0.61203  0.66059  1.0000
  S   S177      1.0  0.04911  0.60891  0.69273  1.0000
  S   S178      1.0  0.01905  0.61527  0.64986  1.0000
  Fe  Fe85      1.0  0.07374  0.62741  0.68132  1.0000
  S   S179      1.0  0.07643  0.65587  0.68986  1.0000
  Fe  Fe86      1.0  0.07467  0.58279  0.68679  1.0000
  S   S180      1.0  0.06995  0.63295  0.64955  1.0000
  S   S181      1.0  0.07165  0.58480  0.65554  1.0000
  Fe  Fe87      1.0  0.30333  0.57595  0.89528  1.0000
  C   C647      1.0  0.02833  0.49950  0.70809  1.0000
  S   S182      1.0  0.25927  0.70247  0.89709  1.0000
  H   H784      1.0  0.09036  0.67168  0.59144  1.0000
  S   S183      1.0  0.07349  0.55304  0.70782  1.0000
  H   H785      1.0  0.11234  0.51975  0.65242  1.0000
  Fe  Fe88      1.0  0.27353  0.55630  0.88572  1.0000
  S   S184      1.0  0.26679  0.54289  0.86287  1.0000
  H   H786      1.0  0.11714  0.69952  0.84249  1.0000
  S   S185      1.0  0.27901  0.58788  0.87725  1.0000
  S   S186      1.0  0.25016  0.56158  0.91332  1.0000
  C   C648      1.0  0.31494  0.49827  0.84265  1.0000
  Fe  Fe89      1.0  0.21159  0.51162  0.53940  1.0000
  H   H787      1.0  0.03349  0.62819  0.79889  1.0000
  H   H788      1.0  0.28748  0.51022  0.81851  1.0000
  C   C649      1.0  0.26519  0.51735  0.86881  1.0000
  C   C650      1.0  0.25720  0.51007  0.85623  1.0000
  C   C651      1.0  0.08725  0.49651  0.69675  1.0000
  C   C652      1.0  0.26574  0.66152  0.90285  1.0000
  C   C653      1.0  0.16946  0.73282  0.96105  1.0000
  C   C654      1.0  0.27292  0.50400  0.88468  1.0000
  H   H789      1.0  0.25113  0.52030  0.84403  1.0000
  C   C655      1.0  0.10305  0.51785  0.66738  1.0000
  H   H790      1.0  0.27173  0.49827  0.57880  1.0000
  H   H791      1.0  0.27917  0.50953  0.89443  1.0000
  Fe  Fe90      1.0  0.27680  0.55182  0.92841  1.0000
  H   H792      1.0  0.27138  0.62929  0.90636  1.0000
  C   C656      1.0  0.25849  0.50676  0.55272  1.0000
  C   C657      1.0  0.01755  0.68976  0.48669  1.0000
  H   H793      1.0  0.28147  0.66197  0.90217  1.0000
  H   H794      1.0  0.12320  0.55644  0.56594  1.0000
  S   S187      1.0  0.23217  0.61920  0.90915  1.0000
  C   C658      1.0  0.04861  0.68147  0.90051  1.0000
  C   C659      1.0  0.00886  0.59762  0.60327  1.0000
  S   S188      1.0  0.13946  0.54183  0.52837  1.0000
  C   C660      1.0  0.25131  0.67947  0.90089  1.0000
  C   C661      1.0  0.23099  0.67874  0.90182  1.0000
  C   C662      1.0  0.22516  0.66016  0.90479  1.0000
  C   C663      1.0  0.23971  0.64226  0.90625  1.0000
  H   H795      1.0  0.02996  0.57651  0.67442  1.0000
  H   H796      1.0  0.21974  0.69247  0.90053  1.0000
  H   H797      1.0  0.20935  0.65971  0.90591  1.0000
  C   C664      1.0  0.07977  0.51313  0.70626  1.0000
  H   H798      1.0  0.07089  0.51129  0.72140  1.0000
  N   N46       1.0  0.21463  0.58511  0.97083  1.0000
  H   H799      1.0  0.17278  0.69728  0.84552  1.0000
  C   C665      1.0  0.08832  0.66354  0.74860  1.0000
  C   C666      1.0  0.08825  0.67925  0.73207  1.0000
  C   C667      1.0  0.08411  0.67663  0.71444  1.0000
  C   C668      1.0  0.08013  0.65837  0.71303  1.0000
  C   C669      1.0  0.08002  0.64266  0.72961  1.0000
  C   C670      1.0  0.08408  0.64527  0.74734  1.0000
  H   H800      1.0  0.08432  0.68868  0.70163  1.0000
  H   H801      1.0  0.07690  0.62851  0.72875  1.0000
  H   H802      1.0  0.08403  0.63306  0.76009  1.0000
  C   C671      1.0  0.10482  0.49959  0.53935  1.0000
  C   C672      1.0  0.28251  0.50850  0.52097  1.0000
  H   H803      1.0  0.11060  0.64999  0.58925  1.0000
  H   H804      1.0  0.00094  0.62996  0.82249  1.0000
  H   H805      1.0  0.02119  0.59969  0.52713  1.0000
  C   C673      1.0  0.02410  0.55149  0.65369  1.0000
  C   C674      1.0  0.08384  0.64287  0.50605  1.0000
  H   H806      1.0  0.04440  0.67955  0.81434  1.0000
  H   H807      1.0  0.04648  0.55273  0.67863  1.0000
  H   H808      1.0  0.06149  0.51079  0.62447  1.0000
  H   H809      1.0  0.12359  0.58350  0.52369  1.0000
  C   C675      1.0  0.07641  0.50147  0.62724  1.0000
  H   H810      1.0  0.07547  0.50759  0.58750  1.0000
  H   H811      1.0  0.28985  0.53076  0.82765  1.0000
  Fe  Fe91      1.0  0.00403  0.52591  0.60062  1.0000
  S   S189      1.0  0.06404  0.49840  0.55129  1.0000
  C   C676      1.0  0.15661  0.54423  0.61190  1.0000
  C   C677      1.0  0.15639  0.55987  0.59528  1.0000
  C   C678      1.0  0.14429  0.57882  0.59722  1.0000
  C   C679      1.0  0.13200  0.58210  0.61571  1.0000
  C   C680      1.0  0.13198  0.56643  0.63230  1.0000
  C   C681      1.0  0.14443  0.54758  0.63044  1.0000
  H   H812      1.0  0.16592  0.55756  0.58103  1.0000
  H   H813      1.0  0.14447  0.59092  0.58437  1.0000
  H   H814      1.0  0.12265  0.56892  0.64664  1.0000
  H   H815      1.0  0.14461  0.53560  0.64339  1.0000
  C   C682      1.0  0.20756  0.56428  0.49217  1.0000
  H   H816      1.0  0.17941  0.71938  0.96689  1.0000
  C   C683      1.0  0.26230  0.51021  0.53190  1.0000
  H   H817      1.0  0.05167  0.68326  0.91465  1.0000
  H   H818      1.0  0.00367  0.62247  0.55039  1.0000
  H   H819      1.0  0.04732  0.70847  0.85394  1.0000
  Fe  Fe92      1.0  0.09371  0.71705  0.51243  1.0000
  H   H820      1.0  0.24663  0.57231  0.96173  1.0000
  S   S190      1.0  0.11694  0.68854  0.51521  1.0000
  C   C684      1.0  0.29298  0.52875  0.97035  1.0000
  C   C685      1.0  0.08883  0.49768  0.59316  1.0000
  C   C686      1.0  0.00215  0.51999  0.68234  1.0000
  C   C687      1.0  0.00973  0.72936  0.84035  1.0000
  C   C688      1.0  0.02815  0.59522  0.59062  1.0000
  H   H821      1.0  0.33318  0.56549  0.83540  1.0000
  N   N47       1.0  0.31807  0.50928  0.82169  1.0000
  C   C689      1.0  0.02282  0.60731  0.62714  1.0000
  H   H822      1.0  0.10276  0.57807  0.50118  1.0000
  C   C690      1.0  0.05151  0.63493  0.53808  1.0000
  C   C691      1.0  0.02866  0.51962  0.69932  1.0000
  C   C692      1.0  0.07169  0.73046  0.69634  1.0000
  C   C693      1.0  0.11865  0.52966  0.53402  1.0000
  C   C694      1.0  0.09878  0.54062  0.53864  1.0000
  C   C695      1.0  0.08196  0.53113  0.54373  1.0000
  H   H823      1.0  0.09643  0.55630  0.53898  1.0000
  H   H824      1.0  0.06670  0.53971  0.54754  1.0000
  H   H825      1.0  0.09437  0.67548  0.55453  1.0000
  H   H826      1.0  0.09878  0.54888  0.66905  1.0000
  C   C696      1.0  0.00989  0.64096  0.82158  1.0000
  C   C697      1.0  0.17525  0.71063  0.83447  1.0000
  H   H827      1.0  0.01921  0.65365  0.61650  1.0000
  Fe  Fe93      1.0  0.25784  0.59226  0.90640  1.0000
  H   H828      1.0  0.08223  0.59793  0.49452  1.0000
  H   H829      1.0  0.13704  0.50047  0.53124  1.0000
  C   C698      1.0  0.26946  0.56570  0.48981  1.0000
  H   H830      1.0  0.10050  0.58936  0.54124  1.0000
  H   H831      1.0  0.03846  0.66621  0.53049  1.0000
  C   C699      1.0  0.01564  0.53046  0.68599  1.0000
  C   C700      1.0  0.01615  0.66996  0.83038  1.0000
  H   H832      1.0  0.00333  0.67824  0.59041  1.0000
  H   H833      1.0  0.23155  0.55441  0.97548  1.0000
  H   H834      1.0  0.01176  0.68222  0.83836  1.0000
  H   H835      1.0  0.03936  0.52629  0.70314  1.0000
  C   C701      1.0  0.10742  0.70061  0.85709  1.0000
  C   C702      1.0  0.02155  0.71378  0.95351  1.0000
  S   S191      1.0  0.15880  0.50126  0.57020  1.0000
  C   C703      1.0  0.07374  0.70068  0.87960  1.0000
  N   N48       1.0  0.05201  0.69887  0.88411  1.0000
  C   C704      1.0  0.01970  0.67276  0.58755  1.0000
  C   C705      1.0  0.01099  0.73341  0.95420  1.0000
  C   C706      1.0  0.04104  0.65357  0.80538  1.0000
  H   H836      1.0  0.20734  0.61738  0.96177  1.0000
  H   H837      1.0  0.12774  0.59820  0.48898  1.0000
  H   H838      1.0  0.31074  0.54214  0.83930  1.0000
  C   C707      1.0  0.29888  0.50282  0.53092  1.0000
  H   H839      1.0  0.04110  0.71944  0.90484  1.0000
  H   H840      1.0  0.23354  0.55916  0.50465  1.0000
  C   C708      1.0  0.03027  0.56059  0.68202  1.0000
  C   C709      1.0  0.06755  0.72909  0.67843  1.0000
  H   H841      1.0  0.03862  0.49147  0.71798  1.0000
  C   C710      1.0  0.09510  0.52636  0.60308  1.0000
  C   C711      1.0  0.10882  0.53262  0.58517  1.0000
  C   C712      1.0  0.08496  0.54107  0.61499  1.0000
  C   C713      1.0  0.11218  0.55228  0.57946  1.0000
  C   C714      1.0  0.08824  0.56078  0.60898  1.0000
  H   H842      1.0  0.09148  0.69336  0.73285  1.0000
  H   H843      1.0  0.28591  0.56622  0.48780  1.0000
  H   H844      1.0  0.22062  0.58559  0.93924  1.0000
  C   C715      1.0  0.03186  0.67958  0.56927  1.0000
  C   C716      1.0  0.32593  0.49427  0.80847  1.0000
  C   C717      1.0  0.08688  0.69924  0.86064  1.0000
  H   H845      1.0  0.19430  0.59285  0.95038  1.0000
  H   H846      1.0  0.02580  0.56678  0.64516  1.0000
  H   H847      1.0  0.24277  0.49161  0.96843  1.0000
  C   C718      1.0  0.11250  0.49297  0.61451  1.0000
  H   H848      1.0  0.11741  0.52226  0.57558  1.0000
  H   H849      1.0  0.07473  0.53769  0.62916  1.0000
  Fe  Fe94      1.0  0.23822  0.73124  0.88688  1.0000
  H   H850      1.0  0.08052  0.57173  0.61827  1.0000
  H   H851      1.0  0.05598  0.64153  0.61060  1.0000
  H   H852      1.0  0.06696  0.60456  0.54197  1.0000
  C   C719      1.0  0.08494  0.51062  0.54395  1.0000
  C   C720      1.0  0.05300  0.67252  0.56551  1.0000
  C   C721      1.0  0.00912  0.49106  0.64153  1.0000
  S   S192      1.0  0.09022  0.72588  0.75982  1.0000
  S   S193      1.0  0.24198  0.51630  0.51938  1.0000
  H   H853      1.0  0.06141  0.67836  0.55098  1.0000
  H   H854      1.0  0.11754  0.60692  0.53208  1.0000
  H   H855      1.0  0.09588  0.64704  0.49363  1.0000
  C   C722      1.0  0.03882  0.71732  0.89049  1.0000
  H   H856      1.0  0.12644  0.71343  0.70078  1.0000
  C   C723      1.0  0.04979  0.65204  0.59867  1.0000
  H   H857      1.0  0.03244  0.67946  0.90417  1.0000
  C   C724      1.0  0.03481  0.66864  0.81661  1.0000
  H   H858      1.0  0.05366  0.68163  0.86192  1.0000
  S   S194      1.0  0.13648  0.69801  0.76228  1.0000
  Fe  Fe95      1.0  0.01925  0.56077  0.57075  1.0000
  S   S195      1.0  0.27399  0.52970  0.95748  1.0000
  S   S196      1.0  0.20807  0.49031  0.56895  1.0000
  H   H859      1.0  0.04656  0.69101  0.96240  1.0000
  H   H860      1.0  0.02569  0.56062  0.69834  1.0000
  C   C725      1.0  0.11088  0.59602  0.52778  1.0000
  S   S197      1.0  0.07768  0.72219  0.48733  1.0000
  S   S198      1.0  0.19100  0.49949  0.52718  1.0000
  H   H861      1.0  0.05523  0.60642  0.61937  1.0000
  Fe  Fe96      1.0  0.16584  0.52207  0.54099  1.0000
  S   S199      1.0  0.29978  0.54396  0.90116  1.0000
  Fe  Fe97      1.0  0.13307  0.70778  0.79132  1.0000
  H   H862      1.0  0.10473  0.58149  0.58709  1.0000
  C   C726      1.0  0.04485  0.59858  0.59637  1.0000
  H   H863      1.0  0.32504  0.49196  0.90286  1.0000
  S   S200      1.0  0.01435  0.69824  0.94112  1.0000
  H   H864      1.0  0.07964  0.50458  0.64077  1.0000
  C   C727      1.0  0.05125  0.65427  0.52690  1.0000
  C   C728      1.0  0.09102  0.59083  0.50644  1.0000
  C   C729      1.0  0.01167  0.60063  0.51624  1.0000
  C   C730      1.0  0.03830  0.70618  0.96290  1.0000
  C   C731      1.0  0.12169  0.50904  0.53466  1.0000
  Fe  Fe98      1.0  0.12283  0.73014  0.75107  1.0000
  H   H865      1.0  0.01370  0.58522  0.51341  1.0000
  C   C732      1.0  0.09905  0.49889  0.67734  1.0000
  H   H866      1.0  0.20668  0.56688  0.95422  1.0000
  H   H867      1.0  0.01354  0.54643  0.64717  1.0000
  S   S201      1.0  0.28252  0.58291  0.92402  1.0000
  H   H868      1.0  0.05543  0.65273  0.79455  1.0000
  H   H869      1.0  0.28555  0.51129  0.50483  1.0000
  H   H870      1.0  0.01611  0.71360  0.81603  1.0000
  C   C733      1.0  0.20878  0.58241  0.95297  1.0000
  H   H871      1.0  0.06731  0.67356  0.50281  1.0000
  N   N49       1.0  0.10037  0.60573  0.51101  1.0000
  C   C734      1.0  0.01497  0.48966  0.70405  1.0000
  H   H872      1.0  0.29992  0.52967  0.80185  1.0000
  H   H873      1.0  0.05860  0.66734  0.89653  1.0000
  C   C735      1.0  0.08416  0.62278  0.51667  1.0000
  C   C736      1.0  0.06769  0.61940  0.53308  1.0000
  C   C737      1.0  0.25712  0.48961  0.85921  1.0000
  C   C738      1.0  0.02866  0.65899  0.60222  1.0000
  C   C739      1.0  0.06264  0.65844  0.58016  1.0000
  C   C740      1.0  0.04521  0.69588  0.86684  1.0000
  C   C741      1.0  0.02862  0.63976  0.80786  1.0000
  H   H874      1.0  0.03900  0.63183  0.55054  1.0000
  C   C742      1.0  0.12812  0.68435  0.49097  1.0000
  C   C743      1.0  0.16733  0.71480  0.81710  1.0000
  H   H875      1.0  0.02864  0.69526  0.87050  1.0000
  S   S202      1.0  0.31479  0.48953  0.56499  1.0000
  C   C744      1.0  0.17048  0.73214  0.80292  1.0000
  C   C745      1.0  0.22787  0.56521  0.49107  1.0000
  N   N50       1.0  0.22743  0.64693  0.84620  1.0000
  C   C746      1.0  0.20792  0.64882  0.86112  1.0000
  C   C747      1.0  0.22286  0.64956  0.82615  1.0000
  C   C748      1.0  0.23903  0.62615  0.85106  1.0000
  C   C749      1.0  0.23850  0.66253  0.84644  1.0000
  C   C750      1.0  0.23038  0.68314  0.84021  1.0000
  C   C751      1.0  0.25708  0.65797  0.85332  1.0000
  C   C752      1.0  0.24024  0.69821  0.84072  1.0000
  C   C753      1.0  0.26690  0.67316  0.85360  1.0000
  C   C754      1.0  0.25845  0.69320  0.84746  1.0000
  H   H876      1.0  0.19796  0.66380  0.85807  1.0000
  H   H877      1.0  0.19901  0.63740  0.86143  1.0000
  H   H878      1.0  0.21077  0.64666  0.87640  1.0000
  H   H879      1.0  0.21163  0.66353  0.82247  1.0000
  H   H880      1.0  0.21598  0.63713  0.82502  1.0000
  H   H881      1.0  0.23700  0.65006  0.81428  1.0000
  H   H882      1.0  0.24159  0.62253  0.86660  1.0000
  H   H883      1.0  0.23065  0.61472  0.85026  1.0000
  H   H884      1.0  0.25413  0.62380  0.84061  1.0000
  H   H885      1.0  0.21618  0.68780  0.83510  1.0000
  H   H886      1.0  0.26418  0.64286  0.85900  1.0000
  H   H887      1.0  0.23363  0.71388  0.83605  1.0000
  H   H888      1.0  0.15027  0.49038  0.63790  1.0000
  C   C755      1.0  0.02052  0.70756  0.49034  1.0000
  C   C756      1.0  0.00312  0.65612  0.83338  1.0000
  H   H889      1.0  0.06573  0.72103  0.71021  1.0000
  H   H890      1.0  0.10936  0.61858  0.47981  1.0000
  Fe  Fe99      1.0  0.04926  0.72714  0.51065  1.0000
  S   S203      1.0  0.06527  0.72047  0.53615  1.0000
  H   H891      1.0  0.00145  0.65691  0.55349  1.0000
  S   S204      1.0  0.02695  0.70749  0.51296  1.0000
  H   H892      1.0  0.31672  0.72620  0.91862  1.0000
  S   S205      1.0  0.00502  0.50872  0.57715  1.0000
  H   H893      1.0  0.02066  0.67584  0.49709  1.0000
  C   C757      1.0  0.06751  0.65832  0.51116  1.0000
  N   N51       1.0  0.14025  0.64038  0.68136  1.0000
  C   C758      1.0  0.13305  0.64027  0.66323  1.0000
  C   C759      1.0  0.16266  0.63292  0.67753  1.0000
  C   C760      1.0  0.13044  0.62602  0.69800  1.0000
  C   C761      1.0  0.13566  0.66047  0.68673  1.0000
  C   C762      1.0  0.14149  0.66298  0.70377  1.0000
  C   C763      1.0  0.12611  0.67809  0.67506  1.0000
  C   C764      1.0  0.13819  0.68187  0.70867  1.0000
  C   C765      1.0  0.12304  0.69695  0.68003  1.0000
  C   C766      1.0  0.12909  0.69884  0.69678  1.0000
  H   H894      1.0  0.14053  0.64999  0.64980  1.0000
  H   H895      1.0  0.13645  0.62495  0.65974  1.0000
  H   H896      1.0  0.11617  0.64533  0.66527  1.0000
  H   H897      1.0  0.17071  0.64373  0.66570  1.0000
  H   H898      1.0  0.16686  0.61824  0.67254  1.0000
  H   H899      1.0  0.16899  0.63056  0.69110  1.0000
  H   H900      1.0  0.11357  0.63074  0.70090  1.0000
  H   H901      1.0  0.13401  0.61068  0.69457  1.0000
  H   H902      1.0  0.13521  0.62461  0.71224  1.0000
  H   H903      1.0  0.14859  0.65034  0.71354  1.0000
  H   H904      1.0  0.12051  0.67766  0.66224  1.0000
  C   C767      1.0  0.10305  0.70517  0.89081  1.0000
  H   H905      1.0  0.11549  0.71014  0.67112  1.0000
  C   C768      1.0  0.02125  0.72348  0.82252  1.0000
  N   N52       1.0  0.08494  0.65048  0.57672  1.0000
  C   C769      1.0  0.08884  0.62840  0.57861  1.0000
  C   C770      1.0  0.09619  0.65889  0.55671  1.0000
  C   C771      1.0  0.09371  0.65524  0.59179  1.0000
  H   H906      1.0  0.05848  0.71838  0.67846  1.0000
  C   C772      1.0  0.09528  0.53443  0.67673  1.0000
  H   H907      1.0  0.08169  0.62415  0.56816  1.0000
  H   H908      1.0  0.10552  0.62196  0.57553  1.0000
  H   H909      1.0  0.08272  0.62076  0.59397  1.0000
  H   H910      1.0  0.09100  0.65535  0.54446  1.0000
  H   H911      1.0  0.11294  0.65288  0.55453  1.0000
  H   H912      1.0  0.13143  0.70477  0.86907  1.0000
  H   H913      1.0  0.08769  0.64773  0.60720  1.0000
  C   C773      1.0  0.03943  0.73035  0.81295  1.0000
  C   C774      1.0  0.26003  0.64298  0.90523  1.0000
  Fe  Fe100     1.0  0.10375  0.69425  0.77272  1.0000
  S   S206      1.0  0.15442  0.69761  0.81320  1.0000
  H   H914      1.0  0.31383  0.50154  0.93609  1.0000
  H   H915      1.0  0.08171  0.69709  0.84822  1.0000
  H   H916      1.0  0.24298  0.50867  0.56123  1.0000
  C   C775      1.0  0.11618  0.61152  0.49315  1.0000
  H   H917      1.0  0.26587  0.70486  0.84831  1.0000
  H   H918      1.0  0.19262  0.72014  0.85087  1.0000
  C   C776      1.0  0.29803  0.52048  0.81720  1.0000
  H   H919      1.0  0.12471  0.62188  0.49575  1.0000
  H   H920      1.0  0.28082  0.66941  0.85930  1.0000
  H   H921      1.0  0.30950  0.71842  0.89930  1.0000
  C   C777      1.0  0.22008  0.60527  0.96620  1.0000
  H   H922      1.0  0.26088  0.57454  0.50154  1.0000
  C   C778      1.0  0.08246  0.70377  0.89456  1.0000
  H   H923      1.0  0.04833  0.72559  0.79928  1.0000
  C   C779      1.0  0.04423  0.71800  0.97320  1.0000
  H   H924      1.0  0.29184  0.56063  0.96319  1.0000
  H   H925      1.0  0.01819  0.60997  0.50195  1.0000
  H   H926      1.0  0.32816  0.54757  0.49792  1.0000
  H   H927      1.0  0.31445  0.50136  0.52246  1.0000
  C   C780      1.0  0.18648  0.72355  0.83752  1.0000
  H   H928      1.0  0.10934  0.70751  0.90248  1.0000
  H   H929      1.0  0.32912  0.50161  0.79246  1.0000
  C   C781      1.0  0.29499  0.49880  0.55181  1.0000
  C   C782      1.0  0.31760  0.72908  0.90222  1.0000
  C   C783      1.0  0.27479  0.50108  0.56265  1.0000
  H   H930      1.0  0.07337  0.70507  0.90933  1.0000
  C   C784      1.0  0.00614  0.60398  0.62134  1.0000
  H   H931      1.0  0.19856  0.55764  0.50611  1.0000
  H   H932      1.0  0.02231  0.71689  0.89307  1.0000
  C   C785      1.0  0.32553  0.53976  0.82934  1.0000
  H   H933      1.0  0.30792  0.50854  0.85340  1.0000
  H   H934      1.0  0.30470  0.48735  0.84542  1.0000
  H   H935      1.0  0.12518  0.49281  0.60122  1.0000
  H   H936      1.0  0.18209  0.49124  0.64878  1.0000
  H   H937      1.0  0.16461  0.73539  0.78944  1.0000
  H   H938      1.0  0.04171  0.73090  0.87900  1.0000
  C   C786      1.0  0.23329  0.57005  0.97429  1.0000
  Fe  Fe101     1.0  0.09089  0.73290  0.78918  1.0000
  H   H939      1.0  0.12624  0.71575  0.47804  1.0000
  H   H940      1.0  0.10193  0.49694  0.58023  1.0000
  C   C787      1.0  0.00179  0.49994  0.69132  1.0000
  C   C788      1.0  0.02702  0.48741  0.64881  1.0000
  C   C789      1.0  0.33188  0.52337  0.81913  1.0000
  S   S207      1.0  0.33285  0.58715  0.88533  1.0000
  H   H941      1.0  0.32522  0.91104  0.42760  1.0000
  H   H942      1.0  0.14949  0.78351  0.98057  1.0000
  H   H943      1.0  0.05137  0.75860  0.45748  1.0000
  H   H944      1.0  0.22062  0.91132  0.13892  1.0000
  H   H945      1.0  0.24206  0.87479  0.06791  1.0000
  S   S208      1.0  0.19534  0.95992  0.19025  1.0000
  Fe  Fe102     1.0  0.24383  0.95488  0.14827  1.0000
  S   S209      1.0  0.24038  0.93357  0.17776  1.0000
  S   S210      1.0  0.27303  0.94329  0.12767  1.0000
  Fe  Fe103     1.0  0.20890  0.93452  0.17379  1.0000
  S   S211      1.0  0.19737  0.90534  0.18029  1.0000
  Fe  Fe104     1.0  0.22748  0.96110  0.19116  1.0000
  S   S212      1.0  0.23345  0.96315  0.22082  1.0000
  S   S213      1.0  0.21305  0.95420  0.14360  1.0000
  C   C790      1.0  0.03632  0.82787  0.22493  1.0000
  Fe  Fe105     1.0  0.07642  0.85823  0.15555  1.0000
  S   S214      1.0  0.09833  0.86224  0.17228  1.0000
  S   S215      1.0  0.04344  0.87297  0.16480  1.0000
  Fe  Fe106     1.0  0.10820  0.82965  0.13131  1.0000
  S   S216      1.0  0.13286  0.83198  0.14604  1.0000
  S   S217      1.0  0.11805  0.80697  0.11033  1.0000
  Fe  Fe107     1.0  0.10936  0.82910  0.17471  1.0000
  S   S218      1.0  0.11918  0.80815  0.20185  1.0000
  Fe  Fe108     1.0  0.11993  0.86495  0.14250  1.0000
  S   S219      1.0  0.13737  0.89061  0.13236  1.0000
  S   S220      1.0  0.08567  0.82456  0.16047  1.0000
  S   S221      1.0  0.09711  0.86324  0.12525  1.0000
  H   H946      1.0  0.29437  0.95992  0.15800  1.0000
  S   S222      1.0  0.04636  0.77694  0.33128  1.0000
  H   H947      1.0  0.23723  0.97251  0.45415  1.0000
  S   S223      1.0  0.08978  0.77998  0.34051  1.0000
  Fe  Fe109     1.0  0.06208  0.76700  0.35726  1.0000
  C   C791      1.0  0.03822  0.78425  0.27841  1.0000
  Fe  Fe110     1.0  0.07543  0.78694  0.31362  1.0000
  S   S224      1.0  0.07240  0.81548  0.29037  1.0000
  S   S225      1.0  0.07508  0.73608  0.35081  1.0000
  S   S226      1.0  0.01897  0.96597  0.13140  1.0000
  H   H948      1.0  0.03246  0.75040  0.27335  1.0000
  H   H949      1.0  0.07581  0.98048  0.15371  1.0000
  C   C792      1.0  0.06700  0.76552  0.25918  1.0000
  H   H950      1.0  0.16467  0.78130  0.02923  1.0000
  Fe  Fe111     1.0  0.20158  0.97969  0.16014  1.0000
  C   C793      1.0  0.23497  0.87664  0.08312  1.0000
  Fe  Fe112     1.0  0.30480  0.96675  0.46950  1.0000
  S   S227      1.0  0.29152  0.98380  0.29670  1.0000
  S   S228      1.0  0.08616  0.77575  0.45560  1.0000
  H   H951      1.0  0.05345  0.74850  0.09031  1.0000
  C   C794      1.0  0.05169  0.80261  0.20481  1.0000
  C   C795      1.0  0.26916  0.89243  0.11762  1.0000
  H   H952      1.0  0.14712  0.95552  0.16281  1.0000
  H   H953      1.0  0.07979  0.74397  0.07840  1.0000
  C   C796      1.0  0.05585  0.77052  0.40690  1.0000
  C   C797      1.0  0.04506  0.79266  0.24139  1.0000
  C   C798      1.0  0.05731  0.76464  0.44203  1.0000
  C   C799      1.0  0.07405  0.77416  0.43701  1.0000
  C   C800      1.0  0.08143  0.78221  0.41694  1.0000
  C   C801      1.0  0.07260  0.78003  0.40185  1.0000
  S   S229      1.0  0.04004  0.75293  0.98719  1.0000
  S   S230      1.0  0.23295  0.98271  0.16190  1.0000
  H   H954      1.0  0.09434  0.78964  0.41299  1.0000
  H   H955      1.0  0.07860  0.78592  0.38637  1.0000
  C   C802      1.0  0.03641  0.89870  0.15507  1.0000
  C   C803      1.0  0.01828  0.90989  0.16447  1.0000
  H   H956      1.0  0.05754  0.79860  0.19022  1.0000
  C   C804      1.0  0.02490  0.94000  0.14037  1.0000
  C   C805      1.0  0.04273  0.92873  0.13066  1.0000
  C   C806      1.0  0.04862  0.90818  0.13813  1.0000
  C   C807      1.0  0.13487  0.79940  0.02523  1.0000
  C   C808      1.0  0.07069  0.77041  0.13000  1.0000
  H   H957      1.0  0.05221  0.93597  0.11750  1.0000
  H   H958      1.0  0.06246  0.89961  0.13065  1.0000
  C   C809      1.0  0.10509  0.80974  0.22622  1.0000
  C   C810      1.0  0.11259  0.79680  0.24238  1.0000
  C   C811      1.0  0.10259  0.79842  0.26209  1.0000
  C   C812      1.0  0.08500  0.81304  0.26577  1.0000
  C   C813      1.0  0.07755  0.82610  0.24960  1.0000
  C   C814      1.0  0.08741  0.82430  0.22985  1.0000
  H   H959      1.0  0.12636  0.78561  0.23967  1.0000
  H   H960      1.0  0.10875  0.78860  0.27441  1.0000
  H   H961      1.0  0.06404  0.83755  0.25236  1.0000
  H   H962      1.0  0.08151  0.83433  0.21745  1.0000
  H   H963      1.0  0.27830  0.87776  0.11423  1.0000
  C   C815      1.0  0.18046  0.90163  0.16699  1.0000
  C   C816      1.0  0.17306  0.88363  0.17250  1.0000
  C   C817      1.0  0.15984  0.88001  0.16204  1.0000
  C   C818      1.0  0.15420  0.89427  0.14577  1.0000
  C   C819      1.0  0.16202  0.91203  0.13995  1.0000
  C   C820      1.0  0.17488  0.91584  0.15066  1.0000
  H   H964      1.0  0.17765  0.87245  0.18490  1.0000
  H   H965      1.0  0.15432  0.86606  0.16630  1.0000
  H   H966      1.0  0.15791  0.92305  0.12723  1.0000
  H   H967      1.0  0.18062  0.92967  0.14611  1.0000
  C   C821      1.0  0.15449  0.80226  0.04870  1.0000
  H   H968      1.0  0.07337  0.75765  0.24640  1.0000
  H   H969      1.0  0.03032  0.84351  0.22590  1.0000
  C   C822      1.0  0.01173  0.73634  0.38949  1.0000
  H   H970      1.0  0.07729  0.77584  0.25830  1.0000
  C   C823      1.0  0.28224  0.95770  0.10445  1.0000
  H   H971      1.0  0.10017  0.79727  0.01246  1.0000
  S   S231      1.0  0.08696  0.76034  0.00454  1.0000
  H   H972      1.0  0.03128  0.81846  0.25627  1.0000
  C   C824      1.0  0.08486  0.78849  0.07036  1.0000
  C   C825      1.0  0.10353  0.77709  0.07443  1.0000
  C   C826      1.0  0.11331  0.78288  0.08685  1.0000
  C   C827      1.0  0.10444  0.79988  0.09564  1.0000
  C   C828      1.0  0.08552  0.81095  0.09199  1.0000
  C   C829      1.0  0.07588  0.80534  0.07932  1.0000
  H   H973      1.0  0.11065  0.76407  0.06778  1.0000
  H   H974      1.0  0.12794  0.77423  0.08957  1.0000
  H   H975      1.0  0.07851  0.82406  0.09858  1.0000
  H   H976      1.0  0.06145  0.81426  0.07629  1.0000
  C   C830      1.0  0.20567  0.87639  0.11043  1.0000
  H   H977      1.0  0.27666  0.89715  0.12754  1.0000
  H   H978      1.0  0.26117  0.88425  0.08750  1.0000
  H   H979      1.0  0.10488  0.81975  0.02807  1.0000
  H   H980      1.0  0.01683  0.77021  0.25920  1.0000
  H   H981      1.0  0.27050  0.98016  0.26336  1.0000
  C   C831      1.0  0.11456  0.79874  0.00107  1.0000
  H   H982      1.0  0.27036  0.90408  0.10370  1.0000
  S   S232      1.0  0.27517  0.95760  0.47233  1.0000
  C   C832      1.0  0.27114  0.97990  0.39486  1.0000
  S   S233      1.0  0.08980  0.75756  0.30410  1.0000
  C   C833      1.0  0.22243  0.96851  0.45477  1.0000
  N   N53       1.0  0.24752  0.89106  0.12705  1.0000
  H   H983      1.0  0.30905  0.96850  0.18276  1.0000
  H   H984      1.0  0.24416  0.91635  0.14066  1.0000
  H   H985      1.0  0.03925  0.77192  0.29163  1.0000
  H   H986      1.0  0.23681  0.92251  0.11694  1.0000
  H   H987      1.0  0.11397  0.79141  0.98890  1.0000
  C   C834      1.0  0.11925  0.81472  0.03287  1.0000
  C   C835      1.0  0.08975  0.76631  0.13498  1.0000
  C   C836      1.0  0.15248  0.79331  0.03376  1.0000
  C   C837      1.0  0.21642  0.88168  0.12208  1.0000
  H   H988      1.0  0.16535  0.78086  0.99752  1.0000
  H   H989      1.0  0.14035  0.82390  0.06765  1.0000
  C   C838      1.0  0.13160  0.76819  0.01864  1.0000
  S   S234      1.0  0.07241  0.78287  0.05371  1.0000
  C   C839      1.0  0.04370  0.82260  0.20624  1.0000
  C   C840      1.0  0.32807  0.92599  0.44985  1.0000
  H   H990      1.0  0.21852  0.95831  0.46934  1.0000
  C   C841      1.0  0.31825  0.96831  0.13309  1.0000
  H   H991      1.0  0.00593  0.73961  0.44958  1.0000
  C   C842      1.0  0.25247  0.97415  0.22463  1.0000
  C   C843      1.0  0.32420  0.95527  0.39627  1.0000
  H   H992      1.0  0.00266  0.93264  0.08851  1.0000
  S   S235      1.0  0.04389  0.76802  0.38860  1.0000
  H   H993      1.0  0.15346  0.80556  0.98674  1.0000
  H   H994      1.0  0.26974  0.98196  0.34641  1.0000
  C   C844      1.0  0.00034  0.94896  0.08827  1.0000
  H   H995      1.0  0.20651  0.86982  0.08198  1.0000
  H   H996      1.0  0.03862  0.75453  0.24678  1.0000
  C   C845      1.0  0.13906  0.81742  0.05562  1.0000
  C   C846      1.0  0.09348  0.93584  0.13518  1.0000
  H   H997      1.0  0.06810  0.75377  0.27290  1.0000
  H   H998      1.0  0.01145  0.95075  0.09648  1.0000
  C   C847      1.0  0.06537  0.75707  0.12121  1.0000
  H   H999      1.0  0.02192  0.79191  0.28022  1.0000
  C   C848      1.0  0.15108  0.78991  0.99300  1.0000
  H   H1000     1.0  0.06024  0.78432  0.13246  1.0000
  S   S236      1.0  0.26835  0.96364  0.41815  1.0000
  C   C849      1.0  0.26933  0.97373  0.37803  1.0000
  H   H1001     1.0  0.05049  0.76107  0.11743  1.0000
  H   H1002     1.0  0.08205  0.90889  0.16957  1.0000
  C   C850      1.0  0.10963  0.73792  0.38814  1.0000
  N   N54       1.0  0.13669  0.85483  0.22641  1.0000
  C   C851      1.0  0.12575  0.84726  0.24685  1.0000
  C   C852      1.0  0.12152  0.86170  0.21336  1.0000
  C   C853      1.0  0.15190  0.83794  0.21882  1.0000
  C   C854      1.0  0.14714  0.87076  0.22700  1.0000
  C   C855      1.0  0.16245  0.86639  0.23843  1.0000
  C   C856      1.0  0.14260  0.89082  0.21646  1.0000
  C   C857      1.0  0.17287  0.88104  0.23891  1.0000
  C   C858      1.0  0.15312  0.90533  0.21708  1.0000
  C   C859      1.0  0.16828  0.90043  0.22817  1.0000
  H   H1003     1.0  0.11455  0.85957  0.25339  1.0000
  H   H1004     1.0  0.11715  0.83572  0.24692  1.0000
  H   H1005     1.0  0.13626  0.84002  0.25724  1.0000
  H   H1006     1.0  0.11450  0.84923  0.21270  1.0000
  H   H1007     1.0  0.12878  0.86740  0.19767  1.0000
  H   H1008     1.0  0.10875  0.87348  0.21891  1.0000
  H   H1009     1.0  0.16290  0.83057  0.22868  1.0000
  H   H1010     1.0  0.14445  0.82590  0.21769  1.0000
  H   H1011     1.0  0.16081  0.84309  0.20365  1.0000
  H   H1012     1.0  0.16662  0.85154  0.24695  1.0000
  H   H1013     1.0  0.13138  0.89561  0.20721  1.0000
  H   H1014     1.0  0.18481  0.87729  0.24739  1.0000
  H   H1015     1.0  0.15006  0.92034  0.20833  1.0000
  H   H1016     1.0  0.17684  0.91160  0.22803  1.0000
  H   H1017     1.0  0.09408  0.77700  0.14123  1.0000
  C   C860      1.0  0.27283  0.97753  0.09838  1.0000
  H   H1018     1.0  0.03475  0.75628  0.43104  1.0000
  H   H1019     1.0  0.31221  0.93331  0.45232  1.0000
  C   C861      1.0  0.09106  0.97418  0.15625  1.0000
  H   H1020     1.0  0.11024  0.93034  0.13064  1.0000
  H   H1021     1.0  0.05874  0.77257  0.22014  1.0000
  H   H1022     1.0  0.09068  0.92080  0.18500  1.0000
  C   C862      1.0  0.31673  0.97049  0.16714  1.0000
  C   C863      1.0  0.11794  0.74627  0.39949  1.0000
  H   H1023     1.0  0.11856  0.74606  0.13467  1.0000
  C   C864      1.0  0.12150  0.82362  0.04773  1.0000
  N   N55       1.0  0.04571  0.77662  0.25941  1.0000
  C   C865      1.0  0.10358  0.74887  0.13116  1.0000
  H   H1024     1.0  0.16788  0.79715  0.05528  1.0000
  H   H1025     1.0  0.31308  0.97156  0.36100  1.0000
  C   C866      1.0  0.21494  0.87384  0.09099  1.0000
  N   N56       1.0  0.08767  0.93885  0.15610  1.0000
  C   C867      1.0  0.06516  0.94607  0.16114  1.0000
  H   H1026     1.0  0.12761  0.93159  0.16096  1.0000
  C   C868      1.0  0.09234  0.91905  0.16938  1.0000
  C   C869      1.0  0.09929  0.95328  0.15809  1.0000
  Fe  Fe113     1.0  0.06178  0.74709  0.32350  1.0000
  H   H1027     1.0  0.10794  0.91058  0.16423  1.0000
  C   C870      1.0  0.24583  0.88206  0.09463  1.0000
  C   C871      1.0  0.03693  0.81321  0.24232  1.0000
  H   H1028     1.0  0.05652  0.93417  0.16230  1.0000
  C   C872      1.0  0.04798  0.76323  0.42704  1.0000
  H   H1029     1.0  0.00874  0.90260  0.17755  1.0000
  H   H1030     1.0  0.11809  0.76718  0.03120  1.0000
  C   C873      1.0  0.13132  0.96063  0.16129  1.0000
  H   H1031     1.0  0.25628  0.88061  0.15566  1.0000
  H   H1032     1.0  0.23167  0.87712  0.15586  1.0000
  H   H1033     1.0  0.22526  0.95960  0.44291  1.0000
  H   H1034     1.0  0.31113  0.96440  0.12294  1.0000
  Fe  Fe114     1.0  0.07878  0.75625  0.03806  1.0000
  H   H1035     1.0  0.18997  0.87445  0.11647  1.0000
  H   H1036     1.0  0.31355  0.94455  0.40289  1.0000
  C   C874      1.0  0.07914  0.73921  0.11693  1.0000
  H   H1037     1.0  0.32269  0.95399  0.06501  1.0000
  H   H1038     1.0  0.18144  0.97112  0.46637  1.0000
  C   C875      1.0  0.23678  0.91114  0.13104  1.0000
  H   H1039     1.0  0.04332  0.83406  0.19282  1.0000
  H   H1040     1.0  0.11438  0.81489  0.99450  1.0000
  C   C876      1.0  0.24733  0.87682  0.14644  1.0000
  C   C877      1.0  0.05236  0.78783  0.22207  1.0000
  H   H1041     1.0  0.08942  0.95006  0.12461  1.0000
  H   H1042     1.0  0.21657  0.97852  0.41429  1.0000
  H   H1043     1.0  0.25385  0.86118  0.14414  1.0000
  H   H1044     1.0  0.24554  0.96380  0.25650  1.0000
  C   C878      1.0  0.25477  0.97240  0.24424  1.0000
  H   H1045     1.0  0.30742  0.93385  0.09685  1.0000
  C   C879      1.0  0.11991  0.94700  0.16032  1.0000
  C   C880      1.0  0.01260  0.93054  0.15724  1.0000
  H   H1046     1.0  0.20847  0.88370  0.13696  1.0000
  C   C881      1.0  0.30847  0.96569  0.15322  1.0000
  Fe  Fe115     1.0  0.32367  0.96969  0.30013  1.0000
  H   H1047     1.0  0.08659  0.82373  0.46782  1.0000
  C   C882      1.0  0.30010  0.94921  0.09222  1.0000
  H   H1048     1.0  0.10920  0.83489  0.05375  1.0000
  H   H1049     1.0  0.06035  0.95107  0.17574  1.0000
  C   C883      1.0  0.29967  0.98055  0.06825  1.0000
  H   H1050     1.0  0.04754  0.79478  0.27938  1.0000
  C   C884      1.0  0.23683  0.88471  0.11456  1.0000
  H   H1051     1.0  0.26642  0.95891  0.37940  1.0000
  H   H1052     1.0  0.01040  0.77352  0.36944  1.0000
  C   C885      1.0  0.18726  0.98071  0.45195  1.0000
  C   C886      1.0  0.30883  0.96061  0.07421  1.0000
  H   H1053     1.0  0.00463  0.95658  0.07245  1.0000
  Fe  Fe116     1.0  0.10173  0.74959  0.33225  1.0000
  H   H1054     1.0  0.31062  0.94579  0.36788  1.0000
  Fe  Fe117     1.0  0.27570  0.97587  0.44153  1.0000
  H   H1055     1.0  0.25906  0.98418  0.10775  1.0000
  H   H1056     1.0  0.18948  0.97191  0.44013  1.0000
  H   H1057     1.0  0.08577  0.92453  0.13298  1.0000
  N   N57       1.0  0.13294  0.78938  0.00973  1.0000
  H   H1058     1.0  0.31428  0.97034  0.39594  1.0000
  H   H1059     1.0  0.05957  0.95854  0.14947  1.0000
  H   H1060     1.0  0.33030  0.95359  0.34735  1.0000
  H   H1061     1.0  0.13014  0.76007  0.00748  1.0000
  Fe  Fe118     1.0  0.06330  0.74216  0.00703  1.0000
  H   H1062     1.0  0.12674  0.75791  0.39231  1.0000
  H   H1063     1.0  0.14536  0.75971  0.02452  1.0000
  C   C887      1.0  0.03284  0.76236  0.25965  1.0000
  C   C888      1.0  0.32189  0.95593  0.36258  1.0000
  S   S237      1.0  0.05315  0.74061  0.04016  1.0000
  H   H1064     1.0  0.32973  0.89949  0.99767  1.0000
  H   H1065     1.0  0.11996  0.74732  0.42910  1.0000
  S   S238      1.0  0.30663  0.98253  0.43771  1.0000
  C   C889      1.0  0.26892  0.98168  0.24818  1.0000
  H   H1066     1.0  0.11213  0.74307  0.37210  1.0000
  H   H1067     1.0  0.02569  0.73830  0.37772  1.0000
  C   C890      1.0  0.11422  0.74022  0.42015  1.0000
  H   H1068     1.0  0.01431  0.73942  0.40335  1.0000
  C   C891      1.0  0.06730  0.73655  0.08828  1.0000
  C   C892      1.0  0.12264  0.98092  0.15992  1.0000
  C   C893      1.0  0.26452  0.98531  0.20890  1.0000
  C   C894      1.0  0.01606  0.74278  0.84822  1.0000
  H   H1069     1.0  0.14016  0.78888  0.89290  1.0000
  C   C895      1.0  0.03354  0.73760  0.97405  1.0000
  H   H1070     1.0  0.31115  0.83193  0.87524  1.0000
  H   H1071     1.0  0.03858  0.84541  0.55525  1.0000
  H   H1072     1.0  0.10677  0.83207  0.51107  1.0000
  H   H1073     1.0  0.14834  0.75517  0.84042  1.0000
  S   S239      1.0  0.20458  0.75705  0.82578  1.0000
  H   H1074     1.0  0.07617  0.95114  0.60028  1.0000
  C   C896      1.0  0.08676  0.75567  0.66018  1.0000
  Fe  Fe119     1.0  0.21631  0.75515  0.85362  1.0000
  S   S240      1.0  0.21129  0.78388  0.86461  1.0000
  H   H1075     1.0  0.22341  0.91908  0.59544  1.0000
  Fe  Fe120     1.0  0.24328  0.77453  0.86996  1.0000
  S   S241      1.0  0.26813  0.79333  0.86006  1.0000
  S   S242      1.0  0.24932  0.74747  0.85589  1.0000
  Fe  Fe121     1.0  0.10919  0.83089  0.60319  1.0000
  S   S243      1.0  0.07962  0.83538  0.62542  1.0000
  S   S244      1.0  0.11872  0.80583  0.58537  1.0000
  Fe  Fe122     1.0  0.12345  0.86570  0.61198  1.0000
  S   S245      1.0  0.09497  0.87254  0.63505  1.0000
  S   S246      1.0  0.14631  0.88664  0.60050  1.0000
  Fe  Fe123     1.0  0.09869  0.83911  0.64529  1.0000
  S   S247      1.0  0.08966  0.82652  0.67822  1.0000
  Fe  Fe124     1.0  0.07842  0.86826  0.61330  1.0000
  S   S248      1.0  0.04979  0.88842  0.60474  1.0000
  S   S249      1.0  0.12869  0.83235  0.62397  1.0000
  S   S250      1.0  0.10657  0.86355  0.58935  1.0000
  C   C897      1.0  0.23862  0.91063  0.56715  1.0000
  C   C898      1.0  0.15636  0.89596  0.61639  1.0000
  C   C899      1.0  0.15271  0.88889  0.63701  1.0000
  C   C900      1.0  0.16109  0.89651  0.64920  1.0000
  C   C901      1.0  0.17275  0.91159  0.64094  1.0000
  C   C902      1.0  0.17597  0.91903  0.62037  1.0000
  C   C903      1.0  0.16801  0.91105  0.60813  1.0000
  H   H1076     1.0  0.14365  0.87738  0.64350  1.0000
  H   H1077     1.0  0.15851  0.89074  0.66512  1.0000
  H   H1078     1.0  0.18483  0.93069  0.61389  1.0000
  H   H1079     1.0  0.17090  0.91659  0.59218  1.0000
  C   C904      1.0  0.10161  0.79754  0.57564  1.0000
  H   H1080     1.0  0.27887  0.74238  0.90001  1.0000
  C   C905      1.0  0.06736  0.79740  0.57249  1.0000
  C   C906      1.0  0.08058  0.80501  0.57975  1.0000
  S   S251      1.0  0.13769  0.74492  0.72040  1.0000
  H   H1081     1.0  0.05110  0.80320  0.57583  1.0000
  H   H1082     1.0  0.07447  0.81666  0.58852  1.0000
  C   C907      1.0  0.02850  0.92709  0.60361  1.0000
  C   C908      1.0  0.04258  0.91170  0.61240  1.0000
  C   C909      1.0  0.05052  0.91496  0.62744  1.0000
  C   C910      1.0  0.04521  0.93374  0.63300  1.0000
  H   H1083     1.0  0.02208  0.92454  0.59215  1.0000
  H   H1084     1.0  0.06051  0.90294  0.63500  1.0000
  H   H1085     1.0  0.02026  0.88582  0.64371  1.0000
  C   C911      1.0  0.26559  0.93534  0.56519  1.0000
  C   C912      1.0  0.28389  0.83010  0.89814  1.0000
  C   C913      1.0  0.26571  0.82252  0.90444  1.0000
  C   C914      1.0  0.26073  0.81114  0.89303  1.0000
  C   C915      1.0  0.27377  0.80749  0.87500  1.0000
  C   C916      1.0  0.29193  0.81514  0.86866  1.0000
  C   C917      1.0  0.29706  0.82629  0.88021  1.0000
  H   H1086     1.0  0.25541  0.82545  0.91826  1.0000
  H   H1087     1.0  0.24668  0.80540  0.89806  1.0000
  H   H1088     1.0  0.30215  0.81233  0.85476  1.0000
  C   C918      1.0  0.22139  0.98050  0.54885  1.0000
  C   C919      1.0  0.12425  0.76758  0.70879  1.0000
  C   C920      1.0  0.13336  0.77727  0.68994  1.0000
  C   C921      1.0  0.12292  0.79538  0.68034  1.0000
  C   C922      1.0  0.10333  0.80388  0.68963  1.0000
  C   C923      1.0  0.09437  0.79431  0.70859  1.0000
  C   C924      1.0  0.10475  0.77616  0.71812  1.0000
  H   H1089     1.0  0.14853  0.77076  0.68273  1.0000
  H   H1090     1.0  0.13008  0.80284  0.66587  1.0000
  H   H1091     1.0  0.07925  0.80087  0.71587  1.0000
  H   H1092     1.0  0.09763  0.76884  0.73269  1.0000
  C   C925      1.0  0.19010  0.74061  0.82305  1.0000
  H   H1093     1.0  0.29251  0.78084  0.91774  1.0000
  H   H1094     1.0  0.08896  0.74770  0.84029  1.0000
  N   N58       1.0  0.07844  0.81755  0.50001  1.0000
  H   H1095     1.0  0.12554  0.77663  0.56083  1.0000
  Fe  Fe125     1.0  0.06680  0.75323  0.52907  1.0000
  N   N59       1.0  0.15603  0.79358  0.73927  1.0000
  H   H1096     1.0  0.18466  0.75808  0.79462  1.0000
  H   H1097     1.0  0.32686  0.74891  0.86515  1.0000
  C   C926      1.0  0.13611  0.81788  0.71443  1.0000
  N   N60       1.0  0.30849  0.75024  0.89489  1.0000
  H   H1098     1.0  0.22799  0.90114  0.56798  1.0000
  H   H1099     1.0  0.06318  0.80227  0.48658  1.0000
  N   N61       1.0  0.09376  0.76915  0.64123  1.0000
  C   C927      1.0  0.07576  0.78201  0.63371  1.0000
  C   C928      1.0  0.10647  0.78263  0.64327  1.0000
  C   C929      1.0  0.10614  0.75720  0.62601  1.0000
  H   H1100     1.0  0.29518  0.96444  0.61033  1.0000
  H   H1101     1.0  0.27243  0.92239  0.50965  1.0000
  H   H1102     1.0  0.24718  0.94111  0.59366  1.0000
  C   C930      1.0  0.13604  0.96929  0.64125  1.0000
  H   H1103     1.0  0.01926  0.73921  0.47925  1.0000
  H   H1104     1.0  0.12183  0.81325  0.72207  1.0000
  C   C931      1.0  0.04570  0.74388  0.82068  1.0000
  H   H1105     1.0  0.08045  0.79296  0.61995  1.0000
  C   C932      1.0  0.14933  0.73784  0.97151  1.0000
  C   C933      1.0  0.30194  0.97030  0.62003  1.0000
  H   H1106     1.0  0.11186  0.79225  0.62869  1.0000
  C   C934      1.0  0.27676  0.93555  0.81878  1.0000
  H   H1107     1.0  0.05146  0.93616  0.64463  1.0000
  H   H1108     1.0  0.07270  0.84501  0.47895  1.0000
  C   C935      1.0  0.31083  0.75357  0.87291  1.0000
  Fe  Fe126     1.0  0.22035  0.97029  0.66616  1.0000
  H   H1109     1.0  0.28900  0.90083  0.52119  1.0000
  H   H1110     1.0  0.27536  0.94534  0.56507  1.0000
  H   H1111     1.0  0.09766  0.79310  0.65347  1.0000
  H   H1112     1.0  0.12084  0.95633  0.58093  1.0000
  C   C936      1.0  0.26871  0.92536  0.54903  1.0000
  C   C937      1.0  0.14396  0.76771  0.94609  1.0000
  S   S252      1.0  0.23400  0.75786  0.90119  1.0000
  H   H1113     1.0  0.16926  0.76206  0.74641  1.0000
  C   C938      1.0  0.17170  0.83109  0.69197  1.0000
  N   N62       1.0  0.28586  0.92821  0.53166  1.0000
  H   H1114     1.0  0.27267  0.93721  0.80453  1.0000
  H   H1115     1.0  0.30288  0.87106  0.87722  1.0000
  C   C939      1.0  0.03186  0.94936  0.62362  1.0000
  H   H1116     1.0  0.12511  0.80245  0.75516  1.0000
  C   C940      1.0  0.07519  0.82811  0.51676  1.0000
  C   C941      1.0  0.23600  0.92071  0.58267  1.0000
  C   C942      1.0  0.16412  0.76271  0.93571  1.0000
  H   H1117     1.0  0.11572  0.78279  0.89789  1.0000
  H   H1118     1.0  0.25573  0.90466  0.53905  1.0000
  S   S253      1.0  0.06826  0.75284  0.80868  1.0000
  C   C943      1.0  0.24948  0.93300  0.58170  1.0000
  H   H1119     1.0  0.13406  0.78122  0.94031  1.0000
  S   S254      1.0  0.18329  0.92032  0.65687  1.0000
  H   H1120     1.0  0.18547  0.83623  0.68312  1.0000
  H   H1121     1.0  0.26977  0.90657  0.82910  1.0000
  H   H1122     1.0  0.08683  0.74487  0.71038  1.0000
  H   H1123     1.0  0.09866  0.76239  0.89203  1.0000
  C   C944      1.0  0.27335  0.98277  0.71844  1.0000
  C   C945      1.0  0.09609  0.77517  0.55650  1.0000
  C   C946      1.0  0.29008  0.94863  0.84039  1.0000
  C   C947      1.0  0.31930  0.79128  0.91599  1.0000
  C   C948      1.0  0.12572  0.76026  0.86787  1.0000
  S   S255      1.0  0.12229  0.74014  0.77917  1.0000
  C   C949      1.0  0.08899  0.84471  0.53599  1.0000
  C   C950      1.0  0.09094  0.75641  0.67868  1.0000
  S   S256      1.0  0.02718  0.97308  0.62979  1.0000
  H   H1124     1.0  0.11074  0.93474  0.58192  1.0000
  C   C951      1.0  0.28904  0.93096  0.85462  1.0000
  C   C952      1.0  0.28663  0.91734  0.51572  1.0000
  H   H1125     1.0  0.06566  0.79075  0.64502  1.0000
  H   H1126     1.0  0.18519  0.77640  0.72692  1.0000
  C   C953      1.0  0.10929  0.78256  0.56402  1.0000
  H   H1127     1.0  0.11963  0.92655  0.64563  1.0000
  C   C954      1.0  0.29844  0.97769  0.65275  1.0000
  H   H1128     1.0  0.10220  0.76362  0.54761  1.0000
  C   C955      1.0  0.13548  0.83268  0.69716  1.0000
  C   C956      1.0  0.07489  0.74152  0.66059  1.0000
  Fe  Fe127     1.0  0.07785  0.75464  0.48463  1.0000
  C   C957      1.0  0.01385  0.89056  0.65795  1.0000
  C   C958      1.0  0.27526  0.91794  0.83308  1.0000
  S   S257      1.0  0.09702  0.74904  0.50755  1.0000
  H   H1129     1.0  0.12562  0.79649  0.87363  1.0000
  C   C959      1.0  0.27144  0.90058  0.88689  1.0000
  H   H1130     1.0  0.15638  0.81455  0.75694  1.0000
  H   H1131     1.0  0.25360  0.89015  0.86178  1.0000
  H   H1132     1.0  0.00705  0.74764  0.86179  1.0000
  H   H1133     1.0  0.12041  0.77401  0.64879  1.0000
  H   H1134     1.0  0.27720  0.94463  0.63881  1.0000
  H   H1135     1.0  0.28537  0.95900  0.53276  1.0000
  H   H1136     1.0  0.07095  0.74017  0.64716  1.0000
  H   H1137     1.0  0.31008  0.88216  0.85135  1.0000
  C   C960      1.0  0.28406  0.94980  0.52253  1.0000
  H   H1138     1.0  0.29640  0.96033  0.84294  1.0000
  C   C961      1.0  0.11985  0.97200  0.61378  1.0000
  H   H1139     1.0  0.18728  0.81018  0.71306  1.0000
  H   H1140     1.0  0.30592  0.76973  0.86665  1.0000
  H   H1141     1.0  0.26233  0.95587  0.72045  1.0000
  Fe  Fe128     1.0  0.31899  0.85496  0.90948  1.0000
  H   H1142     1.0  0.31882  0.92269  0.52540  1.0000
  H   H1143     1.0  0.26910  0.95588  0.51799  1.0000
  H   H1144     1.0  0.29912  0.93857  0.64984  1.0000
  H   H1145     1.0  0.30700  0.92978  0.54896  1.0000
  H   H1146     1.0  0.29515  0.92952  0.86768  1.0000
  H   H1147     1.0  0.16338  0.77035  0.72205  1.0000
  S   S258      1.0  0.04765  0.76039  0.50573  1.0000
  N   N63       1.0  0.13922  0.76509  0.87865  1.0000
  C   C962      1.0  0.13589  0.78889  0.75066  1.0000
  H   H1148     1.0  0.31732  0.96091  0.62093  1.0000
  H   H1149     1.0  0.26872  0.86907  0.87489  1.0000
  C   C963      1.0  0.03390  0.75027  0.83821  1.0000
  C   C964      1.0  0.12969  0.78409  0.88603  1.0000
  H   H1150     1.0  0.09970  0.76667  0.67995  1.0000
  C   C965      1.0  0.07504  0.78260  0.56069  1.0000
  C   C966      1.0  0.25471  0.91283  0.55054  1.0000
  C   C967      1.0  0.08352  0.74394  0.69642  1.0000
  H   H1151     1.0  0.12115  0.83888  0.69226  1.0000
  C   C968      1.0  0.31906  0.76391  0.89984  1.0000
  C   C969      1.0  0.15470  0.80934  0.72111  1.0000
  Fe  Fe129     1.0  0.20244  0.76506  0.89483  1.0000
  H   H1152     1.0  0.12790  0.74698  0.90701  1.0000
  S   S259      1.0  0.17299  0.77853  0.91346  1.0000
  S   S260      1.0  0.24607  0.98483  0.59392  1.0000
  N   N64       1.0  0.28098  0.89630  0.86656  1.0000
  C   C970      1.0  0.13651  0.75519  0.96387  1.0000
  C   C971      1.0  0.09497  0.79962  0.50193  1.0000
  N   N65       1.0  0.10472  0.94403  0.61025  1.0000
  H   H1153     1.0  0.16568  0.78876  0.76719  1.0000
  C   C972      1.0  0.02311  0.94594  0.60922  1.0000
  C   C973      1.0  0.14237  0.74865  0.89593  1.0000
  S   S261      1.0  0.20557  0.73678  0.88359  1.0000
  H   H1154     1.0  0.27724  0.87666  0.84884  1.0000
  H   H1155     1.0  0.11238  0.76698  0.61185  1.0000
  C   C974      1.0  0.18193  0.74490  0.80584  1.0000
  S   S262      1.0  0.23786  0.96413  0.69111  1.0000
  C   C975      1.0  0.01114  0.88430  0.69354  1.0000
  H   H1156     1.0  0.13730  0.77766  0.76463  1.0000
  H   H1157     1.0  0.25595  0.91011  0.88726  1.0000
  Fe  Fe130     1.0  0.33013  0.97563  0.76659  1.0000
  C   C976      1.0  0.10495  0.75961  0.87705  1.0000
  H   H1158     1.0  0.28159  0.97631  0.73036  1.0000
  S   S263      1.0  0.18912  0.97570  0.62491  1.0000
  H   H1159     1.0  0.12090  0.75899  0.97164  1.0000
  H   H1160     1.0  0.26993  0.88654  0.89822  1.0000
  C   C977      1.0  0.01703  0.74528  0.96436  1.0000
  C   C978      1.0  0.11528  0.95249  0.62122  1.0000
  H   H1161     1.0  0.28069  0.90822  0.89238  1.0000
  H   H1162     1.0  0.06641  0.77325  0.62976  1.0000
  H   H1163     1.0  0.31147  0.89446  0.87037  1.0000
  C   C979      1.0  0.26958  0.88258  0.86273  1.0000
  H   H1164     1.0  0.01267  0.95795  0.60201  1.0000
  Fe  Fe131     1.0  0.22172  0.97860  0.62163  1.0000
  H   H1165     1.0  0.00869  0.76042  0.96493  1.0000
  C   C980      1.0  0.28410  0.95088  0.82245  1.0000
  H   H1166     1.0  0.02989  0.86413  0.67438  1.0000
  C   C981      1.0  0.09164  0.83474  0.52028  1.0000
  H   H1167     1.0  0.30410  0.98563  0.61204  1.0000
  H   H1168     1.0  0.09207  0.91811  0.61201  1.0000
  C   C982      1.0  0.28627  0.75306  0.90384  1.0000
  H   H1169     1.0  0.12882  0.78224  0.74191  1.0000
  H   H1170     1.0  0.13286  0.93190  0.59193  1.0000
  C   C983      1.0  0.16907  0.77483  0.73345  1.0000
  H   H1171     1.0  0.09000  0.92458  0.63564  1.0000
  H   H1172     1.0  0.30735  0.90503  0.54569  1.0000
  H   H1173     1.0  0.18130  0.80178  0.74653  1.0000
  H   H1174     1.0  0.10191  0.84906  0.53881  1.0000
  C   C984      1.0  0.30558  0.92111  0.53827  1.0000
  H   H1175     1.0  0.28575  0.96427  0.81111  1.0000
  C   C985      1.0  0.26240  0.97123  0.71278  1.0000
  C   C986      1.0  0.16525  0.79997  0.75301  1.0000
  H   H1176     1.0  0.19788  0.98535  0.48423  1.0000
  H   H1177     1.0  0.15845  0.77938  0.85244  1.0000
  C   C987      1.0  0.30877  0.77857  0.91177  1.0000
  C   C988      1.0  0.10002  0.92404  0.62061  1.0000
  C   C989      1.0  0.11956  0.75098  0.83875  1.0000
  H   H1178     1.0  0.16870  0.75342  0.86159  1.0000
  C   C990      1.0  0.12179  0.94168  0.63908  1.0000
  H   H1179     1.0  0.06792  0.85629  0.56070  1.0000
  C   C991      1.0  0.08507  0.95765  0.60745  1.0000
  H   H1180     1.0  0.12522  0.74726  0.82399  1.0000
  S   S264      1.0  0.05774  0.77396  0.55153  1.0000
  C   C992      1.0  0.09184  0.75534  0.86708  1.0000
  S   S265      1.0  0.22951  0.95023  0.64354  1.0000
  C   C993      1.0  0.13198  0.95007  0.64886  1.0000
  H   H1181     1.0  0.07522  0.96060  0.62202  1.0000
  H   H1182     1.0  0.27814  0.76834  0.89819  1.0000
  H   H1183     1.0  0.15264  0.85064  0.67253  1.0000
  C   C994      1.0  0.13274  0.75550  0.84846  1.0000
  C   C995      1.0  0.05333  0.84264  0.54525  1.0000
  C   C996      1.0  0.15321  0.83928  0.68597  1.0000
  H   H1184     1.0  0.11935  0.74666  0.63147  1.0000
  C   C997      1.0  0.30228  0.88553  0.86638  1.0000
  C   C998      1.0  0.11782  0.94177  0.59038  1.0000
  H   H1185     1.0  0.07597  0.75519  0.87424  1.0000
  H   H1186     1.0  0.29631  0.95247  0.50904  1.0000
  H   H1187     1.0  0.05486  0.80005  0.51301  1.0000
  H   H1188     1.0  0.09114  0.78935  0.51646  1.0000
  C   C999      1.0  0.01926  0.87829  0.67523  1.0000
  H   H1189     1.0  0.11414  0.91267  0.62228  1.0000
  H   H1190     1.0  0.03862  0.76092  0.84409  1.0000
  C   C1000     1.0  0.17252  0.81628  0.70921  1.0000
  H   H1191     1.0  0.15302  0.75134  0.90409  1.0000
  H   H1192     1.0  0.13729  0.94137  0.66218  1.0000
  C   C1001     1.0  0.28125  0.91517  0.85157  1.0000
  S   S266      1.0  0.31695  0.88617  0.91404  1.0000
  H   H1193     1.0  0.04257  0.82747  0.52870  1.0000
  Fe  Fe132     1.0  0.19630  0.94878  0.64863  1.0000
  C   C1002     1.0  0.15964  0.76763  0.86612  1.0000
  S   S267      1.0  0.28913  0.84462  0.91296  1.0000
  H   H1194     1.0  0.16904  0.77225  0.87431  1.0000
  C   C1003     1.0  0.06985  0.84876  0.54838  1.0000
  H   H1195     1.0  0.28329  0.75046  0.92043  1.0000
  S   S268      1.0  0.18784  0.96630  0.67324  1.0000
  H   H1196     1.0  0.30052  0.95107  0.67680  1.0000
  C   C1004     1.0  0.09912  0.75113  0.84794  1.0000
  H   H1197     1.0  0.29953  0.92008  0.50278  1.0000
  H   H1198     1.0  0.31673  0.96436  0.69609  1.0000
  H   H1199     1.0  0.09743  0.79111  0.48976  1.0000
  H   H1200     1.0  0.09712  0.74835  0.62174  1.0000
  H   H1201     1.0  0.04721  0.82332  0.49642  1.0000
  C   C1005     1.0  0.05587  0.83234  0.52980  1.0000
  H   H1202     1.0  0.09922  0.83561  0.47959  1.0000
  C   C1006     1.0  0.25152  0.97940  0.69739  1.0000
  H   H1203     1.0  0.01546  0.87467  0.70694  1.0000
  N   N66       1.0  0.28867  0.97031  0.64020  1.0000
  H   H1204     1.0  0.20817  0.97580  0.54724  1.0000
  C   C1007     1.0  0.06006  0.81058  0.49904  1.0000
  C   C1008     1.0  0.28472  0.94965  0.64847  1.0000
  H   H1205     1.0  0.30137  0.74514  0.86857  1.0000
  H   H1206     1.0  0.31111  0.80254  0.92491  1.0000
  C   C1009     1.0  0.22403  0.98036  0.56803  1.0000
  C   C1010     1.0  0.08451  0.83109  0.48078  1.0000
  H   H1207     1.0  0.27418  0.94878  0.66342  1.0000
  H   H1208     1.0  0.25841  0.98418  0.65293  1.0000
  H   H1209     1.0  0.11584  0.98091  0.60005  1.0000
  C   C1011     1.0  0.30382  0.96590  0.67079  1.0000
  H   H1210     1.0  0.10994  0.80335  0.50110  1.0000
  H   H1211     1.0  0.19238  0.74118  0.93504  1.0000
  H   H1212     1.0  0.08714  0.97236  0.59774  1.0000
  S   S269      1.0  0.33147  0.94298  0.78101  1.0000
  C   C1012     1.0  0.17682  0.74514  0.94305  1.0000
  H   H1213     1.0  0.14417  0.97556  0.64883  1.0000
  H   H1214     1.0  0.21288  0.97554  0.58108  1.0000
  C   C1013     1.0  0.00052  0.90902  0.65883  1.0000
  C   C1014     1.0  0.31323  0.97334  0.68210  1.0000
  C   C1015     1.0  0.26876  0.98365  0.63811  1.0000
  C   C1016     1.0  0.13010  0.98021  0.62369  1.0000
  H   H1215     1.0  0.00279  0.95067  0.67134  1.0000
  H   H1216     1.0  0.26087  0.97829  0.62907  1.0000
  C   C1017     1.0  0.24134  0.98601  0.57023  1.0000
  S   S270      1.0  0.23298  0.98543  0.50797  1.0000
  S   S271      1.0  0.33184  0.94452  0.47836  1.0000
  C   C1018     1.0  0.60150  0.13236  0.20587  1.0000
  H   H1217     1.0  0.62179  0.15386  0.32502  1.0000
  Fe  Fe133     1.0  0.59703  0.20745  0.26959  1.0000
  S   S272      1.0  0.59627  0.17485  0.27081  1.0000
  Fe  Fe134     1.0  0.55844  0.06541  0.24722  1.0000
  S   S273      1.0  0.52631  0.08193  0.25507  1.0000
  S   S274      1.0  0.57139  0.04264  0.27134  1.0000
  Fe  Fe135     1.0  0.56499  0.08874  0.20474  1.0000
  S   S275      1.0  0.53292  0.10644  0.20919  1.0000
  Fe  Fe136     1.0  0.53875  0.10954  0.23815  1.0000
  S   S276      1.0  0.53050  0.14029  0.24669  1.0000
  Fe  Fe137     1.0  0.52418  0.07696  0.22548  1.0000
  S   S277      1.0  0.49840  0.06262  0.22497  1.0000
  S   S278      1.0  0.57118  0.09332  0.23282  1.0000
  S   S279      1.0  0.55587  0.05894  0.21848  1.0000
  Fe  Fe138     1.0  0.47325  0.20696  0.43569  1.0000
  H   H1218     1.0  0.33640  0.05225  0.34031  1.0000
  C   C1019     1.0  0.37809  0.99317  0.35247  1.0000
  Fe  Fe139     1.0  0.44698  0.19000  0.41676  1.0000
  S   S280      1.0  0.45356  0.21118  0.38762  1.0000
  S   S281      1.0  0.42570  0.16853  0.42039  1.0000
  Fe  Fe140     1.0  0.48576  0.20355  0.39204  1.0000
  H   H1219     1.0  0.63746  0.05326  0.08441  1.0000
  H   H1220     1.0  0.37205  0.98928  0.08339  1.0000
  C   C1020     1.0  0.34996  0.04943  0.32890  1.0000
  S   S282      1.0  0.47961  0.18078  0.42018  1.0000
  S   S283      1.0  0.43968  0.21418  0.43511  1.0000
  Fe  Fe141     1.0  0.39210  0.06934  0.35755  1.0000
  S   S284      1.0  0.42487  0.06906  0.34200  1.0000
  S   S285      1.0  0.36507  0.07461  0.34326  1.0000
  Fe  Fe142     1.0  0.40252  0.05437  0.39834  1.0000
  S   S286      1.0  0.43622  0.05177  0.38648  1.0000
  S   S287      1.0  0.38903  0.04481  0.43072  1.0000
  Fe  Fe143     1.0  0.42724  0.08200  0.36758  1.0000
  S   S288      1.0  0.44707  0.10490  0.36346  1.0000
  Fe  Fe144     1.0  0.43086  0.03923  0.36228  1.0000
  Fe  Fe145     1.0  0.33919  0.00869  0.28586  1.0000
  S   S289      1.0  0.39368  0.08534  0.38114  1.0000
  S   S290      1.0  0.39806  0.03873  0.37614  1.0000
  H   H1221     1.0  0.54096  0.02955  0.15326  1.0000
  C   C1021     1.0  0.60097  0.20071  0.35563  1.0000
  H   H1222     1.0  0.63379  0.04022  0.12143  1.0000
  H   H1223     1.0  0.53610  0.99110  0.26602  1.0000
  N   N67       1.0  0.38964  0.00756  0.22267  1.0000
  H   H1224     1.0  0.43757  0.05768  0.99891  1.0000
  C   C1022     1.0  0.66060  0.23531  0.33103  1.0000
  H   H1225     1.0  0.37749  0.98817  0.21095  1.0000
  C   C1023     1.0  0.38306  0.09958  0.43332  1.0000
  C   C1024     1.0  0.58787  0.06322  0.10959  1.0000
  S   S291      1.0  0.63522  0.99884  0.14975  1.0000
  H   H1226     1.0  0.56880  0.12132  0.25947  1.0000
  Fe  Fe146     1.0  0.48878  0.02270  0.13604  1.0000
  S   S292      1.0  0.49747  0.05059  0.13919  1.0000
  S   S293      1.0  0.45745  0.01790  0.13728  1.0000
  C   C1025     1.0  0.37518  0.99324  0.40708  1.0000
  C   C1026     1.0  0.52200  0.21384  0.34977  1.0000
  H   H1227     1.0  0.36697  0.02733  0.24030  1.0000
  H   H1228     1.0  0.61792  0.04047  0.08536  1.0000
  S   S294      1.0  0.36750  0.02141  0.28156  1.0000
  N   N68       1.0  0.59111  0.15049  0.19370  1.0000
  C   C1027     1.0  0.36912  0.02041  0.22712  1.0000
  H   H1229     1.0  0.59413  0.13529  0.26864  1.0000
  H   H1230     1.0  0.58777  0.03408  0.10372  1.0000
  H   H1231     1.0  0.60085  0.13585  0.16830  1.0000
  C   C1028     1.0  0.61384  0.22703  0.97826  1.0000
  S   S295      1.0  0.58550  0.09918  0.17566  1.0000
  C   C1029     1.0  0.58276  0.20505  0.36934  1.0000
  S   S296      1.0  0.61953  0.99702  0.10150  1.0000
  C   C1030     1.0  0.59215  0.16955  0.19871  1.0000
  C   C1031     1.0  0.43545  0.04438  0.20808  1.0000
  H   H1232     1.0  0.35666  0.01172  0.23059  1.0000
  C   C1032     1.0  0.36700  0.05750  0.32785  1.0000
  C   C1033     1.0  0.35034  0.03766  0.31522  1.0000
  C   C1034     1.0  0.35401  0.02975  0.44790  1.0000
  C   C1035     1.0  0.36768  0.03411  0.30022  1.0000
  C   C1036     1.0  0.38507  0.04147  0.29963  1.0000
  C   C1037     1.0  0.38480  0.05301  0.31354  1.0000
  C   C1038     1.0  0.54604  0.99495  0.27353  1.0000
  C   C1039     1.0  0.38486  0.11452  0.45979  1.0000
  H   H1233     1.0  0.65463  0.22418  0.34324  1.0000
  C   C1040     1.0  0.62054  0.05498  0.08706  1.0000
  C   C1041     1.0  0.36379  0.04293  0.43220  1.0000
  C   C1042     1.0  0.51013  0.23098  0.44988  1.0000
  Fe  Fe147     1.0  0.64346  0.98866  0.12043  1.0000
  C   C1043     1.0  0.41963  0.99593  0.43808  1.0000
  H   H1234     1.0  0.65432  0.08480  0.13614  1.0000
  C   C1044     1.0  0.42198  0.04296  0.22657  1.0000
  H   H1235     1.0  0.36200  0.02072  0.45937  1.0000
  C   C1045     1.0  0.56062  0.99112  0.20731  1.0000
  C   C1046     1.0  0.38971  0.99724  0.20656  1.0000
  H   H1236     1.0  0.36097  0.06445  0.40503  1.0000
  C   C1047     1.0  0.43133  0.15215  0.40326  1.0000
  C   C1048     1.0  0.45065  0.14856  0.39080  1.0000
  C   C1049     1.0  0.45520  0.13420  0.37854  1.0000
  C   C1050     1.0  0.44052  0.12331  0.37861  1.0000
  C   C1051     1.0  0.42107  0.12726  0.39068  1.0000
  C   C1052     1.0  0.41648  0.14167  0.40290  1.0000
  H   H1237     1.0  0.46222  0.15651  0.39097  1.0000
  H   H1238     1.0  0.47031  0.13127  0.36931  1.0000
  H   H1239     1.0  0.40960  0.11921  0.39056  1.0000
  H   H1240     1.0  0.40146  0.14454  0.41231  1.0000
  H   H1241     1.0  0.45934  0.02087  0.97933  1.0000
  C   C1053     1.0  0.64361  0.05446  0.46877  1.0000
  C   C1054     1.0  0.49897  0.05863  0.20117  1.0000
  C   C1055     1.0  0.50773  0.07097  0.18402  1.0000
  C   C1056     1.0  0.50703  0.06842  0.16509  1.0000
  C   C1057     1.0  0.49808  0.05320  0.16319  1.0000
  C   C1058     1.0  0.48994  0.04039  0.18033  1.0000
  C   C1059     1.0  0.49019  0.04325  0.19931  1.0000
  H   H1242     1.0  0.51451  0.08286  0.18534  1.0000
  H   H1243     1.0  0.51332  0.07838  0.15190  1.0000
  H   H1244     1.0  0.48313  0.02854  0.17897  1.0000
  H   H1245     1.0  0.48358  0.03354  0.21253  1.0000
  H   H1246     1.0  0.58631  0.20720  0.00459  1.0000
  H   H1247     1.0  0.62267  0.10702  0.14965  1.0000
  C   C1060     1.0  0.62422  0.09095  0.15442  1.0000
  C   C1061     1.0  0.61036  0.06197  0.17406  1.0000
  H   H1248     1.0  0.45621  0.07145  0.40973  1.0000
  H   H1249     1.0  0.36278  0.00188  0.10403  1.0000
  S   S297      1.0  0.48296  0.20480  0.46478  1.0000
  N   N69       1.0  0.61035  0.05994  0.10699  1.0000
  H   H1250     1.0  0.60110  0.02145  0.20649  1.0000
  C   C1062     1.0  0.57773  0.16585  0.26386  1.0000
  C   C1063     1.0  0.56025  0.17852  0.25822  1.0000
  C   C1064     1.0  0.54583  0.17051  0.25305  1.0000
  C   C1065     1.0  0.54890  0.14988  0.25328  1.0000
  C   C1066     1.0  0.56637  0.13726  0.25894  1.0000
  C   C1067     1.0  0.58067  0.14521  0.26424  1.0000
  H   H1251     1.0  0.55782  0.19444  0.25786  1.0000
  H   H1252     1.0  0.53233  0.18039  0.24871  1.0000
  C   C1068     1.0  0.57454  0.08093  0.11499  1.0000
  C   C1069     1.0  0.54071  0.22594  0.31662  1.0000
  H   H1253     1.0  0.46248  0.04332  0.00112  1.0000
  H   H1254     1.0  0.55228  0.19930  0.38124  1.0000
  C   C1070     1.0  0.58977  0.01302  0.20664  1.0000
  C   C1071     1.0  0.57154  0.00503  0.29320  1.0000
  H   H1255     1.0  0.34897  0.03501  0.98657  1.0000
  C   C1072     1.0  0.44194  0.99769  0.25958  1.0000
  H   H1256     1.0  0.42042  0.12269  0.45097  1.0000
  H   H1257     1.0  0.42045  0.07155  0.42591  1.0000
  H   H1258     1.0  0.57190  0.18326  0.31190  1.0000
  C   C1073     1.0  0.58276  0.00012  0.22407  1.0000
  C   C1074     1.0  0.55101  0.01423  0.26805  1.0000
  C   C1075     1.0  0.56400  0.01916  0.27780  1.0000
  H   H1259     1.0  0.61354  0.09089  0.09728  1.0000
  H   H1260     1.0  0.44873  0.00068  0.39178  1.0000
  C   C1076     1.0  0.58059  0.21751  0.99167  1.0000
  H   H1261     1.0  0.54506  0.02514  0.25617  1.0000
  C   C1077     1.0  0.33333  0.05313  0.41831  1.0000
  C   C1078     1.0  0.56861  0.18198  0.35867  1.0000
  C   C1079     1.0  0.58220  0.01514  0.18949  1.0000
  C   C1080     1.0  0.44587  0.04415  0.00764  1.0000
  H   H1262     1.0  0.33712  0.03156  0.31609  1.0000
  H   H1263     1.0  0.61358  0.20799  0.35437  1.0000
  C   C1081     1.0  0.55338  0.08344  0.11724  1.0000
  H   H1264     1.0  0.46335  0.01676  0.24593  1.0000
  H   H1265     1.0  0.44664  0.05394  0.20435  1.0000
  N   N70       1.0  0.58881  0.16206  0.33234  1.0000
  C   C1082     1.0  0.58719  0.14233  0.34564  1.0000
  H   H1266     1.0  0.41870  0.98919  0.30851  1.0000
  C   C1083     1.0  0.60851  0.15948  0.31761  1.0000
  C   C1084     1.0  0.58693  0.17716  0.34456  1.0000
  H   H1267     1.0  0.65719  0.08485  0.43881  1.0000
  H   H1268     1.0  0.58785  0.02563  0.17648  1.0000
  H   H1269     1.0  0.58903  0.13042  0.33696  1.0000
  H   H1270     1.0  0.58862  0.99853  0.23736  1.0000
  C   C1085     1.0  0.57210  0.16790  0.32110  1.0000
  C   C1086     1.0  0.55746  0.05078  0.10956  1.0000
  H   H1271     1.0  0.61755  0.18469  0.33289  1.0000
  H   H1272     1.0  0.41341  0.03035  0.03151  1.0000
  H   H1273     1.0  0.60921  0.14854  0.30819  1.0000
  H   H1274     1.0  0.61065  0.17380  0.30702  1.0000
  C   C1087     1.0  0.53145  0.21102  0.33035  1.0000
  N   N71       1.0  0.39455  0.09762  0.44908  1.0000
  H   H1275     1.0  0.33823  0.99590  0.07680  1.0000
  H   H1276     1.0  0.45591  0.12132  0.43503  1.0000
  H   H1277     1.0  0.57290  0.23202  0.99633  1.0000
  C   C1088     1.0  0.41652  0.09715  0.44008  1.0000
  C   C1089     1.0  0.42750  0.11081  0.44267  1.0000
  C   C1090     1.0  0.42766  0.08259  0.42837  1.0000
  H   H1278     1.0  0.43611  0.01152  0.98432  1.0000
  C   C1091     1.0  0.44824  0.08220  0.41923  1.0000
  C   C1092     1.0  0.45841  0.09603  0.42175  1.0000
  H   H1279     1.0  0.38706  0.00814  0.19268  1.0000
  H   H1280     1.0  0.38810  0.08666  0.42553  1.0000
  H   H1281     1.0  0.53126  0.19742  0.32577  1.0000
  C   C1093     1.0  0.64996  0.22540  0.97779  1.0000
  H   H1282     1.0  0.38848  0.99592  0.39463  1.0000
  H   H1283     1.0  0.63472  0.07448  0.10682  1.0000
  H   H1284     1.0  0.39861  0.03860  0.28815  1.0000
  H   H1285     1.0  0.44273  0.04691  0.02316  1.0000
  H   H1286     1.0  0.55070  0.03912  0.10753  1.0000
  H   H1287     1.0  0.40818  0.04172  0.00720  1.0000
  S   S298      1.0  0.49728  0.99386  0.15656  1.0000
  S   S299      1.0  0.36763  0.00026  0.03518  1.0000
  H   H1288     1.0  0.47417  0.09609  0.41415  1.0000
  H   H1289     1.0  0.58695  0.01466  0.14986  1.0000
  C   C1094     1.0  0.56946  0.14872  0.19690  1.0000
  H   H1290     1.0  0.59914  0.13765  0.35478  1.0000
  C   C1095     1.0  0.58252  0.18818  0.18867  1.0000
  H   H1291     1.0  0.42385  0.02116  0.06299  1.0000
  H   H1292     1.0  0.56101  0.16027  0.18655  1.0000
  H   H1293     1.0  0.56805  0.13396  0.19462  1.0000
  H   H1294     1.0  0.56121  0.15021  0.21235  1.0000
  H   H1295     1.0  0.61713  0.15197  0.16930  1.0000
  H   H1296     1.0  0.59805  0.05571  0.18459  1.0000
  H   H1297     1.0  0.57417  0.18875  0.17744  1.0000
  H   H1298     1.0  0.36906  0.00696  0.41373  1.0000
  N   N72       1.0  0.46733  0.03031  0.27801  1.0000
  C   C1096     1.0  0.48884  0.02309  0.26829  1.0000
  C   C1097     1.0  0.45982  0.05034  0.26666  1.0000
  C   C1098     1.0  0.46748  0.03269  0.29834  1.0000
  C   C1099     1.0  0.45421  0.01637  0.27804  1.0000
  C   C1100     1.0  0.44084  0.00838  0.29557  1.0000
  C   C1101     1.0  0.45407  0.01088  0.25996  1.0000
  H   H1299     1.0  0.55679  0.16767  0.33103  1.0000
  H   H1300     1.0  0.36828  0.11469  0.46602  1.0000
  C   C1102     1.0  0.50115  0.21808  0.46642  1.0000
  H   H1301     1.0  0.49074  0.02332  0.25212  1.0000
  H   H1302     1.0  0.49921  0.03283  0.26890  1.0000
  H   H1303     1.0  0.49475  0.00754  0.27556  1.0000
  H   H1304     1.0  0.46055  0.04998  0.25081  1.0000
  H   H1305     1.0  0.46925  0.06138  0.26621  1.0000
  H   H1306     1.0  0.44367  0.05629  0.27337  1.0000
  H   H1307     1.0  0.47258  0.01799  0.30780  1.0000
  H   H1308     1.0  0.47802  0.04264  0.29793  1.0000
  H   H1309     1.0  0.45212  0.03961  0.30612  1.0000
  H   H1310     1.0  0.43952  0.01188  0.31001  1.0000
  C   C1103     1.0  0.61699  0.04296  0.12250  1.0000
  H   H1311     1.0  0.60045  0.11831  0.20168  1.0000
  H   H1312     1.0  0.39804  0.05914  0.31266  1.0000
  C   C1104     1.0  0.62825  0.04929  0.16605  1.0000
  H   H1313     1.0  0.54907  0.99559  0.10119  1.0000
  H   H1314     1.0  0.41999  0.01353  0.18738  1.0000
  S   S300      1.0  0.50286  0.01059  0.10788  1.0000
  C   C1105     1.0  0.44565  0.98822  0.01914  1.0000
  H   H1315     1.0  0.35193  0.01609  0.35958  1.0000
  H   H1316     1.0  0.38844  0.00364  0.34631  1.0000
  C   C1106     1.0  0.60093  0.15022  0.17243  1.0000
  H   H1317     1.0  0.61808  0.13222  0.20366  1.0000
  H   H1318     1.0  0.40023  0.00778  0.41751  1.0000
  C   C1107     1.0  0.44812  0.11017  0.43358  1.0000
  H   H1319     1.0  0.61158  0.08136  0.12384  1.0000
  C   C1108     1.0  0.57862  0.04810  0.10730  1.0000
  H   H1320     1.0  0.59295  0.16232  0.16211  1.0000
  S   S301      1.0  0.64113  0.22205  0.30881  1.0000
  C   C1109     1.0  0.58335  0.20641  0.19301  1.0000
  C   C1110     1.0  0.64401  0.05756  0.15214  1.0000
  Fe  Fe148     1.0  0.37936  0.00097  0.00230  1.0000
  C   C1111     1.0  0.42563  0.00528  0.06910  1.0000
  C   C1112     1.0  0.54800  0.02719  0.16644  1.0000
  H   H1321     1.0  0.39721  0.03029  0.24577  1.0000
  H   H1322     1.0  0.64559  0.18527  0.45442  1.0000
  C   C1113     1.0  0.60311  0.18704  0.34334  1.0000
  H   H1323     1.0  0.63398  0.06857  0.46398  1.0000
  H   H1324     1.0  0.36653  0.03281  0.21425  1.0000
  N   N73       1.0  0.49249  0.12337  0.30413  1.0000
  C   C1114     1.0  0.50328  0.14006  0.30169  1.0000
  C   C1115     1.0  0.48636  0.12438  0.28520  1.0000
  C   C1116     1.0  0.47353  0.12675  0.31961  1.0000
  C   C1117     1.0  0.50609  0.10378  0.30907  1.0000
  C   C1118     1.0  0.49990  0.08830  0.32513  1.0000
  C   C1119     1.0  0.52586  0.09929  0.29696  1.0000
  C   C1120     1.0  0.51277  0.06957  0.32862  1.0000
  C   C1121     1.0  0.53861  0.08058  0.30066  1.0000
  C   C1122     1.0  0.53204  0.06569  0.31635  1.0000
  H   H1325     1.0  0.49303  0.15497  0.29916  1.0000
  H   H1326     1.0  0.50943  0.13887  0.31515  1.0000
  H   H1327     1.0  0.51619  0.14047  0.28856  1.0000
  H   H1328     1.0  0.49976  0.12232  0.27272  1.0000
  H   H1329     1.0  0.47661  0.13910  0.28046  1.0000
  H   H1330     1.0  0.47775  0.11237  0.28663  1.0000
  H   H1331     1.0  0.46399  0.14189  0.31600  1.0000
  H   H1332     1.0  0.46354  0.11591  0.32113  1.0000
  H   H1333     1.0  0.47709  0.12553  0.33443  1.0000
  H   H1334     1.0  0.48512  0.09019  0.33514  1.0000
  H   H1335     1.0  0.53145  0.11000  0.28410  1.0000
  H   H1336     1.0  0.50766  0.05794  0.34083  1.0000
  H   H1337     1.0  0.55351  0.07738  0.29095  1.0000
  H   H1338     1.0  0.54189  0.05107  0.31878  1.0000
  S   S302      1.0  0.45527  0.01141  0.08521  1.0000
  C   C1123     1.0  0.41979  0.02149  0.19879  1.0000
  C   C1124     1.0  0.59388  0.20665  0.20736  1.0000
  H   H1339     1.0  0.57385  0.15762  0.31068  1.0000
  H   H1340     1.0  0.62984  0.03320  0.17056  1.0000
  H   H1341     1.0  0.54156  0.99399  0.15795  1.0000
  C   C1125     1.0  0.35750  0.00018  0.35991  1.0000
  H   H1342     1.0  0.50645  0.23264  0.43551  1.0000
  C   C1126     1.0  0.60360  0.18869  0.21737  1.0000
  H   H1343     1.0  0.40399  0.00039  0.05415  1.0000
  C   C1127     1.0  0.39213  0.07869  0.46358  1.0000
  H   H1344     1.0  0.41040  0.01538  0.01551  1.0000
  C   C1128     1.0  0.43955  0.99651  0.08167  1.0000
  H   H1345     1.0  0.53199  0.99499  0.18373  1.0000
  S   S303      1.0  0.51080  0.19465  0.36646  1.0000
  H   H1346     1.0  0.60926  0.04579  0.13771  1.0000
  H   H1347     1.0  0.42279  0.05132  0.23733  1.0000
  C   C1129     1.0  0.60271  0.17036  0.21331  1.0000
  Fe  Fe149     1.0  0.47205  0.00298  0.11085  1.0000
  H   H1348     1.0  0.61501  0.06681  0.07491  1.0000
  H   H1349     1.0  0.61022  0.15708  0.22204  1.0000
  H   H1350     1.0  0.52853  0.07071  0.11574  1.0000
  C   C1130     1.0  0.39272  0.99194  0.24061  1.0000
  C   C1131     1.0  0.56761  0.00401  0.18919  1.0000
  S   S304      1.0  0.39323  0.02505  0.97908  1.0000
  C   C1132     1.0  0.35352  0.05437  0.41728  1.0000
  C   C1133     1.0  0.64212  0.07838  0.14676  1.0000
  C   C1134     1.0  0.60826  0.08280  0.16794  1.0000
  H   H1351     1.0  0.57572  0.22042  0.18529  1.0000
  H   H1352     1.0  0.55560  0.17516  0.36049  1.0000
  N   N74       1.0  0.55984  0.00653  0.17083  1.0000
  S   S305      1.0  0.59369  0.21760  0.29819  1.0000
  H   H1353     1.0  0.50570  0.98609  0.34421  1.0000
  N   N75       1.0  0.43917  0.02563  0.00727  1.0000
  S   S306      1.0  0.44893  0.01222  0.34961  1.0000
  H   H1354     1.0  0.44500  0.03465  0.17990  1.0000
  H   H1355     1.0  0.59439  0.13120  0.22204  1.0000
  H   H1356     1.0  0.38494  0.11334  0.42179  1.0000
  C   C1135     1.0  0.44517  0.99006  0.36687  1.0000
  H   H1357     1.0  0.44241  0.99342  0.24565  1.0000
  Fe  Fe150     1.0  0.62244  0.22959  0.28476  1.0000
  H   H1358     1.0  0.54343  0.09706  0.12129  1.0000
  C   C1136     1.0  0.42869  0.99525  0.29498  1.0000
  C   C1137     1.0  0.54633  0.99235  0.17231  1.0000
  C   C1138     1.0  0.43443  0.03358  0.19428  1.0000
  C   C1139     1.0  0.57713  0.00331  0.15371  1.0000
  S   S307      1.0  0.35393  0.98852  0.99853  1.0000
  H   H1359     1.0  0.54772  0.22375  0.30154  1.0000
  H   H1360     1.0  0.58116  0.21558  0.37890  1.0000
  H   H1361     1.0  0.36287  0.99154  0.40040  1.0000
  C   C1140     1.0  0.44650  0.98811  0.38673  1.0000
  H   H1362     1.0  0.58001  0.09306  0.11761  1.0000
  H   H1363     1.0  0.37579  0.07832  0.47062  1.0000
  H   H1364     1.0  0.58154  0.00875  0.30078  1.0000
  H   H1365     1.0  0.58094  0.00919  0.08972  1.0000
  H   H1366     1.0  0.39800  0.06534  0.45641  1.0000
  H   H1367     1.0  0.61356  0.02875  0.12112  1.0000
  C   C1141     1.0  0.41689  0.02835  0.01577  1.0000
  C   C1142     1.0  0.61775  0.07754  0.10875  1.0000
  H   H1368     1.0  0.39054  0.99840  0.25406  1.0000
  C   C1143     1.0  0.54490  0.06852  0.11431  1.0000
  H   H1369     1.0  0.61859  0.03873  0.47549  1.0000
  C   C1144     1.0  0.40513  0.99459  0.42799  1.0000
  H   H1370     1.0  0.40062  0.07658  0.47563  1.0000
  C   C1145     1.0  0.44272  0.02384  0.98607  1.0000
  C   C1146     1.0  0.40730  0.03091  0.23123  1.0000
  H   H1371     1.0  0.39194  0.11348  0.47262  1.0000
  C   C1147     1.0  0.42938  0.98978  0.27707  1.0000
  C   C1148     1.0  0.58039  0.99567  0.10098  1.0000
  C   C1149     1.0  0.40560  0.01993  0.21742  1.0000
  H   H1372     1.0  0.61165  0.18895  0.22865  1.0000
  C   C1150     1.0  0.41445  0.99357  0.06403  1.0000
  S   S308      1.0  0.62727  0.21712  0.25696  1.0000
  H   H1373     1.0  0.56819  0.21164  0.98876  1.0000
  C   C1151     1.0  0.56658  0.19579  0.37075  1.0000
  H   H1374     1.0  0.57166  0.00424  0.13994  1.0000
  H   H1375     1.0  0.46856  0.02107  0.03058  1.0000
  H   H1376     1.0  0.55757  0.03874  0.16322  1.0000
  H   H1377     1.0  0.57210  0.14261  0.35615  1.0000
  H   H1378     1.0  0.36642  0.10024  0.43953  1.0000
  H   H1379     1.0  0.38608  0.12926  0.44959  1.0000
  H   H1380     1.0  0.35012  0.22508  0.42177  1.0000
  H   H1381     1.0  0.53539  0.03042  0.17937  1.0000
  H   H1382     1.0  0.42508  0.00984  0.43523  1.0000
  C   C1152     1.0  0.66435  0.05338  0.46914  1.0000
  C   C1153     1.0  0.56231  0.98797  0.10744  1.0000
  C   C1154     1.0  0.66261  0.18245  0.45054  1.0000
  H   H1383     1.0  0.47381  0.23021  0.34541  1.0000
  C   C1155     1.0  0.34396  0.98685  0.36747  1.0000
  C   C1156     1.0  0.63466  0.03745  0.47519  1.0000
  C   C1157     1.0  0.44995  0.00720  0.01858  1.0000
  C   C1158     1.0  0.46462  0.00742  0.02950  1.0000
  H   H1384     1.0  0.59445  0.22075  0.21085  1.0000
  H   H1385     1.0  0.58704  0.98828  0.15690  1.0000
  H   H1386     1.0  0.35882  0.98613  0.13708  1.0000
  H   H1387     1.0  0.40441  0.98669  0.20294  1.0000
  H   H1388     1.0  0.64941  0.21419  0.46792  1.0000
  C   C1159     1.0  0.33392  0.02806  0.44860  1.0000
  C   C1160     1.0  0.56819  0.98927  0.22440  1.0000
  S   S309      1.0  0.48197  0.22902  0.40761  1.0000
  Fe  Fe151     1.0  0.66376  0.01152  0.13882  1.0000
  H   H1389     1.0  0.64514  0.09216  0.47258  1.0000
  C   C1161     1.0  0.66618  0.20823  0.46564  1.0000
  C   C1162     1.0  0.52171  0.23173  0.35546  1.0000
  C   C1163     1.0  0.66099  0.08694  0.47506  1.0000
  H   H1390     1.0  0.51459  0.23390  0.37051  1.0000
  Fe  Fe152     1.0  0.44884  0.23462  0.40602  1.0000
  H   H1391     1.0  0.44483  0.23303  0.47326  1.0000
  C   C1164     1.0  0.47414  0.98971  0.04031  1.0000
  Fe  Fe153     1.0  0.46734  0.98763  0.15531  1.0000
  H   H1392     1.0  0.48459  0.99034  0.04924  1.0000
  S   S310      1.0  0.66585  0.04265  0.14024  1.0000
  H   H1393     1.0  0.61075  0.18821  0.97915  1.0000
  C   C1165     1.0  0.36545  0.98704  0.09973  1.0000
  H   H1394     1.0  0.43444  0.98687  0.01155  1.0000
  H   H1395     1.0  0.35643  0.98608  0.44523  1.0000
  S   S311      1.0  0.61589  0.03027  0.56572  1.0000
  C   C1166     1.0  0.60266  0.19953  0.85424  1.0000
  H   H1396     1.0  0.35889  0.04150  0.76192  1.0000
  C   C1167     1.0  0.65010  0.18369  0.50213  1.0000
  C   C1168     1.0  0.52038  0.22665  0.48693  1.0000
  C   C1169     1.0  0.57814  0.99746  0.58154  1.0000
  C   C1170     1.0  0.51674  0.16109  0.51821  1.0000
  H   H1397     1.0  0.49242  0.10192  0.56122  1.0000
  H   H1398     1.0  0.39758  0.05493  0.71478  1.0000
  H   H1399     1.0  0.38109  0.21279  0.86447  1.0000
  C   C1171     1.0  0.60956  0.01225  0.61848  1.0000
  H   H1400     1.0  0.55112  0.13505  0.50654  1.0000
  C   C1172     1.0  0.37750  0.08305  0.73587  1.0000
  H   H1401     1.0  0.63905  0.14253  0.53672  1.0000
  H   H1402     1.0  0.54498  0.19339  0.84414  1.0000
  C   C1173     1.0  0.58908  0.23445  0.95741  1.0000
  H   H1403     1.0  0.61828  0.21048  0.80396  1.0000
  H   H1404     1.0  0.55616  0.21620  0.92710  1.0000
  S   S312      1.0  0.58084  0.06870  0.59834  1.0000
  C   C1174     1.0  0.63480  0.21765  0.97389  1.0000
  H   H1405     1.0  0.58955  0.04652  0.67896  1.0000
  C   C1175     1.0  0.55212  0.14602  0.51517  1.0000
  Fe  Fe154     1.0  0.66142  0.21562  0.86598  1.0000
  Fe  Fe155     1.0  0.60019  0.06152  0.56934  1.0000
  C   C1176     1.0  0.36323  0.20832  0.83645  1.0000
  H   H1406     1.0  0.63895  0.00583  0.48720  1.0000
  H   H1407     1.0  0.62477  0.06742  0.66606  1.0000
  C   C1177     1.0  0.38327  0.05161  0.72538  1.0000
  S   S313      1.0  0.38454  0.00368  0.71147  1.0000
  C   C1178     1.0  0.34761  0.03914  0.88931  1.0000
  H   H1408     1.0  0.61036  0.00086  0.61018  1.0000
  S   S314      1.0  0.47634  0.19080  0.93104  1.0000
  H   H1409     1.0  0.54237  0.00018  0.56689  1.0000
  H   H1410     1.0  0.43132  0.13561  0.94226  1.0000
  H   H1411     1.0  0.33863  0.99433  0.95658  1.0000
  S   S315      1.0  0.51314  0.01568  0.63130  1.0000
  H   H1412     1.0  0.52094  0.16925  0.55214  1.0000
  S   S316      1.0  0.51175  0.01405  0.68853  1.0000
  S   S317      1.0  0.56809  0.01015  0.69547  1.0000
  H   H1413     1.0  0.38470  0.03509  0.73003  1.0000
  H   H1414     1.0  0.49835  0.13269  0.53788  1.0000
  H   H1415     1.0  0.35606  0.17409  0.89471  1.0000
  H   H1416     1.0  0.63232  0.17945  0.53225  1.0000
  H   H1417     1.0  0.58861  0.07284  0.67509  1.0000
  C   C1179     1.0  0.65747  0.14194  0.50717  1.0000
  H   H1418     1.0  0.56527  0.13939  0.52249  1.0000
  C   C1180     1.0  0.60972  0.00051  0.68984  1.0000
  Fe  Fe156     1.0  0.35784  0.09186  0.85540  1.0000
  S   S318      1.0  0.36757  0.06614  0.83823  1.0000
  Fe  Fe157     1.0  0.37743  0.12014  0.86905  1.0000
  S   S319      1.0  0.65100  0.18633  0.87898  1.0000
  S   S320      1.0  0.40700  0.13144  0.86257  1.0000
  C   C1181     1.0  0.35828  0.05760  0.75480  1.0000
  C   C1182     1.0  0.46174  0.12939  0.92498  1.0000
  S   S321      1.0  0.37465  0.08785  0.88003  1.0000
  S   S322      1.0  0.36338  0.12322  0.84284  1.0000
  S   S323      1.0  0.48284  0.18700  0.88393  1.0000
  C   C1183     1.0  0.60720  0.04268  0.63968  1.0000
  Fe  Fe158     1.0  0.50243  0.18813  0.90449  1.0000
  S   S324      1.0  0.53308  0.16739  0.90292  1.0000
  Fe  Fe159     1.0  0.45642  0.19273  0.90942  1.0000
  S   S325      1.0  0.42814  0.17873  0.91869  1.0000
  H   H1419     1.0  0.61096  0.15155  0.48994  1.0000
  H   H1420     1.0  0.49898  0.20655  0.49793  1.0000
  C   C1184     1.0  0.37824  0.99622  0.94624  1.0000
  H   H1421     1.0  0.53923  0.99462  0.60104  1.0000
  C   C1185     1.0  0.51904  0.23342  0.96118  1.0000
  C   C1186     1.0  0.36041  0.00624  0.91886  1.0000
  C   C1187     1.0  0.38371  0.05384  0.94718  1.0000
  C   C1188     1.0  0.37024  0.06746  0.93601  1.0000
  C   C1189     1.0  0.40879  0.99910  0.71746  1.0000
  H   H1422     1.0  0.46649  0.06500  0.90561  1.0000
  H   H1423     1.0  0.40002  0.05233  0.94165  1.0000
  H   H1424     1.0  0.37613  0.07660  0.92206  1.0000
  C   C1190     1.0  0.41205  0.14530  0.87802  1.0000
  C   C1191     1.0  0.42994  0.15327  0.87199  1.0000
  C   C1192     1.0  0.43486  0.16385  0.88415  1.0000
  C   C1193     1.0  0.42191  0.16652  0.90248  1.0000
  C   C1194     1.0  0.40387  0.15871  0.90844  1.0000
  C   C1195     1.0  0.39895  0.14809  0.89628  1.0000
  H   H1425     1.0  0.44017  0.15114  0.85791  1.0000
  H   H1426     1.0  0.44880  0.16972  0.87944  1.0000
  H   H1427     1.0  0.39383  0.16064  0.92266  1.0000
  H   H1428     1.0  0.38519  0.14188  0.90116  1.0000
  C   C1196     1.0  0.34748  0.02416  0.92403  1.0000
  H   H1429     1.0  0.58179  0.00642  0.63910  1.0000
  C   C1197     1.0  0.36667  0.00553  0.89814  1.0000
  C   C1198     1.0  0.35207  0.05956  0.82521  1.0000
  C   C1199     1.0  0.35899  0.04191  0.81731  1.0000
  H   H1430     1.0  0.54761  0.15902  0.54946  1.0000
  H   H1431     1.0  0.55620  0.15968  0.50439  1.0000
  H   H1432     1.0  0.60294  0.09133  0.64301  1.0000
  H   H1433     1.0  0.37331  0.03230  0.81981  1.0000
  C   C1200     1.0  0.56079  0.20331  0.91993  1.0000
  C   C1201     1.0  0.34415  0.18675  0.89118  1.0000
  H   H1434     1.0  0.52295  0.21130  0.85271  1.0000
  H   H1435     1.0  0.59190  0.99474  0.56951  1.0000
  C   C1202     1.0  0.64577  0.15135  0.52279  1.0000
  H   H1436     1.0  0.66589  0.21849  0.97367  1.0000
  H   H1437     1.0  0.57384  0.06381  0.66298  1.0000
  H   H1438     1.0  0.38501  0.18706  0.87654  1.0000
  H   H1439     1.0  0.54190  0.20104  0.86735  1.0000
  S   S326      1.0  0.64130  0.23174  0.88972  1.0000
  C   C1203     1.0  0.34154  0.05771  0.96139  1.0000
  C   C1204     1.0  0.54591  0.19483  0.91643  1.0000
  H   H1440     1.0  0.52993  0.20106  0.92109  1.0000
  Fe  Fe160     1.0  0.51718  0.99952  0.66210  1.0000
  H   H1441     1.0  0.34654  0.06178  0.74545  1.0000
  H   H1442     1.0  0.57218  0.20569  0.87069  1.0000
  N   N76       1.0  0.59737  0.21974  0.97377  1.0000
  H   H1443     1.0  0.63209  0.19538  0.83441  1.0000
  H   H1444     1.0  0.37094  0.05682  0.71668  1.0000
  C   C1205     1.0  0.62445  0.02404  0.61275  1.0000
  H   H1445     1.0  0.60952  0.01532  0.68093  1.0000
  S   S327      1.0  0.34823  0.13211  0.88881  1.0000
  C   C1206     1.0  0.38260  0.19725  0.86226  1.0000
  C   C1207     1.0  0.56085  0.05537  0.60700  1.0000
  C   C1208     1.0  0.55170  0.05233  0.62730  1.0000
  C   C1209     1.0  0.53701  0.04016  0.63479  1.0000
  C   C1210     1.0  0.53046  0.03205  0.62180  1.0000
  C   C1211     1.0  0.53857  0.03628  0.60125  1.0000
  C   C1212     1.0  0.55419  0.04745  0.59391  1.0000
  H   H1446     1.0  0.55641  0.05889  0.63736  1.0000
  H   H1447     1.0  0.53062  0.03722  0.65063  1.0000
  H   H1448     1.0  0.53316  0.03048  0.59108  1.0000
  H   H1449     1.0  0.56095  0.05007  0.57814  1.0000
  C   C1213     1.0  0.59362  0.01528  0.63477  1.0000
  C   C1214     1.0  0.61121  0.99184  0.52934  1.0000
  Fe  Fe161     1.0  0.64298  0.04416  0.54957  1.0000
  S   S328      1.0  0.61886  0.10914  0.50554  1.0000
  S   S329      1.0  0.65727  0.19205  0.92189  1.0000
  C   C1215     1.0  0.60559  0.14924  0.50597  1.0000
  H   H1450     1.0  0.63478  0.04816  0.61775  1.0000
  Fe  Fe162     1.0  0.63260  0.20189  0.90413  1.0000
  Fe  Fe163     1.0  0.60694  0.03871  0.53612  1.0000
  C   C1216     1.0  0.60778  0.12976  0.51735  1.0000
  H   H1451     1.0  0.61657  0.07913  0.62262  1.0000
  H   H1452     1.0  0.34987  0.20704  0.83098  1.0000
  H   H1453     1.0  0.46317  0.08705  0.87414  1.0000
  H   H1454     1.0  0.54729  0.23414  0.86782  1.0000
  C   C1217     1.0  0.57314  0.21540  0.83869  1.0000
  C   C1218     1.0  0.46801  0.10500  0.90390  1.0000
  H   H1455     1.0  0.50189  0.16602  0.52814  1.0000
  N   N77       1.0  0.55083  0.22298  0.84088  1.0000
  H   H1456     1.0  0.58620  0.14109  0.56339  1.0000
  H   H1457     1.0  0.41183  0.08577  0.92312  1.0000
  Fe  Fe164     1.0  0.33375  0.13324  0.86339  1.0000
  N   N78       1.0  0.36438  0.19493  0.85613  1.0000
  C   C1219     1.0  0.41111  0.99514  0.73724  1.0000
  C   C1220     1.0  0.42613  0.99962  0.70192  1.0000
  C   C1221     1.0  0.59240  0.03023  0.64528  1.0000
  H   H1458     1.0  0.50448  0.21937  0.94592  1.0000
  C   C1222     1.0  0.58168  0.20678  0.85585  1.0000
  H   H1459     1.0  0.46695  0.14029  0.93016  1.0000
  H   H1460     1.0  0.60887  0.19331  0.86755  1.0000
  H   H1461     1.0  0.41263  0.08021  0.89962  1.0000
  H   H1462     1.0  0.38036  0.17053  0.84066  1.0000
  H   H1463     1.0  0.60345  0.17137  0.90181  1.0000
  H   H1464     1.0  0.53186  0.22104  0.96221  1.0000
  H   H1465     1.0  0.39146  0.00254  0.93633  1.0000
  C   C1223     1.0  0.58696  0.21641  0.81984  1.0000
  N   N79       1.0  0.60618  0.05908  0.65003  1.0000
  S   S330      1.0  0.57685  0.18308  0.54825  1.0000
  H   H1466     1.0  0.57939  0.03206  0.65742  1.0000
  H   H1467     1.0  0.55659  0.12504  0.55488  1.0000
  H   H1468     1.0  0.40976  0.10568  0.90160  1.0000
  S   S331      1.0  0.50169  0.22114  0.89516  1.0000
  C   C1224     1.0  0.41767  0.09017  0.90679  1.0000
  H   H1469     1.0  0.63995  0.20463  0.96699  1.0000
  Fe  Fe165     1.0  0.54293  0.99641  0.69229  1.0000
  H   H1470     1.0  0.44317  0.10873  0.87322  1.0000
  C   C1225     1.0  0.58156  0.19503  0.91447  1.0000
  H   H1471     1.0  0.63681  0.02186  0.59998  1.0000
  Fe  Fe166     1.0  0.61781  0.07995  0.52740  1.0000
  S   S332      1.0  0.62834  0.07467  0.55608  1.0000
  H   H1472     1.0  0.58244  0.00334  0.59288  1.0000
  Fe  Fe167     1.0  0.50028  0.98608  0.70595  1.0000
  C   C1226     1.0  0.34912  0.06949  0.94314  1.0000
  H   H1473     1.0  0.49061  0.12073  0.90584  1.0000
  C   C1227     1.0  0.37609  0.04207  0.96541  1.0000
  Fe  Fe168     1.0  0.47410  0.22401  0.91992  1.0000
  H   H1474     1.0  0.61589  0.20075  0.95329  1.0000
  C   C1228     1.0  0.57249  0.16947  0.90230  1.0000
  H   H1475     1.0  0.41845  0.11273  0.92997  1.0000
  C   C1229     1.0  0.44950  0.06763  0.90958  1.0000
  H   H1476     1.0  0.63899  0.05709  0.64477  1.0000
  C   C1230     1.0  0.47497  0.11847  0.91115  1.0000
  C   C1231     1.0  0.44659  0.09240  0.87949  1.0000
  H   H1477     1.0  0.56711  0.00990  0.57476  1.0000
  H   H1478     1.0  0.36536  0.02122  0.86789  1.0000
  H   H1479     1.0  0.36220  0.22425  0.83714  1.0000
  N   N80       1.0  0.44023  0.08850  0.90165  1.0000
  H   H1480     1.0  0.65769  0.98863  0.61250  1.0000
  H   H1481     1.0  0.58208  0.22342  0.80600  1.0000
  H   H1482     1.0  0.57657  0.22958  0.95352  1.0000
  H   H1483     1.0  0.57701  0.15630  0.89556  1.0000
  S   S333      1.0  0.58975  0.22170  0.49816  1.0000
  C   C1232     1.0  0.53516  0.16516  0.54105  1.0000
  C   C1233     1.0  0.58882  0.06056  0.66750  1.0000
  C   C1234     1.0  0.36037  0.02185  0.88366  1.0000
  H   H1484     1.0  0.54968  0.09437  0.57795  1.0000
  C   C1235     1.0  0.34764  0.03669  0.80595  1.0000
  C   C1236     1.0  0.44163  0.12667  0.93183  1.0000
  C   C1237     1.0  0.53861  0.10290  0.56904  1.0000
  C   C1238     1.0  0.66232  0.17457  0.48592  1.0000
  C   C1239     1.0  0.60069  0.12691  0.53806  1.0000
  C   C1240     1.0  0.58745  0.17805  0.90569  1.0000
  C   C1241     1.0  0.50640  0.10720  0.55960  1.0000
  C   C1242     1.0  0.36735  0.17405  0.85319  1.0000
  H   H1485     1.0  0.47889  0.09684  0.89326  1.0000
  C   C1243     1.0  0.54242  0.12056  0.55573  1.0000
  S   S334      1.0  0.59536  0.01576  0.52683  1.0000
  C   C1244     1.0  0.52828  0.13214  0.54383  1.0000
  H   H1486     1.0  0.35324  0.02316  0.79983  1.0000
  C   C1245     1.0  0.59633  0.16577  0.51528  1.0000
  Fe  Fe169     1.0  0.34416  0.10006  0.89773  1.0000
  C   C1246     1.0  0.58944  0.16293  0.53603  1.0000
  S   S335      1.0  0.63525  0.05041  0.51952  1.0000
  H   H1487     1.0  0.36620  0.08943  0.72609  1.0000
  H   H1488     1.0  0.43853  0.08496  0.87237  1.0000
  C   C1247     1.0  0.60376  0.07854  0.63588  1.0000
  H   H1489     1.0  0.42444  0.00278  0.68657  1.0000
  Fe  Fe170     1.0  0.35532  0.00232  0.73484  1.0000
  H   H1490     1.0  0.58951  0.08128  0.63012  1.0000
  H   H1491     1.0  0.35205  0.06654  0.76680  1.0000
  S   S336      1.0  0.59945  0.20606  0.91961  1.0000
  C   C1248     1.0  0.34598  0.19920  0.87192  1.0000
  N   N81       1.0  0.37866  0.06119  0.74306  1.0000
  H   H1492     1.0  0.62854  0.04097  0.66677  1.0000
  C   C1249     1.0  0.35498  0.04393  0.97245  1.0000
  N   N82       1.0  0.53281  0.15077  0.52979  1.0000
  C   C1250     1.0  0.39411  0.05348  0.75571  1.0000
  C   C1251     1.0  0.41306  0.04065  0.74973  1.0000
  C   C1252     1.0  0.39074  0.05936  0.77438  1.0000
  C   C1253     1.0  0.42733  0.03373  0.76202  1.0000
  C   C1254     1.0  0.40508  0.05231  0.78657  1.0000
  C   C1255     1.0  0.42330  0.03945  0.78044  1.0000
  H   H1493     1.0  0.39263  0.08637  0.72720  1.0000
  H   H1494     1.0  0.60187  0.11197  0.54696  1.0000
  C   C1256     1.0  0.61576  0.20056  0.83556  1.0000
  C   C1257     1.0  0.60793  0.20902  0.81842  1.0000
  H   H1495     1.0  0.37276  0.09133  0.74845  1.0000
  C   C1258     1.0  0.52066  0.09621  0.57098  1.0000
  C   C1259     1.0  0.44735  0.10245  0.90997  1.0000
  H   H1496     1.0  0.41727  0.03562  0.73566  1.0000
  H   H1497     1.0  0.37692  0.06938  0.77985  1.0000
  H   H1498     1.0  0.44161  0.02379  0.75719  1.0000
  H   H1499     1.0  0.40190  0.05677  0.80095  1.0000
  H   H1500     1.0  0.43435  0.03395  0.78996  1.0000
  C   C1260     1.0  0.53974  0.20650  0.85172  1.0000
  H   H1501     1.0  0.37103  0.16285  0.86643  1.0000
  H   H1502     1.0  0.51783  0.08249  0.58139  1.0000
  Fe  Fe171     1.0  0.48003  0.22031  0.87678  1.0000
  C   C1261     1.0  0.51004  0.12493  0.54619  1.0000
  H   H1503     1.0  0.37640  0.99258  0.89267  1.0000
  C   C1262     1.0  0.59167  0.14344  0.54736  1.0000
  H   H1504     1.0  0.34217  0.02594  0.93942  1.0000
  H   H1505     1.0  0.44496  0.06411  0.92617  1.0000
  C   C1263     1.0  0.64201  0.17216  0.52025  1.0000
  C   C1264     1.0  0.44571  0.99607  0.70606  1.0000
  H   H1506     1.0  0.36852  0.00802  0.95445  1.0000
  C   C1265     1.0  0.43440  0.11348  0.92447  1.0000
  S   S337      1.0  0.58844  0.06897  0.54112  1.0000
  S   S338      1.0  0.59528  0.23358  0.53884  1.0000
  H   H1507     1.0  0.35338  0.17122  0.85001  1.0000
  H   H1508     1.0  0.44462  0.05662  0.90359  1.0000
  C   C1266     1.0  0.62538  0.05604  0.65720  1.0000
  H   H1509     1.0  0.63796  0.00219  0.53004  1.0000
  H   H1510     1.0  0.39688  0.19370  0.85100  1.0000
  H   H1511     1.0  0.37710  0.20439  0.82486  1.0000
  C   C1267     1.0  0.62326  0.03906  0.62310  1.0000
  Fe  Fe172     1.0  0.57746  0.21468  0.53110  1.0000
  N   N83       1.0  0.36688  0.98942  0.93467  1.0000
  C   C1268     1.0  0.55169  0.17790  0.90760  1.0000
  H   H1512     1.0  0.59445  0.18062  0.50635  1.0000
  H   H1513     1.0  0.66466  0.06028  0.57483  1.0000
  H   H1514     1.0  0.39782  0.99507  0.74929  1.0000
  C   C1269     1.0  0.34112  0.04025  0.90943  1.0000
  H   H1515     1.0  0.53906  0.17926  0.53101  1.0000
  S   S339      1.0  0.35181  0.99438  0.76817  1.0000
  C   C1270     1.0  0.50622  0.21610  0.48497  1.0000
  S   S340      1.0  0.45209  0.22627  0.90048  1.0000
  C   C1271     1.0  0.60428  0.19998  0.96750  1.0000
  H   H1516     1.0  0.55555  0.98883  0.61835  1.0000
  C   C1272     1.0  0.64611  0.01887  0.48188  1.0000
  H   H1517     1.0  0.65972  0.12578  0.50906  1.0000
  H   H1518     1.0  0.34277  0.05173  0.87802  1.0000
  H   H1519     1.0  0.54826  0.21943  0.81212  1.0000
  H   H1520     1.0  0.59148  0.19483  0.96445  1.0000
  H   H1521     1.0  0.53119  0.98923  0.54187  1.0000
  C   C1273     1.0  0.43073  0.99140  0.74140  1.0000
  H   H1522     1.0  0.65988  0.08082  0.49133  1.0000
  H   H1523     1.0  0.45897  0.99652  0.69396  1.0000
  S   S341      1.0  0.47252  0.98678  0.73149  1.0000
  C   C1274     1.0  0.54424  0.23104  0.82153  1.0000
  H   H1524     1.0  0.64632  0.19974  0.50120  1.0000
  C   C1275     1.0  0.63165  0.98930  0.53060  1.0000
  C   C1276     1.0  0.50356  0.23245  0.95194  1.0000
  C   C1277     1.0  0.59135  0.99371  0.69845  1.0000
  H   H1525     1.0  0.64251  0.99367  0.68586  1.0000
  C   C1278     1.0  0.44809  0.99187  0.72582  1.0000
  H   H1526     1.0  0.52414  0.22508  0.50128  1.0000
  H   H1527     1.0  0.43251  0.98809  0.75672  1.0000
  H   H1528     1.0  0.51449  0.15136  0.50889  1.0000
  H   H1529     1.0  0.43525  0.03766  0.97698  1.0000
  C   C1279     1.0  0.33348  0.07180  0.82198  1.0000
  S   S342      1.0  0.66460  0.22917  0.83343  1.0000
  C   C1280     1.0  0.66569  0.15332  0.48899  1.0000
  C   C1281     1.0  0.62847  0.98817  0.69258  1.0000
  H   H1530     1.0  0.52093  0.17484  0.50768  1.0000
  H   H1531     1.0  0.58679  0.23375  0.61531  1.0000
  C   C1282     1.0  0.52921  0.23971  0.47041  1.0000
  H   H1532     1.0  0.61686  0.34849  0.20469  1.0000
  H   H1533     1.0  0.36235  0.25517  0.42280  1.0000
  S   S343      1.0  0.61872  0.26175  0.21297  1.0000
  C   C1283     1.0  0.34784  0.42827  0.98870  1.0000
  S   S344      1.0  0.55188  0.26250  0.30487  1.0000
  S   S345      1.0  0.60620  0.25990  0.27179  1.0000
  H   H1534     1.0  0.47356  0.38096  0.98383  1.0000
  Fe  Fe173     1.0  0.57219  0.35786  0.14303  1.0000
  S   S346      1.0  0.60287  0.35051  0.12325  1.0000
  S   S347      1.0  0.56254  0.33972  0.17387  1.0000
  Fe  Fe174     1.0  0.55823  0.39403  0.11235  1.0000
  S   S348      1.0  0.58801  0.38934  0.09035  1.0000
  S   S349      1.0  0.53374  0.41932  0.10236  1.0000
  Fe  Fe175     1.0  0.58545  0.35692  0.09868  1.0000
  S   S350      1.0  0.59396  0.33639  0.07621  1.0000
  Fe  Fe176     1.0  0.60222  0.38371  0.11701  1.0000
  S   S351      1.0  0.63099  0.39480  0.11548  1.0000
  S   S352      1.0  0.55464  0.36200  0.11900  1.0000
  S   S353      1.0  0.57249  0.39078  0.13851  1.0000
  S   S354      1.0  0.56355  0.28796  0.99684  1.0000
  S   S355      1.0  0.52973  0.32850  0.02909  1.0000
  C   C1284     1.0  0.46991  0.27844  0.31936  1.0000
  H   H1535     1.0  0.60029  0.41483  0.14510  1.0000
  N   N84       1.0  0.59659  0.27527  0.33462  1.0000
  C   C1285     1.0  0.34005  0.23964  0.42027  1.0000
  H   H1536     1.0  0.51932  0.37390  0.02983  1.0000
  C   C1286     1.0  0.47861  0.30866  0.28517  1.0000
  S   S356      1.0  0.41053  0.45168  0.00453  1.0000
  Fe  Fe177     1.0  0.54096  0.31661  0.00016  1.0000
  C   C1287     1.0  0.64435  0.25755  0.47058  1.0000
  C   C1288     1.0  0.47814  0.43205  0.08563  1.0000
  S   S357      1.0  0.35160  0.30726  0.44814  1.0000
  H   H1537     1.0  0.46133  0.46563  0.06269  1.0000
  H   H1538     1.0  0.47097  0.45704  0.03962  1.0000
  S   S358      1.0  0.35012  0.36679  0.43549  1.0000
  C   C1289     1.0  0.46707  0.45187  0.05608  1.0000
  C   C1290     1.0  0.37403  0.29608  0.43310  1.0000
  C   C1291     1.0  0.38264  0.30640  0.41447  1.0000
  C   C1292     1.0  0.40071  0.29710  0.40300  1.0000
  H   H1539     1.0  0.35083  0.43268  0.34997  1.0000
  Fe  Fe178     1.0  0.37793  0.45325  0.00308  1.0000
  C   C1293     1.0  0.38338  0.27632  0.43999  1.0000
  H   H1540     1.0  0.37552  0.32163  0.40902  1.0000
  H   H1541     1.0  0.40746  0.30527  0.38873  1.0000
  H   H1542     1.0  0.37671  0.26824  0.45436  1.0000
  H   H1543     1.0  0.41021  0.32426  0.42828  1.0000
  C   C1294     1.0  0.35965  0.41566  0.42846  1.0000
  H   H1544     1.0  0.61317  0.26684  0.46689  1.0000
  H   H1545     1.0  0.51317  0.44413  0.06829  1.0000
  H   H1546     1.0  0.53605  0.38288  0.05269  1.0000
  H   H1547     1.0  0.60996  0.24421  0.33476  1.0000
  C   C1295     1.0  0.42140  0.47514  0.08556  1.0000
  S   S359      1.0  0.36958  0.42559  0.99863  1.0000
  H   H1548     1.0  0.43805  0.29246  0.31768  1.0000
  H   H1549     1.0  0.47158  0.25400  0.36705  1.0000
  C   C1296     1.0  0.54046  0.24382  0.32224  1.0000
  C   C1297     1.0  0.51619  0.42949  0.12181  1.0000
  C   C1298     1.0  0.50195  0.44689  0.11710  1.0000
  C   C1299     1.0  0.48774  0.45541  0.13227  1.0000
  C   C1300     1.0  0.49451  0.29523  0.29285  1.0000
  C   C1301     1.0  0.50216  0.42932  0.15707  1.0000
  C   C1302     1.0  0.51619  0.42054  0.14181  1.0000
  H   H1550     1.0  0.50197  0.45395  0.10171  1.0000
  H   H1551     1.0  0.58781  0.26713  0.37573  1.0000
  H   H1552     1.0  0.52694  0.40688  0.14552  1.0000
  C   C1303     1.0  0.63051  0.41482  0.12692  1.0000
  C   C1304     1.0  0.61367  0.42152  0.14123  1.0000
  C   C1305     1.0  0.61438  0.43656  0.15100  1.0000
  H   H1553     1.0  0.60886  0.37703  0.15513  1.0000
  H   H1554     1.0  0.59497  0.28190  0.30350  1.0000
  C   C1306     1.0  0.60244  0.25409  0.16777  1.0000
  H   H1555     1.0  0.56716  0.28229  0.35437  1.0000
  C   C1307     1.0  0.60916  0.27672  0.34823  1.0000
  H   H1556     1.0  0.61452  0.38215  0.20017  1.0000
  N   N85       1.0  0.44398  0.26490  0.46342  1.0000
  C   C1308     1.0  0.57599  0.33510  0.06278  1.0000
  C   C1309     1.0  0.58274  0.32587  0.04603  1.0000
  C   C1310     1.0  0.56876  0.32392  0.03547  1.0000
  C   C1311     1.0  0.54782  0.33080  0.04185  1.0000
  C   C1312     1.0  0.54103  0.33967  0.05884  1.0000
  C   C1313     1.0  0.55505  0.34204  0.06913  1.0000
  H   H1557     1.0  0.59890  0.32041  0.04104  1.0000
  H   H1558     1.0  0.57418  0.31708  0.02240  1.0000
  H   H1559     1.0  0.52485  0.34491  0.06394  1.0000
  H   H1560     1.0  0.54961  0.34913  0.08202  1.0000
  H   H1561     1.0  0.36989  0.47803  0.09028  1.0000
  H   H1562     1.0  0.44694  0.25973  0.43381  1.0000
  H   H1563     1.0  0.53082  0.26057  0.34605  1.0000
  C   C1314     1.0  0.60342  0.28395  0.20259  1.0000
  C   C1315     1.0  0.61016  0.29345  0.18284  1.0000
  C   C1316     1.0  0.59778  0.31051  0.17379  1.0000
  C   C1317     1.0  0.57867  0.31836  0.18456  1.0000
  C   C1318     1.0  0.57206  0.30898  0.20438  1.0000
  C   C1319     1.0  0.58436  0.29184  0.21338  1.0000
  H   H1564     1.0  0.62481  0.28729  0.17435  1.0000
  H   H1565     1.0  0.60289  0.31736  0.15844  1.0000
  H   H1566     1.0  0.55728  0.31496  0.21279  1.0000
  H   H1567     1.0  0.57901  0.28462  0.22859  1.0000
  H   H1568     1.0  0.53061  0.25201  0.43913  1.0000
  C   C1320     1.0  0.50035  0.45168  0.06058  1.0000
  C   C1321     1.0  0.36743  0.43879  0.45296  1.0000
  C   C1322     1.0  0.66475  0.25867  0.46176  1.0000
  C   C1323     1.0  0.61202  0.25394  0.14787  1.0000
  H   H1569     1.0  0.64267  0.33629  0.19606  1.0000
  C   C1324     1.0  0.62835  0.38526  0.18971  1.0000
  H   H1570     1.0  0.62189  0.28824  0.43358  1.0000
  C   C1325     1.0  0.52170  0.39203  0.04949  1.0000
  C   C1326     1.0  0.61365  0.27350  0.38243  1.0000
  H   H1571     1.0  0.65997  0.25461  0.28207  1.0000
  C   C1327     1.0  0.45401  0.29251  0.31125  1.0000
  C   C1328     1.0  0.57583  0.28768  0.33922  1.0000
  H   H1572     1.0  0.52032  0.41156  0.06880  1.0000
  H   H1573     1.0  0.48195  0.32016  0.27210  1.0000
  C   C1329     1.0  0.60924  0.24463  0.98642  1.0000
  H   H1574     1.0  0.62823  0.41045  0.20242  1.0000
  H   H1575     1.0  0.37654  0.41178  0.42690  1.0000
  H   H1576     1.0  0.60118  0.35345  0.16678  1.0000
  H   H1577     1.0  0.62731  0.24520  0.14432  1.0000
  C   C1330     1.0  0.65582  0.37925  0.16132  1.0000
  H   H1578     1.0  0.41811  0.46122  0.09514  1.0000
  C   C1331     1.0  0.45658  0.26090  0.44381  1.0000
  H   H1579     1.0  0.47646  0.46853  0.12846  1.0000
  C   C1332     1.0  0.63386  0.27993  0.44142  1.0000
  H   H1580     1.0  0.60797  0.27007  0.39845  1.0000
  H   H1581     1.0  0.51169  0.47750  0.14648  1.0000
  S   S360      1.0  0.63220  0.46372  0.15937  1.0000
  H   H1582     1.0  0.63397  0.33376  0.15604  1.0000
  H   H1583     1.0  0.37112  0.42266  0.45721  1.0000
  C   C1333     1.0  0.44393  0.26167  0.34481  1.0000
  H   H1584     1.0  0.45322  0.41251  0.99425  1.0000
  H   H1585     1.0  0.44609  0.31794  0.28841  1.0000
  H   H1586     1.0  0.65778  0.44492  0.05415  1.0000
  C   C1334     1.0  0.49385  0.39868  0.03254  1.0000
  C   C1335     1.0  0.41769  0.48006  0.06609  1.0000
  N   N86       1.0  0.57198  0.29046  0.12102  1.0000
  C   C1336     1.0  0.56987  0.31171  0.12221  1.0000
  C   C1337     1.0  0.58302  0.28798  0.10044  1.0000
  C   C1338     1.0  0.55129  0.28611  0.12390  1.0000
  C   C1339     1.0  0.58247  0.27750  0.13681  1.0000
  C   C1340     1.0  0.57321  0.27734  0.15727  1.0000
  C   C1341     1.0  0.60228  0.26544  0.13253  1.0000
  C   C1342     1.0  0.58301  0.26565  0.17246  1.0000
  Fe  Fe179     1.0  0.33678  0.33957  0.43868  1.0000
  Fe  Fe180     1.0  0.65928  0.47944  0.15094  1.0000
  H   H1587     1.0  0.58511  0.31563  0.12003  1.0000
  H   H1588     1.0  0.56223  0.32196  0.11040  1.0000
  H   H1589     1.0  0.56075  0.31531  0.13680  1.0000
  H   H1590     1.0  0.58537  0.27225  0.09845  1.0000
  H   H1591     1.0  0.59804  0.29282  0.09644  1.0000
  H   H1592     1.0  0.57442  0.29755  0.08899  1.0000
  H   H1593     1.0  0.54101  0.29001  0.13791  1.0000
  H   H1594     1.0  0.54348  0.29502  0.11161  1.0000
  H   H1595     1.0  0.55211  0.26996  0.12424  1.0000
  H   H1596     1.0  0.55858  0.28678  0.16171  1.0000
  H   H1597     1.0  0.61076  0.26495  0.11746  1.0000
  H   H1598     1.0  0.38560  0.33209  0.45887  1.0000
  H   H1599     1.0  0.43654  0.29435  0.42938  1.0000
  S   S361      1.0  0.54620  0.25418  0.47229  1.0000
  H   H1600     1.0  0.60770  0.29786  0.31020  1.0000
  C   C1343     1.0  0.59464  0.25412  0.33727  1.0000
  C   C1344     1.0  0.60825  0.36526  0.16892  1.0000
  H   H1601     1.0  0.57590  0.26625  0.18796  1.0000
  C   C1345     1.0  0.34460  0.41191  0.98248  1.0000
  H   H1602     1.0  0.59751  0.37208  0.18124  1.0000
  H   H1603     1.0  0.37166  0.47883  0.46994  1.0000
  H   H1604     1.0  0.59387  0.25314  0.98913  1.0000
  H   H1605     1.0  0.43702  0.25893  0.33332  1.0000
  H   H1606     1.0  0.64128  0.28067  0.38531  1.0000
  Fe  Fe181     1.0  0.57774  0.24707  0.28381  1.0000
  H   H1607     1.0  0.45387  0.44410  0.05982  1.0000
  H   H1608     1.0  0.57667  0.30358  0.33820  1.0000
  S   S362      1.0  0.43326  0.26650  0.39552  1.0000
  C   C1346     1.0  0.60218  0.27202  0.36927  1.0000
  H   H1609     1.0  0.61034  0.24573  0.17960  1.0000
  C   C1347     1.0  0.40132  0.26696  0.42844  1.0000
  H   H1610     1.0  0.49108  0.42335  0.09279  1.0000
  C   C1348     1.0  0.48475  0.41555  0.04125  1.0000
  H   H1611     1.0  0.57390  0.46834  0.16629  1.0000
  H   H1612     1.0  0.65683  0.33952  0.15892  1.0000
  H   H1613     1.0  0.35482  0.46062  0.39693  1.0000
  C   C1349     1.0  0.64101  0.34624  0.15676  1.0000
  Fe  Fe182     1.0  0.60836  0.24666  0.24505  1.0000
  H   H1614     1.0  0.48652  0.39451  0.02266  1.0000
  H   H1615     1.0  0.66188  0.44553  0.12796  1.0000
  H   H1616     1.0  0.52659  0.45757  0.19643  1.0000
  C   C1350     1.0  0.48815  0.44696  0.15225  1.0000
  S   S363      1.0  0.57832  0.23614  0.25606  1.0000
  N   N87       1.0  0.48497  0.43894  0.06386  1.0000
  C   C1351     1.0  0.35813  0.48067  0.44509  1.0000
  Fe  Fe183     1.0  0.39723  0.47056  0.02827  1.0000
  N   N88       1.0  0.46594  0.26252  0.33718  1.0000
  C   C1352     1.0  0.34693  0.25658  0.42084  1.0000
  H   H1617     1.0  0.65663  0.24895  0.98844  1.0000
  H   H1618     1.0  0.33631  0.45915  0.99135  1.0000
  H   H1619     1.0  0.53631  0.44901  0.15240  1.0000
  C   C1353     1.0  0.65362  0.40647  0.17790  1.0000
  C   C1354     1.0  0.52390  0.24189  0.45194  1.0000
  H   H1620     1.0  0.44157  0.24935  0.35802  1.0000
  H   H1621     1.0  0.50232  0.42259  0.17254  1.0000
  S   S364      1.0  0.47237  0.45939  0.17107  1.0000
  H   H1622     1.0  0.62012  0.27226  0.30806  1.0000
  H   H1623     1.0  0.46773  0.24648  0.44551  1.0000
  H   H1624     1.0  0.56630  0.28738  0.32869  1.0000
  H   H1625     1.0  0.51015  0.45531  0.18140  1.0000
  C   C1355     1.0  0.47660  0.24261  0.33237  1.0000
  C   C1356     1.0  0.60533  0.28215  0.31319  1.0000
  C   C1357     1.0  0.63243  0.27948  0.37508  1.0000
  H   H1626     1.0  0.66441  0.44962  0.08536  1.0000
  C   C1358     1.0  0.63991  0.28385  0.35457  1.0000
  H   H1627     1.0  0.49024  0.26646  0.34928  1.0000
  S   S365      1.0  0.34946  0.39831  0.38214  1.0000
  C   C1359     1.0  0.35779  0.44866  0.43665  1.0000
  H   H1628     1.0  0.40831  0.25173  0.43385  1.0000
  C   C1360     1.0  0.63171  0.44535  0.14624  1.0000
  C   C1361     1.0  0.37240  0.44967  0.46469  1.0000
  C   C1362     1.0  0.64840  0.43897  0.13163  1.0000
  H   H1629     1.0  0.43508  0.27565  0.35011  1.0000
  C   C1363     1.0  0.33557  0.42950  0.35386  1.0000
  C   C1364     1.0  0.63608  0.40144  0.19119  1.0000
  C   C1365     1.0  0.62892  0.26790  0.46028  1.0000
  C   C1366     1.0  0.64480  0.24258  0.98608  1.0000
  H   H1630     1.0  0.47083  0.44489  0.09342  1.0000
  H   H1631     1.0  0.55378  0.44652  0.16791  1.0000
  C   C1367     1.0  0.64786  0.42359  0.12218  1.0000
  C   C1368     1.0  0.47372  0.26602  0.35355  1.0000
  C   C1369     1.0  0.51266  0.40869  0.05846  1.0000
  S   S366      1.0  0.40843  0.46292  0.05747  1.0000
  H   H1632     1.0  0.46589  0.27886  0.46925  1.0000
  C   C1370     1.0  0.42849  0.28370  0.46188  1.0000
  C   C1371     1.0  0.41016  0.27739  0.40998  1.0000
  C   C1372     1.0  0.51233  0.38701  0.03657  1.0000
  H   H1633     1.0  0.62144  0.32911  0.19097  1.0000
  H   H1634     1.0  0.47035  0.42380  0.03762  1.0000
  C   C1373     1.0  0.49410  0.42123  0.05432  1.0000
  H   H1635     1.0  0.37814  0.44317  0.40008  1.0000
  H   H1636     1.0  0.60163  0.44112  0.16255  1.0000
  N   N89       1.0  0.62899  0.35707  0.17302  1.0000
  C   C1374     1.0  0.62745  0.34216  0.19201  1.0000
  C   C1375     1.0  0.65583  0.23794  0.31225  1.0000
  N   N90       1.0  0.53187  0.47450  0.16639  1.0000
  C   C1376     1.0  0.63795  0.37367  0.17468  1.0000
  C   C1377     1.0  0.54529  0.45759  0.15721  1.0000
  H   H1637     1.0  0.46573  0.27271  0.43617  1.0000
  H   H1638     1.0  0.58620  0.25216  0.32654  1.0000
  C   C1378     1.0  0.36128  0.44471  0.40250  1.0000
  S   S367      1.0  0.36461  0.46968  0.02866  1.0000
  H   H1639     1.0  0.66103  0.41828  0.11132  1.0000
  C   C1379     1.0  0.62860  0.28240  0.34125  1.0000
  H   H1640     1.0  0.55637  0.46301  0.14363  1.0000
  H   H1641     1.0  0.46552  0.28052  0.35811  1.0000
  H   H1642     1.0  0.35543  0.39785  0.98389  1.0000
  S   S368      1.0  0.51938  0.30955  0.98464  1.0000
  C   C1380     1.0  0.53094  0.24676  0.34166  1.0000
  H   H1643     1.0  0.63562  0.28561  0.32559  1.0000
  H   H1644     1.0  0.46680  0.42218  0.08871  1.0000
  C   C1381     1.0  0.56455  0.48151  0.17158  1.0000
  H   H1645     1.0  0.65472  0.28823  0.34894  1.0000
  C   C1382     1.0  0.45842  0.30734  0.29438  1.0000
  C   C1383     1.0  0.65429  0.28098  0.43256  1.0000
  N   N91       1.0  0.35232  0.43768  0.42384  1.0000
  C   C1384     1.0  0.62447  0.25217  0.99039  1.0000
  S   S369      1.0  0.66028  0.29606  0.40905  1.0000
  H   H1646     1.0  0.47151  0.23961  0.31980  1.0000
  C   C1385     1.0  0.45805  0.26588  0.47580  1.0000
  H   H1647     1.0  0.58627  0.24845  0.35246  1.0000
  Fe  Fe184     1.0  0.40790  0.48079  0.98268  1.0000
  H   H1648     1.0  0.64174  0.35635  0.14183  1.0000
  H   H1649     1.0  0.50700  0.45590  0.04439  1.0000
  C   C1386     1.0  0.51806  0.46592  0.18457  1.0000
  H   H1650     1.0  0.51027  0.29626  0.28576  1.0000
  C   C1387     1.0  0.41159  0.31448  0.44255  1.0000
  C   C1388     1.0  0.42673  0.29711  0.44344  1.0000
  C   C1389     1.0  0.49028  0.28041  0.30970  1.0000
  H   H1651     1.0  0.49358  0.46578  0.06650  1.0000
  C   C1390     1.0  0.39772  0.31895  0.45978  1.0000
  H   H1652     1.0  0.65924  0.41940  0.17869  1.0000
  H   H1653     1.0  0.50321  0.27054  0.31512  1.0000
  H   H1654     1.0  0.37970  0.44187  0.47713  1.0000
  H   H1655     1.0  0.49343  0.24127  0.32805  1.0000
  H   H1656     1.0  0.62055  0.26611  0.99592  1.0000
  H   H1657     1.0  0.35228  0.40896  0.44379  1.0000
  H   H1658     1.0  0.35594  0.40799  0.41809  1.0000
  C   C1391     1.0  0.43373  0.24757  0.47297  1.0000
  H   H1659     1.0  0.42211  0.24707  0.46475  1.0000
  C   C1392     1.0  0.66353  0.39533  0.16309  1.0000
  H   H1660     1.0  0.34016  0.28805  0.41942  1.0000
  C   C1393     1.0  0.35310  0.46996  0.43323  1.0000
  H   H1661     1.0  0.35830  0.43592  0.39261  1.0000
  H   H1662     1.0  0.38927  0.47906  0.23027  1.0000
  C   C1394     1.0  0.66345  0.25251  0.29664  1.0000
  C   C1395     1.0  0.36779  0.47052  0.46075  1.0000
  H   H1663     1.0  0.34544  0.47852  0.42138  1.0000
  S   S370      1.0  0.34940  0.48521  0.25509  1.0000
  H   H1664     1.0  0.66380  0.37189  0.14894  1.0000
  H   H1665     1.0  0.50578  0.47767  0.19089  1.0000
  Fe  Fe185     1.0  0.33478  0.37863  0.40934  1.0000
  S   S371      1.0  0.37650  0.48092  0.97931  1.0000
  S   S372      1.0  0.53823  0.25173  0.97937  1.0000
  C   C1396     1.0  0.46229  0.41281  0.97920  1.0000
  C   C1397     1.0  0.33386  0.44644  0.98671  1.0000
  C   C1398     1.0  0.33404  0.27539  0.41889  1.0000
  H   H1666     1.0  0.43236  0.48405  0.10764  1.0000
  Fe  Fe186     1.0  0.54350  0.28256  0.97871  1.0000
  H   H1667     1.0  0.47014  0.25207  0.47702  1.0000
  Fe  Fe187     1.0  0.60240  0.34070  0.65489  1.0000
  Fe  Fe188     1.0  0.57634  0.37088  0.62906  1.0000
  S   S373      1.0  0.60102  0.37108  0.60122  1.0000
  S   S374      1.0  0.54396  0.38708  0.63104  1.0000
  Fe  Fe189     1.0  0.60706  0.33752  0.61132  1.0000
  S   S375      1.0  0.61644  0.31325  0.59237  1.0000
  S   S376      1.0  0.58073  0.33748  0.63761  1.0000
  S   S377      1.0  0.59578  0.37430  0.64869  1.0000
  S   S378      1.0  0.58096  0.34741  0.84820  1.0000
  H   H1668     1.0  0.60383  0.37107  0.71072  1.0000
  H   H1669     1.0  0.53169  0.40680  0.69942  1.0000
  H   H1670     1.0  0.58801  0.30433  0.51604  1.0000
  H   H1671     1.0  0.42108  0.48242  0.74362  1.0000
  N   N92       1.0  0.63494  0.30124  0.83922  1.0000
  H   H1672     1.0  0.52348  0.42087  0.92624  1.0000
  H   H1673     1.0  0.59059  0.25489  0.84512  1.0000
  Fe  Fe190     1.0  0.60516  0.24266  0.50576  1.0000
  H   H1674     1.0  0.57022  0.29828  0.63844  1.0000
  C   C1399     1.0  0.59327  0.27915  0.56770  1.0000
  H   H1675     1.0  0.36895  0.35911  0.92450  1.0000
  H   H1676     1.0  0.49808  0.26859  0.81365  1.0000
  S   S379      1.0  0.46805  0.24839  0.93780  1.0000
  S   S380      1.0  0.43235  0.45495  0.82963  1.0000
  H   H1677     1.0  0.62296  0.26206  0.78396  1.0000
  H   H1678     1.0  0.49750  0.38461  0.91609  1.0000
  Fe  Fe191     1.0  0.44577  0.48099  0.81014  1.0000
  C   C1400     1.0  0.47399  0.43142  0.94623  1.0000
  C   C1401     1.0  0.48698  0.24844  0.95049  1.0000
  C   C1402     1.0  0.35424  0.43469  0.92197  1.0000
  Fe  Fe192     1.0  0.43402  0.46784  0.85527  1.0000
  S   S381      1.0  0.44160  0.44697  0.88315  1.0000
  H   H1679     1.0  0.62242  0.33300  0.83198  1.0000
  Fe  Fe193     1.0  0.38228  0.48340  0.51399  1.0000
  Fe  Fe194     1.0  0.53725  0.32536  0.95655  1.0000
  C   C1403     1.0  0.57384  0.28368  0.63447  1.0000
  S   S382      1.0  0.52096  0.34464  0.93267  1.0000
  Fe  Fe195     1.0  0.37233  0.44231  0.53101  1.0000
  H   H1680     1.0  0.52660  0.29145  0.87294  1.0000
  C   C1404     1.0  0.65952  0.28833  0.88481  1.0000
  H   H1681     1.0  0.59868  0.26528  0.56216  1.0000
  H   H1682     1.0  0.50551  0.30226  0.89039  1.0000
  H   H1683     1.0  0.62246  0.25681  0.67381  1.0000
  C   C1405     1.0  0.58874  0.33175  0.70529  1.0000
  Fe  Fe196     1.0  0.38982  0.46337  0.55525  1.0000
  S   S383      1.0  0.40862  0.45707  0.57920  1.0000
  S   S384      1.0  0.37244  0.41262  0.52322  1.0000
  S   S385      1.0  0.40132  0.45406  0.52527  1.0000
  S   S386      1.0  0.61146  0.30602  0.96032  1.0000
  C   C1406     1.0  0.56694  0.35038  0.73771  1.0000
  H   H1684     1.0  0.45002  0.26741  0.49130  1.0000
  C   C1407     1.0  0.62627  0.28463  0.51921  1.0000
  H   H1685     1.0  0.49373  0.38106  0.95031  1.0000
  H   H1686     1.0  0.65543  0.24546  0.79490  1.0000
  H   H1687     1.0  0.51701  0.39587  0.89829  1.0000
  S   S387      1.0  0.58433  0.32781  0.79840  1.0000
  C   C1408     1.0  0.49764  0.29282  0.82777  1.0000
  S   S388      1.0  0.54913  0.23879  0.53092  1.0000
  H   H1688     1.0  0.39157  0.40474  0.87285  1.0000
  H   H1689     1.0  0.49991  0.47376  0.60866  1.0000
  C   C1409     1.0  0.59583  0.27218  0.89377  1.0000
  C   C1410     1.0  0.52153  0.26447  0.90617  1.0000
  C   C1411     1.0  0.34368  0.42608  0.86524  1.0000
  C   C1412     1.0  0.56298  0.29438  0.89861  1.0000
  H   H1690     1.0  0.47457  0.38847  0.76281  1.0000
  C   C1413     1.0  0.48795  0.42779  0.77334  1.0000
  C   C1414     1.0  0.63962  0.30153  0.85850  1.0000
  H   H1691     1.0  0.42593  0.24798  0.48874  1.0000
  H   H1692     1.0  0.61500  0.32669  0.86521  1.0000
  C   C1415     1.0  0.35950  0.39232  0.50148  1.0000
  C   C1416     1.0  0.36800  0.44688  0.84553  1.0000
  C   C1417     1.0  0.38367  0.43295  0.85333  1.0000
  H   H1693     1.0  0.39911  0.43552  0.84888  1.0000
  H   H1694     1.0  0.55463  0.30915  0.90045  1.0000
  H   H1695     1.0  0.63523  0.41316  0.67559  1.0000
  C   C1418     1.0  0.48524  0.39538  0.95381  1.0000
  C   C1419     1.0  0.43752  0.45943  0.90300  1.0000
  H   H1696     1.0  0.43134  0.26179  0.92022  1.0000
  H   H1697     1.0  0.63213  0.46715  0.66432  1.0000
  H   H1698     1.0  0.42031  0.36894  0.95264  1.0000
  C   C1420     1.0  0.42752  0.45946  0.93863  1.0000
  C   C1421     1.0  0.43045  0.44982  0.92256  1.0000
  H   H1699     1.0  0.62714  0.24715  0.65172  1.0000
  C   C1422     1.0  0.54838  0.41522  0.58076  1.0000
  C   C1423     1.0  0.34645  0.38976  0.49023  1.0000
  H   H1700     1.0  0.42724  0.43492  0.92524  1.0000
  H   H1701     1.0  0.52457  0.30631  0.92046  1.0000
  C   C1424     1.0  0.58416  0.29093  0.89627  1.0000
  H   H1702     1.0  0.37935  0.35205  0.89042  1.0000
  H   H1703     1.0  0.65304  0.36644  0.72352  1.0000
  H   H1704     1.0  0.48905  0.46622  0.56186  1.0000
  S   S389      1.0  0.60452  0.32116  0.68503  1.0000
  H   H1705     1.0  0.34374  0.44873  0.91690  1.0000
  H   H1706     1.0  0.42114  0.45767  0.61478  1.0000
  S   S390      1.0  0.35414  0.47114  0.51769  1.0000
  H   H1707     1.0  0.57345  0.35738  0.68714  1.0000
  H   H1708     1.0  0.47075  0.41604  0.90784  1.0000
  H   H1709     1.0  0.57588  0.27285  0.67886  1.0000
  C   C1425     1.0  0.41106  0.38291  0.94674  1.0000
  C   C1426     1.0  0.41097  0.31192  0.91309  1.0000
  C   C1427     1.0  0.64743  0.32725  0.49536  1.0000
  H   H1710     1.0  0.53046  0.39423  0.58040  1.0000
  C   C1428     1.0  0.62423  0.46105  0.63087  1.0000
  H   H1711     1.0  0.59146  0.30284  0.89674  1.0000
  H   H1712     1.0  0.33923  0.44045  0.50685  1.0000
  C   C1429     1.0  0.40150  0.32529  0.89792  1.0000
  H   H1713     1.0  0.50452  0.26762  0.91014  1.0000
  C   C1430     1.0  0.57535  0.35016  0.70208  1.0000
  H   H1714     1.0  0.42045  0.27596  0.93919  1.0000
  C   C1431     1.0  0.56405  0.34813  0.87147  1.0000
  C   C1432     1.0  0.57157  0.34689  0.88849  1.0000
  C   C1433     1.0  0.55839  0.34592  0.90737  1.0000
  C   C1434     1.0  0.53751  0.34696  0.90914  1.0000
  C   C1435     1.0  0.52983  0.34911  0.89203  1.0000
  C   C1436     1.0  0.54313  0.34930  0.87328  1.0000
  H   H1715     1.0  0.58766  0.34623  0.88720  1.0000
  H   H1716     1.0  0.56439  0.34433  0.92054  1.0000
  H   H1717     1.0  0.51369  0.34990  0.89333  1.0000
  H   H1718     1.0  0.53716  0.35034  0.86024  1.0000
  C   C1437     1.0  0.57943  0.31496  0.58249  1.0000
  C   C1438     1.0  0.56669  0.30785  0.57408  1.0000
  H   H1719     1.0  0.57402  0.32887  0.58800  1.0000
  H   H1720     1.0  0.55146  0.31633  0.57328  1.0000
  C   C1439     1.0  0.54136  0.41190  0.63336  1.0000
  C   C1440     1.0  0.52191  0.42296  0.63960  1.0000
  C   C1441     1.0  0.51945  0.44319  0.64051  1.0000
  C   C1442     1.0  0.53639  0.45244  0.63494  1.0000
  C   C1443     1.0  0.55594  0.44124  0.62919  1.0000
  C   C1444     1.0  0.55846  0.42092  0.62851  1.0000
  H   H1721     1.0  0.50878  0.41583  0.64365  1.0000
  H   H1722     1.0  0.50446  0.45160  0.64541  1.0000
  H   H1723     1.0  0.56910  0.44835  0.62493  1.0000
  H   H1724     1.0  0.57352  0.41241  0.62363  1.0000
  C   C1445     1.0  0.59057  0.32228  0.72484  1.0000
  H   H1725     1.0  0.38683  0.40343  0.90845  1.0000
  C   C1446     1.0  0.44640  0.29619  0.91228  1.0000
  S   S391      1.0  0.37295  0.46916  0.82911  1.0000
  C   C1447     1.0  0.58980  0.26851  0.64110  1.0000
  C   C1448     1.0  0.64459  0.41283  0.66081  1.0000
  S   S392      1.0  0.55654  0.33497  0.97236  1.0000
  H   H1726     1.0  0.62438  0.28999  0.65122  1.0000
  C   C1449     1.0  0.64768  0.30287  0.89560  1.0000
  H   H1727     1.0  0.47672  0.25897  0.87731  1.0000
  C   C1450     1.0  0.52242  0.29760  0.88689  1.0000
  C   C1451     1.0  0.58804  0.28157  0.67079  1.0000
  C   C1452     1.0  0.62123  0.30520  0.48775  1.0000
  C   C1453     1.0  0.57360  0.29002  0.56649  1.0000
  H   H1728     1.0  0.60526  0.24228  0.67156  1.0000
  C   C1454     1.0  0.59921  0.30423  0.58342  1.0000
  C   C1455     1.0  0.37938  0.41549  0.86693  1.0000
  H   H1729     1.0  0.48617  0.44176  0.62385  1.0000
  H   H1730     1.0  0.45877  0.28321  0.90880  1.0000
  H   H1731     1.0  0.41181  0.30758  0.94461  1.0000
  C   C1456     1.0  0.64560  0.33259  0.53383  1.0000
  H   H1732     1.0  0.64075  0.34482  0.67072  1.0000
  C   C1457     1.0  0.40496  0.31679  0.93244  1.0000
  C   C1458     1.0  0.38995  0.33359  0.93648  1.0000
  H   H1733     1.0  0.52562  0.39579  0.73539  1.0000
  C   C1459     1.0  0.63906  0.40396  0.64755  1.0000
  Fe  Fe197     1.0  0.56740  0.33710  0.82755  1.0000
  Fe  Fe198     1.0  0.56842  0.25859  0.53554  1.0000
  S   S393      1.0  0.62942  0.33822  0.62942  1.0000
  H   H1734     1.0  0.52863  0.31156  0.88344  1.0000
  H   H1735     1.0  0.50333  0.30227  0.81392  1.0000
  C   C1460     1.0  0.62302  0.25710  0.79971  1.0000
  H   H1736     1.0  0.62125  0.27781  0.57681  1.0000
  S   S394      1.0  0.49773  0.32296  0.84625  1.0000
  H   H1737     1.0  0.50042  0.27937  0.97363  1.0000
  S   S395      1.0  0.57939  0.26890  0.50261  1.0000
  S   S396      1.0  0.53971  0.35509  0.81614  1.0000
  H   H1738     1.0  0.39078  0.42882  0.95758  1.0000
  H   H1739     1.0  0.60073  0.30793  0.72747  1.0000
  H   H1740     1.0  0.62551  0.39748  0.65211  1.0000
  S   S397      1.0  0.54085  0.31634  0.79693  1.0000
  C   C1461     1.0  0.34116  0.42627  0.50245  1.0000
  S   S398      1.0  0.63851  0.24334  0.49458  1.0000
  H   H1741     1.0  0.61034  0.29563  0.82880  1.0000
  C   C1462     1.0  0.49290  0.29971  0.84573  1.0000
  C   C1463     1.0  0.34808  0.44320  0.85118  1.0000
  H   H1742     1.0  0.62568  0.28350  0.53528  1.0000
  C   C1464     1.0  0.56467  0.35956  0.71822  1.0000
  C   C1465     1.0  0.35929  0.41234  0.87333  1.0000
  H   H1743     1.0  0.52575  0.25827  0.89227  1.0000
  H   H1744     1.0  0.44120  0.27587  0.88670  1.0000
  H   H1745     1.0  0.40529  0.32316  0.88266  1.0000
  C   C1466     1.0  0.63482  0.32124  0.82596  1.0000
  H   H1746     1.0  0.45910  0.41252  0.76610  1.0000
  H   H1747     1.0  0.48137  0.29294  0.87738  1.0000
  H   H1748     1.0  0.50103  0.43578  0.76776  1.0000
  H   H1749     1.0  0.65429  0.29525  0.95624  1.0000
  N   N93       1.0  0.49758  0.41465  0.91883  1.0000
  N   N94       1.0  0.60179  0.27224  0.65410  1.0000
  C   C1467     1.0  0.48239  0.26843  0.86346  1.0000
  C   C1468     1.0  0.57964  0.33154  0.74103  1.0000
  H   H1750     1.0  0.60679  0.30034  0.63500  1.0000
  H   H1751     1.0  0.56224  0.43878  0.58275  1.0000
  N   N95       1.0  0.53004  0.28274  0.90350  1.0000
  S   S399      1.0  0.36252  0.44858  0.56217  1.0000
  H   H1752     1.0  0.65473  0.46410  0.64506  1.0000
  C   C1469     1.0  0.60599  0.28625  0.57610  1.0000
  C   C1470     1.0  0.55266  0.27895  0.89921  1.0000
  C   C1471     1.0  0.51416  0.40757  0.72943  1.0000
  H   H1753     1.0  0.63348  0.24872  0.92562  1.0000
  H   H1754     1.0  0.36055  0.46846  0.92816  1.0000
  H   H1755     1.0  0.52899  0.28127  0.93453  1.0000
  H   H1756     1.0  0.47725  0.43994  0.90520  1.0000
  H   H1757     1.0  0.52292  0.42773  0.90007  1.0000
  S   S400      1.0  0.55489  0.30899  0.83968  1.0000
  H   H1758     1.0  0.49181  0.42356  0.88884  1.0000
  Fe  Fe199     1.0  0.55533  0.34343  0.78787  1.0000
  H   H1759     1.0  0.37160  0.38007  0.50553  1.0000
  C   C1472     1.0  0.43001  0.29002  0.88877  1.0000
  C   C1473     1.0  0.62767  0.31589  0.87011  1.0000
  H   H1760     1.0  0.64906  0.32567  0.48015  1.0000
  H   H1761     1.0  0.65105  0.33313  0.71786  1.0000
  H   H1762     1.0  0.51981  0.38729  0.92352  1.0000
  C   C1474     1.0  0.60477  0.25313  0.83419  1.0000
  H   H1763     1.0  0.42181  0.45209  0.95369  1.0000
  Fe  Fe200     1.0  0.52821  0.32623  0.82630  1.0000
  C   C1475     1.0  0.49452  0.27383  0.82760  1.0000
  S   S401      1.0  0.55732  0.28198  0.55545  1.0000
  Fe  Fe201     1.0  0.56859  0.30144  0.80957  1.0000
  N   N96       1.0  0.49059  0.45584  0.59284  1.0000
  H   H1764     1.0  0.43509  0.48258  0.62468  1.0000
  H   H1765     1.0  0.33594  0.45368  0.84496  1.0000
  H   H1766     1.0  0.41502  0.27978  0.49380  1.0000
  C   C1476     1.0  0.51062  0.44239  0.58810  1.0000
  C   C1477     1.0  0.51156  0.42279  0.58517  1.0000
  C   C1478     1.0  0.63319  0.32096  0.53089  1.0000
  S   S402      1.0  0.58180  0.26975  0.80575  1.0000
  H   H1767     1.0  0.58636  0.47674  0.63834  1.0000
  H   H1768     1.0  0.34643  0.42748  0.93684  1.0000
  N   N97       1.0  0.63664  0.36175  0.70326  1.0000
  Fe  Fe202     1.0  0.40232  0.47641  0.83059  1.0000
  C   C1479     1.0  0.58301  0.24755  0.62101  1.0000
  S   S403      1.0  0.47139  0.47945  0.78290  1.0000
  H   H1769     1.0  0.66561  0.28964  0.82457  1.0000
  N   N98       1.0  0.42664  0.29385  0.90931  1.0000
  C   C1480     1.0  0.46256  0.43095  0.96573  1.0000
  H   H1770     1.0  0.47351  0.44589  0.93633  1.0000
  H   H1771     1.0  0.38540  0.33690  0.95142  1.0000
  C   C1481     1.0  0.46337  0.48103  0.76078  1.0000
  H   H1772     1.0  0.61309  0.36249  0.68769  1.0000
  C   C1482     1.0  0.65134  0.40312  0.62854  1.0000
  C   C1483     1.0  0.44309  0.48075  0.76116  1.0000
  H   H1773     1.0  0.55474  0.37401  0.71555  1.0000
  C   C1484     1.0  0.58633  0.25693  0.89319  1.0000
  H   H1774     1.0  0.60721  0.27528  0.94072  1.0000
  N   N99       1.0  0.49146  0.41014  0.76385  1.0000
  C   C1485     1.0  0.61465  0.25372  0.66316  1.0000
  C   C1486     1.0  0.47270  0.40145  0.77009  1.0000
  C   C1487     1.0  0.50802  0.39485  0.77181  1.0000
  C   C1488     1.0  0.49613  0.41639  0.74181  1.0000
  C   C1489     1.0  0.48216  0.43155  0.73205  1.0000
  C   C1490     1.0  0.48501  0.28762  0.86354  1.0000
  C   C1491     1.0  0.48606  0.43758  0.71126  1.0000
  C   C1492     1.0  0.63167  0.31651  0.88838  1.0000
  C   C1493     1.0  0.50393  0.42874  0.69960  1.0000
  H   H1775     1.0  0.47398  0.43884  0.77044  1.0000
  S   S404      1.0  0.55449  0.36304  0.75754  1.0000
  H   H1776     1.0  0.59546  0.24239  0.89096  1.0000
  H   H1777     1.0  0.50629  0.44283  0.91702  1.0000
  H   H1778     1.0  0.48582  0.42350  0.78990  1.0000
  H   H1779     1.0  0.46895  0.39607  0.78656  1.0000
  H   H1780     1.0  0.52268  0.40035  0.76770  1.0000
  H   H1781     1.0  0.50431  0.39068  0.78840  1.0000
  H   H1782     1.0  0.51071  0.38064  0.76623  1.0000
  H   H1783     1.0  0.46804  0.43886  0.74039  1.0000
  H   H1784     1.0  0.58130  0.32424  0.75605  1.0000
  H   H1785     1.0  0.47512  0.44916  0.70415  1.0000
  Fe  Fe203     1.0  0.62114  0.37184  0.62171  1.0000
  H   H1786     1.0  0.50692  0.43345  0.68349  1.0000
  N   N100      1.0  0.37418  0.43850  0.92292  1.0000
  C   C1494     1.0  0.37001  0.45448  0.93477  1.0000
  C   C1495     1.0  0.38469  0.44640  0.90241  1.0000
  C   C1496     1.0  0.47367  0.39508  0.97328  1.0000
  C   C1497     1.0  0.38681  0.41957  0.93134  1.0000
  H   H1787     1.0  0.43219  0.47909  0.77521  1.0000
  C   C1498     1.0  0.39210  0.40279  0.92179  1.0000
  H   H1788     1.0  0.64592  0.28636  0.81386  1.0000
  C   C1499     1.0  0.53017  0.40941  0.58173  1.0000
  C   C1500     1.0  0.44216  0.47847  0.89956  1.0000
  H   H1789     1.0  0.38439  0.45851  0.93560  1.0000
  H   H1790     1.0  0.64487  0.33457  0.54883  1.0000
  H   H1791     1.0  0.52787  0.24584  0.85384  1.0000
  H   H1792     1.0  0.39960  0.44975  0.90244  1.0000
  H   H1793     1.0  0.37544  0.46039  0.89541  1.0000
  H   H1794     1.0  0.38792  0.43563  0.89227  1.0000
  C   C1501     1.0  0.63881  0.37302  0.71773  1.0000
  Fe  Fe204     1.0  0.56254  0.24693  0.49814  1.0000
  C   C1502     1.0  0.38068  0.34613  0.92138  1.0000
  C   C1503     1.0  0.42049  0.27581  0.92346  1.0000
  C   C1504     1.0  0.61451  0.29608  0.84291  1.0000
  C   C1505     1.0  0.40421  0.38484  0.92930  1.0000
  C   C1506     1.0  0.50138  0.26630  0.96758  1.0000
  H   H1795     1.0  0.61403  0.28113  0.85275  1.0000
  H   H1796     1.0  0.64954  0.32618  0.82375  1.0000
  C   C1507     1.0  0.54807  0.43450  0.58303  1.0000
  S   S405      1.0  0.35346  0.39215  0.89253  1.0000
  H   H1797     1.0  0.60652  0.23820  0.63736  1.0000
  C   C1508     1.0  0.51790  0.41375  0.70864  1.0000
  H   H1798     1.0  0.62401  0.33995  0.72764  1.0000
  H   H1799     1.0  0.47293  0.27756  0.95766  1.0000
  H   H1800     1.0  0.63219  0.32120  0.81103  1.0000
  C   C1509     1.0  0.56505  0.26011  0.89599  1.0000
  C   C1510     1.0  0.51322  0.42708  0.91539  1.0000
  S   S406      1.0  0.56007  0.29791  0.94954  1.0000
  C   C1511     1.0  0.48380  0.42392  0.90463  1.0000
  C   C1512     1.0  0.62905  0.28692  0.94956  1.0000
  C   C1513     1.0  0.64969  0.28509  0.94960  1.0000
  C   C1514     1.0  0.48563  0.41365  0.93961  1.0000
  H   H1801     1.0  0.63899  0.45092  0.62621  1.0000
  H   H1802     1.0  0.41091  0.39742  0.97044  1.0000
  C   C1515     1.0  0.50838  0.39476  0.91405  1.0000
  C   C1516     1.0  0.59426  0.25036  0.63374  1.0000
  H   H1803     1.0  0.52687  0.25265  0.91843  1.0000
  C   C1517     1.0  0.35679  0.41052  0.50780  1.0000
  C   C1518     1.0  0.52184  0.29094  0.92213  1.0000
  C   C1519     1.0  0.60476  0.25990  0.81383  1.0000
  C   C1520     1.0  0.59855  0.31329  0.51781  1.0000
  C   C1521     1.0  0.63614  0.34075  0.71375  1.0000
  H   H1804     1.0  0.64215  0.27797  0.51241  1.0000
  H   H1805     1.0  0.49783  0.41749  0.58604  1.0000
  C   C1522     1.0  0.61549  0.28607  0.64203  1.0000
  C   C1523     1.0  0.62314  0.27381  0.94088  1.0000
  H   H1806     1.0  0.50501  0.29218  0.92701  1.0000
  C   C1524     1.0  0.65984  0.33886  0.49847  1.0000
  H   H1807     1.0  0.61583  0.45249  0.64466  1.0000
  H   H1808     1.0  0.34850  0.37559  0.48570  1.0000
  H   H1809     1.0  0.61578  0.46379  0.61868  1.0000
  C   C1525     1.0  0.63800  0.25887  0.93226  1.0000
  H   H1810     1.0  0.60220  0.30707  0.85027  1.0000
  S   S407      1.0  0.64570  0.39089  0.61192  1.0000
  H   H1811     1.0  0.61223  0.26955  0.89225  1.0000
  H   H1812     1.0  0.59649  0.28271  0.68188  1.0000
  C   C1526     1.0  0.38655  0.34207  0.90214  1.0000
  C   C1527     1.0  0.65296  0.35248  0.66966  1.0000
  C   C1528     1.0  0.39407  0.41707  0.94910  1.0000
  C   C1529     1.0  0.63354  0.31805  0.51155  1.0000
  C   C1530     1.0  0.47969  0.45977  0.57625  1.0000
  H   H1813     1.0  0.53046  0.46236  0.58907  1.0000
  C   C1531     1.0  0.48580  0.26522  0.95857  1.0000
  C   C1532     1.0  0.43684  0.48254  0.74327  1.0000
  H   H1814     1.0  0.56270  0.40456  0.57881  1.0000
  C   C1533     1.0  0.52953  0.44795  0.58674  1.0000
  Fe  Fe205     1.0  0.57787  0.30582  0.96799  1.0000
  H   H1815     1.0  0.61648  0.38652  0.68921  1.0000
  C   C1534     1.0  0.48705  0.26157  0.84547  1.0000
  H   H1816     1.0  0.62636  0.27960  0.62949  1.0000
  H   H1817     1.0  0.40823  0.37238  0.92153  1.0000
  H   H1818     1.0  0.40501  0.27428  0.92276  1.0000
  H   H1819     1.0  0.35588  0.42461  0.91143  1.0000
  N   N101      1.0  0.62019  0.30558  0.50896  1.0000
  H   H1820     1.0  0.59351  0.32917  0.51080  1.0000
  C   C1535     1.0  0.66443  0.27023  0.94109  1.0000
  C   C1536     1.0  0.43103  0.48575  0.61026  1.0000
  C   C1537     1.0  0.64024  0.47458  0.64966  1.0000
  H   H1821     1.0  0.36144  0.44982  0.95020  1.0000
  C   C1538     1.0  0.66244  0.42086  0.65524  1.0000
  C   C1539     1.0  0.40589  0.39896  0.95667  1.0000
  H   H1822     1.0  0.61066  0.29607  0.48641  1.0000
  C   C1540     1.0  0.56254  0.28060  0.62198  1.0000
  H   H1823     1.0  0.47385  0.43237  0.60947  1.0000
  H   H1824     1.0  0.59591  0.31265  0.53410  1.0000
  C   C1541     1.0  0.61671  0.37084  0.69746  1.0000
  H   H1825     1.0  0.46492  0.47056  0.57894  1.0000
  H   H1826     1.0  0.43642  0.30214  0.87726  1.0000
  C   C1542     1.0  0.39923  0.30633  0.47810  1.0000
  H   H1827     1.0  0.44576  0.29694  0.92800  1.0000
  C   C1543     1.0  0.64135  0.24049  0.82617  1.0000
  H   H1828     1.0  0.41564  0.28833  0.88546  1.0000
  H   H1829     1.0  0.62230  0.32757  0.89706  1.0000
  C   C1544     1.0  0.47800  0.44609  0.61133  1.0000
  H   H1830     1.0  0.45118  0.31004  0.90250  1.0000
  C   C1545     1.0  0.42299  0.47173  0.60467  1.0000
  H   H1831     1.0  0.45373  0.44479  0.97034  1.0000
  H   H1832     1.0  0.58254  0.24944  0.96144  1.0000
  H   H1833     1.0  0.62337  0.31417  0.54400  1.0000
  H   H1834     1.0  0.55298  0.25178  0.84490  1.0000
  C   C1546     1.0  0.49223  0.47554  0.59607  1.0000
  C   C1547     1.0  0.65867  0.25712  0.93239  1.0000
  H   H1835     1.0  0.55111  0.24428  0.81304  1.0000
  C   C1548     1.0  0.65330  0.36197  0.68522  1.0000
  H   H1836     1.0  0.55872  0.24745  0.89597  1.0000
  C   C1549     1.0  0.65561  0.28752  0.86655  1.0000
  S   S408      1.0  0.53341  0.47809  0.63441  1.0000
  C   C1550     1.0  0.56714  0.26260  0.61522  1.0000
  H   H1837     1.0  0.47578  0.44599  0.57422  1.0000
  C   C1551     1.0  0.64990  0.28645  0.82818  1.0000
  H   H1838     1.0  0.62586  0.37279  0.73094  1.0000
  Fe  Fe206     1.0  0.34646  0.47853  0.54825  1.0000
  H   H1839     1.0  0.58056  0.29729  0.66573  1.0000
  C   C1552     1.0  0.51813  0.25046  0.96878  1.0000
  H   H1840     1.0  0.65081  0.30352  0.90969  1.0000
  C   C1553     1.0  0.64131  0.24758  0.80588  1.0000
  H   H1841     1.0  0.55056  0.29250  0.61694  1.0000
  H   H1842     1.0  0.55873  0.26057  0.60500  1.0000
  H   H1843     1.0  0.63893  0.38910  0.71081  1.0000
  H   H1844     1.0  0.38836  0.30990  0.49147  1.0000
  H   H1845     1.0  0.46336  0.45616  0.61616  1.0000
  C   C1554     1.0  0.41720  0.47582  0.58616  1.0000
  H   H1846     1.0  0.61608  0.27486  0.51833  1.0000
  H   H1847     1.0  0.66536  0.27574  0.85914  1.0000
  H   H1848     1.0  0.63279  0.33171  0.70441  1.0000
  C   C1555     1.0  0.62308  0.24333  0.84035  1.0000
  C   C1556     1.0  0.54449  0.23938  0.85242  1.0000
  H   H1849     1.0  0.65025  0.27096  0.83694  1.0000
  C   C1557     1.0  0.65888  0.34157  0.51765  1.0000
  H   H1850     1.0  0.62296  0.23770  0.85601  1.0000
  H   H1851     1.0  0.49333  0.48226  0.74222  1.0000
  H   H1852     1.0  0.65353  0.48031  0.60988  1.0000
  S   S409      1.0  0.47158  0.48419  0.64686  1.0000
  N   N102      1.0  0.62741  0.48003  0.63445  1.0000
  C   C1558     1.0  0.43300  0.47814  0.93526  1.0000
  C   C1559     1.0  0.47749  0.48257  0.74254  1.0000
  H   H1853     1.0  0.34009  0.48399  0.81198  1.0000
  H   H1854     1.0  0.63676  0.29821  0.48039  1.0000
  H   H1855     1.0  0.61684  0.32050  0.47905  1.0000
  H   H1856     1.0  0.48221  0.48546  0.71067  1.0000
  C   C1560     1.0  0.47120  0.48448  0.72464  1.0000
  H   H1857     1.0  0.47694  0.48520  0.59985  1.0000
  H   H1858     1.0  0.50071  0.48416  0.58243  1.0000
  C   C1561     1.0  0.45079  0.48471  0.72494  1.0000
  H   H1859     1.0  0.44781  0.48586  0.88450  1.0000
  S   S410      1.0  0.48438  0.23740  0.84540  1.0000
  C   C1562     1.0  0.41446  0.28905  0.47923  1.0000
  H   H1860     1.0  0.52737  0.23630  0.82373  1.0000
  H   H1861     1.0  0.60113  0.23643  0.94360  1.0000
  Fe  Fe207     1.0  0.47318  0.69925  0.41752  1.0000
  S   S411      1.0  0.50332  0.68924  0.39794  1.0000
  C   C1563     1.0  0.35977  0.53018  0.20704  1.0000
  C   C1564     1.0  0.49732  0.72694  0.37523  1.0000
  H   H1862     1.0  0.51871  0.71002  0.42432  1.0000
  H   H1863     1.0  0.40392  0.61677  0.45114  1.0000
  H   H1864     1.0  0.55088  0.55158  0.12264  1.0000
  C   C1565     1.0  0.36486  0.51377  0.28902  1.0000
  Fe  Fe208     1.0  0.52674  0.62843  0.18251  1.0000
  S   S412      1.0  0.53330  0.62386  0.21313  1.0000
  S   S413      1.0  0.49827  0.62309  0.17566  1.0000
  Fe  Fe209     1.0  0.56597  0.64401  0.16179  1.0000
  S   S414      1.0  0.57651  0.63998  0.19036  1.0000
  S   S415      1.0  0.58168  0.66001  0.13232  1.0000
  Fe  Fe210     1.0  0.56508  0.61107  0.19828  1.0000
  S   S416      1.0  0.58239  0.58151  0.21124  1.0000
  Fe  Fe211     1.0  0.54412  0.65336  0.20292  1.0000
  S   S417      1.0  0.53569  0.67928  0.21970  1.0000
  S   S418      1.0  0.55789  0.61367  0.16837  1.0000
  S   S419      1.0  0.53423  0.65929  0.17367  1.0000
  Fe  Fe212     1.0  0.59923  0.64118  0.02884  1.0000
  S   S420      1.0  0.60093  0.61850  0.05735  1.0000
  C   C1566     1.0  0.37672  0.53599  0.25853  1.0000
  C   C1567     1.0  0.39327  0.73444  0.39234  1.0000
  H   H1865     1.0  0.40321  0.57989  0.42285  1.0000
  S   S421      1.0  0.60631  0.63242  0.99890  1.0000
  S   S422      1.0  0.57017  0.66244  0.02415  1.0000
  H   H1866     1.0  0.50238  0.67951  0.26744  1.0000
  S   S423      1.0  0.47732  0.50754  0.13035  1.0000
  H   H1867     1.0  0.56895  0.68536  0.16311  1.0000
  Fe  Fe213     1.0  0.42459  0.52629  0.16164  1.0000
  S   S424      1.0  0.44043  0.54593  0.13475  1.0000
  Fe  Fe214     1.0  0.44751  0.51879  0.12052  1.0000
  S   S425      1.0  0.44473  0.52247  0.08836  1.0000
  Fe  Fe215     1.0  0.46890  0.53277  0.14722  1.0000
  S   S426      1.0  0.49745  0.54383  0.14716  1.0000
  H   H1868     1.0  0.54761  0.52107  0.11458  1.0000
  S   S427      1.0  0.45242  0.51534  0.17528  1.0000
  C   C1568     1.0  0.38680  0.71905  0.42693  1.0000
  C   C1569     1.0  0.38425  0.64674  0.40480  1.0000
  C   C1570     1.0  0.43398  0.50601  0.08033  1.0000
  C   C1571     1.0  0.43022  0.51092  0.06091  1.0000
  H   H1869     1.0  0.60607  0.66880  0.17986  1.0000
  C   C1572     1.0  0.58217  0.70947  0.43182  1.0000
  H   H1870     1.0  0.52670  0.65813  0.08267  1.0000
  H   H1871     1.0  0.53052  0.71072  0.46957  1.0000
  C   C1573     1.0  0.37271  0.51877  0.10797  1.0000
  C   C1574     1.0  0.49781  0.60023  0.16934  1.0000
  C   C1575     1.0  0.51531  0.58518  0.16713  1.0000
  C   C1576     1.0  0.51480  0.56782  0.16067  1.0000
  C   C1577     1.0  0.49679  0.56520  0.15665  1.0000
  C   C1578     1.0  0.47920  0.58004  0.15923  1.0000
  C   C1579     1.0  0.47976  0.59754  0.16544  1.0000
  H   H1872     1.0  0.52921  0.58695  0.17031  1.0000
  H   H1873     1.0  0.52839  0.55630  0.15882  1.0000
  H   H1874     1.0  0.46525  0.57822  0.15611  1.0000
  H   H1875     1.0  0.46616  0.60908  0.16714  1.0000
  C   C1580     1.0  0.58768  0.64813  0.11165  1.0000
  C   C1581     1.0  0.59151  0.62722  0.11403  1.0000
  C   C1582     1.0  0.59581  0.61821  0.09724  1.0000
  C   C1583     1.0  0.59627  0.63002  0.07809  1.0000
  C   C1584     1.0  0.59260  0.65090  0.07573  1.0000
  C   C1585     1.0  0.58851  0.65991  0.09245  1.0000
  H   H1876     1.0  0.59146  0.61805  0.12875  1.0000
  H   H1877     1.0  0.59896  0.60210  0.09896  1.0000
  H   H1878     1.0  0.59291  0.66018  0.06102  1.0000
  C   C1586     1.0  0.63346  0.56197  0.16068  1.0000
  C   C1587     1.0  0.62586  0.54763  0.17657  1.0000
  C   C1588     1.0  0.61024  0.55364  0.19225  1.0000
  C   C1589     1.0  0.60220  0.57400  0.19199  1.0000
  C   C1590     1.0  0.60953  0.58834  0.17592  1.0000
  C   C1591     1.0  0.62519  0.58232  0.16030  1.0000
  H   H1879     1.0  0.63176  0.53191  0.17675  1.0000
  H   H1880     1.0  0.60422  0.54252  0.20443  1.0000
  H   H1881     1.0  0.60327  0.60409  0.17557  1.0000
  H   H1882     1.0  0.63094  0.59346  0.14793  1.0000
  Fe  Fe216     1.0  0.59005  0.68540  0.01150  1.0000
  C   C1592     1.0  0.57791  0.69463  0.25273  1.0000
  C   C1593     1.0  0.55992  0.70801  0.24926  1.0000
  C   C1594     1.0  0.54732  0.70326  0.23884  1.0000
  C   C1595     1.0  0.55271  0.68529  0.23151  1.0000
  C   C1596     1.0  0.54288  0.51624  0.18574  1.0000
  H   H1883     1.0  0.53324  0.71349  0.23658  1.0000
  C   C1597     1.0  0.57458  0.49300  0.17818  1.0000
  C   C1598     1.0  0.62416  0.57818  0.97845  1.0000
  C   C1599     1.0  0.40894  0.60444  0.44250  1.0000
  C   C1600     1.0  0.56119  0.52134  0.11953  1.0000
  C   C1601     1.0  0.51471  0.71371  0.98811  1.0000
  C   C1602     1.0  0.36092  0.69252  0.38602  1.0000
  C   C1603     1.0  0.62827  0.51596  0.24300  1.0000
  C   C1604     1.0  0.59392  0.70890  0.18376  1.0000
  C   C1605     1.0  0.42943  0.48808  0.09270  1.0000
  H   H1884     1.0  0.40544  0.72131  0.38890  1.0000
  C   C1606     1.0  0.38095  0.49332  0.22380  1.0000
  C   C1607     1.0  0.34626  0.56609  0.29213  1.0000
  C   C1608     1.0  0.54322  0.48704  0.17198  1.0000
  C   C1609     1.0  0.59577  0.52191  0.13286  1.0000
  H   H1885     1.0  0.57338  0.68969  0.41857  1.0000
  C   C1610     1.0  0.56858  0.69811  0.43047  1.0000
  H   H1886     1.0  0.41034  0.65554  0.38307  1.0000
  S   S428      1.0  0.35819  0.58533  0.40459  1.0000
  H   H1887     1.0  0.50414  0.69138  0.43866  1.0000
  Fe  Fe217     1.0  0.35088  0.61893  0.39593  1.0000
  Fe  Fe218     1.0  0.33691  0.58497  0.38511  1.0000
  C   C1611     1.0  0.33905  0.69417  0.41843  1.0000
  C   C1612     1.0  0.53196  0.70789  0.37080  1.0000
  H   H1888     1.0  0.37434  0.55131  0.24921  1.0000
  H   H1889     1.0  0.56692  0.72021  0.98629  1.0000
  C   C1613     1.0  0.57719  0.72083  0.44673  1.0000
  H   H1890     1.0  0.33754  0.55224  0.26147  1.0000
  C   C1614     1.0  0.52381  0.58570  0.10365  1.0000
  C   C1615     1.0  0.62423  0.53676  0.23726  1.0000
  C   C1616     1.0  0.40201  0.65503  0.39836  1.0000
  C   C1617     1.0  0.60892  0.70084  0.19567  1.0000
  H   H1891     1.0  0.36274  0.50165  0.14840  1.0000
  H   H1892     1.0  0.51821  0.67494  0.98456  1.0000
  C   C1618     1.0  0.56948  0.57677  0.12792  1.0000
  C   C1619     1.0  0.52951  0.67254  0.46301  1.0000
  C   C1620     1.0  0.37545  0.59641  0.45224  1.0000
  H   H1893     1.0  0.50682  0.49819  0.15838  1.0000
  H   H1894     1.0  0.56566  0.55368  0.16459  1.0000
  C   C1621     1.0  0.65615  0.59607  0.00288  1.0000
  S   S429      1.0  0.34464  0.56028  0.36701  1.0000
  H   H1895     1.0  0.55396  0.69203  0.33272  1.0000
  H   H1896     1.0  0.60810  0.56300  0.10884  1.0000
  N   N103      1.0  0.53550  0.69168  0.31229  1.0000
  C   C1622     1.0  0.55340  0.68314  0.32183  1.0000
  H   H1897     1.0  0.42053  0.56532  0.43869  1.0000
  C   C1623     1.0  0.51687  0.69243  0.32846  1.0000
  C   C1624     1.0  0.53394  0.68000  0.29797  1.0000
  C   C1625     1.0  0.51712  0.68569  0.28830  1.0000
  C   C1626     1.0  0.54873  0.66281  0.29324  1.0000
  H   H1898     1.0  0.36911  0.53858  0.05909  1.0000
  H   H1899     1.0  0.63969  0.59623  0.00969  1.0000
  S   S430      1.0  0.63136  0.72746  0.33160  1.0000
  H   H1900     1.0  0.39335  0.55733  0.31583  1.0000
  H   H1901     1.0  0.58358  0.56969  0.16096  1.0000
  H   H1902     1.0  0.33504  0.59168  0.30652  1.0000
  H   H1903     1.0  0.36262  0.50254  0.28133  1.0000
  C   C1627     1.0  0.34200  0.55213  0.46653  1.0000
  H   H1904     1.0  0.52426  0.72030  0.29467  1.0000
  S   S431      1.0  0.34299  0.52622  0.00296  1.0000
  H   H1905     1.0  0.62141  0.70387  0.21971  1.0000
  H   H1906     1.0  0.51781  0.70044  0.33993  1.0000
  H   H1907     1.0  0.33714  0.67545  0.39906  1.0000
  H   H1908     1.0  0.56245  0.65772  0.29916  1.0000
  C   C1628     1.0  0.53209  0.65505  0.09690  1.0000
  H   H1909     1.0  0.49260  0.68834  0.98448  1.0000
  H   H1910     1.0  0.65454  0.67591  0.99439  1.0000
  H   H1911     1.0  0.54501  0.68262  0.41263  1.0000
  C   C1629     1.0  0.56126  0.73359  0.99264  1.0000
  C   C1630     1.0  0.34993  0.51847  0.22430  1.0000
  S   S432      1.0  0.43017  0.50002  0.14665  1.0000
  H   H1912     1.0  0.51446  0.67706  0.33620  1.0000
  C   C1631     1.0  0.40438  0.57291  0.43859  1.0000
  H   H1913     1.0  0.54907  0.65264  0.09343  1.0000
  C   C1632     1.0  0.63915  0.54669  0.22407  1.0000
  C   C1633     1.0  0.42205  0.49807  0.05383  1.0000
  N   N104      1.0  0.59162  0.69889  0.16841  1.0000
  H   H1914     1.0  0.65686  0.63215  0.00752  1.0000
  S   S433      1.0  0.66128  0.49826  0.17186  1.0000
  C   C1634     1.0  0.35803  0.54503  0.45174  1.0000
  C   C1635     1.0  0.58130  0.55615  0.15678  1.0000
  C   C1636     1.0  0.51921  0.60310  0.11162  1.0000
  H   H1915     1.0  0.53462  0.68710  0.00110  1.0000
  H   H1916     1.0  0.39391  0.54679  0.10884  1.0000
  H   H1917     1.0  0.37635  0.52523  0.24933  1.0000
  H   H1918     1.0  0.56210  0.59749  0.06446  1.0000
  N   N105      1.0  0.39744  0.58794  0.45179  1.0000
  H   H1919     1.0  0.53444  0.69959  0.03061  1.0000
  H   H1920     1.0  0.39504  0.56105  0.44319  1.0000
  C   C1637     1.0  0.38032  0.55982  0.30899  1.0000
  H   H1921     1.0  0.55346  0.57622  0.13590  1.0000
  H   H1922     1.0  0.51541  0.57367  0.11081  1.0000
  S   S434      1.0  0.40830  0.66885  0.44919  1.0000
  H   H1923     1.0  0.36580  0.58478  0.45798  1.0000
  H   H1924     1.0  0.50285  0.70055  0.32288  1.0000
  H   H1925     1.0  0.61707  0.55050  0.13120  1.0000
  H   H1926     1.0  0.56942  0.68314  0.18890  1.0000
  C   C1638     1.0  0.38078  0.65362  0.43782  1.0000
  S   S435      1.0  0.58457  0.72098  0.31458  1.0000
  C   C1639     1.0  0.51502  0.67464  0.27511  1.0000
  C   C1640     1.0  0.39073  0.50495  0.20649  1.0000
  S   S436      1.0  0.42655  0.71319  0.45833  1.0000
  C   C1641     1.0  0.54485  0.70989  0.45892  1.0000
  Fe  Fe219     1.0  0.43242  0.68840  0.44112  1.0000
  H   H1927     1.0  0.54289  0.69449  0.37490  1.0000
  N   N106      1.0  0.52440  0.63771  0.11107  1.0000
  C   C1642     1.0  0.54532  0.61665  0.08533  1.0000
  C   C1643     1.0  0.65869  0.53592  0.21613  1.0000
  S   S437      1.0  0.59404  0.69929  0.26647  1.0000
  S   S438      1.0  0.61864  0.66458  0.01850  1.0000
  H   H1928     1.0  0.51643  0.50993  0.18018  1.0000
  C   C1644     1.0  0.53907  0.58374  0.08659  1.0000
  C   C1645     1.0  0.37349  0.64634  0.42454  1.0000
  H   H1929     1.0  0.36574  0.68590  0.37275  1.0000
  C   C1646     1.0  0.53734  0.71244  0.30186  1.0000
  H   H1930     1.0  0.60515  0.49088  0.12998  1.0000
  C   C1647     1.0  0.34082  0.53772  0.27188  1.0000
  H   H1931     1.0  0.55072  0.62924  0.12434  1.0000
  S   S439      1.0  0.59612  0.68107  0.97988  1.0000
  C   C1648     1.0  0.39882  0.66145  0.43151  1.0000
  H   H1932     1.0  0.60741  0.57647  0.12785  1.0000
  C   C1649     1.0  0.39421  0.53314  0.12075  1.0000
  C   C1650     1.0  0.37936  0.54672  0.29724  1.0000
  H   H1933     1.0  0.35891  0.55229  0.43632  1.0000
  H   H1934     1.0  0.36799  0.50347  0.05955  1.0000
  S   S440      1.0  0.44162  0.70757  0.41108  1.0000
  H   H1935     1.0  0.66298  0.58107  0.99883  1.0000
  H   H1936     1.0  0.35153  0.54447  0.20057  1.0000
  H   H1937     1.0  0.49536  0.63372  0.13117  1.0000
  H   H1938     1.0  0.64183  0.62127  0.03000  1.0000
  H   H1939     1.0  0.56807  0.68321  0.31055  1.0000
  H   H1940     1.0  0.35953  0.64048  0.42956  1.0000
  H   H1941     1.0  0.34306  0.53520  0.13544  1.0000
  S   S441      1.0  0.37612  0.63716  0.38765  1.0000
  C   C1651     1.0  0.37140  0.53304  0.08999  1.0000
  H   H1942     1.0  0.33417  0.52372  0.23099  1.0000
  H   H1943     1.0  0.55570  0.72200  0.25455  1.0000
  N   N107      1.0  0.37699  0.72850  0.40967  1.0000
  H   H1944     1.0  0.65494  0.57123  0.18834  1.0000
  C   C1652     1.0  0.58346  0.67684  0.24508  1.0000
  Fe  Fe220     1.0  0.45972  0.70457  0.46021  1.0000
  C   C1653     1.0  0.34753  0.57924  0.30367  1.0000
  H   H1945     1.0  0.37296  0.48674  0.12046  1.0000
  H   H1946     1.0  0.36484  0.58571  0.32196  1.0000
  H   H1947     1.0  0.57532  0.65833  0.22894  1.0000
  C   C1654     1.0  0.59328  0.71268  0.14872  1.0000
  H   H1948     1.0  0.50758  0.60358  0.12512  1.0000
  H   H1949     1.0  0.52811  0.64946  0.26050  1.0000
  H   H1950     1.0  0.59739  0.66645  0.24757  1.0000
  N   N108      1.0  0.36098  0.53449  0.27729  1.0000
  H   H1951     1.0  0.57153  0.51891  0.19078  1.0000
  H   H1952     1.0  0.54348  0.66265  0.46755  1.0000
  C   C1655     1.0  0.40925  0.66240  0.41162  1.0000
  C   C1656     1.0  0.36203  0.54912  0.28889  1.0000
  H   H1953     1.0  0.63475  0.56277  0.22002  1.0000
  H   H1954     1.0  0.58074  0.72606  0.14864  1.0000
  H   H1955     1.0  0.55633  0.66231  0.43041  1.0000
  H   H1956     1.0  0.55799  0.63898  0.27641  1.0000
  H   H1957     1.0  0.39704  0.53740  0.13390  1.0000
  N   N109      1.0  0.37528  0.52487  0.12576  1.0000
  C   C1657     1.0  0.36594  0.71436  0.40622  1.0000
  C   C1658     1.0  0.57636  0.50416  0.12130  1.0000
  H   H1958     1.0  0.54253  0.57027  0.08038  1.0000
  C   C1659     1.0  0.51136  0.70947  0.38029  1.0000
  H   H1959     1.0  0.34012  0.52591  0.26412  1.0000
  H   H1960     1.0  0.35901  0.54500  0.14590  1.0000
  C   C1660     1.0  0.60496  0.56223  0.12526  1.0000
  C   C1661     1.0  0.58107  0.53998  0.13032  1.0000
  C   C1662     1.0  0.38020  0.52346  0.19809  1.0000
  S   S442      1.0  0.46989  0.72552  0.43183  1.0000
  S   S443      1.0  0.39215  0.53850  0.17648  1.0000
  H   H1961     1.0  0.43370  0.52474  0.05125  1.0000
  S   S444      1.0  0.46455  0.67789  0.44599  1.0000
  H   H1962     1.0  0.50839  0.70918  0.45055  1.0000
  S   S445      1.0  0.39745  0.49962  0.00633  1.0000
  H   H1963     1.0  0.53003  0.64637  0.13620  1.0000
  C   C1663     1.0  0.37340  0.52883  0.45702  1.0000
  H   H1964     1.0  0.35434  0.51244  0.30392  1.0000
  H   H1965     1.0  0.58573  0.67608  0.09047  1.0000
  Fe  Fe221     1.0  0.59047  0.72606  0.28107  1.0000
  H   H1966     1.0  0.65594  0.72054  0.36078  1.0000
  Fe  Fe222     1.0  0.36603  0.49739  0.00479  1.0000
  H   H1967     1.0  0.60505  0.67323  0.15419  1.0000
  H   H1968     1.0  0.41977  0.59734  0.47579  1.0000
  H   H1969     1.0  0.59668  0.70939  0.42125  1.0000
  H   H1970     1.0  0.49385  0.64500  0.10559  1.0000
  S   S446      1.0  0.58194  0.71423  0.02266  1.0000
  Fe  Fe223     1.0  0.62305  0.65796  0.98795  1.0000
  C   C1664     1.0  0.34945  0.70785  0.42112  1.0000
  H   H1971     1.0  0.62293  0.68351  0.16122  1.0000
  H   H1972     1.0  0.55450  0.62782  0.07764  1.0000
  H   H1973     1.0  0.40646  0.49961  0.19970  1.0000
  H   H1974     1.0  0.37250  0.65301  0.45314  1.0000
  C   C1665     1.0  0.53384  0.63329  0.12863  1.0000
  C   C1666     1.0  0.36884  0.50783  0.07303  1.0000
  C   C1667     1.0  0.36056  0.50003  0.23281  1.0000
  Fe  Fe224     1.0  0.57900  0.65597  0.99311  1.0000
  C   C1668     1.0  0.52941  0.61941  0.10237  1.0000
  H   H1975     1.0  0.65049  0.48878  0.24015  1.0000
  H   H1976     1.0  0.52702  0.66899  0.10325  1.0000
  H   H1977     1.0  0.38621  0.52379  0.44568  1.0000
  C   C1669     1.0  0.66238  0.51475  0.22256  1.0000
  H   H1978     1.0  0.49780  0.65888  0.12229  1.0000
  H   H1979     1.0  0.52854  0.62052  0.13990  1.0000
  C   C1670     1.0  0.57103  0.67224  0.23440  1.0000
  H   H1980     1.0  0.42317  0.66835  0.40657  1.0000
  C   C1671     1.0  0.54995  0.59910  0.07758  1.0000
  C   C1672     1.0  0.53841  0.72353  0.35576  1.0000
  H   H1981     1.0  0.40764  0.52194  0.11536  1.0000
  H   H1982     1.0  0.39221  0.53455  0.29496  1.0000
  C   C1673     1.0  0.50193  0.64403  0.11768  1.0000
  C   C1674     1.0  0.37145  0.70619  0.38853  1.0000
  H   H1983     1.0  0.51902  0.66283  0.46261  1.0000
  C   C1675     1.0  0.54638  0.65181  0.28013  1.0000
  C   C1676     1.0  0.57125  0.69326  0.17407  1.0000
  C   C1677     1.0  0.37176  0.49876  0.10771  1.0000
  C   C1678     1.0  0.56375  0.51026  0.18536  1.0000
  H   H1984     1.0  0.60927  0.54531  0.24270  1.0000
  H   H1985     1.0  0.52885  0.49491  0.13861  1.0000
  C   C1679     1.0  0.61033  0.71054  0.21030  1.0000
  H   H1986     1.0  0.48139  0.72828  0.38267  1.0000
  H   H1987     1.0  0.60803  0.71802  0.14432  1.0000
  H   H1988     1.0  0.40651  0.61135  0.42710  1.0000
  C   C1680     1.0  0.37684  0.50811  0.14318  1.0000
  N   N110      1.0  0.53469  0.68600  0.44344  1.0000
  Fe  Fe225     1.0  0.45937  0.49091  0.15769  1.0000
  H   H1989     1.0  0.57044  0.57902  0.11157  1.0000
  C   C1681     1.0  0.55851  0.72112  0.46019  1.0000
  C   C1682     1.0  0.54951  0.69783  0.44421  1.0000
  H   H1990     1.0  0.34479  0.52822  0.34830  1.0000
  N   N111      1.0  0.58403  0.55852  0.13490  1.0000
  H   H1991     1.0  0.53808  0.72180  0.31229  1.0000
  H   H1992     1.0  0.55847  0.70636  0.17518  1.0000
  H   H1993     1.0  0.57272  0.59051  0.13081  1.0000
  H   H1994     1.0  0.65695  0.60742  0.98875  1.0000
  C   C1683     1.0  0.35770  0.54058  0.13215  1.0000
  C   C1684     1.0  0.36983  0.49350  0.09045  1.0000
  H   H1995     1.0  0.35661  0.55451  0.12060  1.0000
  C   C1685     1.0  0.53271  0.50483  0.17922  1.0000
  C   C1686     1.0  0.36957  0.52757  0.07281  1.0000
  H   H1996     1.0  0.55292  0.66755  0.33019  1.0000
  C   C1687     1.0  0.34478  0.68654  0.40091  1.0000
  H   H1997     1.0  0.59088  0.48838  0.17777  1.0000
  C   C1688     1.0  0.52953  0.65765  0.27117  1.0000
  C   C1689     1.0  0.59353  0.50440  0.12814  1.0000
  H   H1998     1.0  0.35455  0.49694  0.44220  1.0000
  H   H1999     1.0  0.37265  0.60369  0.43704  1.0000
  H   H2000     1.0  0.60913  0.52105  0.13861  1.0000
  H   H2001     1.0  0.41935  0.50201  0.03881  1.0000
  C   C1690     1.0  0.51574  0.69981  0.43906  1.0000
  H   H2002     1.0  0.61951  0.68688  0.19430  1.0000
  C   C1691     1.0  0.52546  0.70869  0.01989  1.0000
  C   C1692     1.0  0.60717  0.68034  0.16588  1.0000
  H   H2003     1.0  0.59240  0.54323  0.16287  1.0000
  C   C1693     1.0  0.54218  0.67334  0.42793  1.0000
  H   H2004     1.0  0.37908  0.51312  0.15620  1.0000
  S   S447      1.0  0.65312  0.55489  0.14106  1.0000
  C   C1694     1.0  0.56336  0.53898  0.12407  1.0000
  C   C1695     1.0  0.51938  0.48683  0.15186  1.0000
  H   H2005     1.0  0.55150  0.71248  0.29001  1.0000
  H   H2006     1.0  0.55434  0.72237  0.34871  1.0000
  H   H2007     1.0  0.36957  0.60782  0.46196  1.0000
  C   C1696     1.0  0.36436  0.57594  0.31233  1.0000
  H   H2008     1.0  0.39243  0.53262  0.26137  1.0000
  H   H2009     1.0  0.53061  0.66465  0.42787  1.0000
  H   H2010     1.0  0.59242  0.70518  0.13675  1.0000
  S   S448      1.0  0.66161  0.50427  0.12409  1.0000
  C   C1697     1.0  0.37252  0.51957  0.47705  1.0000
  H   H2011     1.0  0.50558  0.69889  0.29065  1.0000
  H   H2012     1.0  0.52127  0.68093  0.47515  1.0000
  H   H2013     1.0  0.37221  0.54848  0.08895  1.0000
  H   H2014     1.0  0.39020  0.49598  0.13961  1.0000
  H   H2015     1.0  0.42568  0.59899  0.44123  1.0000
  H   H2016     1.0  0.39775  0.70505  0.42405  1.0000
  H   H2017     1.0  0.61657  0.50834  0.25307  1.0000
  H   H2018     1.0  0.64677  0.58769  0.04337  1.0000
  H   H2019     1.0  0.38408  0.70973  0.37656  1.0000
  C   C1698     1.0  0.52555  0.70175  0.00287  1.0000
  H   H2020     1.0  0.51528  0.73333  0.03553  1.0000
  H   H2021     1.0  0.55455  0.73007  0.47174  1.0000
  H   H2022     1.0  0.34474  0.71297  0.43516  1.0000
  C   C1699     1.0  0.65781  0.62043  0.02120  1.0000
  H   H2023     1.0  0.53440  0.52965  0.19138  1.0000
  C   C1700     1.0  0.56584  0.73415  0.01069  1.0000
  H   H2024     1.0  0.38075  0.50884  0.29137  1.0000
  Fe  Fe226     1.0  0.43736  0.73186  0.42844  1.0000
  C   C1701     1.0  0.64733  0.50498  0.23570  1.0000
  C   C1702     1.0  0.66324  0.58552  0.03584  1.0000
  C   C1703     1.0  0.40037  0.57822  0.47225  1.0000
  H   H2025     1.0  0.37567  0.71490  0.44094  1.0000
  H   H2026     1.0  0.66278  0.52217  0.05145  1.0000
  H   H2027     1.0  0.39537  0.72915  0.43004  1.0000
  H   H2028     1.0  0.61712  0.56838  0.99140  1.0000
  H   H2029     1.0  0.38149  0.55618  0.47621  1.0000
  C   C1704     1.0  0.51470  0.72772  0.02269  1.0000
  H   H2030     1.0  0.57476  0.49058  0.11754  1.0000
  Fe  Fe227     1.0  0.66640  0.52196  0.14441  1.0000
  C   C1705     1.0  0.50389  0.73309  0.99142  1.0000
  C   C1706     1.0  0.66337  0.68193  0.98023  1.0000
  H   H2031     1.0  0.58776  0.72946  0.44789  1.0000
  H   H2032     1.0  0.66387  0.57567  0.20867  1.0000
  H   H2033     1.0  0.56841  0.73386  0.17948  1.0000
  C   C1707     1.0  0.58050  0.72709  0.18756  1.0000
  H   H2034     1.0  0.59781  0.73546  0.22536  1.0000
  S   S449      1.0  0.55630  0.64966  0.97887  1.0000
  C   C1708     1.0  0.59696  0.72837  0.21358  1.0000
  H   H2035     1.0  0.58967  0.66386  0.57361  1.0000
  C   C1709     1.0  0.46964  0.56042  0.80401  1.0000
  C   C1710     1.0  0.47061  0.71601  0.55267  1.0000
  H   H2036     1.0  0.50308  0.52068  0.73150  1.0000
  H   H2037     1.0  0.54886  0.71328  0.75396  1.0000
  C   C1711     1.0  0.65359  0.58500  0.95252  1.0000
  C   C1712     1.0  0.62299  0.72200  0.91727  1.0000
  S   S450      1.0  0.45037  0.49194  0.83578  1.0000
  S   S451      1.0  0.54183  0.69843  0.58882  1.0000
  C   C1713     1.0  0.50258  0.72001  0.95651  1.0000
  Fe  Fe228     1.0  0.57328  0.63817  0.68727  1.0000
  S   S452      1.0  0.55271  0.62250  0.71352  1.0000
  S   S453      1.0  0.56664  0.67118  0.67341  1.0000
  Fe  Fe229     1.0  0.60911  0.60352  0.68976  1.0000
  S   S454      1.0  0.59186  0.58516  0.71615  1.0000
  S   S455      1.0  0.64281  0.59395  0.67863  1.0000
  Fe  Fe230     1.0  0.56615  0.59520  0.69951  1.0000
  S   S456      1.0  0.55070  0.56924  0.70196  1.0000
  Fe  Fe231     1.0  0.57991  0.61355  0.72805  1.0000
  S   S457      1.0  0.57516  0.61457  0.76083  1.0000
  S   S458      1.0  0.58464  0.61162  0.67190  1.0000
  S   S459      1.0  0.59937  0.63118  0.70301  1.0000
  Fe  Fe232     1.0  0.61203  0.64188  0.86952  1.0000
  S   S460      1.0  0.62325  0.66775  0.87328  1.0000
  C   C1714     1.0  0.63543  0.62600  0.61100  1.0000
  Fe  Fe233     1.0  0.63417  0.64445  0.82605  1.0000
  S   S461      1.0  0.64771  0.67058  0.82645  1.0000
  S   S462      1.0  0.64283  0.63171  0.79768  1.0000
  Fe  Fe234     1.0  0.61638  0.68209  0.84315  1.0000
  S   S463      1.0  0.60197  0.71470  0.83708  1.0000
  S   S464      1.0  0.60228  0.65733  0.84061  1.0000
  S   S465      1.0  0.39306  0.50132  0.48389  1.0000
  C   C1715     1.0  0.65337  0.54318  0.79213  1.0000
  C   C1716     1.0  0.46794  0.73491  0.53946  1.0000
  H   H2038     1.0  0.60224  0.65379  0.64314  1.0000
  H   H2039     1.0  0.66275  0.59162  0.91065  1.0000
  H   H2040     1.0  0.50595  0.56955  0.76252  1.0000
  S   S466      1.0  0.59391  0.62331  0.89520  1.0000
  H   H2041     1.0  0.40833  0.55035  0.52591  1.0000
  C   C1717     1.0  0.39250  0.51650  0.92755  1.0000
  H   H2042     1.0  0.51618  0.55635  0.73445  1.0000
  C   C1718     1.0  0.44686  0.70618  0.53774  1.0000
  C   C1719     1.0  0.39094  0.55474  0.84923  1.0000
  C   C1720     1.0  0.44040  0.48758  0.91573  1.0000
  H   H2043     1.0  0.39136  0.50170  0.93755  1.0000
  H   H2044     1.0  0.50909  0.68071  0.96217  1.0000
  H   H2045     1.0  0.42987  0.52197  0.56856  1.0000
  Fe  Fe235     1.0  0.41894  0.51056  0.83555  1.0000
  H   H2046     1.0  0.48531  0.54274  0.73805  1.0000
  H   H2047     1.0  0.63990  0.72476  0.95811  1.0000
  C   C1721     1.0  0.42785  0.50800  0.57875  1.0000
  S   S467      1.0  0.44908  0.52930  0.65583  1.0000
  S   S468      1.0  0.44571  0.52098  0.60280  1.0000
  H   H2048     1.0  0.37513  0.53033  0.85439  1.0000
  H   H2049     1.0  0.47862  0.51664  0.78823  1.0000
  H   H2050     1.0  0.64253  0.63402  0.57954  1.0000
  H   H2051     1.0  0.63753  0.54047  0.83342  1.0000
  H   H2052     1.0  0.40111  0.51365  0.91257  1.0000
  C   C1722     1.0  0.37413  0.54518  0.85695  1.0000
  H   H2053     1.0  0.63094  0.58833  0.82262  1.0000
  C   C1723     1.0  0.38945  0.57405  0.85233  1.0000
  C   C1724     1.0  0.37143  0.58375  0.86323  1.0000
  C   C1725     1.0  0.36336  0.53469  0.94701  1.0000
  S   S469      1.0  0.41544  0.50134  0.80861  1.0000
  H   H2054     1.0  0.57836  0.73499  0.95030  1.0000
  H   H2055     1.0  0.37056  0.59861  0.86574  1.0000
  H   H2056     1.0  0.63024  0.55035  0.63980  1.0000
  H   H2057     1.0  0.33436  0.51819  0.94752  1.0000
  C   C1726     1.0  0.57552  0.70457  0.87255  1.0000
  C   C1727     1.0  0.56065  0.70920  0.88935  1.0000
  H   H2058     1.0  0.34289  0.54771  0.87378  1.0000
  C   C1728     1.0  0.60816  0.49381  0.64113  1.0000
  C   C1729     1.0  0.36470  0.53448  0.80540  1.0000
  H   H2059     1.0  0.58221  0.68909  0.87172  1.0000
  H   H2060     1.0  0.55608  0.69726  0.90143  1.0000
  H   H2061     1.0  0.60827  0.67051  0.78063  1.0000
  H   H2062     1.0  0.60269  0.73302  0.97147  1.0000
  C   C1730     1.0  0.58311  0.63179  0.91790  1.0000
  C   C1731     1.0  0.56695  0.64300  0.95539  1.0000
  C   C1732     1.0  0.57766  0.65558  0.93979  1.0000
  C   C1733     1.0  0.58536  0.65016  0.92091  1.0000
  H   H2063     1.0  0.57959  0.66965  0.94214  1.0000
  H   H2064     1.0  0.65106  0.72603  0.86952  1.0000
  C   C1734     1.0  0.53289  0.56898  0.68801  1.0000
  C   C1735     1.0  0.52888  0.55041  0.68754  1.0000
  C   C1736     1.0  0.60873  0.51205  0.64626  1.0000
  C   C1737     1.0  0.50708  0.58550  0.66837  1.0000
  C   C1738     1.0  0.52202  0.58657  0.67830  1.0000
  C   C1739     1.0  0.60171  0.72719  0.92524  1.0000
  H   H2065     1.0  0.49859  0.59914  0.66103  1.0000
  H   H2066     1.0  0.52493  0.60097  0.67867  1.0000
  C   C1740     1.0  0.59403  0.61989  0.77058  1.0000
  C   C1741     1.0  0.61342  0.62180  0.75892  1.0000
  C   C1742     1.0  0.62807  0.62599  0.76725  1.0000
  C   C1743     1.0  0.62350  0.62817  0.78728  1.0000
  C   C1744     1.0  0.60406  0.62649  0.79885  1.0000
  C   C1745     1.0  0.58940  0.62234  0.79052  1.0000
  H   H2067     1.0  0.61710  0.62003  0.74351  1.0000
  H   H2068     1.0  0.64294  0.62770  0.75810  1.0000
  H   H2069     1.0  0.60035  0.62808  0.81431  1.0000
  H   H2070     1.0  0.57441  0.62094  0.79962  1.0000
  C   C1746     1.0  0.63525  0.56940  0.65728  1.0000
  Fe  Fe236     1.0  0.50111  0.49455  0.64275  1.0000
  H   H2071     1.0  0.62003  0.57842  0.65830  1.0000
  C   C1747     1.0  0.54965  0.69088  0.61190  1.0000
  C   C1748     1.0  0.55671  0.70391  0.61962  1.0000
  C   C1749     1.0  0.56190  0.69769  0.63851  1.0000
  C   C1750     1.0  0.56057  0.67829  0.64952  1.0000
  C   C1751     1.0  0.55417  0.66507  0.64147  1.0000
  C   C1752     1.0  0.54850  0.67144  0.62282  1.0000
  H   H2072     1.0  0.55762  0.71893  0.61132  1.0000
  H   H2073     1.0  0.56688  0.70798  0.64465  1.0000
  H   H2074     1.0  0.55311  0.65008  0.64982  1.0000
  H   H2075     1.0  0.54314  0.66125  0.61690  1.0000
  C   C1753     1.0  0.48331  0.57036  0.78908  1.0000
  C   C1754     1.0  0.62429  0.63132  0.62903  1.0000
  C   C1755     1.0  0.50082  0.70761  0.50498  1.0000
  C   C1756     1.0  0.62409  0.69133  0.57355  1.0000
  C   C1757     1.0  0.57241  0.61935  0.93357  1.0000
  H   H2076     1.0  0.50155  0.69246  0.51346  1.0000
  S   S470      1.0  0.64282  0.62666  0.85481  1.0000
  S   S471      1.0  0.40297  0.48756  0.85755  1.0000
  H   H2077     1.0  0.42428  0.57978  0.50896  1.0000
  C   C1758     1.0  0.56410  0.62507  0.95212  1.0000
  N   N112      1.0  0.37199  0.52923  0.92703  1.0000
  H   H2078     1.0  0.65336  0.55818  0.97527  1.0000
  H   H2079     1.0  0.35858  0.50844  0.79973  1.0000
  C   C1759     1.0  0.37431  0.54810  0.91239  1.0000
  C   C1760     1.0  0.35920  0.51848  0.92096  1.0000
  C   C1761     1.0  0.35585  0.55506  0.86777  1.0000
  N   N113      1.0  0.50754  0.53069  0.75645  1.0000
  C   C1762     1.0  0.64454  0.57249  0.96938  1.0000
  Fe  Fe237     1.0  0.46147  0.51461  0.62901  1.0000
  H   H2080     1.0  0.59014  0.72779  0.91714  1.0000
  C   C1763     1.0  0.43391  0.50377  0.59714  1.0000
  H   H2081     1.0  0.59167  0.53944  0.65593  1.0000
  H   H2082     1.0  0.58572  0.69728  0.79766  1.0000
  H   H2083     1.0  0.54752  0.69211  0.96700  1.0000
  H   H2084     1.0  0.40226  0.52350  0.93320  1.0000
  H   H2085     1.0  0.66102  0.58302  0.83298  1.0000
  H   H2086     1.0  0.45751  0.53347  0.81510  1.0000
  H   H2087     1.0  0.38328  0.55696  0.91677  1.0000
  S   S472      1.0  0.49203  0.50693  0.67085  1.0000
  C   C1764     1.0  0.39407  0.55165  0.50175  1.0000
  C   C1765     1.0  0.59083  0.52563  0.65203  1.0000
  C   C1766     1.0  0.64024  0.63722  0.92209  1.0000
  N   N114      1.0  0.51555  0.70619  0.96995  1.0000
  Fe  Fe238     1.0  0.58814  0.73143  0.53072  1.0000
  N   N115      1.0  0.61757  0.67262  0.57357  1.0000
  C   C1767     1.0  0.36542  0.51224  0.90225  1.0000
  C   C1768     1.0  0.63342  0.63916  0.59289  1.0000
  C   C1769     1.0  0.62971  0.66501  0.55532  1.0000
  C   C1770     1.0  0.62000  0.65817  0.59239  1.0000
  H   H2088     1.0  0.63255  0.68491  0.91047  1.0000
  C   C1771     1.0  0.64533  0.72942  0.88483  1.0000
  H   H2089     1.0  0.64155  0.55614  0.84821  1.0000
  H   H2090     1.0  0.43905  0.69492  0.53660  1.0000
  N   N116      1.0  0.65534  0.56291  0.81688  1.0000
  H   H2091     1.0  0.58594  0.68598  0.58357  1.0000
  H   H2092     1.0  0.52195  0.71472  0.51906  1.0000
  H   H2093     1.0  0.64017  0.68817  0.57543  1.0000
  C   C1772     1.0  0.57071  0.50385  0.64769  1.0000
  C   C1773     1.0  0.35318  0.50286  0.89579  1.0000
  C   C1774     1.0  0.59580  0.67762  0.57197  1.0000
  H   H2094     1.0  0.62519  0.65120  0.55412  1.0000
  H   H2095     1.0  0.62738  0.67620  0.54146  1.0000
  H   H2096     1.0  0.45998  0.56771  0.81602  1.0000
  C   C1775     1.0  0.35457  0.57438  0.87094  1.0000
  H   H2097     1.0  0.38007  0.53228  0.79646  1.0000
  H   H2098     1.0  0.61186  0.62272  0.94853  1.0000
  C   C1776     1.0  0.33831  0.55320  0.82730  1.0000
  C   C1777     1.0  0.66524  0.67397  0.96336  1.0000
  C   C1778     1.0  0.51846  0.51064  0.76491  1.0000
  H   H2099     1.0  0.40235  0.58152  0.84642  1.0000
  S   S473      1.0  0.47448  0.69815  0.48701  1.0000
  H   H2100     1.0  0.53311  0.53334  0.73128  1.0000
  C   C1779     1.0  0.35580  0.52583  0.49168  1.0000
  C   C1780     1.0  0.64101  0.55347  0.64686  1.0000
  S   S474      1.0  0.44206  0.48800  0.70282  1.0000
  H   H2101     1.0  0.55803  0.53228  0.65678  1.0000
  H   H2102     1.0  0.62421  0.57100  0.81203  1.0000
  C   C1781     1.0  0.58155  0.71995  0.85694  1.0000
  C   C1782     1.0  0.60885  0.66304  0.61107  1.0000
  H   H2103     1.0  0.51166  0.53493  0.67689  1.0000
  C   C1783     1.0  0.59462  0.73139  0.94446  1.0000
  H   H2104     1.0  0.50769  0.73461  0.95068  1.0000
  H   H2105     1.0  0.48294  0.51848  0.75320  1.0000
  H   H2106     1.0  0.53738  0.53672  0.69480  1.0000
  C   C1784     1.0  0.44478  0.72471  0.52488  1.0000
  H   H2107     1.0  0.64974  0.58638  0.72514  1.0000
  H   H2108     1.0  0.34828  0.54507  0.94742  1.0000
  H   H2109     1.0  0.50353  0.71387  0.94304  1.0000
  H   H2110     1.0  0.50810  0.69335  0.54874  1.0000
  H   H2111     1.0  0.59358  0.68739  0.55738  1.0000
  H   H2112     1.0  0.35501  0.51865  0.50718  1.0000
  H   H2113     1.0  0.48135  0.70439  0.59914  1.0000
  S   S475      1.0  0.56149  0.71691  0.53456  1.0000
  H   H2114     1.0  0.48433  0.58545  0.78955  1.0000
  H   H2115     1.0  0.53362  0.54476  0.75111  1.0000
  H   H2116     1.0  0.50610  0.72237  0.57624  1.0000
  C   C1785     1.0  0.64878  0.54852  0.83526  1.0000
  H   H2117     1.0  0.35911  0.55779  0.91109  1.0000
  Fe  Fe239     1.0  0.65334  0.65394  0.85655  1.0000
  H   H2118     1.0  0.35797  0.49887  0.88113  1.0000
  H   H2119     1.0  0.63844  0.60633  0.90700  1.0000
  N   N117      1.0  0.65214  0.61647  0.92602  1.0000
  H   H2120     1.0  0.64566  0.61151  0.61115  1.0000
  H   H2121     1.0  0.63694  0.64447  0.93528  1.0000
  H   H2122     1.0  0.64639  0.66191  0.55496  1.0000
  H   H2123     1.0  0.63702  0.54485  0.79735  1.0000
  H   H2124     1.0  0.66209  0.53686  0.83930  1.0000
  C   C1786     1.0  0.39109  0.56163  0.48273  1.0000
  Fe  Fe240     1.0  0.55309  0.72394  0.56540  1.0000
  H   H2125     1.0  0.36151  0.52125  0.95897  1.0000
  H   H2126     1.0  0.48622  0.72280  0.96415  1.0000
  C   C1787     1.0  0.49586  0.72671  0.56535  1.0000
  C   C1788     1.0  0.57187  0.52158  0.65262  1.0000
  C   C1789     1.0  0.53692  0.70320  0.95839  1.0000
  C   C1790     1.0  0.62169  0.60903  0.95389  1.0000
  C   C1791     1.0  0.51224  0.72020  0.50830  1.0000
  H   H2127     1.0  0.65319  0.52510  0.77136  1.0000
  H   H2128     1.0  0.55619  0.71838  0.78406  1.0000
  N   N118      1.0  0.57084  0.68426  0.73058  1.0000
  C   C1792     1.0  0.56665  0.66372  0.73474  1.0000
  C   C1793     1.0  0.55315  0.69827  0.72334  1.0000
  C   C1794     1.0  0.58906  0.68568  0.71407  1.0000
  C   C1795     1.0  0.57476  0.68835  0.74879  1.0000
  C   C1796     1.0  0.59152  0.67652  0.75714  1.0000
  C   C1797     1.0  0.56208  0.70364  0.75898  1.0000
  C   C1798     1.0  0.59543  0.67983  0.77447  1.0000
  C   C1799     1.0  0.62922  0.72572  0.94883  1.0000
  C   C1800     1.0  0.58273  0.69490  0.78410  1.0000
  H   H2129     1.0  0.55400  0.66137  0.74799  1.0000
  H   H2130     1.0  0.56239  0.66038  0.72183  1.0000
  H   H2131     1.0  0.58018  0.65216  0.73789  1.0000
  H   H2132     1.0  0.53863  0.69707  0.73453  1.0000
  H   H2133     1.0  0.55092  0.69483  0.70945  1.0000
  H   H2134     1.0  0.55539  0.71406  0.71959  1.0000
  H   H2135     1.0  0.60258  0.67407  0.71730  1.0000
  H   H2136     1.0  0.58630  0.68337  0.69994  1.0000
  H   H2137     1.0  0.59335  0.70062  0.71105  1.0000
  H   H2138     1.0  0.65419  0.71330  0.48366  1.0000
  C   C1801     1.0  0.34062  0.54222  0.48644  1.0000
  C   C1802     1.0  0.40606  0.55815  0.51113  1.0000
  C   C1803     1.0  0.64254  0.60384  0.94441  1.0000
  H   H2139     1.0  0.46049  0.68729  0.56120  1.0000
  C   C1804     1.0  0.63716  0.57792  0.81184  1.0000
  H   H2140     1.0  0.59829  0.67715  0.61194  1.0000
  H   H2141     1.0  0.64497  0.48771  0.65211  1.0000
  H   H2142     1.0  0.64856  0.64684  0.90918  1.0000
  C   C1805     1.0  0.46829  0.54106  0.80350  1.0000
  C   C1806     1.0  0.60830  0.73045  0.95632  1.0000
  H   H2143     1.0  0.37961  0.51504  0.89225  1.0000
  H   H2144     1.0  0.60474  0.70666  0.89455  1.0000
  C   C1807     1.0  0.64934  0.57378  0.66599  1.0000
  H   H2145     1.0  0.62977  0.49485  0.60370  1.0000
  N   N119      1.0  0.44054  0.55236  0.71035  1.0000
  C   C1808     1.0  0.43820  0.57160  0.69578  1.0000
  C   C1809     1.0  0.46104  0.54057  0.70349  1.0000
  C   C1810     1.0  0.42479  0.54149  0.70969  1.0000
  C   C1811     1.0  0.43850  0.55480  0.73107  1.0000
  C   C1812     1.0  0.44027  0.53769  0.74659  1.0000
  C   C1813     1.0  0.43477  0.57384  0.73654  1.0000
  C   C1814     1.0  0.43824  0.53948  0.76632  1.0000
  C   C1815     1.0  0.43255  0.57546  0.75642  1.0000
  C   C1816     1.0  0.43412  0.55833  0.77130  1.0000
  H   H2146     1.0  0.45031  0.58011  0.69465  1.0000
  H   H2147     1.0  0.43988  0.56907  0.68036  1.0000
  H   H2148     1.0  0.42288  0.58116  0.69958  1.0000
  H   H2149     1.0  0.47335  0.54809  0.70395  1.0000
  H   H2150     1.0  0.46320  0.53884  0.68782  1.0000
  H   H2151     1.0  0.46355  0.52517  0.71240  1.0000
  H   H2152     1.0  0.40915  0.54942  0.71554  1.0000
  H   H2153     1.0  0.42540  0.53986  0.69422  1.0000
  H   H2154     1.0  0.42678  0.52595  0.71852  1.0000
  H   H2155     1.0  0.44319  0.52273  0.74355  1.0000
  H   H2156     1.0  0.43341  0.58771  0.72577  1.0000
  H   H2157     1.0  0.43984  0.52614  0.77784  1.0000
  H   H2158     1.0  0.42948  0.59010  0.76037  1.0000
  H   H2159     1.0  0.43212  0.55963  0.78674  1.0000
  C   C1817     1.0  0.48848  0.71450  0.49071  1.0000
  H   H2160     1.0  0.50791  0.50018  0.77307  1.0000
  H   H2161     1.0  0.64108  0.58731  0.79678  1.0000
  C   C1818     1.0  0.63894  0.49020  0.61551  1.0000
  C   C1819     1.0  0.51428  0.54934  0.67734  1.0000
  C   C1820     1.0  0.64939  0.72880  0.48538  1.0000
  H   H2162     1.0  0.66145  0.61580  0.89459  1.0000
  H   H2163     1.0  0.65600  0.69326  0.90690  1.0000
  C   C1821     1.0  0.49413  0.52802  0.74427  1.0000
  C   C1822     1.0  0.50853  0.68677  0.97557  1.0000
  H   H2164     1.0  0.38711  0.53870  0.50917  1.0000
  C   C1823     1.0  0.64249  0.69517  0.90030  1.0000
  H   H2165     1.0  0.64823  0.68987  0.88588  1.0000
  C   C1824     1.0  0.61511  0.71733  0.88648  1.0000
  H   H2166     1.0  0.49190  0.67884  0.56779  1.0000
  C   C1825     1.0  0.61273  0.59634  0.97064  1.0000
  H   H2167     1.0  0.52744  0.51189  0.77548  1.0000
  H   H2168     1.0  0.65920  0.72764  0.89087  1.0000
  S   S476      1.0  0.49181  0.52402  0.62314  1.0000
  H   H2169     1.0  0.37343  0.54246  0.95131  1.0000
  C   C1826     1.0  0.61100  0.64978  0.62906  1.0000
  H   H2170     1.0  0.59309  0.66012  0.90880  1.0000
  Fe  Fe241     1.0  0.48042  0.53581  0.65168  1.0000
  N   N120      1.0  0.63118  0.71619  0.89751  1.0000
  H   H2171     1.0  0.62173  0.71339  0.87145  1.0000
  H   H2172     1.0  0.62563  0.63747  0.91806  1.0000
  H   H2173     1.0  0.43554  0.72773  0.51376  1.0000
  H   H2174     1.0  0.57046  0.60523  0.93133  1.0000
  H   H2175     1.0  0.65287  0.71781  0.92456  1.0000
  H   H2176     1.0  0.64320  0.50390  0.61732  1.0000
  Fe  Fe242     1.0  0.46160  0.49954  0.67332  1.0000
  H   H2177     1.0  0.62595  0.62105  0.64301  1.0000
  H   H2178     1.0  0.46355  0.69520  0.59084  1.0000
  C   C1827     1.0  0.50320  0.56686  0.66781  1.0000
  H   H2179     1.0  0.54268  0.71751  0.95379  1.0000
  C   C1828     1.0  0.56611  0.70677  0.77637  1.0000
  H   H2180     1.0  0.36789  0.56076  0.81417  1.0000
  H   H2181     1.0  0.55567  0.61541  0.96405  1.0000
  H   H2182     1.0  0.53826  0.69756  0.94452  1.0000
  C   C1829     1.0  0.35784  0.55058  0.81533  1.0000
  S   S477      1.0  0.41408  0.54340  0.83547  1.0000
  C   C1830     1.0  0.49918  0.69213  0.56436  1.0000
  C   C1831     1.0  0.63651  0.72169  0.92956  1.0000
  C   C1832     1.0  0.66248  0.53172  0.77731  1.0000
  H   H2183     1.0  0.44465  0.50204  0.91310  1.0000
  C   C1833     1.0  0.35204  0.52094  0.80730  1.0000
  H   H2184     1.0  0.62309  0.51607  0.64565  1.0000
  S   S478      1.0  0.65240  0.65468  0.96503  1.0000
  C   C1834     1.0  0.65382  0.60717  0.90877  1.0000
  C   C1835     1.0  0.41234  0.58466  0.48234  1.0000
  S   S479      1.0  0.48387  0.56594  0.65587  1.0000
  H   H2185     1.0  0.61438  0.69908  0.58572  1.0000
  C   C1836     1.0  0.49574  0.56095  0.77359  1.0000
  C   C1837     1.0  0.41507  0.57470  0.50151  1.0000
  C   C1838     1.0  0.45942  0.70189  0.55157  1.0000
  S   S480      1.0  0.61904  0.71624  0.51617  1.0000
  C   C1839     1.0  0.66521  0.55166  0.80052  1.0000
  C   C1840     1.0  0.41943  0.49416  0.57331  1.0000
  H   H2186     1.0  0.41508  0.49747  0.55901  1.0000
  C   C1841     1.0  0.48056  0.53153  0.78807  1.0000
  H   H2187     1.0  0.38238  0.54541  0.89721  1.0000
  H   H2188     1.0  0.62311  0.70233  0.55929  1.0000
  C   C1842     1.0  0.52320  0.54181  0.74287  1.0000
  C   C1843     1.0  0.49485  0.54108  0.77273  1.0000
  H   H2189     1.0  0.60161  0.66439  0.75047  1.0000
  H   H2190     1.0  0.50578  0.72957  0.55021  1.0000
  H   H2191     1.0  0.65638  0.56603  0.71282  1.0000
  H   H2192     1.0  0.51032  0.68855  0.57431  1.0000
  H   H2193     1.0  0.45995  0.72154  0.59043  1.0000
  C   C1844     1.0  0.55187  0.72921  0.89060  1.0000
  S   S481      1.0  0.37292  0.49384  0.54333  1.0000
  C   C1845     1.0  0.66058  0.54144  0.64587  1.0000
  C   C1846     1.0  0.47169  0.70788  0.58778  1.0000
  H   H2194     1.0  0.65887  0.59427  0.74941  1.0000
  H   H2195     1.0  0.55589  0.50080  0.64807  1.0000
  C   C1847     1.0  0.34035  0.51405  0.93310  1.0000
  C   C1848     1.0  0.66051  0.57178  0.72440  1.0000
  N   N121      1.0  0.48414  0.71092  0.56719  1.0000
  C   C1849     1.0  0.63280  0.73422  0.50059  1.0000
  H   H2196     1.0  0.52922  0.50304  0.75306  1.0000
  H   H2197     1.0  0.65712  0.56122  0.73882  1.0000
  S   S482      1.0  0.43113  0.48982  0.95519  1.0000
  C   C1850     1.0  0.58851  0.49008  0.64204  1.0000
  H   H2198     1.0  0.60570  0.73264  0.88409  1.0000
  C   C1851     1.0  0.48769  0.73407  0.47970  1.0000
  H   H2199     1.0  0.33391  0.72500  0.89490  1.0000
  C   C1852     1.0  0.33466  0.49897  0.90797  1.0000
  S   S483      1.0  0.53398  0.73480  0.91208  1.0000
  H   H2200     1.0  0.59674  0.60065  0.97749  1.0000
  H   H2201     1.0  0.37178  0.92105  0.46603  1.0000
  H   H2202     1.0  0.37553  0.95668  0.40441  1.0000
  C   C1853     1.0  0.40128  0.88360  0.99048  1.0000
  H   H2203     1.0  0.47721  0.79400  0.38868  1.0000
  Fe  Fe243     1.0  0.43413  0.90749  0.39757  1.0000
  S   S484      1.0  0.40580  0.91893  0.38540  1.0000
  S   S485      1.0  0.44411  0.92965  0.40963  1.0000
  Fe  Fe244     1.0  0.44070  0.86662  0.38655  1.0000
  S   S486      1.0  0.46205  0.83661  0.38533  1.0000
  Fe  Fe245     1.0  0.42332  0.90436  0.35975  1.0000
  S   S487      1.0  0.42222  0.92352  0.32951  1.0000
  S   S488      1.0  0.45253  0.89482  0.37079  1.0000
  S   S489      1.0  0.42489  0.87841  0.41474  1.0000
  S   S490      1.0  0.66599  0.78700  0.36386  1.0000
  H   H2204     1.0  0.47815  0.73957  0.46876  1.0000
  H   H2205     1.0  0.58763  0.94538  0.16938  1.0000
  C   C1854     1.0  0.44627  0.96946  0.39975  1.0000
  H   H2206     1.0  0.61035  0.96041  0.12912  1.0000
  H   H2207     1.0  0.54601  0.78925  0.34421  1.0000
  C   C1855     1.0  0.35077  0.96590  0.36816  1.0000
  C   C1856     1.0  0.63196  0.84922  0.24207  1.0000
  S   S491      1.0  0.56717  0.75461  0.27836  1.0000
  H   H2208     1.0  0.64993  0.89455  0.23641  1.0000
  C   C1857     1.0  0.62772  0.75226  0.43965  1.0000
  C   C1858     1.0  0.47587  0.96004  0.22542  1.0000
  C   C1859     1.0  0.56168  0.77333  0.42757  1.0000
  Fe  Fe246     1.0  0.59270  0.76979  0.27725  1.0000
  H   H2209     1.0  0.33442  0.95324  0.40680  1.0000
  S   S492      1.0  0.59577  0.79917  0.25611  1.0000
  C   C1860     1.0  0.33545  0.91344  0.43579  1.0000
  C   C1861     1.0  0.35900  0.93305  0.31611  1.0000
  C   C1862     1.0  0.65998  0.74950  0.36302  1.0000
  H   H2210     1.0  0.39256  0.89783  0.34032  1.0000
  H   H2211     1.0  0.34797  0.92302  0.00430  1.0000
  S   S493      1.0  0.58703  0.76821  0.31032  1.0000
  Fe  Fe247     1.0  0.53236  0.90058  0.27501  1.0000
  S   S494      1.0  0.51881  0.91249  0.24788  1.0000
  S   S495      1.0  0.53154  0.86912  0.29204  1.0000
  C   C1863     1.0  0.45145  0.77974  0.40258  1.0000
  S   S496      1.0  0.52360  0.95767  0.25078  1.0000
  Fe  Fe248     1.0  0.50098  0.93731  0.26367  1.0000
  C   C1864     1.0  0.35240  0.91814  0.99011  1.0000
  Fe  Fe249     1.0  0.54282  0.93142  0.23752  1.0000
  S   S497      1.0  0.55812  0.93639  0.20522  1.0000
  S   S498      1.0  0.51280  0.92424  0.29159  1.0000
  S   S499      1.0  0.55847  0.91695  0.26317  1.0000
  Fe  Fe250     1.0  0.56332  0.75084  0.31152  1.0000
  H   H2212     1.0  0.46035  0.76475  0.40249  1.0000
  H   H2213     1.0  0.37822  0.94385  0.35905  1.0000
  H   H2214     1.0  0.60753  0.83023  0.28869  1.0000
  C   C1865     1.0  0.52119  0.83184  0.36125  1.0000
  H   H2215     1.0  0.55245  0.77309  0.41730  1.0000
  S   S500      1.0  0.40045  0.97123  0.00677  1.0000
  C   C1866     1.0  0.52287  0.77610  0.38157  1.0000
  H   H2216     1.0  0.49059  0.84749  0.28618  1.0000
  Fe  Fe251     1.0  0.53743  0.94206  0.27725  1.0000
  S   S501      1.0  0.40429  0.95760  0.06436  1.0000
  H   H2217     1.0  0.47695  0.90112  0.26864  1.0000
  C   C1867     1.0  0.33666  0.97590  0.12618  1.0000
  C   C1868     1.0  0.35146  0.95973  0.09758  1.0000
  H   H2218     1.0  0.49786  0.76200  0.47499  1.0000
  H   H2219     1.0  0.65991  0.86990  0.21259  1.0000
  Fe  Fe252     1.0  0.65604  0.97038  0.16000  1.0000
  H   H2220     1.0  0.40037  0.94612  0.44879  1.0000
  H   H2221     1.0  0.59851  0.90241  0.22566  1.0000
  C   C1869     1.0  0.44161  0.97600  0.08981  1.0000
  C   C1870     1.0  0.39509  0.86798  0.98585  1.0000
  H   H2222     1.0  0.46562  0.80679  0.33679  1.0000
  C   C1871     1.0  0.51920  0.79722  0.37998  1.0000
  C   C1872     1.0  0.56414  0.77493  0.46060  1.0000
  C   C1873     1.0  0.64376  0.75384  0.97940  1.0000
  H   H2223     1.0  0.37069  0.75836  0.41595  1.0000
  S   S502      1.0  0.54854  0.95646  0.29655  1.0000
  H   H2224     1.0  0.51999  0.74731  0.40037  1.0000
  S   S503      1.0  0.66200  0.95878  0.13162  1.0000
  H   H2225     1.0  0.35809  0.90319  0.33314  1.0000
  C   C1874     1.0  0.62380  0.75277  0.98961  1.0000
  H   H2226     1.0  0.44326  0.90605  0.21442  1.0000
  H   H2227     1.0  0.57888  0.94579  0.13916  1.0000
  S   S504      1.0  0.36232  0.95349  0.03792  1.0000
  C   C1875     1.0  0.47079  0.89469  0.30844  1.0000
  H   H2228     1.0  0.45092  0.95646  0.03099  1.0000
  C   C1876     1.0  0.42012  0.96165  0.45518  1.0000
  H   H2229     1.0  0.38517  0.89994  0.44008  1.0000
  H   H2230     1.0  0.48662  0.88830  0.31083  1.0000
  H   H2231     1.0  0.40170  0.95869  0.40090  1.0000
  Fe  Fe253     1.0  0.34395  0.98476  0.03194  1.0000
  C   C1877     1.0  0.36255  0.74713  0.41415  1.0000
  H   H2232     1.0  0.35362  0.92630  0.36360  1.0000
  H   H2233     1.0  0.59330  0.86632  0.28819  1.0000
  S   S505      1.0  0.46734  0.94440  0.26546  1.0000
  C   C1878     1.0  0.62612  0.83513  0.25913  1.0000
  H   H2234     1.0  0.43236  0.94346  0.25141  1.0000
  N   N122      1.0  0.33615  0.95205  0.37620  1.0000
  C   C1879     1.0  0.36924  0.90718  0.44280  1.0000
  H   H2235     1.0  0.45230  0.96906  0.09949  1.0000
  C   C1880     1.0  0.58191  0.94300  0.20120  1.0000
  C   C1881     1.0  0.59359  0.94631  0.18180  1.0000
  C   C1882     1.0  0.61324  0.95032  0.17847  1.0000
  C   C1883     1.0  0.62128  0.95071  0.19464  1.0000
  C   C1884     1.0  0.60938  0.94799  0.21399  1.0000
  C   C1885     1.0  0.58964  0.94424  0.21726  1.0000
  S   S506      1.0  0.52895  0.78968  0.97853  1.0000
  C   C1886     1.0  0.46725  0.95270  0.31378  1.0000
  H   H2236     1.0  0.61545  0.94878  0.22643  1.0000
  H   H2237     1.0  0.58051  0.94226  0.23220  1.0000
  C   C1887     1.0  0.36710  0.91481  0.32727  1.0000
  H   H2238     1.0  0.64958  0.88942  0.19421  1.0000
  S   S507      1.0  0.36504  0.88902  0.41404  1.0000
  C   C1888     1.0  0.45234  0.85763  0.32629  1.0000
  C   C1889     1.0  0.57657  0.81868  0.26462  1.0000
  C   C1890     1.0  0.56155  0.81444  0.28171  1.0000
  C   C1891     1.0  0.54746  0.83007  0.28965  1.0000
  C   C1892     1.0  0.54825  0.85003  0.28054  1.0000
  C   C1893     1.0  0.56257  0.85436  0.26287  1.0000
  C   C1894     1.0  0.57668  0.83865  0.25486  1.0000
  H   H2239     1.0  0.56082  0.79910  0.28889  1.0000
  H   H2240     1.0  0.53604  0.82668  0.30296  1.0000
  H   H2241     1.0  0.56315  0.86977  0.25569  1.0000
  H   H2242     1.0  0.58813  0.84197  0.24151  1.0000
  H   H2243     1.0  0.52712  0.97239  0.35502  1.0000
  C   C1895     1.0  0.62415  0.87010  0.24126  1.0000
  C   C1896     1.0  0.63497  0.76498  0.33491  1.0000
  C   C1897     1.0  0.44236  0.97370  0.36045  1.0000
  H   H2244     1.0  0.57131  0.79460  0.99049  1.0000
  H   H2245     1.0  0.58898  0.77140  0.40545  1.0000
  H   H2246     1.0  0.48393  0.96671  0.37227  1.0000
  H   H2247     1.0  0.62560  0.77106  0.32388  1.0000
  C   C1898     1.0  0.38335  0.83419  0.97884  1.0000
  N   N123      1.0  0.34631  0.97903  0.10463  1.0000
  H   H2248     1.0  0.40261  0.80446  0.41559  1.0000
  S   S508      1.0  0.33863  0.98463  0.27004  1.0000
  H   H2249     1.0  0.53141  0.83348  0.37042  1.0000
  C   C1899     1.0  0.51767  0.76330  0.39982  1.0000
  C   C1900     1.0  0.39821  0.92683  0.32384  1.0000
  C   C1901     1.0  0.37068  0.94806  0.30854  1.0000
  C   C1902     1.0  0.39040  0.94483  0.31216  1.0000
  H   H2250     1.0  0.36453  0.96220  0.29995  1.0000
  H   H2251     1.0  0.39932  0.95652  0.30640  1.0000
  C   C1903     1.0  0.44374  0.95301  0.39327  1.0000
  C   C1904     1.0  0.47935  0.96724  0.30785  1.0000
  C   C1905     1.0  0.34615  0.93054  0.37831  1.0000
  H   H2252     1.0  0.46047  0.89483  0.32333  1.0000
  H   H2253     1.0  0.43248  0.94834  0.09066  1.0000
  C   C1906     1.0  0.44129  0.95530  0.37372  1.0000
  H   H2254     1.0  0.61427  0.90644  0.20125  1.0000
  C   C1907     1.0  0.35606  0.90415  0.43213  1.0000
  Fe  Fe254     1.0  0.39800  0.88897  0.39987  1.0000
  H   H2255     1.0  0.43923  0.94272  0.36860  1.0000
  C   C1908     1.0  0.38658  0.91181  0.33139  1.0000
  C   C1909     1.0  0.65558  0.77021  0.35605  1.0000
  H   H2256     1.0  0.50194  0.97933  0.31389  1.0000
  S   S509      1.0  0.48007  0.97225  0.12912  1.0000
  H   H2257     1.0  0.48982  0.81349  0.30442  1.0000
  H   H2258     1.0  0.45653  0.95245  0.30500  1.0000
  H   H2259     1.0  0.56132  0.75156  0.03332  1.0000
  C   C1910     1.0  0.43036  0.78260  0.41018  1.0000
  C   C1911     1.0  0.41894  0.80215  0.40980  1.0000
  C   C1912     1.0  0.42858  0.81877  0.40227  1.0000
  C   C1913     1.0  0.44967  0.81593  0.39479  1.0000
  C   C1914     1.0  0.46102  0.79638  0.39475  1.0000
  H   H2260     1.0  0.34123  0.98146  0.17191  1.0000
  H   H2261     1.0  0.52512  0.84128  0.34615  1.0000
  H   H2262     1.0  0.41965  0.83376  0.40238  1.0000
  H   H2263     1.0  0.47019  0.91068  0.30087  1.0000
  H   H2264     1.0  0.60307  0.89135  0.25875  1.0000
  H   H2265     1.0  0.36222  0.94839  0.10592  1.0000
  H   H2266     1.0  0.49004  0.93993  0.37804  1.0000
  H   H2267     1.0  0.61933  0.78423  0.39673  1.0000
  C   C1915     1.0  0.51014  0.80469  0.39793  1.0000
  C   C1916     1.0  0.65307  0.76357  0.47419  1.0000
  S   S510      1.0  0.41299  0.87511  0.37288  1.0000
  H   H2268     1.0  0.47491  0.87662  0.26691  1.0000
  C   C1917     1.0  0.59702  0.96811  0.12304  1.0000
  C   C1918     1.0  0.49282  0.96785  0.31947  1.0000
  H   H2269     1.0  0.43857  0.88421  0.28469  1.0000
  C   C1919     1.0  0.45516  0.97065  0.03011  1.0000
  H   H2270     1.0  0.49276  0.75571  0.35559  1.0000
  H   H2271     1.0  0.44228  0.83496  0.35116  1.0000
  H   H2272     1.0  0.53607  0.77519  0.45256  1.0000
  C   C1920     1.0  0.50875  0.77111  0.41710  1.0000
  C   C1921     1.0  0.37180  0.95931  0.36009  1.0000
  N   N124      1.0  0.50820  0.95400  0.35052  1.0000
  C   C1922     1.0  0.49671  0.95360  0.37144  1.0000
  H   H2273     1.0  0.35893  0.96150  0.08144  1.0000
  H   H2274     1.0  0.64230  0.84329  0.22964  1.0000
  C   C1923     1.0  0.49447  0.95370  0.33753  1.0000
  C   C1924     1.0  0.48273  0.93845  0.34247  1.0000
  H   H2275     1.0  0.64267  0.76932  0.40236  1.0000
  C   C1925     1.0  0.46920  0.93818  0.33086  1.0000
  H   H2276     1.0  0.38693  0.74191  0.37881  1.0000
  H   H2277     1.0  0.62084  0.78836  0.44829  1.0000
  C   C1926     1.0  0.65213  0.73657  0.35570  1.0000
  H   H2278     1.0  0.42270  0.90343  0.98205  1.0000
  S   S511      1.0  0.61676  0.74156  0.27731  1.0000
  H   H2279     1.0  0.62085  0.74021  0.00173  1.0000
  C   C1927     1.0  0.43826  0.95639  0.22001  1.0000
  H   H2280     1.0  0.62397  0.73875  0.43683  1.0000
  H   H2281     1.0  0.49621  0.75497  0.01037  1.0000
  H   H2282     1.0  0.35408  0.75422  0.40194  1.0000
  C   C1928     1.0  0.34213  0.90477  0.98634  1.0000
  H   H2283     1.0  0.48363  0.92675  0.35554  1.0000
  C   C1929     1.0  0.55407  0.98074  0.28873  1.0000
  H   H2284     1.0  0.45996  0.92679  0.33525  1.0000
  H   H2285     1.0  0.43231  0.89254  0.30791  1.0000
  C   C1930     1.0  0.47921  0.82587  0.31041  1.0000
  C   C1931     1.0  0.62580  0.77034  0.40646  1.0000
  C   C1932     1.0  0.44312  0.94994  0.23891  1.0000
  C   C1933     1.0  0.58207  0.73664  0.20224  1.0000
  C   C1934     1.0  0.62364  0.78831  0.43206  1.0000
  H   H2286     1.0  0.61525  0.80275  0.42479  1.0000
  H   H2287     1.0  0.49481  0.87998  0.27758  1.0000
  C   C1935     1.0  0.50829  0.80963  0.34868  1.0000
  H   H2288     1.0  0.53316  0.93530  0.33432  1.0000
  H   H2289     1.0  0.64461  0.75066  0.43583  1.0000
  C   C1936     1.0  0.47849  0.88517  0.27654  1.0000
  S   S512      1.0  0.64661  0.95325  0.19091  1.0000
  H   H2290     1.0  0.63938  0.79390  0.33676  1.0000
  N   N125      1.0  0.62945  0.88546  0.22329  1.0000
  H   H2291     1.0  0.57265  0.97516  0.31053  1.0000
  H   H2292     1.0  0.38806  0.82829  0.99344  1.0000
  C   C1937     1.0  0.34109  0.92862  0.46091  1.0000
  H   H2293     1.0  0.66440  0.82666  0.46727  1.0000
  H   H2294     1.0  0.53988  0.78104  0.01630  1.0000
  C   C1938     1.0  0.52480  0.93606  0.34995  1.0000
  H   H2295     1.0  0.60470  0.88347  0.21089  1.0000
  H   H2296     1.0  0.52907  0.76938  0.36852  1.0000
  H   H2297     1.0  0.59364  0.77403  0.46518  1.0000
  C   C1939     1.0  0.61096  0.89484  0.21492  1.0000
  H   H2298     1.0  0.38981  0.94323  0.42277  1.0000
  H   H2299     1.0  0.50515  0.83861  0.36755  1.0000
  C   C1940     1.0  0.64283  0.77789  0.34222  1.0000
  C   C1941     1.0  0.58278  0.77236  0.42095  1.0000
  H   H2300     1.0  0.54824  0.81452  0.33473  1.0000
  C   C1942     1.0  0.57917  0.95994  0.12882  1.0000
  Fe  Fe255     1.0  0.60892  0.73877  0.31077  1.0000
  H   H2301     1.0  0.58730  0.81197  0.98896  1.0000
  H   H2302     1.0  0.38112  0.86378  0.99507  1.0000
  H   H2303     1.0  0.50418  0.76122  0.43115  1.0000
  H   H2304     1.0  0.50947  0.79420  0.34636  1.0000
  C   C1943     1.0  0.44369  0.89238  0.29364  1.0000
  S   S513      1.0  0.41782  0.76207  0.41981  1.0000
  H   H2305     1.0  0.49751  0.79786  0.42950  1.0000
  H   H2306     1.0  0.50587  0.82054  0.39816  1.0000
  C   C1944     1.0  0.58521  0.77391  0.45420  1.0000
  H   H2307     1.0  0.44191  0.86942  0.33325  1.0000
  C   C1945     1.0  0.46935  0.97140  0.04071  1.0000
  H   H2308     1.0  0.44256  0.90841  0.28593  1.0000
  H   H2309     1.0  0.49234  0.81461  0.35665  1.0000
  C   C1946     1.0  0.59522  0.77257  0.43417  1.0000
  H   H2310     1.0  0.51055  0.81948  0.33367  1.0000
  H   H2311     1.0  0.55577  0.80210  0.35792  1.0000
  H   H2312     1.0  0.62294  0.75707  0.40232  1.0000
  C   C1947     1.0  0.52422  0.74049  0.34983  1.0000
  H   H2313     1.0  0.54957  0.98204  0.20863  1.0000
  H   H2314     1.0  0.49039  0.96153  0.22750  1.0000
  H   H2315     1.0  0.62320  0.75190  0.45601  1.0000
  C   C1948     1.0  0.51760  0.97212  0.34454  1.0000
  H   H2316     1.0  0.63164  0.81921  0.25925  1.0000
  C   C1949     1.0  0.43042  0.96428  0.08471  1.0000
  C   C1950     1.0  0.36243  0.97271  0.43803  1.0000
  C   C1951     1.0  0.61246  0.84131  0.27578  1.0000
  C   C1952     1.0  0.60752  0.76759  0.98406  1.0000
  C   C1953     1.0  0.34481  0.98047  0.14081  1.0000
  H   H2317     1.0  0.44837  0.96768  0.41477  1.0000
  Fe  Fe256     1.0  0.38662  0.96932  0.03941  1.0000
  C   C1954     1.0  0.47937  0.84558  0.29996  1.0000
  N   N126      1.0  0.51945  0.91891  0.17892  1.0000
  C   C1955     1.0  0.52438  0.91621  0.15786  1.0000
  C   C1956     1.0  0.51994  0.93988  0.17918  1.0000
  C   C1957     1.0  0.53591  0.90561  0.18866  1.0000
  C   C1958     1.0  0.49878  0.91487  0.18881  1.0000
  C   C1959     1.0  0.49482  0.90125  0.20726  1.0000
  C   C1960     1.0  0.48171  0.92518  0.18024  1.0000
  C   C1961     1.0  0.47499  0.89808  0.21626  1.0000
  C   C1962     1.0  0.46202  0.92173  0.18926  1.0000
  C   C1963     1.0  0.45865  0.90829  0.20728  1.0000
  H   H2318     1.0  0.54033  0.91799  0.15037  1.0000
  H   H2319     1.0  0.52262  0.90113  0.15689  1.0000
  H   H2320     1.0  0.51461  0.92762  0.14854  1.0000
  H   H2321     1.0  0.50912  0.95083  0.17071  1.0000
  H   H2322     1.0  0.53536  0.94352  0.17221  1.0000
  H   H2323     1.0  0.51592  0.94267  0.19473  1.0000
  H   H2324     1.0  0.53641  0.88954  0.18897  1.0000
  H   H2325     1.0  0.55124  0.90895  0.18066  1.0000
  H   H2326     1.0  0.53410  0.90788  0.20413  1.0000
  H   H2327     1.0  0.50673  0.89299  0.21512  1.0000
  H   H2328     1.0  0.48333  0.93639  0.16668  1.0000
  H   H2329     1.0  0.47224  0.88776  0.23035  1.0000
  H   H2330     1.0  0.44923  0.93009  0.18251  1.0000
  H   H2331     1.0  0.47839  0.97787  0.29402  1.0000
  H   H2332     1.0  0.36552  0.95965  0.45010  1.0000
  S   S514      1.0  0.53951  0.95950  0.12889  1.0000
  C   C1964     1.0  0.46565  0.82205  0.32864  1.0000
  Fe  Fe257     1.0  0.37434  0.95847  0.00455  1.0000
  C   C1965     1.0  0.45243  0.83792  0.33667  1.0000
  C   C1966     1.0  0.54418  0.80377  0.34889  1.0000
  N   N127      1.0  0.46475  0.88311  0.29659  1.0000
  N   N128      1.0  0.61766  0.77092  0.42800  1.0000
  N   N129      1.0  0.52319  0.81049  0.36015  1.0000
  C   C1967     1.0  0.50510  0.79174  0.41617  1.0000
  C   C1968     1.0  0.36165  0.91907  0.45751  1.0000
  H   H2333     1.0  0.40845  0.98291  0.23833  1.0000
  H   H2334     1.0  0.53617  0.93615  0.35862  1.0000
  H   H2335     1.0  0.50653  0.95414  0.38152  1.0000
  S   S515      1.0  0.38370  0.93959  0.98047  1.0000
  C   C1969     1.0  0.56170  0.96998  0.12125  1.0000
  C   C1970     1.0  0.60444  0.86162  0.27544  1.0000
  C   C1971     1.0  0.46552  0.86208  0.30742  1.0000
  S   S516      1.0  0.53174  0.75926  0.32973  1.0000
  H   H2336     1.0  0.64242  0.91228  0.21527  1.0000
  H   H2337     1.0  0.62242  0.95244  0.16349  1.0000
  H   H2338     1.0  0.55429  0.97648  0.17595  1.0000
  H   H2339     1.0  0.40112  0.74525  0.39535  1.0000
  H   H2340     1.0  0.42616  0.94874  0.46549  1.0000
  C   C1972     1.0  0.46189  0.95182  0.24162  1.0000
  C   C1973     1.0  0.40542  0.96026  0.44537  1.0000
  S   S517      1.0  0.44458  0.97426  0.18084  1.0000
  H   H2341     1.0  0.35775  0.92685  0.38773  1.0000
  C   C1974     1.0  0.54193  0.76767  0.99123  1.0000
  C   C1975     1.0  0.55792  0.75118  0.01928  1.0000
  H   H2342     1.0  0.47617  0.95786  0.04976  1.0000
  C   C1976     1.0  0.38726  0.95774  0.41221  1.0000
  C   C1977     1.0  0.54581  0.76782  0.00967  1.0000
  C   C1978     1.0  0.47073  0.96700  0.20661  1.0000
  S   S518      1.0  0.33397  0.93725  0.31255  1.0000
  H   H2343     1.0  0.51886  0.92192  0.35613  1.0000
  C   C1979     1.0  0.61011  0.87583  0.25845  1.0000
  C   C1980     1.0  0.41715  0.97294  0.07145  1.0000
  C   C1981     1.0  0.45185  0.96532  0.20394  1.0000
  H   H2344     1.0  0.42385  0.95460  0.21792  1.0000
  C   C1982     1.0  0.38521  0.97277  0.35252  1.0000
  H   H2345     1.0  0.59232  0.76565  0.99204  1.0000
  H   H2346     1.0  0.39223  0.89074  0.00280  1.0000
  C   C1983     1.0  0.65956  0.74350  0.47215  1.0000
  H   H2347     1.0  0.43843  0.98059  0.45932  1.0000
  C   C1984     1.0  0.55240  0.77457  0.44736  1.0000
  C   C1985     1.0  0.63696  0.90120  0.22868  1.0000
  H   H2348     1.0  0.52803  0.97269  0.32965  1.0000
  S   S519      1.0  0.66420  0.78261  0.45720  1.0000
  C   C1986     1.0  0.39737  0.97675  0.43152  1.0000
  H   H2349     1.0  0.36880  0.84542  0.98094  1.0000
  Fe  Fe258     1.0  0.50946  0.98121  0.12865  1.0000
  H   H2350     1.0  0.64029  0.78826  0.42635  1.0000
  H   H2351     1.0  0.35116  0.74440  0.42831  1.0000
  C   C1987     1.0  0.33487  0.97780  0.16096  1.0000
  H   H2352     1.0  0.37751  0.97645  0.10702  1.0000
  H   H2353     1.0  0.62492  0.91015  0.23856  1.0000
  H   H2354     1.0  0.57142  0.75030  0.20517  1.0000
  C   C1988     1.0  0.41845  0.89086  0.97872  1.0000
  H   H2355     1.0  0.49566  0.74353  0.98085  1.0000
  C   C1989     1.0  0.57907  0.80649  0.98029  1.0000
  H   H2356     1.0  0.48130  0.97378  0.19432  1.0000
  H   H2357     1.0  0.42021  0.97931  0.27678  1.0000
  H   H2358     1.0  0.40116  0.96729  0.34633  1.0000
  C   C1990     1.0  0.63979  0.74424  0.34145  1.0000
  C   C1991     1.0  0.50394  0.73987  0.00850  1.0000
  C   C1992     1.0  0.50375  0.74242  0.35989  1.0000
  H   H2359     1.0  0.33779  0.95328  0.09928  1.0000
  C   C1993     1.0  0.64557  0.87732  0.20721  1.0000
  N   N130      1.0  0.38092  0.97528  0.42224  1.0000
  C   C1994     1.0  0.42708  0.97952  0.45167  1.0000
  H   H2360     1.0  0.33501  0.92041  0.38548  1.0000
  C   C1995     1.0  0.54938  0.75047  0.98280  1.0000
  H   H2361     1.0  0.56303  0.97902  0.23793  1.0000
  H   H2362     1.0  0.35005  0.97019  0.43204  1.0000
  H   H2363     1.0  0.65640  0.74229  0.98361  1.0000
  H   H2364     1.0  0.55685  0.77593  0.47600  1.0000
  H   H2365     1.0  0.44121  0.97519  0.34513  1.0000
  H   H2366     1.0  0.38180  0.98153  0.24444  1.0000
  H   H2367     1.0  0.64045  0.86647  0.20124  1.0000
  C   C1996     1.0  0.59768  0.98599  0.10901  1.0000
  C   C1997     1.0  0.56651  0.98600  0.29871  1.0000
  H   H2368     1.0  0.60654  0.77906  0.60627  1.0000
  C   C1998     1.0  0.33603  0.93576  0.80535  1.0000
  C   C1999     1.0  0.36884  0.92455  0.97577  1.0000
  Fe  Fe259     1.0  0.56306  0.76588  0.55028  1.0000
  S   S520      1.0  0.56101  0.79580  0.55864  1.0000
  H   H2369     1.0  0.62513  0.80636  0.85569  1.0000
  C   C2000     1.0  0.49886  0.74674  0.48327  1.0000
  S   S521      1.0  0.57199  0.76202  0.51832  1.0000
  Fe  Fe260     1.0  0.63094  0.86222  0.56914  1.0000
  S   S522      1.0  0.61248  0.89022  0.55416  1.0000
  S   S523      1.0  0.63668  0.83204  0.56010  1.0000
  Fe  Fe261     1.0  0.63910  0.88382  0.59855  1.0000
  S   S524      1.0  0.62068  0.91302  0.58644  1.0000
  H   H2370     1.0  0.39511  0.94218  0.79268  1.0000
  Fe  Fe262     1.0  0.59854  0.89481  0.58555  1.0000
  S   S525      1.0  0.56510  0.90559  0.59641  1.0000
  Fe  Fe263     1.0  0.63658  0.90563  0.55658  1.0000
  C   C2001     1.0  0.33802  0.94992  0.81533  1.0000
  S   S526      1.0  0.61540  0.86595  0.60040  1.0000
  H   H2371     1.0  0.59940  0.78347  0.86748  1.0000
  H   H2372     1.0  0.64783  0.85776  0.52173  1.0000
  H   H2373     1.0  0.43252  0.86122  0.94427  1.0000
  C   C2002     1.0  0.45333  0.92874  0.76261  1.0000
  C   C2003     1.0  0.59549  0.79234  0.60964  1.0000
  S   S527      1.0  0.50352  0.97265  0.67905  1.0000
  C   C2004     1.0  0.57590  0.79547  0.60612  1.0000
  H   H2374     1.0  0.53961  0.87374  0.60059  1.0000
  H   H2375     1.0  0.57605  0.75161  0.84536  1.0000
  H   H2376     1.0  0.33923  0.97802  0.94021  1.0000
  H   H2377     1.0  0.66307  0.77012  0.95537  1.0000
  N   N131      1.0  0.55218  0.84685  0.61949  1.0000
  S   S528      1.0  0.36691  0.87552  0.90916  1.0000
  C   C2005     1.0  0.45517  0.73908  0.52584  1.0000
  C   C2006     1.0  0.43230  0.92919  0.76880  1.0000
  C   C2007     1.0  0.63649  0.79487  0.84915  1.0000
  Fe  Fe264     1.0  0.36513  0.84502  0.90560  1.0000
  S   S529      1.0  0.39094  0.81804  0.90501  1.0000
  H   H2378     1.0  0.63256  0.83650  0.49270  1.0000
  H   H2379     1.0  0.63193  0.78434  0.49142  1.0000
  S   S530      1.0  0.52725  0.79415  0.89146  1.0000
  Fe  Fe265     1.0  0.52888  0.78943  0.94686  1.0000
  S   S531      1.0  0.52695  0.81880  0.92552  1.0000
  S   S532      1.0  0.33545  0.88031  0.96444  1.0000
  Fe  Fe266     1.0  0.50375  0.80847  0.91510  1.0000
  S   S533      1.0  0.47660  0.83294  0.90931  1.0000
  Fe  Fe267     1.0  0.55044  0.80205  0.90401  1.0000
  S   S534      1.0  0.57609  0.81596  0.88330  1.0000
  S   S535      1.0  0.50393  0.78014  0.93831  1.0000
  C   C2008     1.0  0.34162  0.94388  0.83478  1.0000
  H   H2380     1.0  0.36794  0.94962  0.75272  1.0000
  C   C2009     1.0  0.39204  0.91830  0.77009  1.0000
  S   S536      1.0  0.34658  0.91724  0.86910  1.0000
  H   H2381     1.0  0.54673  0.87292  0.63293  1.0000
  H   H2382     1.0  0.37800  0.86342  0.94783  1.0000
  H   H2383     1.0  0.60875  0.82454  0.95441  1.0000
  H   H2384     1.0  0.56635  0.81879  0.97611  1.0000
  C   C2010     1.0  0.64749  0.76960  0.96348  1.0000
  H   H2385     1.0  0.57612  0.77739  0.96292  1.0000
  C   C2011     1.0  0.62681  0.75420  0.50291  1.0000
  C   C2012     1.0  0.57210  0.73984  0.85781  1.0000
  Fe  Fe268     1.0  0.52962  0.76667  0.91559  1.0000
  H   H2386     1.0  0.47783  0.93664  0.73820  1.0000
  C   C2013     1.0  0.42367  0.86675  0.95757  1.0000
  C   C2014     1.0  0.36389  0.90506  0.95350  1.0000
  C   C2015     1.0  0.37452  0.91795  0.95748  1.0000
  H   H2387     1.0  0.35296  0.96941  0.96014  1.0000
  H   H2388     1.0  0.52442  0.83614  0.62213  1.0000
  H   H2389     1.0  0.63538  0.79627  0.94532  1.0000
  H   H2390     1.0  0.36843  0.90017  0.93934  1.0000
  H   H2391     1.0  0.38745  0.92252  0.94643  1.0000
  H   H2392     1.0  0.37219  0.95252  0.78390  1.0000
  C   C2016     1.0  0.55843  0.85914  0.63053  1.0000
  C   C2017     1.0  0.41525  0.82194  0.90500  1.0000
  C   C2018     1.0  0.43036  0.80559  0.91067  1.0000
  C   C2019     1.0  0.44952  0.80861  0.91166  1.0000
  C   C2020     1.0  0.45356  0.82804  0.90695  1.0000
  C   C2021     1.0  0.43854  0.84430  0.90103  1.0000
  C   C2022     1.0  0.41953  0.84125  0.89988  1.0000
  H   H2393     1.0  0.42718  0.79058  0.91450  1.0000
  H   H2394     1.0  0.46104  0.79600  0.91622  1.0000
  H   H2395     1.0  0.44164  0.85934  0.89726  1.0000
  H   H2396     1.0  0.40820  0.85389  0.89503  1.0000
  C   C2023     1.0  0.63742  0.81090  0.89926  1.0000
  C   C2024     1.0  0.62915  0.79356  0.90304  1.0000
  C   C2025     1.0  0.60963  0.79500  0.89934  1.0000
  C   C2026     1.0  0.59872  0.81368  0.89145  1.0000
  C   C2027     1.0  0.60719  0.83077  0.88757  1.0000
  C   C2028     1.0  0.62625  0.82945  0.89178  1.0000
  H   H2397     1.0  0.63763  0.77920  0.90904  1.0000
  H   H2398     1.0  0.60330  0.78165  0.90209  1.0000
  H   H2399     1.0  0.59899  0.84515  0.88118  1.0000
  H   H2400     1.0  0.63252  0.84287  0.88891  1.0000
  C   C2029     1.0  0.61065  0.96201  0.71290  1.0000
  C   C2030     1.0  0.44902  0.94411  0.72913  1.0000
  H   H2401     1.0  0.39354  0.96508  0.77453  1.0000
  N   N132      1.0  0.61019  0.78552  0.83578  1.0000
  C   C2031     1.0  0.38463  0.94888  0.74685  1.0000
  H   H2402     1.0  0.57774  0.96890  0.71652  1.0000
  H   H2403     1.0  0.63773  0.74551  0.88343  1.0000
  C   C2032     1.0  0.60103  0.80663  0.61687  1.0000
  H   H2404     1.0  0.47598  0.74657  0.53887  1.0000
  S   S537      1.0  0.53117  0.96972  0.71216  1.0000
  C   C2033     1.0  0.56152  0.91200  0.61976  1.0000
  C   C2034     1.0  0.57502  0.90201  0.63234  1.0000
  C   C2035     1.0  0.57076  0.95264  0.57048  1.0000
  C   C2036     1.0  0.38911  0.95012  0.77909  1.0000
  S   S538      1.0  0.65167  0.92931  0.53436  1.0000
  C   C2037     1.0  0.54521  0.92704  0.62592  1.0000
  H   H2405     1.0  0.58777  0.89053  0.62769  1.0000
  C   C2038     1.0  0.41889  0.93758  0.75534  1.0000
  H   H2406     1.0  0.45387  0.75332  0.51546  1.0000
  H   H2407     1.0  0.53473  0.93482  0.61620  1.0000
  H   H2408     1.0  0.64674  0.92669  0.66591  1.0000
  H   H2409     1.0  0.37526  0.91871  0.77520  1.0000
  S   S539      1.0  0.55466  0.77351  0.92628  1.0000
  H   H2410     1.0  0.58616  0.80947  0.82613  1.0000
  H   H2411     1.0  0.34919  0.75241  0.88302  1.0000
  C   C2039     1.0  0.66487  0.85147  0.49250  1.0000
  H   H2412     1.0  0.52091  0.85659  0.63412  1.0000
  H   H2413     1.0  0.54748  0.81530  0.60505  1.0000
  H   H2414     1.0  0.56525  0.86246  0.59064  1.0000
  H   H2415     1.0  0.38881  0.94073  0.73423  1.0000
  C   C2040     1.0  0.63593  0.95327  0.53303  1.0000
  C   C2041     1.0  0.61537  0.95577  0.53238  1.0000
  S   S540      1.0  0.33900  0.84132  0.93181  1.0000
  H   H2416     1.0  0.60901  0.94290  0.53299  1.0000
  H   H2417     1.0  0.60245  0.76077  0.85898  1.0000
  H   H2418     1.0  0.42900  0.83063  0.94614  1.0000
  S   S541      1.0  0.58129  0.73605  0.56233  1.0000
  C   C2042     1.0  0.42794  0.94485  0.73517  1.0000
  S   S542      1.0  0.65252  0.95349  0.70783  1.0000
  H   H2419     1.0  0.58196  0.89820  0.66122  1.0000
  H   H2420     1.0  0.61163  0.81457  0.81687  1.0000
  H   H2421     1.0  0.53303  0.83206  0.64508  1.0000
  C   C2043     1.0  0.64163  0.82793  0.50409  1.0000
  H   H2422     1.0  0.33652  0.90451  0.80700  1.0000
  C   C2044     1.0  0.56338  0.97217  0.57495  1.0000
  C   C2045     1.0  0.58256  0.80593  0.55742  1.0000
  C   C2046     1.0  0.57947  0.82565  0.56045  1.0000
  C   C2047     1.0  0.59591  0.83375  0.56138  1.0000
  C   C2048     1.0  0.61567  0.82223  0.55912  1.0000
  C   C2049     1.0  0.61890  0.80269  0.55552  1.0000
  C   C2050     1.0  0.60241  0.79453  0.55472  1.0000
  H   H2423     1.0  0.56421  0.83459  0.56233  1.0000
  H   H2424     1.0  0.59331  0.84889  0.56385  1.0000
  H   H2425     1.0  0.63418  0.79373  0.55362  1.0000
  H   H2426     1.0  0.60498  0.77933  0.55237  1.0000
  H   H2427     1.0  0.59249  0.77846  0.81797  1.0000
  C   C2051     1.0  0.63146  0.78280  0.83824  1.0000
  Fe  Fe269     1.0  0.33945  0.87270  0.93392  1.0000
  S   S543      1.0  0.54915  0.98434  0.66436  1.0000
  C   C2052     1.0  0.63132  0.78461  0.95790  1.0000
  C   C2053     1.0  0.59773  0.77729  0.85506  1.0000
  H   H2428     1.0  0.61848  0.77990  0.80574  1.0000
  H   H2429     1.0  0.41909  0.95181  0.72384  1.0000
  H   H2430     1.0  0.63428  0.83335  0.51826  1.0000
  H   H2431     1.0  0.37241  0.96524  0.91873  1.0000
  S   S544      1.0  0.52448  0.75643  0.50193  1.0000
  H   H2432     1.0  0.46323  0.92281  0.77325  1.0000
  C   C2054     1.0  0.54220  0.97898  0.54992  1.0000
  C   C2055     1.0  0.63687  0.76885  0.48970  1.0000
  H   H2433     1.0  0.39897  0.91026  0.78313  1.0000
  C   C2056     1.0  0.39170  0.85144  0.94510  1.0000
  H   H2434     1.0  0.44282  0.88832  0.95296  1.0000
  H   H2435     1.0  0.45556  0.95042  0.71387  1.0000
  C   C2057     1.0  0.57182  0.90645  0.65131  1.0000
  H   H2436     1.0  0.42657  0.92325  0.78431  1.0000
  S   S545      1.0  0.53393  0.75412  0.55611  1.0000
  C   C2058     1.0  0.56388  0.94655  0.55629  1.0000
  C   C2059     1.0  0.54273  0.93235  0.64450  1.0000
  Fe  Fe270     1.0  0.54445  0.74782  0.52496  1.0000
  C   C2060     1.0  0.34863  0.98256  0.94845  1.0000
  S   S546      1.0  0.55356  0.92809  0.68050  1.0000
  N   N133      1.0  0.61939  0.94321  0.65591  1.0000
  C   C2061     1.0  0.61182  0.92485  0.65672  1.0000
  C   C2062     1.0  0.63303  0.93805  0.67034  1.0000
  C   C2063     1.0  0.60146  0.95848  0.66258  1.0000
  C   C2064     1.0  0.63044  0.95138  0.63577  1.0000
  C   C2065     1.0  0.63915  0.96852  0.63274  1.0000
  C   C2066     1.0  0.63276  0.94293  0.61870  1.0000
  C   C2067     1.0  0.59185  0.97427  0.70975  1.0000
  C   C2068     1.0  0.64331  0.95118  0.59991  1.0000
  H   H2437     1.0  0.40307  0.85834  0.93284  1.0000
  H   H2438     1.0  0.62459  0.91244  0.65241  1.0000
  H   H2439     1.0  0.60345  0.91914  0.67201  1.0000
  H   H2440     1.0  0.60083  0.92790  0.64677  1.0000
  H   H2441     1.0  0.61453  0.75839  0.51502  1.0000
  H   H2442     1.0  0.62516  0.93192  0.68569  1.0000
  H   H2443     1.0  0.63861  0.95118  0.67157  1.0000
  H   H2444     1.0  0.59120  0.96327  0.65176  1.0000
  H   H2445     1.0  0.59218  0.95258  0.67734  1.0000
  H   H2446     1.0  0.60591  0.97205  0.66443  1.0000
  C   C2069     1.0  0.58198  0.79048  0.95278  1.0000
  H   H2447     1.0  0.62707  0.92961  0.61956  1.0000
  H   H2448     1.0  0.64521  0.94432  0.58715  1.0000
  C   C2070     1.0  0.35071  0.77589  0.89657  1.0000
  C   C2071     1.0  0.51103  0.73991  0.49769  1.0000
  Fe  Fe271     1.0  0.53530  0.95879  0.68375  1.0000
  H   H2449     1.0  0.42483  0.82032  0.97241  1.0000
  S   S547      1.0  0.66106  0.81053  0.90451  1.0000
  C   C2072     1.0  0.34018  0.79002  0.90835  1.0000
  H   H2450     1.0  0.38498  0.95950  0.93915  1.0000
  C   C2073     1.0  0.40631  0.85885  0.96934  1.0000
  C   C2074     1.0  0.55175  0.98313  0.60658  1.0000
  C   C2075     1.0  0.64411  0.97008  0.53200  1.0000
  S   S548      1.0  0.65664  0.87726  0.56863  1.0000
  S   S549      1.0  0.34518  0.85660  0.88284  1.0000
  H   H2451     1.0  0.58576  0.82927  0.94501  1.0000
  H   H2452     1.0  0.57252  0.86474  0.62198  1.0000
  H   H2453     1.0  0.56100  0.85059  0.64545  1.0000
  H   H2454     1.0  0.41238  0.81348  0.95608  1.0000
  C   C2076     1.0  0.46163  0.93634  0.74285  1.0000
  C   C2077     1.0  0.56696  0.82792  0.61693  1.0000
  C   C2078     1.0  0.55599  0.92192  0.65726  1.0000
  H   H2455     1.0  0.54442  0.85127  0.59072  1.0000
  C   C2079     1.0  0.58564  0.96390  0.59966  1.0000
  H   H2456     1.0  0.58113  0.78095  0.85485  1.0000
  H   H2457     1.0  0.58000  0.94985  0.60762  1.0000
  C   C2080     1.0  0.60137  0.80715  0.82997  1.0000
  H   H2458     1.0  0.59244  0.83454  0.62608  1.0000
  H   H2459     1.0  0.61096  0.94712  0.72194  1.0000
  H   H2460     1.0  0.34324  0.89384  0.84140  1.0000
  H   H2461     1.0  0.54446  0.95487  0.53499  1.0000
  C   C2081     1.0  0.59928  0.81762  0.94836  1.0000
  H   H2462     1.0  0.60796  0.81410  0.93368  1.0000
  C   C2082     1.0  0.64738  0.76742  0.83115  1.0000
  C   C2083     1.0  0.60842  0.77517  0.82036  1.0000
  H   H2463     1.0  0.63746  0.97612  0.64487  1.0000
  H   H2464     1.0  0.61646  0.80437  0.61914  1.0000
  H   H2465     1.0  0.54519  0.96949  0.61392  1.0000
  H   H2466     1.0  0.65974  0.80160  0.86061  1.0000
  H   H2467     1.0  0.39787  0.90907  0.75828  1.0000
  N   N134      1.0  0.39657  0.93877  0.76254  1.0000
  H   H2468     1.0  0.59022  0.96962  0.61095  1.0000
  Fe  Fe272     1.0  0.34450  0.88697  0.88896  1.0000
  C   C2084     1.0  0.34310  0.92373  0.84438  1.0000
  H   H2469     1.0  0.53037  0.94423  0.64912  1.0000
  C   C2085     1.0  0.65231  0.96758  0.59768  1.0000
  C   C2086     1.0  0.60318  0.97506  0.53010  1.0000
  C   C2087     1.0  0.56193  0.81311  0.60935  1.0000
  C   C2088     1.0  0.55756  0.74452  0.87477  1.0000
  C   C2089     1.0  0.42964  0.88244  0.96230  1.0000
  C   C2090     1.0  0.65629  0.79220  0.85219  1.0000
  C   C2091     1.0  0.55020  0.85906  0.59952  1.0000
  S   S550      1.0  0.65178  0.88293  0.62526  1.0000
  C   C2092     1.0  0.58701  0.82411  0.62064  1.0000
  H   H2470     1.0  0.38679  0.96462  0.74090  1.0000
  H   H2471     1.0  0.59839  0.81549  0.84231  1.0000
  N   N135      1.0  0.39973  0.84286  0.96349  1.0000
  C   C2093     1.0  0.53181  0.84265  0.63068  1.0000
  H   H2472     1.0  0.61219  0.75852  0.82482  1.0000
  H   H2473     1.0  0.55047  0.75993  0.87542  1.0000
  H   H2474     1.0  0.38719  0.83989  0.93953  1.0000
  H   H2475     1.0  0.37940  0.82165  0.97434  1.0000
  C   C2094     1.0  0.54967  0.95968  0.54601  1.0000
  H   H2476     1.0  0.59201  0.78503  0.93935  1.0000
  H   H2477     1.0  0.48564  0.74106  0.56845  1.0000
  C   C2095     1.0  0.54882  0.98515  0.56422  1.0000
  C   C2096     1.0  0.65041  0.97608  0.61412  1.0000
  N   N136      1.0  0.59321  0.79953  0.96248  1.0000
  H   H2478     1.0  0.59971  0.96011  0.58824  1.0000
  C   C2097     1.0  0.62897  0.96900  0.70436  1.0000
  H   H2479     1.0  0.56852  0.80137  0.94810  1.0000
  C   C2098     1.0  0.34038  0.76299  0.89236  1.0000
  N   N137      1.0  0.56974  0.97890  0.59040  1.0000
  H   H2480     1.0  0.64496  0.75706  0.82324  1.0000
  H   H2481     1.0  0.57182  0.78463  0.59986  1.0000
  H   H2482     1.0  0.54582  0.75017  0.96883  1.0000
  H   H2483     1.0  0.58746  0.97701  0.52897  1.0000
  H   H2484     1.0  0.66003  0.96821  0.53245  1.0000
  H   H2485     1.0  0.66470  0.94627  0.76829  1.0000
  H   H2486     1.0  0.56959  0.93144  0.55340  1.0000
  H   H2487     1.0  0.58176  0.94168  0.57782  1.0000
  H   H2488     1.0  0.38419  0.98372  0.95773  1.0000
  H   H2489     1.0  0.66098  0.97359  0.58326  1.0000
  C   C2099     1.0  0.34786  0.89813  0.96806  1.0000
  C   C2100     1.0  0.34154  0.90947  0.83426  1.0000
  H   H2490     1.0  0.39472  0.97562  0.91685  1.0000
  H   H2491     1.0  0.34822  0.80012  0.91142  1.0000
  H   H2492     1.0  0.34290  0.95494  0.84257  1.0000
  C   C2101     1.0  0.41723  0.82615  0.95946  1.0000
  H   H2493     1.0  0.63993  0.81198  0.50710  1.0000
  H   H2494     1.0  0.36696  0.77509  0.89059  1.0000
  C   C2102     1.0  0.61078  0.78422  0.96830  1.0000
  C   C2103     1.0  0.65720  0.88402  0.50303  1.0000
  H   H2495     1.0  0.66572  0.89498  0.65457  1.0000
  C   C2104     1.0  0.65589  0.86376  0.50705  1.0000
  S   S551      1.0  0.33577  0.98173  0.73309  1.0000
  N   N138      1.0  0.66337  0.83001  0.49722  1.0000
  H   H2496     1.0  0.33650  0.96556  0.80821  1.0000
  H   H2497     1.0  0.65004  0.89315  0.51433  1.0000
  C   C2105     1.0  0.38033  0.97176  0.92685  1.0000
  H   H2498     1.0  0.66460  0.98265  0.75336  1.0000
  C   C2106     1.0  0.33791  0.91551  0.81477  1.0000
  H   H2499     1.0  0.87721  0.03628  0.42096  1.0000
  H   H2500     1.0  0.72466  0.21814  0.36303  1.0000
  H   H2501     1.0  0.76336  0.20990  0.31770  1.0000
  H   H2502     1.0  0.74625  0.01799  0.12249  1.0000
  C   C2107     1.0  0.79331  0.98735  0.12383  1.0000
  H   H2503     1.0  0.83013  0.03155  0.27632  1.0000
  S   S552      1.0  0.74073  0.21607  0.39749  1.0000
  S   S553      1.0  0.92135  0.01779  0.28689  1.0000
  H   H2504     1.0  0.71884  0.00109  0.09200  1.0000
  H   H2505     1.0  0.84291  0.10069  0.47495  1.0000
  Fe  Fe273     1.0  0.74805  0.06481  0.43951  1.0000
  S   S554      1.0  0.77726  0.06462  0.41633  1.0000
  S   S555      1.0  0.74342  0.03650  0.46211  1.0000
  Fe  Fe274     1.0  0.73112  0.10907  0.42504  1.0000
  S   S556      1.0  0.75872  0.11221  0.40072  1.0000
  S   S557      1.0  0.70527  0.13588  0.42695  1.0000
  Fe  Fe275     1.0  0.75678  0.08260  0.39554  1.0000
  S   S558      1.0  0.75703  0.07992  0.36447  1.0000
  Fe  Fe276     1.0  0.77630  0.09423  0.42381  1.0000
  S   S559      1.0  0.80255  0.10656  0.42572  1.0000
  S   S560      1.0  0.72752  0.08067  0.41809  1.0000
  S   S561      1.0  0.74882  0.09310  0.44886  1.0000
  C   C2108     1.0  0.81606  0.09288  0.44413  1.0000
  H   H2506     1.0  0.94263  0.01631  0.21531  1.0000
  H   H2507     1.0  0.78815  0.04240  0.31112  1.0000
  S   S562      1.0  0.82604  0.01934  0.31937  1.0000
  C   C2109     1.0  0.80898  0.03913  0.35091  1.0000
  C   C2110     1.0  0.73189  0.15503  0.33962  1.0000
  H   H2508     1.0  0.81331  0.01334  0.09327  1.0000
  H   H2509     1.0  0.81088  0.01686  0.12737  1.0000
  C   C2111     1.0  0.74436  0.18002  0.35765  1.0000
  N   N139      1.0  0.86143  0.02760  0.25997  1.0000
  C   C2112     1.0  0.67577  0.03405  0.47565  1.0000
  H   H2510     1.0  0.74621  0.01982  0.07262  1.0000
  S   S563      1.0  0.87537  0.01427  0.98838  1.0000
  H   H2511     1.0  0.88529  0.01506  0.45242  1.0000
  C   C2113     1.0  0.83927  0.03556  0.26096  1.0000
  C   C2114     1.0  0.92533  0.00663  0.26595  1.0000
  S   S564      1.0  0.98043  0.05648  0.15746  1.0000
  H   H2512     1.0  0.83769  0.99697  0.09188  1.0000
  C   C2115     1.0  0.82538  0.10308  0.45295  1.0000
  H   H2513     1.0  0.72123  0.23429  0.31044  1.0000
  S   S565      1.0  0.78952  0.00757  0.06012  1.0000
  H   H2514     1.0  0.67451  0.14539  0.47721  1.0000
  H   H2515     1.0  0.83354  0.02946  0.25070  1.0000
  S   S566      1.0  0.84838  0.00515  0.04650  1.0000
  H   H2516     1.0  0.86286  0.06486  0.23633  1.0000
  C   C2116     1.0  0.79156  0.00548  0.42970  1.0000
  H   H2517     1.0  0.70489  0.05790  0.45574  1.0000
  C   C2117     1.0  0.82956  0.06145  0.46417  1.0000
  H   H2518     1.0  0.68168  0.06923  0.43203  1.0000
  Fe  Fe277     1.0  0.82139  0.99141  0.04854  1.0000
  S   S567      1.0  0.87548  0.02944  0.32855  1.0000
  C   C2118     1.0  0.74045  0.14697  0.35639  1.0000
  C   C2119     1.0  0.88349  0.02049  0.42152  1.0000
  C   C2120     1.0  0.77058  0.99397  0.07461  1.0000
  C   C2121     1.0  0.98529  0.19407  0.00281  1.0000
  H   H2519     1.0  0.93480  0.03229  0.24504  1.0000
  H   H2520     1.0  0.78255  0.01937  0.11380  1.0000
  S   S568      1.0  0.97957  0.01471  0.12796  1.0000
  C   C2122     1.0  0.88693  0.01216  0.40451  1.0000
  C   C2123     1.0  0.82092  0.99740  0.09693  1.0000
  C   C2124     1.0  0.71806  0.22067  0.34962  1.0000
  H   H2521     1.0  0.88015  0.99895  0.26905  1.0000
  H   H2522     1.0  0.86521  0.05359  0.26926  1.0000
  H   H2523     1.0  0.75842  0.21550  0.34228  1.0000
  C   C2125     1.0  0.87523  0.06494  0.99747  1.0000
  H   H2524     1.0  0.98330  0.03577  0.19853  1.0000
  S   S569      1.0  0.94147  0.02175  0.16522  1.0000
  H   H2525     1.0  0.97064  0.18966  0.00552  1.0000
  H   H2526     1.0  0.66721  0.19237  0.43596  1.0000
  C   C2126     1.0  0.97420  0.99222  0.26667  1.0000
  C   C2127     1.0  0.87177  0.05270  0.22902  1.0000
  C   C2128     1.0  0.99302  0.19561  0.01878  1.0000
  H   H2527     1.0  0.70067  0.18920  0.44777  1.0000
  C   C2129     1.0  0.67295  0.08032  0.44162  1.0000
  C   C2130     1.0  0.75744  0.00443  0.12560  1.0000
  H   H2528     1.0  0.79284  0.00003  0.37500  1.0000
  H   H2529     1.0  0.87244  0.05263  0.00987  1.0000
  C   C2131     1.0  0.81943  0.00118  0.13034  1.0000
  H   H2530     1.0  0.74209  0.13101  0.36253  1.0000
  C   C2132     1.0  0.77614  0.06208  0.35322  1.0000
  C   C2133     1.0  0.77436  0.05841  0.33518  1.0000
  C   C2134     1.0  0.79335  0.05224  0.36127  1.0000
  H   H2531     1.0  0.76110  0.06601  0.32892  1.0000
  H   H2532     1.0  0.79485  0.05514  0.37514  1.0000
  H   H2533     1.0  0.83596  0.00202  0.12685  1.0000
  H   H2534     1.0  0.70346  0.21502  0.35452  1.0000
  H   H2535     1.0  0.74912  0.18909  0.36541  1.0000
  H   H2536     1.0  0.82246  0.03183  0.35691  1.0000
  C   C2135     1.0  0.89279  0.06261  0.98257  1.0000
  H   H2537     1.0  0.72697  0.14521  0.33278  1.0000
  C   C2136     1.0  0.73004  0.19428  0.40558  1.0000
  C   C2137     1.0  0.71032  0.19408  0.40382  1.0000
  C   C2138     1.0  0.70284  0.17603  0.41000  1.0000
  C   C2139     1.0  0.71494  0.15826  0.41816  1.0000
  C   C2140     1.0  0.73461  0.15854  0.41982  1.0000
  C   C2141     1.0  0.74212  0.17644  0.41351  1.0000
  H   H2538     1.0  0.70092  0.20774  0.39763  1.0000
  H   H2539     1.0  0.68776  0.17579  0.40832  1.0000
  H   H2540     1.0  0.74403  0.14499  0.42621  1.0000
  H   H2541     1.0  0.75740  0.17647  0.41486  1.0000
  H   H2542     1.0  0.90371  0.02596  0.08528  1.0000
  H   H2543     1.0  0.88531  0.03217  0.27187  1.0000
  C   C2142     1.0  0.88800  0.00843  0.43941  1.0000
  C   C2143     1.0  0.80710  0.03564  0.33277  1.0000
  S   S570      1.0  0.88000  0.02752  0.38265  1.0000
  C   C2144     1.0  0.77829  0.00500  0.12059  1.0000
  N   N140      1.0  0.73218  0.21080  0.33363  1.0000
  C   C2145     1.0  0.80225  0.00801  0.44290  1.0000
  C   C2146     1.0  0.81811  0.07203  0.44972  1.0000
  C   C2147     1.0  0.89564  0.02266  0.20862  1.0000
  C   C2148     1.0  0.75012  0.00391  0.07839  1.0000
  C   C2149     1.0  0.73556  0.00727  0.42237  1.0000
  C   C2150     1.0  0.73627  0.02246  0.43186  1.0000
  C   C2151     1.0  0.74139  0.01757  0.45063  1.0000
  C   C2152     1.0  0.74581  0.99739  0.45984  1.0000
  C   C2153     1.0  0.73460  0.99335  0.08937  1.0000
  H   H2544     1.0  0.73157  0.01116  0.40785  1.0000
  H   H2545     1.0  0.73300  0.03792  0.42451  1.0000
  C   C2154     1.0  0.98139  0.05220  0.24053  1.0000
  C   C2155     1.0  0.78969  0.04510  0.32508  1.0000
  N   N141      1.0  0.84735  0.08496  0.38041  1.0000
  C   C2156     1.0  0.84036  0.06747  0.39476  1.0000
  C   C2157     1.0  0.86503  0.07772  0.36509  1.0000
  C   C2158     1.0  0.85481  0.09630  0.39150  1.0000
  C   C2159     1.0  0.83031  0.09689  0.37082  1.0000
  C   C2160     1.0  0.82016  0.11638  0.37428  1.0000
  C   C2161     1.0  0.82279  0.08866  0.35823  1.0000
  C   C2162     1.0  0.80367  0.12693  0.36546  1.0000
  C   C2163     1.0  0.80639  0.09939  0.34941  1.0000
  C   C2164     1.0  0.79683  0.11846  0.35304  1.0000
  H   H2546     1.0  0.83678  0.05690  0.38722  1.0000
  H   H2547     1.0  0.85222  0.05864  0.40326  1.0000
  H   H2548     1.0  0.82636  0.07236  0.40577  1.0000
  H   H2549     1.0  0.86952  0.09033  0.35301  1.0000
  H   H2550     1.0  0.86195  0.06643  0.35812  1.0000
  H   H2551     1.0  0.87865  0.07000  0.37165  1.0000
  H   H2552     1.0  0.85989  0.10994  0.38162  1.0000
  H   H2553     1.0  0.84292  0.10082  0.40441  1.0000
  H   H2554     1.0  0.86799  0.08705  0.39802  1.0000
  H   H2555     1.0  0.82424  0.12359  0.38421  1.0000
  H   H2556     1.0  0.82928  0.07367  0.35544  1.0000
  H   H2557     1.0  0.79589  0.14157  0.36870  1.0000
  H   H2558     1.0  0.80072  0.09270  0.34006  1.0000
  H   H2559     1.0  0.78385  0.12649  0.34649  1.0000
  C   C2165     1.0  0.86394  0.00575  0.26829  1.0000
  C   C2166     1.0  0.93695  0.00817  0.23000  1.0000
  H   H2560     1.0  0.98376  0.19201  0.03350  1.0000
  S   S571      1.0  0.67078  0.00354  0.10854  1.0000
  C   C2167     1.0  0.93246  0.01720  0.24681  1.0000
  S   S572      1.0  0.92736  0.01560  0.11560  1.0000
  H   H2561     1.0  0.85869  0.99770  0.25931  1.0000
  Fe  Fe278     1.0  0.90016  0.00598  0.31532  1.0000
  H   H2562     1.0  0.72225  0.18092  0.31906  1.0000
  C   C2168     1.0  0.89411  0.04268  0.19910  1.0000
  C   C2169     1.0  0.97754  0.04484  0.21044  1.0000
  Fe  Fe279     1.0  0.85467  0.00860  0.33129  1.0000
  H   H2563     1.0  0.85264  0.11193  0.97921  1.0000
  C   C2170     1.0  0.69354  0.18001  0.46187  1.0000
  H   H2564     1.0  0.81637  0.98921  0.08762  1.0000
  Fe  Fe280     1.0  0.97408  0.02637  0.15623  1.0000
  Fe  Fe281     1.0  0.85946  0.99621  0.01647  1.0000
  H   H2565     1.0  0.83356  0.03454  0.00074  1.0000
  H   H2566     1.0  0.75311  0.15331  0.37856  1.0000
  C   C2171     1.0  0.86852  0.03697  0.27305  1.0000
  H   H2567     1.0  0.66809  0.16677  0.44802  1.0000
  H   H2568     1.0  0.77920  0.01721  0.42532  1.0000
  C   C2172     1.0  0.83984  0.04214  0.98597  1.0000
  C   C2173     1.0  0.75092  0.98635  0.13403  1.0000
  C   C2174     1.0  0.97760  0.01161  0.25791  1.0000
  H   H2569     1.0  0.70763  0.21424  0.31843  1.0000
  C   C2175     1.0  0.83825  0.07180  0.47356  1.0000
  S   S573      1.0  0.90782  0.98990  0.34501  1.0000
  C   C2176     1.0  0.72319  0.21769  0.31552  1.0000
  H   H2570     1.0  0.86110  0.03276  0.28904  1.0000
  H   H2571     1.0  0.73311  0.21094  0.30276  1.0000
  N   N142      1.0  0.98868  0.03742  0.22705  1.0000
  H   H2572     1.0  0.88127  0.07325  0.20186  1.0000
  C   C2177     1.0  0.83616  0.09261  0.46783  1.0000
  H   H2573     1.0  0.83135  0.04541  0.46820  1.0000
  H   H2574     1.0  0.67314  0.21665  0.45094  1.0000
  H   H2575     1.0  0.96728  0.98877  0.28242  1.0000
  H   H2576     1.0  0.88767  0.00170  0.23484  1.0000
  C   C2178     1.0  0.91386  0.00123  0.10769  1.0000
  H   H2577     1.0  0.97913  0.06046  0.20282  1.0000
  H   H2578     1.0  0.99278  0.09206  0.15970  1.0000
  C   C2179     1.0  0.93408  0.98858  0.23228  1.0000
  H   H2579     1.0  0.70075  0.08240  0.46099  1.0000
  H   H2580     1.0  0.84712  0.08440  0.00748  1.0000
  C   C2180     1.0  0.74672  0.15946  0.36534  1.0000
  H   H2581     1.0  0.90352  0.04841  0.98357  1.0000
  C   C2181     1.0  0.86096  0.08281  0.99604  1.0000
  Fe  Fe282     1.0  0.94806  0.00728  0.13834  1.0000
  C   C2182     1.0  0.98556  0.01689  0.23707  1.0000
  H   H2582     1.0  0.98993  0.04826  0.25281  1.0000
  C   C2183     1.0  0.99601  0.19873  0.98325  1.0000
  C   C2184     1.0  0.89550  0.99177  0.40533  1.0000
  H   H2583     1.0  0.99253  0.20588  0.05508  1.0000
  C   C2185     1.0  0.72932  0.17565  0.33186  1.0000
  C   C2186     1.0  0.87287  0.03243  0.23915  1.0000
  C   C2187     1.0  0.90344  0.01040  0.09206  1.0000
  C   C2188     1.0  0.88531  0.01750  0.22836  1.0000
  H   H2584     1.0  0.90227  0.04658  0.18383  1.0000
  H   H2585     1.0  0.83570  0.05218  0.25691  1.0000
  H   H2586     1.0  0.81500  0.99518  0.14661  1.0000
  S   S574      1.0  0.98677  0.99680  0.17390  1.0000
  Fe  Fe283     1.0  0.88106  0.01152  0.35829  1.0000
  H   H2587     1.0  0.81114  0.06406  0.44273  1.0000
  N   N143      1.0  0.67320  0.07178  0.46296  1.0000
  H   H2588     1.0  0.90522  0.01100  0.20077  1.0000
  C   C2189     1.0  0.88224  0.05768  0.20930  1.0000
  H   H2589     1.0  0.77434  0.00330  0.34769  1.0000
  C   C2190     1.0  0.73547  0.18881  0.34074  1.0000
  C   C2191     1.0  0.89279  0.99963  0.08499  1.0000
  H   H2590     1.0  0.67992  0.09399  0.43630  1.0000
  H   H2591     1.0  0.82392  0.11919  0.44855  1.0000
  H   H2592     1.0  0.79789  0.02166  0.44893  1.0000
  C   C2192     1.0  0.75184  0.21782  0.32885  1.0000
  H   H2593     1.0  0.88504  0.00690  0.07284  1.0000
  H   H2594     1.0  0.70023  0.18165  0.47404  1.0000
  H   H2595     1.0  0.85484  0.00263  0.28381  1.0000
  H   H2596     1.0  0.97316  0.02229  0.26775  1.0000
  C   C2193     1.0  0.99048  0.00140  0.22585  1.0000
  H   H2597     1.0  0.96096  0.04464  0.21584  1.0000
  C   C2194     1.0  0.69461  0.06827  0.46538  1.0000
  H   H2598     1.0  0.74989  0.23425  0.32267  1.0000
  H   H2599     1.0  0.96475  0.05328  0.24716  1.0000
  H   H2600     1.0  0.99687  0.00419  0.21002  1.0000
  C   C2195     1.0  0.81839  0.99302  0.44848  1.0000
  H   H2601     1.0  0.81251  0.06466  0.98386  1.0000
  S   S575      1.0  0.85758  0.99283  0.36234  1.0000
  H   H2602     1.0  0.79709  0.99431  0.33100  1.0000
  H   H2603     1.0  0.99782  0.22369  0.45640  1.0000
  H   H2604     1.0  0.82586  0.99595  0.45888  1.0000
  H   H2605     1.0  0.81528  0.99412  0.35705  1.0000
  Fe  Fe284     1.0  0.95461  0.99141  0.18108  1.0000
  H   H2606     1.0  0.98362  0.06752  0.23241  1.0000
  H   H2607     1.0  0.69173  0.03159  0.47615  1.0000
  H   H2608     1.0  0.69859  0.16416  0.45985  1.0000
  C   C2196     1.0  0.86421  0.09841  0.97969  1.0000
  C   C2197     1.0  0.79657  0.98776  0.42239  1.0000
  C   C2198     1.0  0.89617  0.98799  0.44040  1.0000
  N   N144      1.0  0.67095  0.18624  0.46641  1.0000
  H   H2609     1.0  0.75004  0.99344  0.47419  1.0000
  H   H2610     1.0  0.95230  0.98745  0.07637  1.0000
  C   C2199     1.0  0.74029  0.98711  0.43144  1.0000
  H   H2611     1.0  0.98278  0.98774  0.08330  1.0000
  N   N145      1.0  0.81530  0.98842  0.11839  1.0000
  C   C2200     1.0  0.92217  0.98717  0.26817  1.0000
  H   H2612     1.0  0.66770  0.10067  0.47143  1.0000
  S   S576      1.0  0.87873  0.98625  0.31613  1.0000
  C   C2201     1.0  0.78469  0.98941  0.34342  1.0000
  H   H2613     1.0  0.67215  0.21225  0.47711  1.0000
  C   C2202     1.0  0.80346  0.98728  0.36868  1.0000
  H   H2614     1.0  0.83081  0.98980  0.96448  1.0000
  H   H2615     1.0  0.86482  0.00193  0.68165  1.0000
  S   S577      1.0  0.86294  0.09595  0.89498  1.0000
  H   H2616     1.0  0.93110  0.18463  0.89369  1.0000
  S   S578      1.0  0.68848  0.20788  0.88035  1.0000
  H   H2617     1.0  0.71979  0.17765  0.86687  1.0000
  C   C2203     1.0  0.85314  0.00937  0.92968  1.0000
  H   H2618     1.0  0.95128  0.99834  0.48917  1.0000
  H   H2619     1.0  0.85241  0.12543  0.94700  1.0000
  Fe  Fe285     1.0  0.93128  0.22409  0.91530  1.0000
  S   S579      1.0  0.67403  0.02740  0.55370  1.0000
  C   C2204     1.0  0.74425  0.04279  0.52387  1.0000
  H   H2620     1.0  0.96796  0.05096  0.66550  1.0000
  Fe  Fe286     1.0  0.79297  0.01231  0.75728  1.0000
  H   H2621     1.0  0.80044  0.01823  0.66688  1.0000
  S   S580      1.0  0.76477  0.01454  0.74510  1.0000
  Fe  Fe287     1.0  0.80780  0.03071  0.78565  1.0000
  S   S581      1.0  0.84056  0.01703  0.77507  1.0000
  S   S582      1.0  0.79672  0.04757  0.81144  1.0000
  Fe  Fe288     1.0  0.83380  0.02569  0.74434  1.0000
  S   S583      1.0  0.85266  0.04154  0.71671  1.0000
  C   C2205     1.0  0.85783  0.03017  0.89594  1.0000
  S   S584      1.0  0.80188  0.04185  0.75462  1.0000
  S   S585      1.0  0.79573  0.00261  0.78951  1.0000
  S   S586      1.0  0.69974  0.15039  0.89971  1.0000
  Fe  Fe289     1.0  0.84622  0.09814  0.87074  1.0000
  S   S587      1.0  0.85660  0.07574  0.84981  1.0000
  S   S588      1.0  0.84751  0.13076  0.85918  1.0000
  Fe  Fe290     1.0  0.96256  0.01441  0.60371  1.0000
  H   H2622     1.0  0.79971  0.12038  0.79514  1.0000
  S   S589      1.0  0.95095  0.01906  0.57523  1.0000
  Fe  Fe291     1.0  0.97839  0.03790  0.62620  1.0000
  S   S590      1.0  0.98436  0.01118  0.65021  1.0000
  H   H2623     1.0  0.73192  0.99093  0.76549  1.0000
  C   C2206     1.0  0.83168  0.04273  0.92234  1.0000
  Fe  Fe292     1.0  0.95450  0.00480  0.64881  1.0000
  S   S591      1.0  0.96116  0.21169  0.92540  1.0000
  H   H2624     1.0  0.75808  0.12381  0.94717  1.0000
  S   S592      1.0  0.94687  0.03328  0.62702  1.0000
  H   H2625     1.0  0.91640  0.04444  0.69922  1.0000
  H   H2626     1.0  0.79795  0.02672  0.52244  1.0000
  C   C2207     1.0  0.67161  0.04687  0.58387  1.0000
  H   H2627     1.0  0.78401  0.09306  0.81192  1.0000
  C   C2208     1.0  0.93042  0.07332  0.66412  1.0000
  C   C2209     1.0  0.82275  0.01988  0.69233  1.0000
  Fe  Fe293     1.0  0.97522  0.22750  0.89504  1.0000
  H   H2628     1.0  0.81948  0.12632  0.80374  1.0000
  H   H2629     1.0  0.86226  0.06965  0.93311  1.0000
  Fe  Fe294     1.0  0.87108  0.99055  0.53186  1.0000
  S   S593      1.0  0.80376  0.98778  0.51256  1.0000
  C   C2210     1.0  0.92301  0.01619  0.55504  1.0000
  H   H2630     1.0  0.92847  0.02858  0.54421  1.0000
  H   H2631     1.0  0.96457  0.08653  0.65891  1.0000
  Fe  Fe295     1.0  0.87907  0.98686  0.48852  1.0000
  H   H2632     1.0  0.94439  0.10191  0.67281  1.0000
  C   C2211     1.0  0.72564  0.15222  0.89021  1.0000
  H   H2633     1.0  0.92511  0.15870  0.87831  1.0000
  H   H2634     1.0  0.81351  0.10194  0.81233  1.0000
  C   C2212     1.0  0.87508  0.02689  0.70543  1.0000
  C   C2213     1.0  0.88276  0.00780  0.71533  1.0000
  C   C2214     1.0  0.77231  0.09860  0.82382  1.0000
  C   C2215     1.0  0.91210  0.00466  0.68768  1.0000
  C   C2216     1.0  0.90411  0.02350  0.67751  1.0000
  C   C2217     1.0  0.88563  0.03463  0.68641  1.0000
  H   H2635     1.0  0.80926  0.02098  0.70500  1.0000
  C   C2218     1.0  0.80436  0.00426  0.67779  1.0000
  H   H2636     1.0  0.91218  0.02954  0.66286  1.0000
  H   H2637     1.0  0.87958  0.04934  0.67865  1.0000
  C   C2219     1.0  0.81383  0.05452  0.82225  1.0000
  C   C2220     1.0  0.80673  0.06028  0.84095  1.0000
  C   C2221     1.0  0.81968  0.06666  0.84965  1.0000
  C   C2222     1.0  0.83984  0.06751  0.83963  1.0000
  C   C2223     1.0  0.84710  0.06121  0.82120  1.0000
  C   C2224     1.0  0.83414  0.05483  0.81248  1.0000
  H   H2638     1.0  0.79108  0.05991  0.84870  1.0000
  H   H2639     1.0  0.81403  0.07097  0.86409  1.0000
  H   H2640     1.0  0.86276  0.06160  0.81345  1.0000
  H   H2641     1.0  0.83979  0.05047  0.79806  1.0000
  H   H2642     1.0  0.87596  0.00136  0.90361  1.0000
  H   H2643     1.0  0.76473  0.08229  0.49608  1.0000
  H   H2644     1.0  0.81980  0.98653  0.82334  1.0000
  C   C2225     1.0  0.73120  0.16760  0.87441  1.0000
  H   H2645     1.0  0.77079  0.98937  0.55564  1.0000
  H   H2646     1.0  0.90190  0.09521  0.92473  1.0000
  C   C2226     1.0  0.88096  0.18506  0.91501  1.0000
  C   C2227     1.0  0.78247  0.16318  0.93119  1.0000
  S   S594      1.0  0.69410  0.98834  0.68681  1.0000
  C   C2228     1.0  0.92808  0.07063  0.69951  1.0000
  C   C2229     1.0  0.88673  0.13083  0.95337  1.0000
  C   C2230     1.0  0.88179  0.09646  0.96406  1.0000
  S   S595      1.0  0.85086  0.05961  0.49317  1.0000
  H   H2647     1.0  0.75571  0.18218  0.85622  1.0000
  C   C2231     1.0  0.75726  0.12023  0.84798  1.0000
  C   C2232     1.0  0.77909  0.07420  0.50113  1.0000
  C   C2233     1.0  0.90818  0.00760  0.55140  1.0000
  C   C2234     1.0  0.79845  0.04251  0.51477  1.0000
  H   H2648     1.0  0.70410  0.17743  0.94810  1.0000
  H   H2649     1.0  0.73677  0.12631  0.91096  1.0000
  H   H2650     1.0  0.69595  0.06192  0.48117  1.0000
  C   C2235     1.0  0.86335  0.01247  0.90929  1.0000
  C   C2236     1.0  0.67793  0.02886  0.57679  1.0000
  N   N146      1.0  0.82449  0.00272  0.68268  1.0000
  H   H2651     1.0  0.72361  0.19773  0.95814  1.0000
  H   H2652     1.0  0.96562  0.04821  0.69193  1.0000
  H   H2653     1.0  0.90223  0.01354  0.53796  1.0000
  S   S596      1.0  0.88766  0.00747  0.50355  1.0000
  H   H2654     1.0  0.89169  0.04502  0.73072  1.0000
  C   C2237     1.0  0.82796  0.05922  0.97642  1.0000
  H   H2655     1.0  0.86859  0.19240  0.92530  1.0000
  Fe  Fe296     1.0  0.67693  0.17955  0.89519  1.0000
  C   C2238     1.0  0.91613  0.18080  0.89720  1.0000
  H   H2656     1.0  0.88867  0.07058  0.75066  1.0000
  H   H2657     1.0  0.79650  0.15524  0.81301  1.0000
  C   C2239     1.0  0.92385  0.99269  0.58627  1.0000
  H   H2658     1.0  0.69653  0.99879  0.61626  1.0000
  C   C2240     1.0  0.76585  0.17871  0.92808  1.0000
  S   S597      1.0  0.82068  0.09074  0.94590  1.0000
  H   H2659     1.0  0.72829  0.11520  0.86681  1.0000
  C   C2241     1.0  0.83599  0.06930  0.95735  1.0000
  S   S598      1.0  0.89020  0.14152  0.88213  1.0000
  C   C2242     1.0  0.83704  0.00710  0.85313  1.0000
  H   H2660     1.0  0.73496  0.19282  0.89705  1.0000
  C   C2243     1.0  0.76142  0.14073  0.89262  1.0000
  H   H2661     1.0  0.78070  0.08139  0.51294  1.0000
  C   C2244     1.0  0.75566  0.08885  0.83083  1.0000
  H   H2662     1.0  0.93509  0.09661  0.70700  1.0000
  C   C2245     1.0  0.87830  0.00211  0.65098  1.0000
  H   H2663     1.0  0.97614  0.01242  0.53240  1.0000
  H   H2664     1.0  0.96450  0.08512  0.68446  1.0000
  N   N147      1.0  0.88456  0.11307  0.94667  1.0000
  C   C2246     1.0  0.77848  0.04398  0.49104  1.0000
  H   H2665     1.0  0.83802  0.05905  0.89215  1.0000
  H   H2666     1.0  0.68442  0.98935  0.73239  1.0000
  H   H2667     1.0  0.80223  0.05028  0.52496  1.0000
  H   H2668     1.0  0.72698  0.08719  0.85162  1.0000
  H   H2669     1.0  0.79256  0.13141  0.94040  1.0000
  H   H2670     1.0  0.71522  0.03454  0.53910  1.0000
  H   H2671     1.0  0.69597  0.19802  0.92963  1.0000
  H   H2672     1.0  0.74278  0.03941  0.51022  1.0000
  H   H2673     1.0  0.86603  0.03251  0.88049  1.0000
  H   H2674     1.0  0.90439  0.12085  0.91800  1.0000
  H   H2675     1.0  0.67540  0.00263  0.48727  1.0000
  Fe  Fe297     1.0  0.66706  0.22083  0.90567  1.0000
  S   S599      1.0  0.93568  0.99075  0.67749  1.0000
  H   H2676     1.0  0.71610  0.04224  0.57120  1.0000
  H   H2677     1.0  0.66955  0.06149  0.60819  1.0000
  C   C2247     1.0  0.83934  0.00284  0.64561  1.0000
  C   C2248     1.0  0.96438  0.00666  0.50923  1.0000
  H   H2678     1.0  0.82479  0.00297  0.64246  1.0000
  H   H2679     1.0  0.76529  0.05202  0.48402  1.0000
  C   C2249     1.0  0.73171  0.99864  0.51781  1.0000
  H   H2680     1.0  0.86883  0.12962  0.92314  1.0000
  H   H2681     1.0  0.91723  0.10477  0.93648  1.0000
  N   N148      1.0  0.72839  0.19174  0.92865  1.0000
  C   C2250     1.0  0.70862  0.18513  0.93238  1.0000
  H   H2682     1.0  0.89347  0.00172  0.65302  1.0000
  H   H2683     1.0  0.83621  0.01863  0.69876  1.0000
  C   C2251     1.0  0.74577  0.17494  0.93180  1.0000
  C   C2252     1.0  0.74061  0.11050  0.85479  1.0000
  Fe  Fe298     1.0  0.82828  0.98946  0.77728  1.0000
  C   C2253     1.0  0.68974  0.01228  0.60727  1.0000
  S   S600      1.0  0.98486  0.06878  0.62400  1.0000
  C   C2254     1.0  0.85603  0.00272  0.62940  1.0000
  H   H2684     1.0  0.84789  0.00252  0.86335  1.0000
  H   H2685     1.0  0.74509  0.05540  0.57422  1.0000
  H   H2686     1.0  0.82752  0.01006  0.81845  1.0000
  H   H2687     1.0  0.70923  0.17496  0.92222  1.0000
  Fe  Fe299     1.0  0.83560  0.99049  0.51289  1.0000
  H   H2688     1.0  0.89202  0.98822  0.93047  1.0000
  C   C2255     1.0  0.68732  0.01170  0.58833  1.0000
  C   C2256     1.0  0.72861  0.04436  0.55848  1.0000
  C   C2257     1.0  0.74338  0.15464  0.93894  1.0000
  H   H2689     1.0  0.82128  0.03436  0.68149  1.0000
  H   H2690     1.0  0.77434  0.15398  0.83219  1.0000
  H   H2691     1.0  0.88343  0.03995  0.95011  1.0000
  H   H2692     1.0  0.84785  0.00198  0.97103  1.0000
  H   H2693     1.0  0.77790  0.02771  0.49558  1.0000
  H   H2694     1.0  0.75520  0.07646  0.82430  1.0000
  N   N149      1.0  0.79116  0.12513  0.82552  1.0000
  C   C2258     1.0  0.84203  0.04525  0.90247  1.0000
  C   C2259     1.0  0.95437  0.08677  0.67390  1.0000
  H   H2695     1.0  0.73697  0.02130  0.71921  1.0000
  H   H2696     1.0  0.79206  0.07694  0.48834  1.0000
  H   H2697     1.0  0.88827  0.00245  0.61943  1.0000
  C   C2260     1.0  0.68303  0.03013  0.61462  1.0000
  H   H2698     1.0  0.69197  0.99776  0.58299  1.0000
  H   H2699     1.0  0.80588  0.00577  0.83770  1.0000
  C   C2261     1.0  0.72818  0.04002  0.54037  1.0000
  H   H2700     1.0  0.99372  0.22024  0.54254  1.0000
  H   H2701     1.0  0.88273  0.00295  0.94964  1.0000
  C   C2262     1.0  0.92607  0.08504  0.71143  1.0000
  C   C2263     1.0  0.71145  0.99633  0.52229  1.0000
  C   C2264     1.0  0.95548  0.99353  0.50356  1.0000
  C   C2265     1.0  0.90144  0.05612  0.72541  1.0000
  C   C2266     1.0  0.85595  0.06216  0.94783  1.0000
  Fe  Fe300     1.0  0.85665  0.02606  0.50102  1.0000
  C   C2267     1.0  0.76013  0.13924  0.94206  1.0000
  C   C2268     1.0  0.93101  0.00875  0.57239  1.0000
  C   C2269     1.0  0.75163  0.16998  0.86821  1.0000
  C   C2270     1.0  0.91268  0.16608  0.88851  1.0000
  C   C2271     1.0  0.84708  0.98953  0.96418  1.0000
  S   S601      1.0  0.81503  0.10384  0.89031  1.0000
  S   S602      1.0  0.99361  0.02119  0.60122  1.0000
  H   H2702     1.0  0.84288  0.01899  0.84089  1.0000
  S   S603      1.0  0.84969  0.00704  0.48340  1.0000
  C   C2272     1.0  0.86647  0.11854  0.93735  1.0000
  C   C2273     1.0  0.87742  0.17056  0.90609  1.0000
  C   C2274     1.0  0.95681  0.05117  0.67999  1.0000
  H   H2703     1.0  0.77336  0.06061  0.54573  1.0000
  H   H2704     1.0  0.88943  0.14349  0.94056  1.0000
  C   C2275     1.0  0.90285  0.10809  0.93090  1.0000
  H   H2705     1.0  0.80903  0.10613  0.84628  1.0000
  H   H2706     1.0  0.86240  0.16691  0.90946  1.0000
  C   C2276     1.0  0.89334  0.16086  0.89287  1.0000
  C   C2277     1.0  0.66663  0.01715  0.48200  1.0000
  Fe  Fe301     1.0  0.81722  0.13634  0.88045  1.0000
  C   C2278     1.0  0.88112  0.98943  0.94492  1.0000
  H   H2707     1.0  0.71901  0.21515  0.90467  1.0000
  C   C2279     1.0  0.74089  0.13845  0.89894  1.0000
  S   S604      1.0  0.83118  0.13745  0.90555  1.0000
  N   N150      1.0  0.94222  0.07061  0.67979  1.0000
  H   H2708     1.0  0.74570  0.21021  0.90408  1.0000
  H   H2709     1.0  0.79770  0.16643  0.92794  1.0000
  C   C2280     1.0  0.73984  0.09480  0.84625  1.0000
  C   C2281     1.0  0.91205  0.08489  0.72971  1.0000
  H   H2710     1.0  0.89985  0.12719  0.96095  1.0000
  S   S605      1.0  0.68436  0.03035  0.63904  1.0000
  C   C2282     1.0  0.80181  0.12206  0.84211  1.0000
  C   C2283     1.0  0.77962  0.14348  0.93817  1.0000
  C   C2284     1.0  0.85991  0.03525  0.97656  1.0000
  S   S606      1.0  0.82473  0.99674  0.74529  1.0000
  H   H2711     1.0  0.75718  0.13221  0.85517  1.0000
  C   C2285     1.0  0.74499  0.05175  0.56016  1.0000
  H   H2712     1.0  0.98963  0.19812  0.97090  1.0000
  C   C2286     1.0  0.76114  0.05457  0.54377  1.0000
  H   H2713     1.0  0.92227  0.06081  0.66637  1.0000
  H   H2714     1.0  0.70156  0.00385  0.51191  1.0000
  H   H2715     1.0  0.94055  0.07396  0.64894  1.0000
  C   C2287     1.0  0.90030  0.19033  0.91060  1.0000
  H   H2716     1.0  0.91877  0.08745  0.66387  1.0000
  H   H2717     1.0  0.79130  0.12638  0.85580  1.0000
  H   H2718     1.0  0.77416  0.14993  0.80802  1.0000
  H   H2719     1.0  0.82205  0.01419  0.86142  1.0000
  C   C2288     1.0  0.86790  0.04522  0.95745  1.0000
  C   C2289     1.0  0.91553  0.05602  0.70724  1.0000
  C   C2290     1.0  0.77367  0.11458  0.83231  1.0000
  Fe  Fe302     1.0  0.83176  0.10427  0.91366  1.0000
  C   C2291     1.0  0.89968  0.07054  0.73661  1.0000
  S   S607      1.0  0.90405  0.20824  0.92281  1.0000
  Fe  Fe303     1.0  0.69397  0.99856  0.65414  1.0000
  Fe  Fe304     1.0  0.86144  0.12931  0.88524  1.0000
  H   H2720     1.0  0.86312  0.10511  0.93396  1.0000
  S   S608      1.0  0.79211  0.16056  0.86947  1.0000
  H   H2721     1.0  0.81970  0.05476  0.92745  1.0000
  H   H2722     1.0  0.77301  0.13034  0.89975  1.0000
  C   C2292     1.0  0.86175  0.00226  0.66727  1.0000
  H   H2723     1.0  0.73116  0.00056  0.69790  1.0000
  C   C2293     1.0  0.96988  0.00193  0.52772  1.0000
  H   H2724     1.0  0.79173  0.00475  0.69126  1.0000
  C   C2294     1.0  0.76148  0.04979  0.52522  1.0000
  N   N151      1.0  0.77900  0.05250  0.50824  1.0000
  C   C2295     1.0  0.80655  0.11811  0.80839  1.0000
  H   H2725     1.0  0.91068  0.09603  0.73856  1.0000
  C   C2296     1.0  0.78368  0.14697  0.81938  1.0000
  C   C2297     1.0  0.83708  0.02513  0.93583  1.0000
  C   C2298     1.0  0.74650  0.00665  0.71835  1.0000
  H   H2726     1.0  0.81181  0.04215  0.50204  1.0000
  H   H2727     1.0  0.81403  0.13108  0.83812  1.0000
  H   H2728     1.0  0.82870  0.02451  0.95108  1.0000
  H   H2729     1.0  0.73764  0.00772  0.50370  1.0000
  H   H2730     1.0  0.76891  0.19370  0.92259  1.0000
  S   S609      1.0  0.84061  0.01097  0.53053  1.0000
  H   H2731     1.0  0.94912  0.03828  0.68235  1.0000
  H   H2732     1.0  0.72884  0.15014  0.94180  1.0000
  C   C2299     1.0  0.76675  0.15677  0.87751  1.0000
  H   H2733     1.0  0.87284  0.13664  0.96395  1.0000
  H   H2734     1.0  0.85398  0.00280  0.61461  1.0000
  C   C2300     1.0  0.82135  0.99836  0.83065  1.0000
  C   C2301     1.0  0.67450  0.04758  0.60266  1.0000
  H   H2735     1.0  0.97953  0.20883  0.83878  1.0000
  C   C2302     1.0  0.72601  0.20567  0.94229  1.0000
  C   C2303     1.0  0.90127  0.99673  0.70647  1.0000
  C   C2304     1.0  0.90115  0.99143  0.56513  1.0000
  C   C2305     1.0  0.89613  0.07805  0.96604  1.0000
  H   H2736     1.0  0.71271  0.21825  0.94067  1.0000
  C   C2306     1.0  0.87543  0.00244  0.63206  1.0000
  H   H2737     1.0  0.90985  0.07502  0.95490  1.0000
  H   H2738     1.0  0.93000  0.98673  0.59962  1.0000
  C   C2307     1.0  0.73223  0.20295  0.90776  1.0000
  H   H2739     1.0  0.73961  0.21266  0.93926  1.0000
  H   H2740     1.0  0.87467  0.00174  0.73000  1.0000
  H   H2741     1.0  0.79230  0.04532  0.47895  1.0000
  C   C2308     1.0  0.74428  0.98964  0.53155  1.0000
  C   C2309     1.0  0.76201  0.99958  0.72937  1.0000
  H   H2742     1.0  0.96664  0.02082  0.49942  1.0000
  C   C2310     1.0  0.99248  0.21898  0.80783  1.0000
  C   C2311     1.0  0.84170  0.00277  0.66510  1.0000
  C   C2312     1.0  0.99219  0.20619  0.82633  1.0000
  H   H2743     1.0  0.75974  0.99221  0.52716  1.0000
  H   H2744     1.0  0.80391  0.99106  0.67183  1.0000
  N   N152      1.0  0.83486  0.99008  0.84524  1.0000
  H   H2745     1.0  0.86083  0.99196  0.82054  1.0000
  N   N153      1.0  0.85969  0.99071  0.94360  1.0000
  C   C2313     1.0  0.74313  0.99490  0.70631  1.0000
  H   H2746     1.0  0.73758  0.99540  0.58000  1.0000
  Fe  Fe305     1.0  0.99751  0.99399  0.62538  1.0000
  H   H2747     1.0  0.97988  0.23150  0.80592  1.0000
  N   N154      1.0  0.78531  0.39315  0.34070  1.0000
  Fe  Fe306     1.0  0.80424  0.37924  0.40760  1.0000
  S   S610      1.0  0.83265  0.37373  0.38422  1.0000
  S   S611      1.0  0.77763  0.36296  0.41376  1.0000
  Fe  Fe307     1.0  0.81950  0.41140  0.42045  1.0000
  S   S612      1.0  0.84895  0.40812  0.39792  1.0000
  S   S613      1.0  0.81110  0.43610  0.43865  1.0000
  Fe  Fe308     1.0  0.82970  0.40714  0.37707  1.0000
  S   S614      1.0  0.83750  0.42132  0.34469  1.0000
  Fe  Fe309     1.0  0.84948  0.37504  0.40707  1.0000
  S   S615      1.0  0.87749  0.35125  0.41178  1.0000
  S   S616      1.0  0.79992  0.41287  0.39875  1.0000
  S   S617      1.0  0.82121  0.37815  0.43146  1.0000
  S   S618      1.0  0.96166  0.37743  0.36668  1.0000
  C   C2314     1.0  0.79320  0.28007  0.40453  1.0000
  C   C2315     1.0  0.67634  0.26385  0.29966  1.0000
  H   H2748     1.0  0.67684  0.39969  0.15242  1.0000
  Fe  Fe310     1.0  0.73381  0.28944  0.37066  1.0000
  S   S619      1.0  0.76035  0.30617  0.36360  1.0000
  S   S620      1.0  0.70316  0.30182  0.36218  1.0000
  H   H2749     1.0  0.72943  0.47532  0.22388  1.0000
  H   H2750     1.0  0.86176  0.28429  0.41245  1.0000
  C   C2316     1.0  0.96241  0.40108  0.44534  1.0000
  S   S621      1.0  0.69260  0.25605  0.37968  1.0000
  H   H2751     1.0  0.78652  0.38599  0.37191  1.0000
  H   H2752     1.0  0.77130  0.41027  0.36416  1.0000
  H   H2753     1.0  0.97220  0.38281  0.40235  1.0000
  H   H2754     1.0  0.71193  0.44317  0.00164  1.0000
  C   C2317     1.0  0.85955  0.42982  0.46423  1.0000
  H   H2755     1.0  0.82202  0.31988  0.43995  1.0000
  C   C2318     1.0  0.80605  0.38144  0.33410  1.0000
  H   H2756     1.0  0.79838  0.40647  0.35789  1.0000
  H   H2757     1.0  0.86304  0.48158  0.44193  1.0000
  H   H2758     1.0  0.68179  0.45197  0.02243  1.0000
  H   H2759     1.0  0.79549  0.31409  0.43010  1.0000
  H   H2760     1.0  0.98592  0.40606  0.45777  1.0000
  Fe  Fe311     1.0  0.99143  0.35598  0.36928  1.0000
  S   S622      1.0  0.69300  0.46642  0.14572  1.0000
  C   C2319     1.0  0.73654  0.47110  0.01711  1.0000
  C   C2320     1.0  0.76834  0.47111  0.17024  1.0000
  H   H2761     1.0  0.77021  0.46549  0.34647  1.0000
  C   C2321     1.0  0.73848  0.36843  0.36180  1.0000
  C   C2322     1.0  0.70717  0.46265  0.05318  1.0000
  H   H2762     1.0  0.75583  0.35151  0.31824  1.0000
  C   C2323     1.0  0.78526  0.39919  0.35950  1.0000
  H   H2763     1.0  0.83278  0.47408  0.16923  1.0000
  H   H2764     1.0  0.85701  0.30947  0.38259  1.0000
  H   H2765     1.0  0.72662  0.36691  0.37522  1.0000
  C   C2324     1.0  0.80868  0.46290  0.30542  1.0000
  C   C2325     1.0  0.77322  0.34710  0.39963  1.0000
  C   C2326     1.0  0.75508  0.33942  0.40577  1.0000
  C   C2327     1.0  0.75097  0.32673  0.39506  1.0000
  C   C2328     1.0  0.76497  0.32165  0.37799  1.0000
  C   C2329     1.0  0.78315  0.32932  0.37187  1.0000
  C   C2330     1.0  0.78731  0.34188  0.38267  1.0000
  H   H2766     1.0  0.74409  0.34331  0.41890  1.0000
  H   H2767     1.0  0.73692  0.32101  0.39993  1.0000
  H   H2768     1.0  0.79407  0.32545  0.35871  1.0000
  H   H2769     1.0  0.80138  0.34749  0.37791  1.0000
  C   C2331     1.0  0.81920  0.44043  0.33463  1.0000
  C   C2332     1.0  0.80011  0.44686  0.34635  1.0000
  H   H2770     1.0  0.75157  0.38699  0.37246  1.0000
  Fe  Fe312     1.0  0.70694  0.27356  0.35067  1.0000
  H   H2771     1.0  0.81833  0.38929  0.33414  1.0000
  C   C2333     1.0  0.82351  0.44860  0.31421  1.0000
  H   H2772     1.0  0.79680  0.44092  0.36216  1.0000
  C   C2334     1.0  0.99457  0.38812  0.41522  1.0000
  H   H2773     1.0  0.83830  0.44373  0.30511  1.0000
  C   C2335     1.0  0.90095  0.35781  0.39804  1.0000
  C   C2336     1.0  0.90146  0.37656  0.38554  1.0000
  C   C2337     1.0  0.92019  0.38213  0.37559  1.0000
  C   C2338     1.0  0.93861  0.36889  0.37780  1.0000
  C   C2339     1.0  0.93823  0.34980  0.38971  1.0000
  C   C2340     1.0  0.91940  0.34434  0.39996  1.0000
  H   H2774     1.0  0.88743  0.38684  0.38348  1.0000
  H   H2775     1.0  0.92037  0.39683  0.36622  1.0000
  H   H2776     1.0  0.95241  0.33945  0.39143  1.0000
  H   H2777     1.0  0.91915  0.32973  0.40949  1.0000
  C   C2341     1.0  0.67536  0.45239  0.07144  1.0000
  H   H2778     1.0  0.79368  0.42073  0.32286  1.0000
  H   H2779     1.0  0.78099  0.37228  0.31398  1.0000
  C   C2342     1.0  0.82833  0.44019  0.45138  1.0000
  C   C2343     1.0  0.98957  0.43577  0.14031  1.0000
  C   C2344     1.0  0.76943  0.38132  0.34300  1.0000
  S   S623      1.0  0.72103  0.27305  0.40113  1.0000
  H   H2780     1.0  0.85097  0.41389  0.44585  1.0000
  H   H2781     1.0  0.94607  0.36634  0.41725  1.0000
  Fe  Fe313     1.0  0.98359  0.46076  0.19829  1.0000
  S   S624      1.0  0.69878  0.27460  0.32107  1.0000
  H   H2782     1.0  0.75833  0.46106  0.17940  1.0000
  C   C2345     1.0  0.75311  0.37988  0.36002  1.0000
  C   C2346     1.0  0.66975  0.27014  0.44263  1.0000
  H   H2783     1.0  0.69381  0.47818  0.99888  1.0000
  C   C2347     1.0  0.83589  0.45996  0.47192  1.0000
  H   H2784     1.0  0.99365  0.37813  0.29966  1.0000
  C   C2348     1.0  0.78939  0.46879  0.31699  1.0000
  H   H2785     1.0  0.94158  0.40087  0.39679  1.0000
  H   H2786     1.0  0.72040  0.46778  0.05412  1.0000
  H   H2787     1.0  0.97142  0.25401  0.99809  1.0000
  H   H2788     1.0  0.84054  0.33423  0.42519  1.0000
  C   C2349     1.0  0.92080  0.40096  0.44579  1.0000
  C   C2350     1.0  0.78178  0.41158  0.32544  1.0000
  H   H2789     1.0  0.91559  0.40609  0.40914  1.0000
  H   H2790     1.0  0.98047  0.48092  0.13343  1.0000
  H   H2791     1.0  0.80850  0.36651  0.34407  1.0000
  H   H2792     1.0  0.78209  0.40814  0.31077  1.0000
  H   H2793     1.0  0.94882  0.47333  0.14161  1.0000
  H   H2794     1.0  0.83588  0.33025  0.38369  1.0000
  C   C2351     1.0  0.98535  0.40768  0.31950  1.0000
  Fe  Fe314     1.0  0.96197  0.47904  0.23480  1.0000
  H   H2795     1.0  0.84243  0.48111  0.42284  1.0000
  C   C2352     1.0  0.97447  0.38809  0.41466  1.0000
  H   H2796     1.0  0.73604  0.45026  0.99134  1.0000
  S   S625      1.0  0.73889  0.26275  0.35611  1.0000
  H   H2797     1.0  0.98981  0.40375  0.20608  1.0000
  H   H2798     1.0  0.75693  0.47366  0.14391  1.0000
  H   H2799     1.0  0.93271  0.42206  0.40882  1.0000
  C   C2353     1.0  0.75500  0.35970  0.32975  1.0000
  C   C2354     1.0  0.78510  0.46081  0.33746  1.0000
  H   H2800     1.0  0.77141  0.29670  0.42520  1.0000
  H   H2801     1.0  0.91973  0.37144  0.42888  1.0000
  H   H2802     1.0  0.84340  0.28196  0.38921  1.0000
  H   H2803     1.0  0.95079  0.40626  0.45747  1.0000
  C   C2355     1.0  0.81348  0.27606  0.39448  1.0000
  C   C2356     1.0  0.99825  0.41614  0.28428  1.0000
  H   H2804     1.0  0.76667  0.42122  0.33007  1.0000
  H   H2805     1.0  0.68552  0.27104  0.43589  1.0000
  C   C2357     1.0  0.69312  0.45867  0.07114  1.0000
  C   C2358     1.0  0.76956  0.37133  0.32766  1.0000
  Fe  Fe315     1.0  0.69080  0.28350  0.39164  1.0000
  C   C2359     1.0  0.93142  0.40623  0.41018  1.0000
  S   S626      1.0  0.71228  0.47857  0.18996  1.0000
  S   S627      1.0  0.97819  0.44783  0.23102  1.0000
  C   C2360     1.0  0.82219  0.29995  0.40995  1.0000
  H   H2806     1.0  0.73198  0.43413  0.01549  1.0000
  H   H2807     1.0  0.83628  0.47517  0.39249  1.0000
  C   C2361     1.0  0.98489  0.25450  0.98622  1.0000
  H   H2808     1.0  0.87358  0.41918  0.46573  1.0000
  C   C2362     1.0  0.78130  0.47750  0.17876  1.0000
  H   H2809     1.0  0.86512  0.30345  0.42344  1.0000
  H   H2810     1.0  0.67627  0.24504  0.34877  1.0000
  C   C2363     1.0  0.84678  0.42680  0.45295  1.0000
  H   H2811     1.0  0.94394  0.47669  0.16680  1.0000
  H   H2812     1.0  0.90518  0.40016  0.44467  1.0000
  C   C2364     1.0  0.72468  0.44738  0.00564  1.0000
  H   H2813     1.0  0.81796  0.26564  0.38429  1.0000
  C   C2365     1.0  0.85343  0.29590  0.42148  1.0000
  H   H2814     1.0  0.98764  0.39794  0.33405  1.0000
  C   C2366     1.0  0.93527  0.37269  0.42981  1.0000
  H   H2815     1.0  0.92049  0.41693  0.44585  1.0000
  C   C2367     1.0  0.73958  0.35815  0.34684  1.0000
  C   C2368     1.0  0.82874  0.32626  0.42428  1.0000
  S   S628      1.0  0.97671  0.44482  0.17745  1.0000
  C   C2369     1.0  0.67162  0.44986  0.05381  1.0000
  H   H2816     1.0  0.80882  0.37905  0.31857  1.0000
  H   H2817     1.0  0.78063  0.47181  0.19451  1.0000
  C   C2370     1.0  0.80143  0.30338  0.42029  1.0000
  C   C2371     1.0  0.78729  0.29345  0.41761  1.0000
  H   H2818     1.0  0.84654  0.28801  0.43649  1.0000
  C   C2372     1.0  0.99497  0.44191  0.15540  1.0000
  H   H2819     1.0  0.78195  0.27306  0.40193  1.0000
  N   N155      1.0  0.71788  0.46511  0.01543  1.0000
  H   H2820     1.0  0.93897  0.36274  0.44383  1.0000
  N   N156      1.0  0.93664  0.39369  0.42906  1.0000
  H   H2821     1.0  0.85799  0.32976  0.39305  1.0000
  C   C2373     1.0  0.70374  0.46042  0.03485  1.0000
  C   C2374     1.0  0.68135  0.26103  0.31837  1.0000
  C   C2375     1.0  0.68553  0.45384  0.03575  1.0000
  H   H2822     1.0  0.81674  0.33785  0.41785  1.0000
  H   H2823     1.0  0.81021  0.47343  0.97916  1.0000
  C   C2376     1.0  0.82301  0.45684  0.46080  1.0000
  Fe  Fe316     1.0  0.72411  0.24717  0.38612  1.0000
  C   C2377     1.0  0.84750  0.32037  0.39198  1.0000
  C   C2378     1.0  0.76748  0.47825  0.15022  1.0000
  N   N157      1.0  0.83755  0.31051  0.41198  1.0000
  C   C2379     1.0  0.94256  0.48472  0.15136  1.0000
  C   C2380     1.0  0.82785  0.28565  0.39727  1.0000
  H   H2824     1.0  0.99839  0.43225  0.28319  1.0000
  C   C2381     1.0  0.95773  0.39444  0.42977  1.0000
  C   C2382     1.0  0.98262  0.40106  0.44572  1.0000
  H   H2825     1.0  0.97433  0.43302  0.14230  1.0000
  C   C2383     1.0  0.99866  0.39452  0.43075  1.0000
  H   H2826     1.0  0.72872  0.34859  0.34870  1.0000
  H   H2827     1.0  0.68267  0.27471  0.28735  1.0000
  C   C2384     1.0  0.85415  0.44633  0.47383  1.0000
  H   H2828     1.0  0.69592  0.46081  0.08488  1.0000
  H   H2829     1.0  0.74550  0.45906  0.02671  1.0000
  H   H2830     1.0  0.99407  0.37942  0.22103  1.0000
  H   H2831     1.0  0.97147  0.40424  0.31674  1.0000
  C   C2385     1.0  0.67306  0.24698  0.33416  1.0000
  H   H2832     1.0  0.81210  0.46909  0.28960  1.0000
  H   H2833     1.0  0.98288  0.41516  0.28272  1.0000
  H   H2834     1.0  0.98165  0.42365  0.32116  1.0000
  H   H2835     1.0  0.80948  0.47522  0.20210  1.0000
  C   C2386     1.0  0.70717  0.48191  0.00225  1.0000
  H   H2836     1.0  0.71439  0.23718  0.34455  1.0000
  H   H2837     1.0  0.92324  0.39171  0.46052  1.0000
  H   H2838     1.0  0.99449  0.40091  0.23060  1.0000
  H   H2839     1.0  0.67672  0.25073  0.46973  1.0000
  H   H2840     1.0  0.74693  0.47420  0.00226  1.0000
  H   H2841     1.0  0.80867  0.46715  0.45979  1.0000
  C   C2387     1.0  0.99902  0.39407  0.21702  1.0000
  H   H2842     1.0  0.92544  0.48226  0.21814  1.0000
  C   C2388     1.0  0.91076  0.48527  0.22800  1.0000
  H   H2843     1.0  0.73272  0.48511  0.02321  1.0000
  H   H2844     1.0  0.99977  0.42791  0.11115  1.0000
  S   S629      1.0  0.93178  0.48589  0.25629  1.0000
  H   H2845     1.0  0.98704  0.25084  0.85501  1.0000
  H   H2846     1.0  0.88201  0.30447  0.93313  1.0000
  H   H2847     1.0  0.83157  0.47274  0.47918  1.0000
  C   C2389     1.0  0.87530  0.30991  0.92004  1.0000
  H   H2848     1.0  0.95615  0.32533  0.97160  1.0000
  H   H2849     1.0  0.79274  0.42453  0.56088  1.0000
  Fe  Fe317     1.0  0.69078  0.45243  0.66491  1.0000
  S   S630      1.0  0.70188  0.46862  0.63391  1.0000
  C   C2390     1.0  0.83123  0.36449  0.91221  1.0000
  H   H2850     1.0  0.68035  0.26900  0.94116  1.0000
  H   H2851     1.0  0.85546  0.38755  0.88500  1.0000
  H   H2852     1.0  0.67031  0.34576  0.48592  1.0000
  C   C2391     1.0  0.95668  0.29775  0.95181  1.0000
  C   C2392     1.0  0.97804  0.31191  0.88884  1.0000
  Fe  Fe318     1.0  0.73065  0.46746  0.64411  1.0000
  S   S631      1.0  0.76348  0.45723  0.62873  1.0000
  H   H2853     1.0  0.96565  0.34343  0.95093  1.0000
  S   S632      1.0  0.72050  0.44872  0.67425  1.0000
  H   H2854     1.0  0.86534  0.47398  0.97130  1.0000
  C   C2393     1.0  0.86222  0.37140  0.88907  1.0000
  C   C2394     1.0  0.87768  0.29717  0.90687  1.0000
  H   H2855     1.0  0.82407  0.35421  0.88038  1.0000
  Fe  Fe319     1.0  0.86612  0.47532  0.50363  1.0000
  H   H2856     1.0  0.82251  0.38013  0.90888  1.0000
  C   C2395     1.0  0.81478  0.42210  0.51027  1.0000
  S   S633      1.0  0.74924  0.47872  0.95304  1.0000
  C   C2396     1.0  0.96282  0.34603  0.89225  1.0000
  H   H2857     1.0  0.78333  0.47200  0.83977  1.0000
  C   C2397     1.0  0.77474  0.46946  0.95509  1.0000
  H   H2858     1.0  0.79642  0.47446  0.52952  1.0000
  H   H2859     1.0  0.82003  0.35430  0.91770  1.0000
  N   N158      1.0  0.78073  0.47565  0.67387  1.0000
  C   C2398     1.0  0.66807  0.35315  0.65216  1.0000
  C   C2399     1.0  0.81147  0.46440  0.53042  1.0000
  Fe  Fe320     1.0  0.85736  0.43287  0.93152  1.0000
  S   S634      1.0  0.89129  0.42720  0.92052  1.0000
  H   H2860     1.0  0.79600  0.45834  0.65092  1.0000
  Fe  Fe321     1.0  0.84924  0.42189  0.89572  1.0000
  S   S635      1.0  0.88255  0.41495  0.88133  1.0000
  S   S636      1.0  0.82220  0.42066  0.88411  1.0000
  Fe  Fe322     1.0  0.88673  0.39959  0.91240  1.0000
  S   S637      1.0  0.90526  0.36933  0.92348  1.0000
  Fe  Fe323     1.0  0.88411  0.44302  0.89073  1.0000
  S   S638      1.0  0.89763  0.46838  0.86972  1.0000
  S   S639      1.0  0.85314  0.40422  0.92596  1.0000
  S   S640      1.0  0.85055  0.45099  0.90249  1.0000
  H   H2861     1.0  0.77114  0.44845  0.69166  1.0000
  C   C2400     1.0  0.66874  0.41197  0.62266  1.0000
  C   C2401     1.0  0.80276  0.43679  0.52156  1.0000
  C   C2402     1.0  0.91259  0.35214  0.89027  1.0000
  C   C2403     1.0  0.91141  0.34916  0.91082  1.0000
  C   C2404     1.0  0.91643  0.32969  0.92158  1.0000
  C   C2405     1.0  0.92313  0.31325  0.91185  1.0000
  H   H2862     1.0  0.81753  0.46943  0.54115  1.0000
  H   H2863     1.0  0.90919  0.36718  0.88179  1.0000
  H   H2864     1.0  0.91519  0.32740  0.93750  1.0000
  H   H2865     1.0  0.92723  0.29829  0.92020  1.0000
  C   C2406     1.0  0.86973  0.30425  0.88966  1.0000
  H   H2866     1.0  0.92001  0.33797  0.86464  1.0000
  H   H2867     1.0  0.76125  0.44818  0.49950  1.0000
  C   C2407     1.0  0.85659  0.33749  0.89872  1.0000
  H   H2868     1.0  0.81108  0.47369  0.65514  1.0000
  H   H2869     1.0  0.67825  0.41150  0.60793  1.0000
  C   C2408     1.0  0.81574  0.46822  0.82787  1.0000
  H   H2870     1.0  0.77585  0.47906  0.74079  1.0000
  C   C2409     1.0  0.78823  0.42631  0.49196  1.0000
  C   C2410     1.0  0.92443  0.31619  0.89130  1.0000
  C   C2411     1.0  0.79546  0.44017  0.55628  1.0000
  H   H2871     1.0  0.69535  0.36404  0.63585  1.0000
  H   H2872     1.0  0.87429  0.36728  0.87608  1.0000
  H   H2873     1.0  0.98646  0.47782  0.63608  1.0000
  H   H2874     1.0  0.99739  0.29444  0.94095  1.0000
  H   H2875     1.0  0.89288  0.47217  0.91077  1.0000
  H   H2876     1.0  0.81634  0.43685  0.93627  1.0000
  S   S641      1.0  0.96246  0.24430  0.96441  1.0000
  N   N159      1.0  0.96801  0.31450  0.94386  1.0000
  H   H2877     1.0  0.69737  0.38010  0.66272  1.0000
  S   S642      1.0  0.93334  0.29591  0.87866  1.0000
  H   H2878     1.0  0.94088  0.30225  0.94916  1.0000
  H   H2879     1.0  0.83008  0.41470  0.51193  1.0000
  C   C2412     1.0  0.83509  0.45781  0.83099  1.0000
  C   C2413     1.0  0.83711  0.44353  0.84846  1.0000
  C   C2414     1.0  0.81970  0.43900  0.86252  1.0000
  C   C2415     1.0  0.80029  0.44914  0.85929  1.0000
  C   C2416     1.0  0.79831  0.46405  0.84214  1.0000
  H   H2880     1.0  0.84858  0.46086  0.81987  1.0000
  H   H2881     1.0  0.85213  0.43572  0.85083  1.0000
  H   H2882     1.0  0.78679  0.44571  0.87018  1.0000
  C   C2417     1.0  0.67429  0.42082  0.63594  1.0000
  H   H2883     1.0  0.87208  0.29434  0.87926  1.0000
  H   H2884     1.0  0.96974  0.33536  0.86469  1.0000
  H   H2885     1.0  0.95516  0.35273  0.92115  1.0000
  C   C2418     1.0  0.79944  0.46428  0.66279  1.0000
  N   N160      1.0  0.81005  0.44295  0.53676  1.0000
  H   H2886     1.0  0.95633  0.36119  0.88573  1.0000
  H   H2887     1.0  0.85481  0.48342  0.93981  1.0000
  H   H2888     1.0  0.77334  0.45745  0.52511  1.0000
  S   S643      1.0  0.84139  0.44519  0.95910  1.0000
  S   S644      1.0  0.92632  0.25257  0.92714  1.0000
  C   C2419     1.0  0.80362  0.46831  0.96936  1.0000
  C   C2420     1.0  0.96934  0.32084  0.92203  1.0000
  H   H2889     1.0  0.80346  0.46818  0.89301  1.0000
  H   H2890     1.0  0.84254  0.43395  0.52609  1.0000
  H   H2891     1.0  0.84645  0.36208  0.86313  1.0000
  C   C2421     1.0  0.85927  0.32407  0.88557  1.0000
  C   C2422     1.0  0.78582  0.48271  0.68987  1.0000
  S   S645      1.0  0.66995  0.42961  0.67328  1.0000
  H   H2892     1.0  0.85378  0.32859  0.87184  1.0000
  H   H2893     1.0  0.76196  0.45731  0.66914  1.0000
  H   H2894     1.0  0.86498  0.33941  0.92598  1.0000
  S   S646      1.0  0.67754  0.48029  0.67776  1.0000
  H   H2895     1.0  0.68809  0.42697  0.63148  1.0000
  C   C2423     1.0  0.81565  0.45423  0.95791  1.0000
  H   H2896     1.0  0.88618  0.28192  0.90973  1.0000
  C   C2424     1.0  0.86527  0.32986  0.91591  1.0000
  H   H2897     1.0  0.78297  0.42266  0.48026  1.0000
  H   H2898     1.0  0.83268  0.47691  0.86782  1.0000
  H   H2899     1.0  0.82183  0.46720  0.51556  1.0000
  S   S647      1.0  0.87065  0.44910  0.48811  1.0000
  C   C2425     1.0  0.98473  0.25036  0.96773  1.0000
  H   H2900     1.0  0.83542  0.43636  0.55160  1.0000
  C   C2426     1.0  0.91893  0.33564  0.88057  1.0000
  C   C2427     1.0  0.83566  0.36373  0.87760  1.0000
  H   H2901     1.0  0.83058  0.41517  0.54487  1.0000
  C   C2428     1.0  0.80335  0.48379  0.88585  1.0000
  C   C2429     1.0  0.78319  0.44596  0.51732  1.0000
  S   S648      1.0  0.97384  0.25603  0.90490  1.0000
  H   H2902     1.0  0.67176  0.27752  0.89074  1.0000
  C   C2430     1.0  0.79593  0.46675  0.59901  1.0000
  H   H2903     1.0  0.86988  0.36981  0.90163  1.0000
  C   C2431     1.0  0.77491  0.47213  0.60675  1.0000
  H   H2904     1.0  0.94269  0.48112  0.56700  1.0000
  H   H2905     1.0  0.80490  0.45374  0.60675  1.0000
  H   H2906     1.0  0.78042  0.45045  0.55605  1.0000
  H   H2907     1.0  0.83835  0.36426  0.92474  1.0000
  H   H2908     1.0  0.78021  0.45004  0.93402  1.0000
  C   C2432     1.0  0.80744  0.41691  0.49583  1.0000
  H   H2909     1.0  0.71959  0.48008  0.75290  1.0000
  C   C2433     1.0  0.98889  0.30749  0.94794  1.0000
  C   C2434     1.0  0.83052  0.43151  0.53991  1.0000
  H   H2910     1.0  0.94145  0.33661  0.95281  1.0000
  Fe  Fe324     1.0  0.95755  0.24125  0.93454  1.0000
  C   C2435     1.0  0.80719  0.44779  0.94509  1.0000
  C   C2436     1.0  0.78320  0.47606  0.96782  1.0000
  C   C2437     1.0  0.77752  0.47655  0.71051  1.0000
  H   H2911     1.0  0.82165  0.47395  0.57552  1.0000
  H   H2912     1.0  0.82742  0.37968  0.87540  1.0000
  C   C2438     1.0  0.97790  0.30667  0.90927  1.0000
  C   C2439     1.0  0.78670  0.45521  0.94386  1.0000
  C   C2440     1.0  0.76549  0.46234  0.68147  1.0000
  S   S649      1.0  0.86025  0.47199  0.53709  1.0000
  C   C2441     1.0  0.96218  0.34087  0.91279  1.0000
  H   H2913     1.0  0.81698  0.40603  0.48703  1.0000
  C   C2442     1.0  0.68409  0.36295  0.64973  1.0000
  H   H2914     1.0  0.96399  0.28449  0.94482  1.0000
  C   C2443     1.0  0.78260  0.48365  0.72516  1.0000
  N   N161      1.0  0.84650  0.35882  0.89440  1.0000
  H   H2915     1.0  0.76670  0.46659  0.71580  1.0000
  Fe  Fe325     1.0  0.94301  0.26521  0.89679  1.0000
  C   C2444     1.0  0.77611  0.44078  0.50271  1.0000
  H   H2916     1.0  0.98395  0.29125  0.91512  1.0000
  C   C2445     1.0  0.95736  0.33072  0.95522  1.0000
  H   H2917     1.0  0.80662  0.45130  0.67300  1.0000
  H   H2918     1.0  0.75073  0.47017  0.68944  1.0000
  C   C2446     1.0  0.97042  0.33153  0.88036  1.0000
  H   H2919     1.0  0.67164  0.37948  0.69314  1.0000
  H   H2920     1.0  0.98861  0.30252  0.96424  1.0000
  C   C2447     1.0  0.68520  0.37196  0.66489  1.0000
  H   H2921     1.0  0.66849  0.35059  0.52001  1.0000
  C   C2448     1.0  0.67012  0.37152  0.68242  1.0000
  H   H2922     1.0  0.80117  0.44342  0.56836  1.0000
  S   S650      1.0  0.67785  0.23897  0.92162  1.0000
  Fe  Fe326     1.0  0.70824  0.47824  0.68438  1.0000
  H   H2923     1.0  0.95562  0.29232  0.96816  1.0000
  S   S651      1.0  0.71135  0.48000  0.71530  1.0000
  H   H2924     1.0  0.99803  0.31956  0.94211  1.0000
  S   S652      1.0  0.94579  0.23778  0.88424  1.0000
  S   S653      1.0  0.90888  0.48418  0.54898  1.0000
  H   H2925     1.0  0.98331  0.30050  0.87968  1.0000
  C   C2449     1.0  0.80543  0.47812  0.58130  1.0000
  H   H2926     1.0  0.66702  0.34658  0.64010  1.0000
  C   C2450     1.0  0.79898  0.53767  0.38080  1.0000
  H   H2927     1.0  0.66744  0.56976  0.03350  1.0000
  Fe  Fe327     1.0  0.82512  0.60473  0.39460  1.0000
  S   S654      1.0  0.85437  0.58753  0.37969  1.0000
  S   S655      1.0  0.80794  0.59032  0.42391  1.0000
  Fe  Fe328     1.0  0.82647  0.64113  0.36204  1.0000
  S   S656      1.0  0.85612  0.62681  0.34392  1.0000
  S   S657      1.0  0.81139  0.67350  0.35257  1.0000
  Fe  Fe329     1.0  0.84212  0.59927  0.35167  1.0000
  S   S658      1.0  0.84834  0.57443  0.33395  1.0000
  Fe  Fe330     1.0  0.86616  0.61610  0.37331  1.0000
  S   S659      1.0  0.89896  0.61392  0.37541  1.0000
  S   S660      1.0  0.81161  0.61444  0.36731  1.0000
  S   S661      1.0  0.83774  0.63242  0.39071  1.0000
  H   H2928     1.0  0.95386  0.50313  0.11404  1.0000
  Fe  Fe331     1.0  0.82145  0.50843  0.24272  1.0000
  H   H2929     1.0  0.70087  0.56995  0.02491  1.0000
  H   H2930     1.0  0.92418  0.54567  0.46315  1.0000
  Fe  Fe332     1.0  0.79764  0.54450  0.26126  1.0000
  S   S662      1.0  0.76764  0.53481  0.26641  1.0000
  S   S663      1.0  0.79812  0.57330  0.27035  1.0000
  Fe  Fe333     1.0  0.78519  0.50436  0.27709  1.0000
  H   H2931     1.0  0.88451  0.49136  0.42566  1.0000
  Fe  Fe334     1.0  0.77830  0.52651  0.23605  1.0000
  S   S664      1.0  0.76034  0.53499  0.21126  1.0000
  S   S665      1.0  0.81456  0.51448  0.27387  1.0000
  S   S666      1.0  0.80672  0.53936  0.22969  1.0000
  H   H2932     1.0  0.87340  0.53412  0.22544  1.0000
  H   H2933     1.0  0.74656  0.59583  0.98017  1.0000
  C   C2451     1.0  0.84590  0.49922  0.98326  1.0000
  H   H2934     1.0  0.85580  0.54494  0.42024  1.0000
  C   C2452     1.0  0.79322  0.49773  0.14671  1.0000
  C   C2453     1.0  0.94950  0.51302  0.12528  1.0000
  H   H2935     1.0  0.84033  0.49555  0.17291  1.0000
  H   H2936     1.0  0.85151  0.53179  0.36027  1.0000
  N   N162      1.0  0.79418  0.65145  0.43966  1.0000
  H   H2937     1.0  0.81196  0.66383  0.41131  1.0000
  H   H2938     1.0  0.95088  0.63178  0.40054  1.0000
  H   H2939     1.0  0.72567  0.68978  0.32716  1.0000
  H   H2940     1.0  0.97309  0.53137  0.14660  1.0000
  H   H2941     1.0  0.78960  0.49713  0.20546  1.0000
  H   H2942     1.0  0.66878  0.53871  0.17653  1.0000
  C   C2454     1.0  0.74366  0.71209  0.34083  1.0000
  H   H2943     1.0  0.88889  0.65018  0.43028  1.0000
  H   H2944     1.0  0.81574  0.49788  0.20367  1.0000
  H   H2945     1.0  0.88266  0.52865  0.29504  1.0000
  H   H2946     1.0  0.70152  0.49546  0.00920  1.0000
  H   H2947     1.0  0.67528  0.50407  0.08216  1.0000
  C   C2455     1.0  0.98498  0.72612  0.36624  1.0000
  N   N163      1.0  0.78385  0.52471  0.33779  1.0000
  C   C2456     1.0  0.69259  0.52628  0.03414  1.0000
  C   C2457     1.0  0.67884  0.51980  0.05157  1.0000
  C   C2458     1.0  0.68589  0.50966  0.06905  1.0000
  H   H2948     1.0  0.67192  0.58709  0.04651  1.0000
  H   H2949     1.0  0.92610  0.48968  0.15084  1.0000
  H   H2950     1.0  0.80851  0.49947  0.34264  1.0000
  C   C2459     1.0  0.95412  0.54279  0.17171  1.0000
  H   H2951     1.0  0.87543  0.57717  0.43914  1.0000
  C   C2460     1.0  0.74790  0.51856  0.20526  1.0000
  H   H2952     1.0  0.93651  0.55806  0.43924  1.0000
  H   H2953     1.0  0.78040  0.62651  0.44026  1.0000
  H   H2954     1.0  0.77151  0.52803  0.31160  1.0000
  C   C2461     1.0  0.73105  0.51138  0.18187  1.0000
  C   C2462     1.0  0.74169  0.52362  0.18690  1.0000
  H   H2955     1.0  0.78737  0.54520  0.30933  1.0000
  C   C2463     1.0  0.80406  0.52070  0.17136  1.0000
  H   H2956     1.0  0.72658  0.51533  0.16760  1.0000
  H   H2957     1.0  0.74507  0.53712  0.17651  1.0000
  C   C2464     1.0  0.93652  0.54214  0.18665  1.0000
  H   H2958     1.0  0.90231  0.59675  0.44121  1.0000
  H   H2959     1.0  0.80534  0.56277  0.46176  1.0000
  C   C2465     1.0  0.94187  0.57580  0.46609  1.0000
  H   H2960     1.0  0.91602  0.60967  0.45074  1.0000
  C   C2466     1.0  0.80067  0.66874  0.42443  1.0000
  C   C2467     1.0  0.69248  0.54263  0.21170  1.0000
  H   H2961     1.0  0.69352  0.54469  0.17249  1.0000
  H   H2962     1.0  0.69671  0.71260  0.37138  1.0000
  H   H2963     1.0  0.70493  0.55020  0.20181  1.0000
  H   H2964     1.0  0.78539  0.56586  0.33009  1.0000
  C   C2468     1.0  0.92074  0.64188  0.41704  1.0000
  C   C2469     1.0  0.83392  0.57446  0.31658  1.0000
  C   C2470     1.0  0.83654  0.55688  0.30922  1.0000
  C   C2471     1.0  0.82569  0.55635  0.29504  1.0000
  C   C2472     1.0  0.81206  0.57340  0.28815  1.0000
  C   C2473     1.0  0.80950  0.59100  0.29547  1.0000
  C   C2474     1.0  0.82035  0.59154  0.30969  1.0000
  H   H2965     1.0  0.84706  0.54364  0.31445  1.0000
  H   H2966     1.0  0.82816  0.54288  0.28918  1.0000
  H   H2967     1.0  0.79907  0.60430  0.29012  1.0000
  H   H2968     1.0  0.81835  0.60520  0.31517  1.0000
  C   C2475     1.0  0.90674  0.62536  0.39131  1.0000
  C   C2476     1.0  0.89272  0.63479  0.40603  1.0000
  C   C2477     1.0  0.92771  0.62442  0.38943  1.0000
  H   H2969     1.0  0.87656  0.63566  0.40754  1.0000
  H   H2970     1.0  0.93864  0.61721  0.37805  1.0000
  C   C2478     1.0  0.85537  0.55999  0.46165  1.0000
  C   C2479     1.0  0.86014  0.57408  0.44428  1.0000
  C   C2480     1.0  0.84531  0.58386  0.43309  1.0000
  C   C2481     1.0  0.82566  0.57954  0.43916  1.0000
  C   C2482     1.0  0.71976  0.69150  0.34301  1.0000
  H   H2971     1.0  0.77407  0.50046  0.36135  1.0000
  C   C2483     1.0  0.85205  0.50983  0.40938  1.0000
  H   H2972     1.0  0.84920  0.59468  0.41969  1.0000
  S   S667      1.0  0.99500  0.70903  0.43609  1.0000
  C   C2484     1.0  0.71037  0.72853  0.33348  1.0000
  C   C2485     1.0  0.77678  0.67259  0.38249  1.0000
  C   C2486     1.0  0.78959  0.68441  0.36855  1.0000
  H   H2973     1.0  0.78033  0.65649  0.38365  1.0000
  C   C2487     1.0  0.99775  0.72237  0.01287  1.0000
  C   C2488     1.0  0.83679  0.51638  0.44254  1.0000
  H   H2974     1.0  0.95823  0.52541  0.11925  1.0000
  C   C2489     1.0  0.82214  0.60923  0.47403  1.0000
  H   H2975     1.0  0.70364  0.68930  0.34773  1.0000
  C   C2490     1.0  0.83550  0.55621  0.46822  1.0000
  H   H2976     1.0  0.76310  0.50509  0.34023  1.0000
  H   H2977     1.0  0.79435  0.71458  0.35589  1.0000
  H   H2978     1.0  0.80039  0.50269  0.31982  1.0000
  C   C2491     1.0  0.86621  0.53049  0.42451  1.0000
  C   C2492     1.0  0.71586  0.61267  0.98109  1.0000
  H   H2979     1.0  0.90918  0.56113  0.44608  1.0000
  C   C2493     1.0  0.78582  0.63971  0.42984  1.0000
  S   S668      1.0  0.97459  0.67919  0.40745  1.0000
  H   H2980     1.0  0.80317  0.53006  0.39491  1.0000
  N   N164      1.0  0.72157  0.71131  0.34582  1.0000
  H   H2981     1.0  0.67209  0.70340  0.99215  1.0000
  H   H2982     1.0  0.98587  0.70907  0.99493  1.0000
  C   C2494     1.0  0.81091  0.63814  0.44893  1.0000
  C   C2495     1.0  0.87242  0.49275  0.25340  1.0000
  S   S669      1.0  0.96519  0.49114  0.20205  1.0000
  S   S670      1.0  0.79360  0.49514  0.24726  1.0000
  H   H2983     1.0  0.91887  0.50583  0.17614  1.0000
  C   C2496     1.0  0.77580  0.53725  0.32018  1.0000
  S   S671      1.0  0.74040  0.52154  0.98345  1.0000
  C   C2497     1.0  0.92396  0.52886  0.18777  1.0000
  H   H2984     1.0  0.93300  0.51990  0.12643  1.0000
  S   S672      1.0  0.73239  0.71293  0.40937  1.0000
  Fe  Fe335     1.0  0.69538  0.49286  0.12018  1.0000
  C   C2498     1.0  0.70430  0.58243  0.01306  1.0000
  H   H2985     1.0  0.97353  0.73137  0.40501  1.0000
  C   C2499     1.0  0.87009  0.49510  0.43665  1.0000
  C   C2500     1.0  0.76705  0.71442  0.37917  1.0000
  H   H2986     1.0  0.73637  0.56884  0.00805  1.0000
  C   C2501     1.0  0.84213  0.61238  0.46770  1.0000
  C   C2502     1.0  0.73063  0.59671  0.98763  1.0000
  N   N165      1.0  0.85629  0.51299  0.42784  1.0000
  H   H2987     1.0  0.96406  0.55294  0.17100  1.0000
  H   H2988     1.0  0.95131  0.60286  0.44596  1.0000
  H   H2989     1.0  0.69541  0.71182  0.32051  1.0000
  C   C2503     1.0  0.88605  0.54168  0.24706  1.0000
  C   C2504     1.0  0.72485  0.58155  0.00346  1.0000
  H   H2990     1.0  0.85084  0.49473  0.99734  1.0000
  H   H2991     1.0  0.74674  0.72529  0.34489  1.0000
  C   C2505     1.0  0.93469  0.63273  0.40213  1.0000
  H   H2992     1.0  0.78761  0.67885  0.41830  1.0000
  C   C2506     1.0  0.75913  0.68168  0.39464  1.0000
  H   H2993     1.0  0.80326  0.56633  0.38341  1.0000
  C   C2507     1.0  0.82061  0.56598  0.45693  1.0000
  H   H2994     1.0  0.85827  0.53833  0.38982  1.0000
  C   C2508     1.0  0.95501  0.58982  0.45722  1.0000
  C   C2509     1.0  0.79403  0.52694  0.36891  1.0000
  H   H2995     1.0  0.79442  0.58369  0.35100  1.0000
  H   H2996     1.0  0.91032  0.52829  0.19950  1.0000
  H   H2997     1.0  0.87424  0.49747  0.45009  1.0000
  C   C2510     1.0  0.74368  0.50095  0.21844  1.0000
  H   H2998     1.0  0.98314  0.71538  0.38005  1.0000
  Fe  Fe336     1.0  0.96228  0.65343  0.42896  1.0000
  S   S673      1.0  0.98834  0.62993  0.41798  1.0000
  C   C2511     1.0  0.87174  0.54447  0.23523  1.0000
  H   H2999     1.0  0.80735  0.67809  0.43081  1.0000
  H   H3000     1.0  0.74838  0.49688  0.23263  1.0000
  H   H3001     1.0  0.98562  0.50407  0.13442  1.0000
  H   H3002     1.0  0.76524  0.67081  0.44859  1.0000
  C   C2512     1.0  0.76825  0.51270  0.34971  1.0000
  H   H3003     1.0  0.79162  0.61836  0.46989  1.0000
  H   H3004     1.0  0.75448  0.52237  0.35710  1.0000
  H   H3005     1.0  0.69942  0.52648  0.21543  1.0000
  H   H3006     1.0  0.85771  0.49552  0.26331  1.0000
  S   S674      1.0  0.70046  0.51270  0.13843  1.0000
  C   C2513     1.0  0.69528  0.61364  0.99049  1.0000
  Fe  Fe337     1.0  0.69525  0.48757  0.16443  1.0000
  H   H3007     1.0  0.75273  0.69873  0.34903  1.0000
  N   N166      1.0  0.95364  0.50174  0.14492  1.0000
  N   N167      1.0  0.67487  0.54587  0.20209  1.0000
  H   H3008     1.0  0.83927  0.51903  0.45660  1.0000
  H   H3009     1.0  0.81521  0.51936  0.32224  1.0000
  H   H3010     1.0  0.93271  0.55185  0.19745  1.0000
  H   H3011     1.0  0.82601  0.52978  0.43656  1.0000
  Fe  Fe338     1.0  0.99126  0.67976  0.43081  1.0000
  C   C2514     1.0  0.98274  0.72056  0.34930  1.0000
  S   S675      1.0  0.99028  0.48835  0.23698  1.0000
  C   C2515     1.0  0.77753  0.65978  0.45522  1.0000
  H   H3012     1.0  0.80267  0.50789  0.13694  1.0000
  C   C2516     1.0  0.85499  0.56023  0.23635  1.0000
  C   C2517     1.0  0.92917  0.51588  0.17420  1.0000
  H   H3013     1.0  0.74907  0.67251  0.40518  1.0000
  H   H3014     1.0  0.79761  0.63381  0.41753  1.0000
  H   H3015     1.0  0.89872  0.52917  0.24576  1.0000
  Fe  Fe339     1.0  0.70805  0.53742  0.98379  1.0000
  H   H3016     1.0  0.67697  0.50554  0.21740  1.0000
  H   H3017     1.0  0.84365  0.56215  0.22750  1.0000
  H   H3018     1.0  0.92881  0.59582  0.43094  1.0000
  H   H3019     1.0  0.73653  0.51001  0.05182  1.0000
  C   C2518     1.0  0.79902  0.55809  0.37438  1.0000
  H   H3020     1.0  0.82494  0.52570  0.99111  1.0000
  C   C2519     1.0  0.70675  0.50589  0.06915  1.0000
  C   C2520     1.0  0.95938  0.53002  0.15796  1.0000
  C   C2521     1.0  0.75436  0.70255  0.39323  1.0000
  C   C2522     1.0  0.97583  0.49296  0.14243  1.0000
  H   H3021     1.0  0.76190  0.54848  0.32467  1.0000
  H   H3022     1.0  0.79484  0.51102  0.37427  1.0000
  C   C2523     1.0  0.71345  0.71230  0.36722  1.0000
  H   H3023     1.0  0.76347  0.73054  0.37793  1.0000
  C   C2524     1.0  0.72041  0.51272  0.05181  1.0000
  H   H3024     1.0  0.97909  0.70601  0.35049  1.0000
  S   S676      1.0  0.68369  0.53788  0.01200  1.0000
  C   C2525     1.0  0.83131  0.51657  0.97976  1.0000
  H   H3025     1.0  0.87883  0.56483  0.29762  1.0000
  S   S677      1.0  0.97634  0.65631  0.45349  1.0000
  C   C2526     1.0  0.68176  0.53720  0.18372  1.0000
  H   H3026     1.0  0.80898  0.52705  0.15531  1.0000
  H   H3027     1.0  0.81225  0.52676  0.17963  1.0000
  C   C2527     1.0  0.78455  0.70536  0.36677  1.0000
  C   C2528     1.0  0.91720  0.59573  0.44519  1.0000
  S   S678      1.0  0.92908  0.65052  0.43465  1.0000
  C   C2529     1.0  0.97371  0.58732  0.46268  1.0000
  H   H3028     1.0  0.68440  0.62606  0.98448  1.0000
  N   N168      1.0  0.89854  0.55038  0.27386  1.0000
  C   C2530     1.0  0.89840  0.53018  0.28665  1.0000
  C   C2531     1.0  0.91942  0.55089  0.26154  1.0000
  C   C2532     1.0  0.89400  0.56506  0.28727  1.0000
  C   C2533     1.0  0.88376  0.55441  0.26072  1.0000
  H   H3029     1.0  0.78749  0.52697  0.17586  1.0000
  C   C2534     1.0  0.86663  0.57054  0.26126  1.0000
  C   C2535     1.0  0.84687  0.62796  0.45192  1.0000
  C   C2536     1.0  0.85261  0.57337  0.24911  1.0000
  C   C2537     1.0  0.98620  0.73315  0.33075  1.0000
  H   H3030     1.0  0.90424  0.51802  0.27782  1.0000
  H   H3031     1.0  0.90833  0.52703  0.29768  1.0000
  H   H3032     1.0  0.92498  0.53871  0.25269  1.0000
  H   H3033     1.0  0.93082  0.54880  0.27093  1.0000
  H   H3034     1.0  0.91994  0.56546  0.25090  1.0000
  H   H3035     1.0  0.90535  0.56172  0.29695  1.0000
  H   H3036     1.0  0.89425  0.58060  0.27867  1.0000
  C   C2538     1.0  0.97982  0.57109  0.47714  1.0000
  H   H3037     1.0  0.86334  0.58094  0.27127  1.0000
  H   H3038     1.0  0.87060  0.53161  0.43827  1.0000
  H   H3039     1.0  0.83937  0.58549  0.25008  1.0000
  C   C2539     1.0  0.89973  0.64298  0.41887  1.0000
  H   H3040     1.0  0.68051  0.57473  0.18482  1.0000
  Fe  Fe340     1.0  0.99457  0.49805  0.20370  1.0000
  C   C2540     1.0  0.85389  0.52416  0.39119  1.0000
  C   C2541     1.0  0.94744  0.51566  0.15918  1.0000
  C   C2542     1.0  0.78853  0.53651  0.35032  1.0000
  C   C2543     1.0  0.78874  0.55736  0.34421  1.0000
  C   C2544     1.0  0.92312  0.55983  0.45185  1.0000
  H   H3041     1.0  0.68783  0.54847  0.22586  1.0000
  H   H3042     1.0  0.98513  0.72845  0.31756  1.0000
  H   H3043     1.0  0.72876  0.67891  0.35215  1.0000
  C   C2545     1.0  0.71331  0.52314  0.03448  1.0000
  H   H3044     1.0  0.98358  0.59804  0.45555  1.0000
  C   C2546     1.0  0.68889  0.59878  0.00708  1.0000
  C   C2547     1.0  0.80281  0.51096  0.33038  1.0000
  H   H3045     1.0  0.72391  0.52886  0.02149  1.0000
  H   H3046     1.0  0.88048  0.52938  0.41279  1.0000
  H   H3047     1.0  0.77267  0.64888  0.42337  1.0000
  H   H3048     1.0  0.72090  0.69921  0.37714  1.0000
  C   C2548     1.0  0.69769  0.72625  0.32142  1.0000
  H   H3049     1.0  0.68862  0.52101  0.18666  1.0000
  C   C2549     1.0  0.79391  0.56788  0.35615  1.0000
  N   N169      1.0  0.92224  0.57752  0.46033  1.0000
  H   H3050     1.0  0.83293  0.49624  0.15011  1.0000
  S   S679      1.0  0.87498  0.54629  0.47381  1.0000
  H   H3051     1.0  0.84111  0.50012  0.36092  1.0000
  S   S680      1.0  0.85143  0.49564  0.22399  1.0000
  S   S681      1.0  0.71643  0.49144  0.09010  1.0000
  H   H3052     1.0  0.77923  0.49694  0.12284  1.0000
  N   N170      1.0  0.80793  0.49842  0.17568  1.0000
  C   C2550     1.0  0.66816  0.56784  0.19580  1.0000
  C   C2551     1.0  0.67342  0.69746  0.97897  1.0000
  C   C2552     1.0  0.89282  0.48760  0.22102  1.0000
  H   H3053     1.0  0.82903  0.50332  0.44667  1.0000
  C   C2553     1.0  0.89037  0.49020  0.26045  1.0000
  H   H3054     1.0  0.89018  0.58086  0.47419  1.0000
  C   C2554     1.0  0.84131  0.48884  0.39208  1.0000
  C   C2555     1.0  0.87360  0.49161  0.23361  1.0000
  H   H3055     1.0  0.83643  0.65223  0.43021  1.0000
  C   C2556     1.0  0.83158  0.64069  0.44255  1.0000
  H   H3056     1.0  0.86255  0.63001  0.44675  1.0000
  H   H3057     1.0  0.89383  0.48643  0.20578  1.0000
  H   H3058     1.0  0.85405  0.60234  0.47471  1.0000
  H   H3059     1.0  0.88930  0.49096  0.27581  1.0000
  C   C2557     1.0  0.99649  0.70661  0.00468  1.0000
  H   H3060     1.0  0.75007  0.71271  0.32458  1.0000
  C   C2558     1.0  0.80675  0.62181  0.46477  1.0000
  C   C2559     1.0  0.82943  0.49078  0.16653  1.0000
  H   H3061     1.0  0.76989  0.64803  0.46595  1.0000
  H   H3062     1.0  0.78350  0.66758  0.46389  1.0000
  S   S682      1.0  0.77089  0.48684  0.30620  1.0000
  C   C2560     1.0  0.77997  0.49145  0.13844  1.0000
  C   C2561     1.0  0.72629  0.49406  0.19529  1.0000
  H   H3063     1.0  0.71604  0.72587  0.37105  1.0000
  C   C2562     1.0  0.79407  0.49120  0.16722  1.0000
  C   C2563     1.0  0.73288  0.48879  0.21348  1.0000
  C   C2564     1.0  0.85000  0.52059  0.37396  1.0000
  C   C2565     1.0  0.80550  0.49181  0.19766  1.0000
  C   C2566     1.0  0.84397  0.50286  0.37434  1.0000
  H   H3064     1.0  0.71742  0.48611  0.98759  1.0000
  C   C2567     1.0  0.84510  0.49230  0.40940  1.0000
  H   H3065     1.0  0.66677  0.62479  0.03000  1.0000
  N   N171      1.0  0.66697  0.60008  0.01672  1.0000
  C   C2568     1.0  0.90961  0.48684  0.24767  1.0000
  H   H3066     1.0  0.98000  0.48621  0.15718  1.0000
  S   S683      1.0  0.98776  0.55518  0.58551  1.0000
  Fe  Fe341     1.0  0.99103  0.53863  0.56074  1.0000
  S   S684      1.0  0.86087  0.52026  0.52966  1.0000
  S   S685      1.0  0.77396  0.56020  0.96590  1.0000
  C   C2569     1.0  0.97257  0.64126  0.85093  1.0000
  H   H3067     1.0  0.71214  0.53334  0.77339  1.0000
  C   C2570     1.0  0.80427  0.50342  0.69977  1.0000
  S   S686      1.0  0.96621  0.54567  0.54274  1.0000
  Fe  Fe342     1.0  0.98683  0.70834  0.92631  1.0000
  Fe  Fe343     1.0  0.75894  0.53251  0.77458  1.0000
  S   S687      1.0  0.75410  0.53680  0.74289  1.0000
  Fe  Fe344     1.0  0.97561  0.71932  0.88537  1.0000
  S   S688      1.0  0.76892  0.52706  0.82802  1.0000
  C   C2571     1.0  0.69955  0.69748  0.88075  1.0000
  Fe  Fe345     1.0  0.77072  0.55349  0.80291  1.0000
  S   S689      1.0  0.77546  0.58114  0.81097  1.0000
  S   S690      1.0  0.74107  0.55350  0.79534  1.0000
  C   C2572     1.0  0.66909  0.57396  0.82127  1.0000
  H   H3068     1.0  0.68973  0.53663  0.65381  1.0000
  C   C2573     1.0  0.89424  0.50835  0.86878  1.0000
  C   C2574     1.0  0.74289  0.52044  0.73522  1.0000
  S   S691      1.0  0.70056  0.56630  0.91341  1.0000
  Fe  Fe346     1.0  0.95325  0.69071  0.91804  1.0000
  C   C2575     1.0  0.83136  0.53589  0.91659  1.0000
  S   S692      1.0  0.93996  0.66258  0.92468  1.0000
  H   H3069     1.0  0.82663  0.51260  0.82204  1.0000
  C   C2576     1.0  0.89046  0.50366  0.90994  1.0000
  S   S693      1.0  0.95451  0.70626  0.94198  1.0000
  Fe  Fe347     1.0  0.84377  0.60853  0.88395  1.0000
  S   S694      1.0  0.87076  0.60269  0.89809  1.0000
  S   S695      1.0  0.81208  0.62393  0.89584  1.0000
  Fe  Fe348     1.0  0.86752  0.59031  0.84823  1.0000
  S   S696      1.0  0.89727  0.58346  0.85846  1.0000
  S   S697      1.0  0.86405  0.58171  0.82065  1.0000
  Fe  Fe349     1.0  0.87826  0.57290  0.88844  1.0000
  S   S698      1.0  0.88664  0.54374  0.90897  1.0000
  Fe  Fe350     1.0  0.88749  0.61388  0.86716  1.0000
  S   S699      1.0  0.90561  0.63878  0.85989  1.0000
  S   S700      1.0  0.84935  0.57768  0.87760  1.0000
  S   S701      1.0  0.85968  0.62176  0.85365  1.0000
  C   C2577     1.0  0.99624  0.63439  0.54022  1.0000
  C   C2578     1.0  0.98230  0.59690  0.54314  1.0000
  C   C2579     1.0  0.78585  0.51829  0.88133  1.0000
  S   S702      1.0  0.98795  0.71911  0.85263  1.0000
  H   H3070     1.0  0.68399  0.60372  0.92689  1.0000
  C   C2580     1.0  0.70972  0.57431  0.73689  1.0000
  C   C2581     1.0  0.85832  0.73095  0.96361  1.0000
  H   H3071     1.0  0.69248  0.61396  0.85700  1.0000
  H   H3072     1.0  0.83164  0.54564  0.48187  1.0000
  H   H3073     1.0  0.93188  0.54905  0.52527  1.0000
  C   C2582     1.0  0.74144  0.52369  0.71511  1.0000
  C   C2583     1.0  0.92935  0.65667  0.90698  1.0000
  C   C2584     1.0  0.92302  0.63821  0.91102  1.0000
  C   C2585     1.0  0.91512  0.63277  0.89698  1.0000
  C   C2586     1.0  0.91355  0.64576  0.87874  1.0000
  C   C2587     1.0  0.91922  0.66448  0.87497  1.0000
  C   C2588     1.0  0.92714  0.66992  0.88900  1.0000
  H   H3074     1.0  0.92462  0.62791  0.92493  1.0000
  H   H3075     1.0  0.91088  0.61826  0.90001  1.0000
  H   H3076     1.0  0.91772  0.67472  0.86101  1.0000
  H   H3077     1.0  0.93163  0.68431  0.88586  1.0000
  H   H3078     1.0  0.81252  0.57215  0.95598  1.0000
  H   H3079     1.0  0.69596  0.70362  0.92965  1.0000
  H   H3080     1.0  0.79493  0.53216  0.93992  1.0000
  H   H3081     1.0  0.67888  0.67531  0.93212  1.0000
  C   C2589     1.0  0.80378  0.58090  0.94499  1.0000
  C   C2590     1.0  0.81248  0.59476  0.92926  1.0000
  C   C2591     1.0  0.80108  0.60656  0.91537  1.0000
  C   C2592     1.0  0.78115  0.60410  0.91686  1.0000
  Fe  Fe351     1.0  0.86722  0.51963  0.49708  1.0000
  H   H3082     1.0  0.73048  0.51431  0.69327  1.0000
  H   H3083     1.0  0.82792  0.59652  0.92810  1.0000
  H   H3084     1.0  0.77248  0.61310  0.90594  1.0000
  S   S703      1.0  0.70487  0.52382  0.95930  1.0000
  C   C2593     1.0  0.67453  0.54569  0.65478  1.0000
  H   H3085     1.0  0.86185  0.71873  0.97573  1.0000
  C   C2594     1.0  0.84776  0.49321  0.95040  1.0000
  S   S704      1.0  0.75600  0.50465  0.79789  1.0000
  H   H3086     1.0  0.99208  0.59492  0.55404  1.0000
  S   S705      1.0  0.67945  0.65147  0.87125  1.0000
  H   H3087     1.0  0.77230  0.52949  0.88495  1.0000
  H   H3088     1.0  0.73770  0.52213  0.86593  1.0000
  H   H3089     1.0  0.90523  0.59042  0.48586  1.0000
  C   C2595     1.0  0.68687  0.69756  0.94374  1.0000
  H   H3090     1.0  0.72146  0.56649  0.72653  1.0000
  H   H3091     1.0  0.98425  0.61416  0.49372  1.0000
  C   C2596     1.0  0.88995  0.52283  0.89795  1.0000
  C   C2597     1.0  0.73188  0.51145  0.70866  1.0000
  C   C2598     1.0  0.80016  0.57981  0.81442  1.0000
  C   C2599     1.0  0.80260  0.58600  0.83102  1.0000
  C   C2600     1.0  0.82221  0.58608  0.83338  1.0000
  C   C2601     1.0  0.83940  0.58054  0.81884  1.0000
  C   C2602     1.0  0.83693  0.57414  0.80239  1.0000
  C   C2603     1.0  0.81738  0.57360  0.80027  1.0000
  H   H3092     1.0  0.78937  0.59073  0.84208  1.0000
  H   H3093     1.0  0.82403  0.59060  0.84632  1.0000
  H   H3094     1.0  0.85019  0.56976  0.79114  1.0000
  H   H3095     1.0  0.81561  0.56887  0.78738  1.0000
  C   C2604     1.0  0.67290  0.61811  0.92718  1.0000
  C   C2605     1.0  0.69386  0.67893  0.88319  1.0000
  H   H3096     1.0  0.89316  0.71462  0.91375  1.0000
  C   C2606     1.0  0.70266  0.55228  0.89516  1.0000
  C   C2607     1.0  0.72103  0.53971  0.88839  1.0000
  C   C2608     1.0  0.72337  0.53149  0.87140  1.0000
  H   H3097     1.0  0.73368  0.53699  0.89573  1.0000
  H   H3098     1.0  0.71039  0.55660  0.70474  1.0000
  S   S706      1.0  0.70950  0.52607  0.83991  1.0000
  H   H3099     1.0  0.89602  0.51019  0.85280  1.0000
  H   H3100     1.0  0.89702  0.68147  0.93594  1.0000
  C   C2609     1.0  0.98551  0.66031  0.86721  1.0000
  H   H3101     1.0  0.74770  0.53577  0.70450  1.0000
  H   H3102     1.0  0.97178  0.54477  0.49785  1.0000
  C   C2610     1.0  0.78404  0.57810  0.94632  1.0000
  S   S707      1.0  0.84237  0.50317  0.49942  1.0000
  H   H3103     1.0  0.93940  0.54813  0.48817  1.0000
  C   C2611     1.0  0.76344  0.48903  0.59677  1.0000
  H   H3104     1.0  0.96522  0.50471  0.56498  1.0000
  C   C2612     1.0  0.92170  0.52075  0.53522  1.0000
  C   C2613     1.0  0.93443  0.53415  0.53420  1.0000
  C   C2614     1.0  0.95027  0.52846  0.54484  1.0000
  C   C2615     1.0  0.95316  0.50927  0.55666  1.0000
  S   S708      1.0  0.98637  0.69002  0.90434  1.0000
  H   H3105     1.0  0.90953  0.52531  0.52702  1.0000
  C   C2616     1.0  0.89154  0.52518  0.87738  1.0000
  C   C2617     1.0  0.68497  0.70545  0.96071  1.0000
  H   H3106     1.0  0.89118  0.53991  0.86801  1.0000
  C   C2618     1.0  0.67492  0.58977  0.74962  1.0000
  C   C2619     1.0  0.68834  0.54668  0.86939  1.0000
  C   C2620     1.0  0.79387  0.49486  0.57114  1.0000
  H   H3107     1.0  0.81450  0.51399  0.69570  1.0000
  H   H3108     1.0  0.69453  0.66812  0.89696  1.0000
  H   H3109     1.0  0.78340  0.50278  0.65152  1.0000
  H   H3110     1.0  0.95435  0.67940  0.84951  1.0000
  N   N172      1.0  0.84856  0.66140  0.91232  1.0000
  C   C2621     1.0  0.85355  0.65728  0.89180  1.0000
  C   C2622     1.0  0.85251  0.64185  0.92613  1.0000
  C   C2623     1.0  0.82639  0.66985  0.91748  1.0000
  C   C2624     1.0  0.86061  0.67591  0.91328  1.0000
  C   C2625     1.0  0.85855  0.69530  0.90095  1.0000
  C   C2626     1.0  0.87474  0.67137  0.92606  1.0000
  H   H3111     1.0  0.69962  0.58863  0.85257  1.0000
  H   H3112     1.0  0.84510  0.64611  0.89056  1.0000
  H   H3113     1.0  0.84977  0.67086  0.88047  1.0000
  H   H3114     1.0  0.87013  0.65118  0.88730  1.0000
  H   H3115     1.0  0.86881  0.63421  0.92253  1.0000
  H   H3116     1.0  0.84318  0.63131  0.92506  1.0000
  H   H3117     1.0  0.84856  0.64368  0.94197  1.0000
  H   H3118     1.0  0.81694  0.65896  0.91747  1.0000
  H   H3119     1.0  0.82211  0.67379  0.93258  1.0000
  H   H3120     1.0  0.82168  0.68358  0.90667  1.0000
  H   H3121     1.0  0.84822  0.69979  0.89076  1.0000
  H   H3122     1.0  0.87780  0.65695  0.93570  1.0000
  S   S709      1.0  0.78892  0.53548  0.77973  1.0000
  H   H3123     1.0  0.96647  0.60374  0.54986  1.0000
  H   H3124     1.0  0.73227  0.57658  0.75204  1.0000
  C   C2627     1.0  0.83252  0.51053  0.94654  1.0000
  H   H3125     1.0  0.85009  0.49985  0.90920  1.0000
  H   H3126     1.0  0.84821  0.53435  0.91368  1.0000
  H   H3127     1.0  0.88919  0.50179  0.92586  1.0000
  H   H3128     1.0  0.79662  0.52365  0.91771  1.0000
  C   C2628     1.0  0.85606  0.49886  0.84344  1.0000
  C   C2629     1.0  0.69566  0.53624  0.77850  1.0000
  C   C2630     1.0  0.68162  0.59591  0.76390  1.0000
  H   H3129     1.0  0.96804  0.64014  0.83723  1.0000
  Fe  Fe352     1.0  0.88382  0.49141  0.53135  1.0000
  H   H3130     1.0  0.69965  0.59372  0.87623  1.0000
  C   C2631     1.0  0.85415  0.48763  0.96857  1.0000
  H   H3131     1.0  0.70115  0.59276  0.69730  1.0000
  S   S710      1.0  0.69670  0.72537  0.95953  1.0000
  H   H3132     1.0  0.68215  0.56360  0.82713  1.0000
  H   H3133     1.0  0.81867  0.59663  0.48585  1.0000
  C   C2632     1.0  0.92460  0.50154  0.54706  1.0000
  C   C2633     1.0  0.66907  0.56208  0.66443  1.0000
  H   H3134     1.0  0.69709  0.55262  0.79938  1.0000
  H   H3135     1.0  0.79718  0.50599  0.94069  1.0000
  H   H3136     1.0  0.99590  0.59504  0.59890  1.0000
  H   H3137     1.0  0.68088  0.58787  0.68872  1.0000
  C   C2634     1.0  0.83322  0.50181  0.91433  1.0000
  H   H3138     1.0  0.80663  0.50138  0.66965  1.0000
  N   N173      1.0  0.68230  0.57390  0.71918  1.0000
  S   S711      1.0  0.94222  0.71900  0.89786  1.0000
  H   H3139     1.0  0.85242  0.48715  0.83744  1.0000
  H   H3140     1.0  0.99109  0.60625  0.63087  1.0000
  C   C2635     1.0  0.88601  0.68540  0.92637  1.0000
  Fe  Fe353     1.0  0.83791  0.50115  0.53257  1.0000
  C   C2636     1.0  0.70219  0.59110  0.76486  1.0000
  C   C2637     1.0  0.73507  0.50458  0.74874  1.0000
  Fe  Fe354     1.0  0.73812  0.51047  0.95716  1.0000
  S   S712      1.0  0.81404  0.48609  0.80582  1.0000
  H   H3141     1.0  0.82466  0.54821  0.92511  1.0000
  C   C2638     1.0  0.77290  0.50030  0.57898  1.0000
  H   H3142     1.0  0.82662  0.54093  0.90197  1.0000
  C   C2639     1.0  0.69903  0.71128  0.86279  1.0000
  H   H3143     1.0  0.97874  0.59121  0.50912  1.0000
  H   H3144     1.0  0.97096  0.66036  0.87861  1.0000
  C   C2640     1.0  0.67726  0.68157  0.94515  1.0000
  H   H3145     1.0  0.95811  0.64283  0.86239  1.0000
  C   C2641     1.0  0.71619  0.58028  0.75140  1.0000
  C   C2642     1.0  0.68703  0.67445  0.86795  1.0000
  S   S713      1.0  0.89165  0.49198  0.49839  1.0000
  Fe  Fe355     1.0  0.74838  0.54864  0.96110  1.0000
  C   C2643     1.0  0.99590  0.56425  0.67848  1.0000
  C   C2644     1.0  0.77272  0.58958  0.93217  1.0000
  H   H3146     1.0  0.68023  0.56554  0.67066  1.0000
  C   C2645     1.0  0.69248  0.70662  0.84751  1.0000
  Fe  Fe356     1.0  0.74032  0.52583  0.81915  1.0000
  H   H3147     1.0  0.99212  0.52705  0.67204  1.0000
  H   H3148     1.0  0.76389  0.51327  0.57122  1.0000
  H   H3149     1.0  0.82922  0.48695  0.92202  1.0000
  H   H3150     1.0  0.86860  0.72364  0.89136  1.0000
  H   H3151     1.0  0.82233  0.65053  0.80676  1.0000
  H   H3152     1.0  0.67197  0.56502  0.89101  1.0000
  N   N174      1.0  0.72472  0.60191  0.85265  1.0000
  C   C2646     1.0  0.73829  0.58191  0.85578  1.0000
  C   C2647     1.0  0.70319  0.59941  0.85988  1.0000
  C   C2648     1.0  0.72792  0.60970  0.83077  1.0000
  C   C2649     1.0  0.72889  0.61526  0.86393  1.0000
  C   C2650     1.0  0.72932  0.60876  0.88455  1.0000
  C   C2651     1.0  0.73161  0.63522  0.85526  1.0000
  C   C2652     1.0  0.73282  0.62122  0.89559  1.0000
  C   C2653     1.0  0.73511  0.64755  0.86646  1.0000
  C   C2654     1.0  0.73584  0.64054  0.88653  1.0000
  H   H3153     1.0  0.73519  0.57376  0.87142  1.0000
  N   N175      1.0  0.98305  0.65840  0.84746  1.0000
  H   H3154     1.0  0.75462  0.58328  0.85175  1.0000
  H   H3155     1.0  0.70735  0.59591  0.77591  1.0000
  C   C2655     1.0  0.68880  0.57860  0.73571  1.0000
  H   H3156     1.0  0.90634  0.56390  0.48927  1.0000
  H   H3157     1.0  0.74362  0.61283  0.82461  1.0000
  H   H3158     1.0  0.72628  0.59862  0.82256  1.0000
  H   H3159     1.0  0.71658  0.62354  0.82695  1.0000
  H   H3160     1.0  0.72653  0.59412  0.89245  1.0000
  H   H3161     1.0  0.73038  0.64192  0.84005  1.0000
  H   H3162     1.0  0.73295  0.61589  0.91134  1.0000
  H   H3163     1.0  0.73632  0.66295  0.85977  1.0000
  H   H3164     1.0  0.73817  0.65031  0.89522  1.0000
  N   N176      1.0  0.79651  0.65147  0.83173  1.0000
  C   C2656     1.0  0.78528  0.64032  0.82416  1.0000
  C   C2657     1.0  0.81037  0.66156  0.81455  1.0000
  C   C2658     1.0  0.80958  0.63654  0.84437  1.0000
  C   C2659     1.0  0.78183  0.66659  0.84248  1.0000
  C   C2660     1.0  0.76912  0.68269  0.83217  1.0000
  C   C2661     1.0  0.77965  0.66593  0.86323  1.0000
  C   C2662     1.0  0.75562  0.69749  0.84188  1.0000
  C   C2663     1.0  0.76616  0.68084  0.87275  1.0000
  C   C2664     1.0  0.75429  0.69665  0.86208  1.0000
  H   H3165     1.0  0.77590  0.65029  0.81364  1.0000
  H   H3166     1.0  0.79594  0.62882  0.81595  1.0000
  H   H3167     1.0  0.77492  0.63230  0.83666  1.0000
  H   H3168     1.0  0.80219  0.67144  0.80301  1.0000
  C   C2665     1.0  0.82479  0.52222  0.96166  1.0000
  H   H3169     1.0  0.81838  0.67088  0.81957  1.0000
  H   H3170     1.0  0.82122  0.62608  0.83564  1.0000
  H   H3171     1.0  0.81818  0.64394  0.85091  1.0000
  H   H3172     1.0  0.80050  0.62705  0.85678  1.0000
  H   H3173     1.0  0.76956  0.68402  0.81650  1.0000
  H   H3174     1.0  0.78818  0.65407  0.87251  1.0000
  H   H3175     1.0  0.74605  0.70975  0.83380  1.0000
  H   H3176     1.0  0.76489  0.68015  0.88854  1.0000
  H   H3177     1.0  0.74393  0.70823  0.86951  1.0000
  N   N177      1.0  0.83829  0.51555  0.84644  1.0000
  C   C2666     1.0  0.84538  0.53118  0.85245  1.0000
  C   C2667     1.0  0.98639  0.67014  0.52896  1.0000
  C   C2668     1.0  0.83216  0.52388  0.82697  1.0000
  C   C2669     1.0  0.82054  0.50934  0.86158  1.0000
  C   C2670     1.0  0.80270  0.52376  0.86689  1.0000
  H   H3178     1.0  0.69227  0.71712  0.83351  1.0000
  H   H3179     1.0  0.96163  0.61409  0.51359  1.0000
  H   H3180     1.0  0.67523  0.60499  0.70534  1.0000
  H   H3181     1.0  0.67241  0.62336  0.94102  1.0000
  H   H3182     1.0  0.84991  0.52557  0.86717  1.0000
  H   H3183     1.0  0.85896  0.53594  0.84145  1.0000
  H   H3184     1.0  0.83364  0.54508  0.85339  1.0000
  H   H3185     1.0  0.82685  0.50647  0.90063  1.0000
  Fe  Fe357     1.0  0.78488  0.50877  0.80443  1.0000
  C   C2671     1.0  0.78624  0.49835  0.89091  1.0000
  H   H3186     1.0  0.81964  0.53721  0.82761  1.0000
  N   N178      1.0  0.82513  0.51675  0.92759  1.0000
  C   C2672     1.0  0.97862  0.66656  0.51403  1.0000
  H   H3187     1.0  0.80156  0.53934  0.85962  1.0000
  C   C2673     1.0  0.80252  0.51979  0.93169  1.0000
  C   C2674     1.0  0.68612  0.68843  0.85022  1.0000
  H   H3188     1.0  0.96704  0.67595  0.82457  1.0000
  H   H3189     1.0  0.98201  0.58144  0.54183  1.0000
  S   S714      1.0  0.71607  0.56550  0.96317  1.0000
  H   H3190     1.0  0.98230  0.62681  0.85643  1.0000
  C   C2675     1.0  0.88387  0.70412  0.91384  1.0000
  H   H3191     1.0  0.70472  0.70095  0.89257  1.0000
  C   C2676     1.0  0.68629  0.55555  0.88573  1.0000
  C   C2677     1.0  0.87009  0.70910  0.90121  1.0000
  H   H3192     1.0  0.68814  0.54955  0.70307  1.0000
  Fe  Fe358     1.0  0.69019  0.49634  0.64730  1.0000
  H   H3193     1.0  0.97357  0.64529  0.49998  1.0000
  H   H3194     1.0  0.75745  0.58743  0.93321  1.0000
  H   H3195     1.0  0.69610  0.54264  0.72644  1.0000
  H   H3196     1.0  0.97604  0.69046  0.83704  1.0000
  C   C2678     1.0  0.68673  0.54758  0.79341  1.0000
  H   H3197     1.0  0.99009  0.67462  0.86667  1.0000
  S   S715      1.0  0.74938  0.53597  0.93444  1.0000
  S   S716      1.0  0.80484  0.50906  0.54837  1.0000
  C   C2679     1.0  0.69476  0.55492  0.71321  1.0000
  S   S717      1.0  0.71995  0.49684  0.65479  1.0000
  C   C2680     1.0  0.97807  0.60722  0.50935  1.0000
  Fe  Fe359     1.0  0.71622  0.55021  0.93855  1.0000
  C   C2681     1.0  0.96954  0.67681  0.83930  1.0000
  C   C2682     1.0  0.70703  0.53514  0.86176  1.0000
  H   H3198     1.0  0.73641  0.57185  0.84657  1.0000
  C   C2683     1.0  0.97952  0.64692  0.51212  1.0000
  H   H3199     1.0  0.84512  0.52857  0.81504  1.0000
  C   C2684     1.0  0.90533  0.57823  0.47819  1.0000
  H   H3200     1.0  0.69065  0.51901  0.75936  1.0000
  C   C2685     1.0  0.98816  0.63016  0.52539  1.0000
  H   H3201     1.0  0.75860  0.50251  0.66754  1.0000
  H   H3202     1.0  0.67548  0.54913  0.86245  1.0000
  H   H3203     1.0  0.98511  0.55994  0.67169  1.0000
  H   H3204     1.0  0.73628  0.50171  0.76419  1.0000
  S   S718      1.0  0.70694  0.73423  0.85859  1.0000
  H   H3205     1.0  0.68097  0.68503  0.83837  1.0000
  H   H3206     1.0  0.81362  0.53586  0.95959  1.0000
  C   C2686     1.0  0.77218  0.49306  0.65966  1.0000
  H   H3207     1.0  0.99710  0.64771  0.87304  1.0000
  C   C2687     1.0  0.68503  0.59058  0.70189  1.0000
  H   H3208     1.0  0.98606  0.68543  0.53005  1.0000
  C   C2688     1.0  0.72563  0.49230  0.74228  1.0000
  H   H3209     1.0  0.97225  0.67914  0.50356  1.0000
  C   C2689     1.0  0.96716  0.55726  0.48634  1.0000
  H   H3210     1.0  0.86943  0.50406  0.83255  1.0000
  H   H3211     1.0  0.66918  0.57948  0.94566  1.0000
  C   C2690     1.0  0.72389  0.49570  0.72228  1.0000
  H   H3212     1.0  0.67967  0.62884  0.91421  1.0000
  H   H3213     1.0  0.74724  0.49331  0.60262  1.0000
  H   H3214     1.0  0.99640  0.58026  0.67147  1.0000
  Fe  Fe360     1.0  0.94595  0.73488  0.92050  1.0000
  H   H3215     1.0  0.86133  0.49170  0.85761  1.0000
  H   H3216     1.0  0.99163  0.49221  0.68788  1.0000
  C   C2691     1.0  0.94854  0.55943  0.48081  1.0000
  C   C2692     1.0  0.68359  0.52826  0.77052  1.0000
  S   S719      1.0  0.66764  0.52120  0.63338  1.0000
  C   C2693     1.0  0.99519  0.65408  0.54203  1.0000
  C   C2694     1.0  0.79573  0.49723  0.71981  1.0000
  C   C2695     1.0  0.94037  0.49591  0.55777  1.0000
  N   N179      1.0  0.98989  0.60916  0.52348  1.0000
  H   H3217     1.0  0.98916  0.56358  0.69468  1.0000
  H   H3218     1.0  0.67512  0.58451  0.80777  1.0000
  H   H3219     1.0  0.67085  0.60475  0.77410  1.0000
  C   C2696     1.0  0.89465  0.48919  0.88078  1.0000
  S   S720      1.0  0.99688  0.51574  0.63389  1.0000
  H   H3220     1.0  0.79906  0.50313  0.73126  1.0000
  H   H3221     1.0  0.77315  0.49406  0.90206  1.0000
  H   H3222     1.0  0.72037  0.62428  0.96856  1.0000
  C   C2697     1.0  0.82019  0.48907  0.87129  1.0000
  H   H3223     1.0  0.88974  0.72952  0.94832  1.0000
  C   C2698     1.0  0.79955  0.49619  0.68498  1.0000
  H   H3224     1.0  0.99439  0.56927  0.48121  1.0000
  H   H3225     1.0  0.76734  0.48822  0.64793  1.0000
  C   C2699     1.0  0.89252  0.48690  0.90142  1.0000
  H   H3226     1.0  0.77412  0.48717  0.97643  1.0000
  S   S721      1.0  0.89967  0.97251  0.46341  1.0000
  Fe  Fe361     1.0  0.79128  0.90492  0.42522  1.0000
  S   S722      1.0  0.76077  0.91170  0.41683  1.0000
  S   S723      1.0  0.81946  0.89144  0.40527  1.0000
  S   S724      1.0  0.73996  0.96831  0.41903  1.0000
  C   C2700     1.0  0.74001  0.86144  0.41668  1.0000
  C   C2701     1.0  0.73509  0.83065  0.40949  1.0000
  S   S725      1.0  0.68426  0.75242  0.41187  1.0000
  C   C2702     1.0  0.82130  0.78615  0.38579  1.0000
  C   C2703     1.0  0.79429  0.85418  0.40335  1.0000
  C   C2704     1.0  0.72692  0.82461  0.42979  1.0000
  S   S726      1.0  0.72197  0.76994  0.37798  1.0000
  C   C2705     1.0  0.89244  0.97945  0.09347  1.0000
  H   H3227     1.0  0.85271  0.95225  0.41560  1.0000
  H   H3228     1.0  0.74920  0.96660  0.45714  1.0000
  H   H3229     1.0  0.96099  0.75623  0.39551  1.0000
  Fe  Fe362     1.0  0.84728  0.95559  0.03082  1.0000
  H   H3230     1.0  0.84881  0.92773  0.45797  1.0000
  S   S727      1.0  0.84647  0.92618  0.02292  1.0000
  C   C2706     1.0  0.82592  0.96059  0.34031  1.0000
  S   S728      1.0  0.87972  0.96496  0.08479  1.0000
  H   H3231     1.0  0.97500  0.96287  0.26177  1.0000
  H   H3232     1.0  0.98376  0.94828  0.12757  1.0000
  H   H3233     1.0  0.98292  0.78178  0.37535  1.0000
  H   H3234     1.0  0.77884  0.84400  0.44267  1.0000
  H   H3235     1.0  0.85796  0.97757  0.45432  1.0000
  S   S729      1.0  0.83548  0.96058  0.06241  1.0000
  S   S730      1.0  0.87656  0.96574  0.02824  1.0000
  C   C2707     1.0  0.85192  0.96344  0.45999  1.0000
  H   H3236     1.0  0.80598  0.92316  0.04985  1.0000
  C   C2708     1.0  0.70053  0.76498  0.32284  1.0000
  Fe  Fe363     1.0  0.68879  0.97464  0.12231  1.0000
  C   C2709     1.0  0.74141  0.84920  0.40300  1.0000
  C   C2710     1.0  0.72566  0.83680  0.44348  1.0000
  Fe  Fe364     1.0  0.72064  0.79038  0.39899  1.0000
  C   C2711     1.0  0.94929  0.93373  0.07359  1.0000
  C   C2712     1.0  0.83543  0.79208  0.39310  1.0000
  C   C2713     1.0  0.78612  0.96910  0.13241  1.0000
  C   C2714     1.0  0.84582  0.90505  0.99492  1.0000
  C   C2715     1.0  0.77291  0.93929  0.00511  1.0000
  C   C2716     1.0  0.99189  0.75137  0.32908  1.0000
  C   C2717     1.0  0.73233  0.85517  0.43702  1.0000
  C   C2718     1.0  0.93710  0.95046  0.06434  1.0000
  H   H3237     1.0  0.67934  0.77511  0.30317  1.0000
  H   H3238     1.0  0.78695  0.93593  0.06723  1.0000
  C   C2719     1.0  0.97393  0.94630  0.11813  1.0000
  S   S731      1.0  0.68670  0.79981  0.40367  1.0000
  H   H3239     1.0  0.99773  0.77436  0.39443  1.0000
  C   C2720     1.0  0.81709  0.92217  0.35392  1.0000
  S   S732      1.0  0.88941  0.93887  0.35665  1.0000
  H   H3240     1.0  0.83003  0.97514  0.33446  1.0000
  Fe  Fe365     1.0  0.68614  0.77421  0.42962  1.0000
  C   C2721     1.0  0.99609  0.77083  0.38039  1.0000
  S   S733      1.0  0.72015  0.76591  0.42627  1.0000
  C   C2722     1.0  0.68686  0.74293  0.31047  1.0000
  H   H3241     1.0  0.72216  0.81028  0.43500  1.0000
  H   H3242     1.0  0.84548  0.96992  0.11756  1.0000
  Fe  Fe366     1.0  0.68756  0.77736  0.38541  1.0000
  H   H3243     1.0  0.66974  0.74349  0.37371  1.0000
  Fe  Fe367     1.0  0.75450  0.93750  0.43275  1.0000
  H   H3244     1.0  0.85308  0.89216  0.00436  1.0000
  Fe  Fe368     1.0  0.77345  0.91319  0.46705  1.0000
  N   N180      1.0  0.84222  0.95931  0.44524  1.0000
  S   S734      1.0  0.73943  0.81467  0.39219  1.0000
  S   S735      1.0  0.95895  0.97645  0.15491  1.0000
  C   C2723     1.0  0.98670  0.98216  0.23470  1.0000
  N   N181      1.0  0.99333  0.74984  0.38333  1.0000
  H   H3245     1.0  0.80087  0.90113  0.03338  1.0000
  C   C2724     1.0  0.76520  0.96874  0.13742  1.0000
  H   H3246     1.0  0.92916  0.98256  0.05816  1.0000
  C   C2725     1.0  0.97833  0.97853  0.09834  1.0000
  H   H3247     1.0  0.92424  0.96305  0.25320  1.0000
  H   H3248     1.0  0.80356  0.88498  0.00589  1.0000
  H   H3249     1.0  0.85119  0.78416  0.39087  1.0000
  C   C2726     1.0  0.82939  0.80816  0.40323  1.0000
  C   C2727     1.0  0.81301  0.97288  0.42745  1.0000
  H   H3250     1.0  0.92118  0.97383  0.12838  1.0000
  Fe  Fe369     1.0  0.88381  0.97229  0.34702  1.0000
  C   C2728     1.0  0.85791  0.95781  0.42658  1.0000
  H   H3251     1.0  0.98908  0.97958  0.10725  1.0000
  N   N182      1.0  0.97904  0.95742  0.09733  1.0000
  H   H3252     1.0  0.78962  0.81760  0.44490  1.0000
  H   H3253     1.0  0.78911  0.93526  0.37059  1.0000
  C   C2729     1.0  0.83570  0.92486  0.34116  1.0000
  H   H3254     1.0  0.80530  0.95392  0.02441  1.0000
  H   H3255     1.0  0.85478  0.94601  0.32474  1.0000
  N   N183      1.0  0.80171  0.83576  0.41711  1.0000
  S   S736      1.0  0.74122  0.92038  0.46255  1.0000
  Fe  Fe370     1.0  0.98999  0.98463  0.14628  1.0000
  C   C2730     1.0  0.90269  0.97031  0.10924  1.0000
  C   C2731     1.0  0.80293  0.93858  0.36028  1.0000
  C   C2732     1.0  0.80108  0.79631  0.38849  1.0000
  C   C2733     1.0  0.76000  0.96289  0.09320  1.0000
  H   H3256     1.0  0.99892  0.77121  0.34353  1.0000
  C   C2734     1.0  0.67560  0.86068  0.47383  1.0000
  H   H3257     1.0  0.76452  0.95455  0.00399  1.0000
  H   H3258     1.0  0.74913  0.95743  0.03599  1.0000
  C   C2735     1.0  0.78565  0.91002  0.98980  1.0000
  C   C2736     1.0  0.82908  0.96856  0.12180  1.0000
  C   C2737     1.0  0.83178  0.94052  0.98797  1.0000
  H   H3259     1.0  0.82636  0.96113  0.13780  1.0000
  C   C2738     1.0  0.84124  0.92400  0.00026  1.0000
  H   H3260     1.0  0.75995  0.95467  0.14349  1.0000
  C   C2739     1.0  0.96485  0.95539  0.08563  1.0000
  H   H3261     1.0  0.78808  0.86718  0.41108  1.0000
  H   H3262     1.0  0.82781  0.95506  0.99207  1.0000
  H   H3263     1.0  0.82740  0.95847  0.11254  1.0000
  C   C2740     1.0  0.78181  0.92954  0.02187  1.0000
  Fe  Fe371     1.0  0.75028  0.89384  0.44717  1.0000
  H   H3264     1.0  0.77995  0.96078  0.38990  1.0000
  H   H3265     1.0  0.78726  0.96652  0.04285  1.0000
  C   C2741     1.0  0.75730  0.94636  0.04690  1.0000
  C   C2742     1.0  0.93888  0.96960  0.06518  1.0000
  H   H3266     1.0  0.78193  0.85245  0.39686  1.0000
  C   C2743     1.0  0.71140  0.74844  0.33386  1.0000
  H   H3267     1.0  0.77907  0.81978  0.40009  1.0000
  H   H3268     1.0  0.84697  0.91201  0.33697  1.0000
  H   H3269     1.0  0.82339  0.94046  0.46693  1.0000
  H   H3270     1.0  0.91694  0.97880  0.28288  1.0000
  H   H3271     1.0  0.77135  0.82925  0.42958  1.0000
  H   H3272     1.0  0.81398  0.90714  0.35961  1.0000
  H   H3273     1.0  0.79629  0.95485  0.13515  1.0000
  C   C2744     1.0  0.82444  0.97502  0.44069  1.0000
  C   C2745     1.0  0.95238  0.97216  0.07576  1.0000
  S   S737      1.0  0.78616  0.93227  0.43832  1.0000
  C   C2746     1.0  0.78913  0.92764  0.05501  1.0000
  C   C2747     1.0  0.81782  0.84009  0.42511  1.0000
  H   H3274     1.0  0.92600  0.94864  0.05675  1.0000
  C   C2748     1.0  0.68828  0.76224  0.31117  1.0000
  H   H3275     1.0  0.78253  0.91392  0.06180  1.0000
  S   S738      1.0  0.78136  0.88515  0.45445  1.0000
  C   C2749     1.0  0.99404  0.75714  0.34598  1.0000
  C   C2750     1.0  0.83594  0.93962  0.45348  1.0000
  C   C2751     1.0  0.79293  0.90958  0.02173  1.0000
  H   H3276     1.0  0.79125  0.96577  0.07987  1.0000
  C   C2752     1.0  0.83867  0.90541  0.39333  1.0000
  C   C2753     1.0  0.83554  0.92617  0.39222  1.0000
  C   C2754     1.0  0.85099  0.93684  0.38101  1.0000
  C   C2755     1.0  0.86960  0.92662  0.37131  1.0000
  C   C2756     1.0  0.87273  0.90587  0.37300  1.0000
  C   C2757     1.0  0.85730  0.89535  0.38378  1.0000
  H   H3277     1.0  0.82103  0.93402  0.39932  1.0000
  H   H3278     1.0  0.84847  0.95288  0.37966  1.0000
  H   H3279     1.0  0.88708  0.89791  0.36561  1.0000
  H   H3280     1.0  0.85980  0.87935  0.38457  1.0000
  H   H3281     1.0  0.74498  0.87566  0.41147  1.0000
  H   H3282     1.0  0.86188  0.97271  0.41915  1.0000
  H   H3283     1.0  0.74758  0.85404  0.38731  1.0000
  H   H3284     1.0  0.72002  0.83172  0.45922  1.0000
  H   H3285     1.0  0.83060  0.84474  0.41291  1.0000
  C   C2758     1.0  0.78872  0.95817  0.03082  1.0000
  S   S739      1.0  0.72043  0.95866  0.10931  1.0000
  H   H3286     1.0  0.96284  0.98565  0.10562  1.0000
  H   H3287     1.0  0.86528  0.95148  0.46316  1.0000
  Fe  Fe372     1.0  0.71867  0.74617  0.40587  1.0000
  H   H3288     1.0  0.77603  0.98168  0.33727  1.0000
  H   H3289     1.0  0.82397  0.82698  0.43585  1.0000
  H   H3290     1.0  0.81120  0.97726  0.38052  1.0000
  H   H3291     1.0  0.83054  0.93414  0.44259  1.0000
  H   H3292     1.0  0.67670  0.74089  0.30194  1.0000
  H   H3293     1.0  0.79000  0.79181  0.38278  1.0000
  C   C2759     1.0  0.78471  0.83145  0.43428  1.0000
  H   H3294     1.0  0.67226  0.73934  0.46031  1.0000
  H   H3295     1.0  0.84100  0.96448  0.47454  1.0000
  C   C2760     1.0  0.90026  0.97972  0.42324  1.0000
  H   H3296     1.0  0.89838  0.98527  0.39220  1.0000
  H   H3297     1.0  0.74953  0.93326  0.05214  1.0000
  H   H3298     1.0  0.84113  0.81200  0.40841  1.0000
  H   H3299     1.0  0.76514  0.96369  0.37125  1.0000
  C   C2761     1.0  0.79491  0.81238  0.39856  1.0000
  S   S740      1.0  0.73142  0.86952  0.45486  1.0000
  N   N184      1.0  0.77936  0.94010  0.03843  1.0000
  C   C2762     1.0  0.80709  0.95833  0.35385  1.0000
  H   H3300     1.0  0.81183  0.85283  0.43322  1.0000
  C   C2763     1.0  0.80880  0.81875  0.40639  1.0000
  C   C2764     1.0  0.84007  0.94404  0.33431  1.0000
  H   H3301     1.0  0.97218  0.92266  0.09089  1.0000
  H   H3302     1.0  0.82602  0.77369  0.37796  1.0000
  C   C2765     1.0  0.97536  0.74725  0.39993  1.0000
  H   H3303     1.0  0.87230  0.94734  0.42943  1.0000
  H   H3304     1.0  0.76385  0.94701  0.09909  1.0000
  H   H3305     1.0  0.80686  0.85841  0.39067  1.0000
  H   H3306     1.0  0.99524  0.76079  0.31451  1.0000
  H   H3307     1.0  0.81681  0.95968  0.42089  1.0000
  H   H3308     1.0  0.76479  0.98451  0.38160  1.0000
  H   H3309     1.0  0.70097  0.78005  0.32396  1.0000
  S   S741      1.0  0.93953  0.97663  0.21168  1.0000
  H   H3310     1.0  0.94782  0.91886  0.07289  1.0000
  N   N185      1.0  0.79273  0.97605  0.36059  1.0000
  H   H3311     1.0  0.97688  0.75178  0.41351  1.0000
  C   C2766     1.0  0.96309  0.93609  0.08395  1.0000
  H   H3312     1.0  0.90669  0.96393  0.42389  1.0000
  H   H3313     1.0  0.68562  0.88746  0.45581  1.0000
  H   H3314     1.0  0.78156  0.96901  0.01905  1.0000
  C   C2767     1.0  0.77551  0.97347  0.08230  1.0000
  H   H3315     1.0  0.90257  0.95470  0.11589  1.0000
  H   H3316     1.0  0.68320  0.85261  0.46189  1.0000
  C   C2768     1.0  0.79462  0.90003  0.00595  1.0000
  C   C2769     1.0  0.73948  0.97274  0.09659  1.0000
  H   H3317     1.0  0.75480  0.95373  0.05987  1.0000
  C   C2770     1.0  0.99046  0.74467  0.36520  1.0000
  C   C2771     1.0  0.77499  0.97092  0.37649  1.0000
  H   H3318     1.0  0.78752  0.98555  0.41289  1.0000
  S   S742      1.0  0.68404  0.98393  0.15171  1.0000
  C   C2772     1.0  0.91337  0.98109  0.11629  1.0000
  C   C2773     1.0  0.77489  0.92964  0.98932  1.0000
  C   C2774     1.0  0.92647  0.97822  0.25137  1.0000
  H   H3319     1.0  0.97623  0.92989  0.11905  1.0000
  H   H3320     1.0  0.98960  0.97088  0.22561  1.0000
  H   H3321     1.0  0.72024  0.75140  0.34309  1.0000
  C   C2775     1.0  0.97849  0.97761  0.25505  1.0000
  C   C2776     1.0  0.67702  0.88090  0.47006  1.0000
  Fe  Fe373     1.0  0.86332  0.97386  0.05860  1.0000
  H   H3322     1.0  0.68882  0.81931  0.47469  1.0000
  C   C2777     1.0  0.74550  0.98217  0.45015  1.0000
  H   H3323     1.0  0.99881  0.93913  0.16482  1.0000
  H   H3324     1.0  0.95771  0.95160  0.12516  1.0000
  S   S743      1.0  0.83105  0.98557  0.01721  1.0000
  H   H3325     1.0  0.73476  0.98587  0.13740  1.0000
  H   H3326     1.0  0.98821  0.73699  0.00946  1.0000
  H   H3327     1.0  0.69091  0.82051  0.50871  1.0000
  H   H3328     1.0  0.68791  0.91897  0.65221  1.0000
  C   C2778     1.0  0.93829  0.96692  0.49055  1.0000
  C   C2779     1.0  0.81294  0.94483  0.89428  1.0000
  H   H3329     1.0  0.99189  0.90631  0.70934  1.0000
  C   C2780     1.0  0.73631  0.89074  0.51991  1.0000
  H   H3330     1.0  0.67924  0.75330  0.82858  1.0000
  H   H3331     1.0  0.83021  0.97051  0.69054  1.0000
  H   H3332     1.0  0.74791  0.97294  0.59594  1.0000
  H   H3333     1.0  0.81802  0.76481  0.94940  1.0000
  C   C2781     1.0  0.83822  0.74099  0.96373  1.0000
  S   S744      1.0  0.84588  0.96080  0.79233  1.0000
  Fe  Fe374     1.0  0.85135  0.85942  0.90402  1.0000
  S   S745      1.0  0.83628  0.85617  0.93666  1.0000
  S   S746      1.0  0.88190  0.84236  0.89014  1.0000
  Fe  Fe375     1.0  0.81491  0.88954  0.89077  1.0000
  S   S747      1.0  0.79725  0.88795  0.92228  1.0000
  S   S748      1.0  0.79742  0.90893  0.86764  1.0000
  Fe  Fe376     1.0  0.82640  0.88999  0.92981  1.0000
  H   H3334     1.0  0.87419  0.78819  0.90514  1.0000
  Fe  Fe377     1.0  0.80861  0.85470  0.92580  1.0000
  S   S749      1.0  0.78707  0.83279  0.94061  1.0000
  S   S750      1.0  0.84352  0.89321  0.89779  1.0000
  S   S751      1.0  0.82424  0.85623  0.89372  1.0000
  C   C2782     1.0  0.95531  0.94074  0.51288  1.0000
  S   S752      1.0  0.71068  0.77931  0.87828  1.0000
  C   C2783     1.0  0.67162  0.77737  0.84460  1.0000
  S   S753      1.0  0.70608  0.77559  0.92621  1.0000
  H   H3335     1.0  0.71737  0.83471  0.86266  1.0000
  H   H3336     1.0  0.77055  0.85917  0.90680  1.0000
  S   S754      1.0  0.71075  0.94248  0.61814  1.0000
  Fe  Fe378     1.0  0.73150  0.76969  0.90011  1.0000
  S   S755      1.0  0.76105  0.78157  0.89114  1.0000
  H   H3337     1.0  0.67463  0.90650  0.59069  1.0000
  H   H3338     1.0  0.74667  0.89576  0.52664  1.0000
  C   C2784     1.0  0.67719  0.94245  0.75549  1.0000
  C   C2785     1.0  0.70529  0.95227  0.73004  1.0000
  S   S756      1.0  0.86456  0.96833  0.51683  1.0000
  C   C2786     1.0  0.72755  0.95440  0.50230  1.0000
  C   C2787     1.0  0.70208  0.89130  0.51784  1.0000
  H   H3339     1.0  0.70707  0.94493  0.81039  1.0000
  C   C2788     1.0  0.72833  0.93464  0.51269  1.0000
  H   H3340     1.0  0.69192  0.91137  0.54828  1.0000
  H   H3341     1.0  0.72852  0.97088  0.79968  1.0000
  H   H3342     1.0  0.68552  0.96039  0.48330  1.0000
  C   C2789     1.0  0.68501  0.91635  0.63878  1.0000
  C   C2790     1.0  0.82835  0.98382  0.69731  1.0000
  H   H3343     1.0  0.78679  0.87308  0.86460  1.0000
  C   C2791     1.0  0.75011  0.94757  0.57177  1.0000
  C   C2792     1.0  0.78310  0.95167  0.48853  1.0000
  H   H3344     1.0  0.71640  0.82553  0.92501  1.0000
  C   C2793     1.0  0.75520  0.97586  0.70529  1.0000
  C   C2794     1.0  0.67246  0.90278  0.64009  1.0000
  H   H3345     1.0  0.95838  0.95423  0.69802  1.0000
  H   H3346     1.0  0.97900  0.96656  0.66698  1.0000
  H   H3347     1.0  0.76838  0.93747  0.97646  1.0000
  H   H3348     1.0  0.91234  0.97484  0.52506  1.0000
  C   C2795     1.0  0.67597  0.97715  0.74057  1.0000
  C   C2796     1.0  0.96919  0.93951  0.69821  1.0000
  H   H3349     1.0  0.81891  0.95082  0.96161  1.0000
  C   C2797     1.0  0.76212  0.87334  0.89921  1.0000
  C   C2798     1.0  0.87399  0.73693  0.94810  1.0000
  C   C2799     1.0  0.77976  0.81860  0.92682  1.0000
  C   C2800     1.0  0.76446  0.80726  0.93611  1.0000
  C   C2801     1.0  0.75828  0.79602  0.92535  1.0000
  C   C2802     1.0  0.76746  0.79599  0.90523  1.0000
  C   C2803     1.0  0.78283  0.80719  0.89605  1.0000
  C   C2804     1.0  0.78892  0.81843  0.90676  1.0000
  H   H3350     1.0  0.75730  0.80721  0.95166  1.0000
  H   H3351     1.0  0.74654  0.78730  0.93266  1.0000
  H   H3352     1.0  0.79008  0.80712  0.88054  1.0000
  H   H3353     1.0  0.80085  0.82681  0.89947  1.0000
  C   C2805     1.0  0.83226  0.94627  0.81307  1.0000
  C   C2806     1.0  0.81095  0.94921  0.81686  1.0000
  C   C2807     1.0  0.80043  0.93758  0.83361  1.0000
  C   C2808     1.0  0.81114  0.92313  0.84676  1.0000
  C   C2809     1.0  0.83244  0.92026  0.84307  1.0000
  C   C2810     1.0  0.84298  0.93169  0.82615  1.0000
  H   H3354     1.0  0.80259  0.96014  0.80670  1.0000
  H   H3355     1.0  0.78396  0.93982  0.83638  1.0000
  H   H3356     1.0  0.84081  0.90908  0.85309  1.0000
  H   H3357     1.0  0.85948  0.92926  0.82323  1.0000
  H   H3358     1.0  0.66962  0.94055  0.74402  1.0000
  H   H3359     1.0  0.78013  0.95405  0.71557  1.0000
  H   H3360     1.0  0.70802  0.88735  0.55425  1.0000
  C   C2811     1.0  0.91101  0.78131  0.92262  1.0000
  C   C2812     1.0  0.91830  0.78787  0.90225  1.0000
  C   C2813     1.0  0.90960  0.80688  0.89257  1.0000
  C   C2814     1.0  0.89348  0.81934  0.90312  1.0000
  C   C2815     1.0  0.88640  0.81288  0.92355  1.0000
  C   C2816     1.0  0.89512  0.79391  0.93323  1.0000
  H   H3361     1.0  0.93055  0.77828  0.89395  1.0000
  H   H3362     1.0  0.91520  0.81184  0.87677  1.0000
  H   H3363     1.0  0.87421  0.82247  0.93187  1.0000
  H   H3364     1.0  0.78764  0.90275  0.97729  1.0000
  Fe  Fe379     1.0  0.70637  0.95665  0.64501  1.0000
  H   H3365     1.0  0.83259  0.76317  0.90245  1.0000
  C   C2817     1.0  0.72248  0.97957  0.77010  1.0000
  C   C2818     1.0  0.79008  0.93255  0.49889  1.0000
  C   C2819     1.0  0.92217  0.95972  0.52515  1.0000
  C   C2820     1.0  0.78801  0.96857  0.49227  1.0000
  C   C2821     1.0  0.80057  0.96636  0.50575  1.0000
  C   C2822     1.0  0.80836  0.94717  0.51539  1.0000
  C   C2823     1.0  0.80283  0.93033  0.51222  1.0000
  H   H3366     1.0  0.78196  0.98340  0.48480  1.0000
  H   H3367     1.0  0.67358  0.80316  0.51753  1.0000
  H   H3368     1.0  0.81788  0.94536  0.52600  1.0000
  H   H3369     1.0  0.80833  0.91555  0.52022  1.0000
  S   S757      1.0  0.92044  0.75714  0.93519  1.0000
  C   C2824     1.0  0.83835  0.96512  0.87708  1.0000
  H   H3370     1.0  0.85265  0.97550  0.97431  1.0000
  H   H3371     1.0  0.77908  0.96649  0.57165  1.0000
  C   C2825     1.0  0.67760  0.90911  0.60408  1.0000
  H   H3372     1.0  0.80773  0.93319  0.90643  1.0000
  H   H3373     1.0  0.69776  0.92971  0.58826  1.0000
  S   S758      1.0  0.67986  0.75124  0.90971  1.0000
  C   C2826     1.0  0.73672  0.97808  0.55038  1.0000
  H   H3374     1.0  0.96490  0.93525  0.65266  1.0000
  S   S759      1.0  0.78243  0.91134  0.49610  1.0000
  H   H3375     1.0  0.68699  0.77537  0.84694  1.0000
  H   H3376     1.0  0.73718  0.87451  0.52652  1.0000
  C   C2827     1.0  0.71242  0.97627  0.75666  1.0000
  H   H3377     1.0  0.77875  0.96604  0.54658  1.0000
  C   C2828     1.0  0.69423  0.92606  0.62011  1.0000
  Fe  Fe380     1.0  0.70732  0.74714  0.88486  1.0000
  H   H3378     1.0  0.97085  0.94131  0.50341  1.0000
  H   H3379     1.0  0.68930  0.93869  0.78758  1.0000
  H   H3380     1.0  0.86699  0.97681  0.84330  1.0000
  H   H3381     1.0  0.70488  0.81862  0.89740  1.0000
  H   H3382     1.0  0.95709  0.93408  0.52845  1.0000
  H   H3383     1.0  0.70600  0.89158  0.50144  1.0000
  N   N186      1.0  0.71501  0.90233  0.52348  1.0000
  H   H3384     1.0  0.88946  0.78893  0.94901  1.0000
  H   H3385     1.0  0.75699  0.94018  0.55863  1.0000
  S   S760      1.0  0.67601  0.97629  0.65327  1.0000
  Fe  Fe381     1.0  0.72342  0.96766  0.67650  1.0000
  S   S761      1.0  0.75106  0.96034  0.69083  1.0000
  H   H3386     1.0  0.66881  0.90826  0.48148  1.0000
  C   C2829     1.0  0.71220  0.96364  0.49171  1.0000
  H   H3387     1.0  0.96042  0.92800  0.70781  1.0000
  H   H3388     1.0  0.75943  0.94067  0.58335  1.0000
  H   H3389     1.0  0.86926  0.97124  0.92185  1.0000
  H   H3390     1.0  0.82608  0.73653  0.97600  1.0000
  C   C2830     1.0  0.83376  0.75709  0.94836  1.0000
  H   H3391     1.0  0.74040  0.92837  0.52088  1.0000
  H   H3392     1.0  0.77243  0.88431  0.89518  1.0000
  H   H3393     1.0  0.68552  0.89755  0.52236  1.0000
  H   H3394     1.0  0.95266  0.96821  0.47918  1.0000
  C   C2831     1.0  0.70788  0.90272  0.54507  1.0000
  N   N187      1.0  0.94210  0.96098  0.51118  1.0000
  H   H3395     1.0  0.79887  0.97446  0.85282  1.0000
  Fe  Fe382     1.0  0.68510  0.78248  0.90485  1.0000
  H   H3396     1.0  0.78742  0.94905  0.88061  1.0000
  H   H3397     1.0  0.81555  0.98301  0.71059  1.0000
  C   C2832     1.0  0.82703  0.97466  0.86197  1.0000
  H   H3398     1.0  0.84032  0.94296  0.90420  1.0000
  C   C2833     1.0  0.98869  0.95144  0.66603  1.0000
  H   H3399     1.0  0.68642  0.92614  0.50084  1.0000
  S   S762      1.0  0.72449  0.97987  0.64373  1.0000
  H   H3400     1.0  0.92371  0.95361  0.54089  1.0000
  N   N188      1.0  0.84423  0.78091  0.91642  1.0000
  C   C2834     1.0  0.83652  0.79914  0.92536  1.0000
  C   C2835     1.0  0.86190  0.78469  0.89980  1.0000
  C   C2836     1.0  0.82816  0.77775  0.90758  1.0000
  C   C2837     1.0  0.84934  0.76347  0.93220  1.0000
  H   H3401     1.0  0.70933  0.96702  0.56818  1.0000
  H   H3402     1.0  0.84785  0.80151  0.93290  1.0000
  H   H3403     1.0  0.83332  0.81286  0.91393  1.0000
  H   H3404     1.0  0.82207  0.79833  0.93671  1.0000
  H   H3405     1.0  0.86231  0.95871  0.94698  1.0000
  H   H3406     1.0  0.90364  0.97154  0.59332  1.0000
  C   C2838     1.0  0.80145  0.95389  0.87978  1.0000
  C   C2839     1.0  0.70850  0.95367  0.79534  1.0000
  H   H3407     1.0  0.82528  0.78976  0.89448  1.0000
  H   H3408     1.0  0.71671  0.93879  0.73465  1.0000
  S   S763      1.0  0.97860  0.73794  0.90611  1.0000
  N   N189      1.0  0.75626  0.87049  0.88137  1.0000
  H   H3409     1.0  0.91365  0.95012  0.52121  1.0000
  C   C2840     1.0  0.77531  0.86339  0.86741  1.0000
  C   C2841     1.0  0.74630  0.89042  0.87169  1.0000
  C   C2842     1.0  0.74230  0.85611  0.88612  1.0000
  C   C2843     1.0  0.73499  0.84633  0.90594  1.0000
  C   C2844     1.0  0.73550  0.85157  0.87061  1.0000
  C   C2845     1.0  0.72156  0.83308  0.90984  1.0000
  C   C2846     1.0  0.72218  0.83819  0.87470  1.0000
  C   C2847     1.0  0.71516  0.82903  0.89428  1.0000
  Fe  Fe383     1.0  0.67897  0.96406  0.68487  1.0000
  C   C2848     1.0  0.77028  0.97309  0.55962  1.0000
  H   H3410     1.0  0.74861  0.87922  0.91017  1.0000
  H   H3411     1.0  0.95207  0.92339  0.67654  1.0000
  C   C2849     1.0  0.73914  0.97879  0.58380  1.0000
  H   H3412     1.0  0.77264  0.86333  0.85256  1.0000
  H   H3413     1.0  0.73168  0.89610  0.88153  1.0000
  H   H3414     1.0  0.75629  0.90171  0.86834  1.0000
  H   H3415     1.0  0.74289  0.89005  0.85725  1.0000
  H   H3416     1.0  0.73966  0.84832  0.91872  1.0000
  H   H3417     1.0  0.74057  0.85824  0.85518  1.0000
  C   C2850     1.0  0.66846  0.89933  0.62281  1.0000
  H   H3418     1.0  0.71758  0.90994  0.55051  1.0000
  C   C2851     1.0  0.72057  0.96828  0.78938  1.0000
  H   H3419     1.0  0.81317  0.77793  0.91825  1.0000
  N   N190      1.0  0.74898  0.96958  0.56598  1.0000
  H   H3420     1.0  0.70404  0.87528  0.52546  1.0000
  H   H3421     1.0  0.85284  0.96876  0.87655  1.0000
  C   C2852     1.0  0.86967  0.75286  0.93253  1.0000
  C   C2853     1.0  0.69755  0.95315  0.49145  1.0000
  C   C2854     1.0  0.96017  0.93599  0.66878  1.0000
  S   S764      1.0  0.82344  0.91696  0.94404  1.0000
  C   C2855     1.0  0.77082  0.96883  0.71619  1.0000
  C   C2856     1.0  0.85848  0.97294  0.93627  1.0000
  H   H3422     1.0  0.94881  0.95026  0.66970  1.0000
  C   C2857     1.0  0.70004  0.96150  0.76215  1.0000
  H   H3423     1.0  0.94884  0.92998  0.50810  1.0000
  C   C2858     1.0  0.99756  0.90263  0.69466  1.0000
  Fe  Fe384     1.0  0.70312  0.74380  0.92885  1.0000
  N   N191      1.0  0.68973  0.95827  0.74747  1.0000
  C   C2859     1.0  0.82674  0.93806  0.97070  1.0000
  H   H3424     1.0  0.84279  0.97386  0.93416  1.0000
  H   H3425     1.0  0.88634  0.97616  0.95608  1.0000
  C   C2860     1.0  0.80832  0.96853  0.86377  1.0000
  C   C2861     1.0  0.69067  0.92226  0.60275  1.0000
  H   H3426     1.0  0.74301  0.89203  0.50362  1.0000
  C   C2862     1.0  0.77416  0.98059  0.72827  1.0000
  H   H3427     1.0  0.85766  0.79798  0.88821  1.0000
  H   H3428     1.0  0.85427  0.96767  0.82911  1.0000
  H   H3429     1.0  0.77344  0.95346  0.47809  1.0000
  H   H3430     1.0  0.86843  0.77161  0.89228  1.0000
  H   H3431     1.0  0.73900  0.96253  0.50244  1.0000
  C   C2863     1.0  0.83136  0.95041  0.89296  1.0000
  H   H3432     1.0  0.71167  0.97894  0.48362  1.0000
  H   H3433     1.0  0.99731  0.91823  0.64488  1.0000
  S   S765      1.0  0.70819  0.94239  0.67679  1.0000
  H   H3434     1.0  0.71397  0.96426  0.72177  1.0000
  C   C2864     1.0  0.69834  0.93328  0.50157  1.0000
  C   C2865     1.0  0.83122  0.91910  0.96541  1.0000
  C   C2866     1.0  0.71401  0.92326  0.51229  1.0000
  H   H3435     1.0  0.67046  0.80362  0.48407  1.0000
  C   C2867     1.0  0.71620  0.97549  0.55414  1.0000
  H   H3436     1.0  0.78254  0.84791  0.87348  1.0000
  H   H3437     1.0  0.68672  0.92757  0.76015  1.0000
  N   N192      1.0  0.97769  0.93521  0.67775  1.0000
  C   C2868     1.0  0.69834  0.95025  0.78200  1.0000
  H   H3438     1.0  0.73489  0.94350  0.57844  1.0000
  S   S766      1.0  0.88295  0.97986  0.56069  1.0000
  H   H3439     1.0  0.69822  0.94874  0.71908  1.0000
  H   H3440     1.0  0.72359  0.97557  0.59048  1.0000
  H   H3441     1.0  0.95425  0.95774  0.54624  1.0000
  H   H3442     1.0  0.78580  0.97478  0.73708  1.0000
  H   H3443     1.0  0.84447  0.88794  0.97361  1.0000
  H   H3444     1.0  0.90734  0.98210  0.71435  1.0000
  H   H3445     1.0  0.97003  0.98092  0.55537  1.0000
  C   C2869     1.0  0.84098  0.90261  0.97749  1.0000
  H   H3446     1.0  0.88267  0.75683  0.92124  1.0000
  C   C2870     1.0  0.67216  0.81962  0.48001  1.0000
  H   H3447     1.0  0.93134  0.95580  0.48690  1.0000
  C   C2871     1.0  0.85512  0.98128  0.83417  1.0000
  H   H3448     1.0  0.66817  0.82558  0.52721  1.0000
  C   C2872     1.0  0.67449  0.81935  0.51334  1.0000
  C   C2873     1.0  0.96645  0.98408  0.54068  1.0000
  H   H3449     1.0  0.99809  0.73946  0.94703  1.0000
  S   S767      1.0  0.96806  0.98550  0.62564  1.0000
  H   H3450     1.0  0.99343  0.95069  0.64993  1.0000
  C   C2874     1.0  0.99180  0.91558  0.67725  1.0000
  C   C2875     1.0  0.66775  0.89257  0.48456  1.0000
  C   C2876     1.0  0.90898  0.98406  0.58262  1.0000
  H   H3451     1.0  0.98142  0.94044  0.70544  1.0000
  S   S768      1.0  0.73040  0.73693  0.90443  1.0000
  C   C2877     1.0  0.95738  0.97094  0.53528  1.0000
  H   H3452     1.0  0.84235  0.98232  0.70307  1.0000
  H   H3453     1.0  0.92727  0.98140  0.48847  1.0000
  C   C2878     1.0  0.95181  0.97513  0.51644  1.0000
  C   C2879     1.0  0.66718  0.76497  0.83419  1.0000
  H   H3454     1.0  0.68793  0.98302  0.54381  1.0000
  H   H3455     1.0  0.66731  0.97509  0.73007  1.0000
  C   C2880     1.0  0.70381  0.98452  0.54027  1.0000
  H   H3456     1.0  0.71452  0.98535  0.74184  1.0000
