data_image0
_chemical_formula_structural       FeS2FeS2FeSFeS3H3C4H3C4HC2H2CHC3HCH2CHC3HNC6HC2H9CH2C2H2C2H4C2HCHCHNH2CHC5HC4H3CH5C3HCHNH3FeS2FeS2FeSFeS3C4HC2HC2HC6H2C3HCHCHC2NHNH4CH2SCH2C2HNHCHCHC3HNH4C2H2CH5C2H2C2H5CHSC2HC2HCHCHC3H5C3H2C2HCH5CHFeS2FeS2FeSFeS3C3H2CH2CSH2C2H5NSHC6H4CHCH5C2H2CSCH2CHNC6HC2H11NC2HFeH3C3HCH4CHFeS2FeS2FeSFeS3HSHC2H7CHC2H3NCH2C6H4C3HNC9H17C4HC3FeS2FeSHFeSFeSC2HSC7H6FeH3CHNCH2CH3SCHCHSC2HCH4C3H3C3H4CH3NSCHCH4FeSCFeS2FeSHSCSFeSC7H4C2HSFeNH2CHNC4H4CH11C2SH2C4FeH2CH3SCH2S2FeSFeS2H2C3HC2NC2H3C6H5CH2NH2CFeH4C3FeHCH2CH2C3H2SFeSC2H2C2HC2SC3H3CSC4HCSH3C2H3FeC2H2SCS2FeSC2HSCFeS3NSHSC2HC7H7C2FeH2C2SH5C2FeNC3HC2H2CH5Fe2H4CHCH3C2NHCH2SHCH2C2H2SCH2CH3CH4C3FeCSFeH2CSCFeS2FeS2FeSFeCS2H5C6H4CHCFeCHC2HNH4SNSCH2C4HCH3SHSH2CHCH3S2CH2C5H2CHCHC2H4CH2CHCHC2H2CHSFeCSH2SCFeS2FeS2FeSFeCS2C3H2C6H5CH3C4H3CH2CHNC4H8CNHSC7HCHCFeHCH3SH5CHC2H2CH2CH6NC4H6CH2CHCS2HFeS2FeS2FeSFeS3C2H3C2H2CHC6H4FeCHC2HCHCHC3HCHCH2CH3CH2C2H3C4HCH2NH2C2NCH6C3H2C2HC2HCHCH3CHC5HCH5S2FeS2FeS2FeSFeS3HC2H2CH5C6H4SH2C3NC2NC9H15CH3FeH4C3NH2C4H2C2H2NCH2C3FeCH2CH3C2H2CH4C
_chemical_formula_sum              "Fe64 S128 H576 C480 N32"
_cell_length_a       41.036
_cell_length_b       40.9084
_cell_length_c       34.3809
_cell_angle_alpha    88.5709
_cell_angle_beta     90.5872
_cell_angle_gamma    92.2151

_space_group_name_H-M_alt    "P 1"
_space_group_IT_number       1

loop_
  _space_group_symop_operation_xyz
  'x, y, z'

loop_
  _atom_site_type_symbol
  _atom_site_label
  _atom_site_symmetry_multiplicity
  _atom_site_fract_x
  _atom_site_fract_y
  _atom_site_fract_z
  _atom_site_occupancy
  Fe  Fe1       1.0  0.21205  0.37830  0.26412  1.0000
  S   S1        1.0  0.17492  0.37959  0.21572  1.0000
  S   S2        1.0  0.22453  0.41767  0.30787  1.0000
  Fe  Fe2       1.0  0.22664  0.30581  0.25230  1.0000
  S   S3        1.0  0.19062  0.30148  0.20268  1.0000
  S   S4        1.0  0.24820  0.26016  0.27999  1.0000
  Fe  Fe3       1.0  0.21114  0.35081  0.18277  1.0000
  S   S5        1.0  0.22732  0.36644  0.12191  1.0000
  Fe  Fe4       1.0  0.15752  0.33036  0.23946  1.0000
  S   S6        1.0  0.10620  0.31228  0.25374  1.0000
  S   S7        1.0  0.24985  0.35314  0.22987  1.0000
  S   S8        1.0  0.19189  0.33118  0.29020  1.0000
  H   H1        1.0  0.22985  0.47533  0.35376  1.0000
  H   H2        1.0  0.24328  0.32011  0.40163  1.0000
  H   H3        1.0  0.06302  0.48367  0.46285  1.0000
  C   C1        1.0  0.05332  0.32990  0.29511  1.0000
  C   C2        1.0  0.07796  0.34042  0.26914  1.0000
  C   C3        1.0  0.07845  0.37251  0.25414  1.0000
  C   C4        1.0  0.35478  0.23364  0.30188  1.0000
  H   H4        1.0  0.27933  0.11635  0.21457  1.0000
  H   H5        1.0  0.05285  0.30504  0.30670  1.0000
  H   H6        1.0  0.09715  0.38066  0.23375  1.0000
  C   C5        1.0  0.28561  0.34436  0.32135  1.0000
  C   C6        1.0  0.28953  0.25061  0.28749  1.0000
  C   C7        1.0  0.31526  0.27151  0.27484  1.0000
  C   C8        1.0  0.02905  0.38299  0.28990  1.0000
  H   H7        1.0  0.31582  0.37544  0.37923  1.0000
  C   C9        1.0  0.32910  0.21233  0.31363  1.0000
  C   C10       1.0  0.29662  0.22087  0.30655  1.0000
  H   H8        1.0  0.31023  0.29403  0.25918  1.0000
  H   H9        1.0  0.26972  0.36485  0.31279  1.0000
  C   C11       1.0  0.17996  0.49689  0.26108  1.0000
  H   H10       1.0  0.27684  0.20444  0.31610  1.0000
  C   C12       1.0  0.21696  0.34387  0.08015  1.0000
  C   C13       1.0  0.19515  0.31676  0.08175  1.0000
  C   C14       1.0  0.23059  0.35384  0.04424  1.0000
  H   H11       1.0  0.18455  0.30884  0.10925  1.0000
  C   C15       1.0  0.18665  0.30014  0.04753  1.0000
  H   H12       1.0  0.25901  0.23175  0.09888  1.0000
  H   H13       1.0  0.24489  0.21246  0.19326  1.0000
  C   C16       1.0  0.34935  0.11034  0.20080  1.0000
  H   H14       1.0  0.30632  0.22879  0.40598  1.0000
  C   C17       1.0  0.19220  0.46540  0.26613  1.0000
  C   C18       1.0  0.21020  0.45745  0.29956  1.0000
  C   C19       1.0  0.21600  0.48130  0.32776  1.0000
  H   H15       1.0  0.18772  0.44734  0.24410  1.0000
  N   N1        1.0  0.11105  0.43427  0.35635  1.0000
  C   C20       1.0  0.10874  0.44929  0.31674  1.0000
  C   C21       1.0  0.14288  0.41839  0.36047  1.0000
  C   C22       1.0  0.08511  0.40802  0.35967  1.0000
  C   C23       1.0  0.10865  0.45995  0.38575  1.0000
  C   C24       1.0  0.13245  0.48601  0.38723  1.0000
  C   C25       1.0  0.08318  0.45999  0.41358  1.0000
  H   H16       1.0  0.16954  0.27935  0.04889  1.0000
  C   C26       1.0  0.31541  0.25291  0.39657  1.0000
  C   C27       1.0  0.32183  0.18987  0.21617  1.0000
  H   H17       1.0  0.12857  0.46802  0.31101  1.0000
  H   H18       1.0  0.11071  0.43071  0.29382  1.0000
  H   H19       1.0  0.08506  0.46135  0.31233  1.0000
  H   H20       1.0  0.14535  0.39856  0.33910  1.0000
  H   H21       1.0  0.14602  0.40752  0.39019  1.0000
  H   H22       1.0  0.16390  0.43574  0.35513  1.0000
  H   H23       1.0  0.06041  0.41771  0.35430  1.0000
  H   H24       1.0  0.08824  0.38869  0.33790  1.0000
  H   H25       1.0  0.08553  0.39541  0.38871  1.0000
  C   C28       1.0  0.20355  0.51274  0.32284  1.0000
  H   H26       1.0  0.06369  0.44147  0.41456  1.0000
  H   H27       1.0  0.23163  0.34730  0.36270  1.0000
  C   C29       1.0  0.28489  0.14237  0.21252  1.0000
  C   C30       1.0  0.03286  0.29557  0.19854  1.0000
  H   H28       1.0  0.23490  0.15243  0.19799  1.0000
  H   H29       1.0  0.31187  0.09700  0.26236  1.0000
  C   C31       1.0  0.29114  0.36492  0.38620  1.0000
  C   C32       1.0  0.24764  0.32664  0.37047  1.0000
  H   H30       1.0  0.31084  0.35226  0.31312  1.0000
  H   H31       1.0  0.16603  0.50281  0.23512  1.0000
  H   H32       1.0  0.05679  0.29506  0.18549  1.0000
  H   H33       1.0  0.05371  0.41810  0.25154  1.0000
  C   C33       1.0  0.10652  0.50918  0.44248  1.0000
  C   C34       1.0  0.26489  0.19652  0.19969  1.0000
  H   H34       1.0  0.26379  0.28331  0.06005  1.0000
  C   C35       1.0  0.26070  0.23096  0.06748  1.0000
  H   H35       1.0  0.26800  0.27065  0.38990  1.0000
  C   C36       1.0  0.13143  0.51006  0.41530  1.0000
  H   H36       1.0  0.33420  0.18966  0.32891  1.0000
  N   N2        1.0  0.28254  0.33553  0.36322  1.0000
  H   H37       1.0  0.34945  0.33695  0.35802  1.0000
  H   H38       1.0  0.32768  0.09423  0.19419  1.0000
  C   C37       1.0  0.29615  0.20994  0.20577  1.0000
  H   H39       1.0  0.24774  0.37460  0.04291  1.0000
  C   C38       1.0  0.29357  0.27739  0.38715  1.0000
  C   C39       1.0  0.25932  0.16276  0.20270  1.0000
  C   C40       1.0  0.31685  0.15533  0.22032  1.0000
  C   C41       1.0  0.30483  0.30891  0.37345  1.0000
  C   C42       1.0  0.33908  0.31400  0.36927  1.0000
  H   H40       1.0  0.29053  0.35899  0.41797  1.0000
  C   C43       1.0  0.34772  0.26311  0.28224  1.0000
  C   C44       1.0  0.02928  0.35133  0.30608  1.0000
  C   C45       1.0  0.34883  0.25880  0.39220  1.0000
  C   C46       1.0  0.08235  0.48429  0.44153  1.0000
  H   H41       1.0  0.27393  0.38494  0.38011  1.0000
  H   H42       1.0  0.15222  0.48791  0.36676  1.0000
  H   H43       1.0  0.25692  0.17850  0.06599  1.0000
  C   C47       1.0  0.05375  0.39358  0.26407  1.0000
  H   H44       1.0  0.30024  0.23629  0.20378  1.0000
  H   H45       1.0  0.23899  0.30573  0.35230  1.0000
  H   H46       1.0  0.27827  0.32319  0.30316  1.0000
  H   H47       1.0  0.02954  0.24375  0.20953  1.0000
  H   H48       1.0  0.03054  0.34776  0.19302  1.0000
  C   C48       1.0  0.18529  0.52053  0.28956  1.0000
  C   C49       1.0  0.26358  0.25999  0.04558  1.0000
  C   C50       1.0  0.25949  0.20105  0.04888  1.0000
  H   H49       1.0  0.33747  0.15373  0.52715  1.0000
  C   C51       1.0  0.33314  0.11395  0.26771  1.0000
  H   H50       1.0  0.32656  0.13033  0.29157  1.0000
  N   N3        1.0  0.34313  0.13328  0.23240  1.0000
  H   H51       1.0  0.34509  0.20223  0.22176  1.0000
  H   H52       1.0  0.35638  0.12387  0.17347  1.0000
  H   H53       1.0  0.35300  0.09817  0.27863  1.0000
  Fe  Fe5       1.0  0.24393  0.30852  0.83929  1.0000
  S   S9        1.0  0.20126  0.27692  0.85942  1.0000
  S   S10       1.0  0.29294  0.28991  0.82191  1.0000
  Fe  Fe6       1.0  0.20988  0.37150  0.85640  1.0000
  S   S11       1.0  0.16449  0.34491  0.87810  1.0000
  S   S12       1.0  0.21849  0.42601  0.86134  1.0000
  Fe  Fe7       1.0  0.19857  0.31133  0.90913  1.0000
  S   S13       1.0  0.18775  0.28974  0.96912  1.0000
  Fe  Fe8       1.0  0.17097  0.31316  0.82674  1.0000
  S   S14       1.0  0.12803  0.29423  0.79161  1.0000
  S   S15       1.0  0.24362  0.34033  0.89172  1.0000
  S   S16       1.0  0.21393  0.34238  0.80223  1.0000
  C   C52       1.0  0.20588  0.48553  0.82792  1.0000
  C   C53       1.0  0.09563  0.32100  0.79109  1.0000
  C   C54       1.0  0.06392  0.30925  0.78231  1.0000
  C   C55       1.0  0.26929  0.25999  0.92226  1.0000
  H   H54       1.0  0.27920  0.21658  0.69003  1.0000
  C   C56       1.0  0.07589  0.37595  0.79403  1.0000
  C   C57       1.0  0.10147  0.35432  0.79756  1.0000
  H   H55       1.0  0.05936  0.28342  0.77757  1.0000
  C   C58       1.0  0.09123  0.34284  0.69199  1.0000
  C   C59       1.0  0.04415  0.36425  0.78557  1.0000
  H   H56       1.0  0.12596  0.36362  0.80368  1.0000
  C   C60       1.0  0.29685  0.24982  0.80528  1.0000
  C   C61       1.0  0.26967  0.22895  0.79870  1.0000
  C   C62       1.0  0.27389  0.19724  0.78505  1.0000
  C   C63       1.0  0.30523  0.18621  0.77801  1.0000
  C   C64       1.0  0.33238  0.20704  0.78488  1.0000
  C   C65       1.0  0.32816  0.23872  0.79846  1.0000
  H   H57       1.0  0.24542  0.23732  0.80374  1.0000
  H   H58       1.0  0.25276  0.18123  0.77983  1.0000
  C   C66       1.0  0.32706  0.14962  0.55584  1.0000
  C   C67       1.0  0.15800  0.43593  0.99780  1.0000
  C   C68       1.0  0.26525  0.25932  0.00500  1.0000
  H   H59       1.0  0.21063  0.40178  0.98199  1.0000
  C   C69       1.0  0.03433  0.47916  0.77817  1.0000
  H   H60       1.0  0.23288  0.34495  0.98261  1.0000
  C   C70       1.0  0.15654  0.46123  0.77883  1.0000
  H   H61       1.0  0.16760  0.46575  0.92065  1.0000
  C   C71       1.0  0.17324  0.43969  0.80379  1.0000
  C   C72       1.0  0.19794  0.45187  0.82844  1.0000
  N   N4        1.0  0.31207  0.19717  0.64808  1.0000
  H   H62       1.0  0.16673  0.41381  0.80438  1.0000
  N   N5        1.0  0.03481  0.34668  0.66058  1.0000
  H   H63       1.0  0.13717  0.45186  0.76019  1.0000
  H   H64       1.0  0.19779  0.38998  0.93405  1.0000
  H   H65       1.0  0.29873  0.08732  0.61464  1.0000
  H   H66       1.0  0.10266  0.43744  0.69039  1.0000
  C   C73       1.0  0.05245  0.50828  0.77224  1.0000
  H   H67       1.0  0.27930  0.17368  0.69054  1.0000
  H   H68       1.0  0.26969  0.25795  0.89006  1.0000
  S   S17       1.0  0.14368  0.52122  0.74619  1.0000
  C   C74       1.0  0.19493  0.40854  0.95673  1.0000
  H   H69       1.0  0.22497  0.49505  0.84692  1.0000
  H   H70       1.0  0.25954  0.19466  0.65077  1.0000
  C   C75       1.0  0.14993  0.37866  0.98628  1.0000
  C   C76       1.0  0.14714  0.44977  0.91274  1.0000
  H   H71       1.0  0.14615  0.40320  0.71753  1.0000
  N   N6        1.0  0.16027  0.41062  0.96788  1.0000
  H   H72       1.0  0.08834  0.44665  0.84242  1.0000
  C   C77       1.0  0.09514  0.40968  0.88713  1.0000
  H   H73       1.0  0.07530  0.39387  0.87653  1.0000
  C   C78       1.0  0.14035  0.41979  0.93335  1.0000
  H   H74       1.0  0.13885  0.34297  0.71912  1.0000
  C   C79       1.0  0.23245  0.21339  0.92815  1.0000
  C   C80       1.0  0.31276  0.17052  0.61968  1.0000
  C   C81       1.0  0.26095  0.20010  0.00827  1.0000
  H   H75       1.0  0.13216  0.43924  0.00587  1.0000
  N   N7        1.0  0.26418  0.22756  0.94199  1.0000
  H   H76       1.0  0.21188  0.22826  0.93771  1.0000
  H   H77       1.0  0.05327  0.34637  0.60228  1.0000
  H   H78       1.0  0.26673  0.28282  0.99000  1.0000
  H   H79       1.0  0.29255  0.20655  0.89689  1.0000
  C   C82       1.0  0.28119  0.19540  0.67051  1.0000
  C   C83       1.0  0.10243  0.43935  0.86780  1.0000
  H   H80       1.0  0.16841  0.46009  0.98760  1.0000
  H   H81       1.0  0.25917  0.17638  0.99511  1.0000
  C   C84       1.0  0.29067  0.20663  0.92928  1.0000
  H   H82       1.0  0.31473  0.21556  0.94093  1.0000
  H   H83       1.0  0.07807  0.50754  0.76503  1.0000
  H   H84       1.0  0.20544  0.43203  0.94460  1.0000
  H   H85       1.0  0.23125  0.21257  0.89577  1.0000
  H   H86       1.0  0.08084  0.40185  0.79733  1.0000
  C   C85       1.0  0.12002  0.35783  0.70617  1.0000
  C   C86       1.0  0.09946  0.41097  0.69039  1.0000
  H   H87       1.0  0.28680  0.18063  0.93875  1.0000
  H   H88       1.0  0.10705  0.37631  0.93245  1.0000
  C   C87       1.0  0.31506  0.23039  0.62964  1.0000
  C   C88       1.0  0.11369  0.39989  0.91946  1.0000
  H   H89       1.0  0.16492  0.37284  0.01256  1.0000
  H   H90       1.0  0.24916  0.27639  0.92862  1.0000
  H   H91       1.0  0.13467  0.48191  0.86464  1.0000
  H   H92       1.0  0.34922  0.25466  0.80402  1.0000
  H   H93       1.0  0.22768  0.18798  0.93935  1.0000
  C   C89       1.0  0.16482  0.49487  0.77798  1.0000
  H   H94       1.0  0.29291  0.27215  0.93088  1.0000
  S   S18       1.0  0.30949  0.14658  0.75997  1.0000
  C   C90       1.0  0.18951  0.50697  0.80260  1.0000
  C   C91       1.0  0.19980  0.31053  0.01156  1.0000
  H   H95       1.0  0.29620  0.23354  0.60648  1.0000
  C   C92       1.0  0.07070  0.39624  0.67569  1.0000
  C   C93       1.0  0.03808  0.33078  0.78018  1.0000
  H   H96       1.0  0.15278  0.35806  0.96608  1.0000
  C   C94       1.0  0.12837  0.45934  0.88057  1.0000
  H   H97       1.0  0.05214  0.29867  0.64924  1.0000
  C   C95       1.0  0.31703  0.11804  0.56758  1.0000
  H   H98       1.0  0.31197  0.24991  0.65120  1.0000
  C   C96       1.0  0.32526  0.17554  0.58143  1.0000
  C   C97       1.0  0.12406  0.39178  0.70561  1.0000
  C   C98       1.0  0.06554  0.36167  0.67630  1.0000
  H   H99       1.0  0.08954  0.31648  0.69472  1.0000
  H   H100      1.0  0.05240  0.41221  0.66420  1.0000
  H   H101      1.0  0.33469  0.19902  0.57086  1.0000
  H   H102      1.0  0.17173  0.42924  0.02484  1.0000
  H   H103      1.0  0.04585  0.45591  0.77556  1.0000
  C   C99       1.0  0.03192  0.35484  0.61843  1.0000
  C   C100      1.0  0.33972  0.19357  0.67554  1.0000
  C   C101      1.0  0.30536  0.11214  0.60508  1.0000
  H   H104      1.0  0.29573  0.13156  0.66022  1.0000
  H   H105      1.0  0.34017  0.21248  0.69829  1.0000
  C   C102      1.0  0.30341  0.13786  0.63090  1.0000
  C   C103      1.0  0.26389  0.22923  0.98501  1.0000
  H   H106      1.0  0.03043  0.38161  0.61268  1.0000
  C   C104      1.0  0.22215  0.33716  0.01007  1.0000
  H   H107      1.0  0.33963  0.23540  0.61692  1.0000
  H   H108      1.0  0.33823  0.16946  0.69099  1.0000
  H   H109      1.0  0.12420  0.37853  0.99614  1.0000
  H   H110      1.0  0.31938  0.09795  0.54794  1.0000
  H   H111      1.0  0.03408  0.30280  0.69670  1.0000
  C   C105      1.0  0.03256  0.31045  0.66538  1.0000
  H   H112      1.0  0.35663  0.19868  0.78019  1.0000
  Fe  Fe9       1.0  0.20485  0.65473  0.36552  1.0000
  S   S19       1.0  0.20887  0.60068  0.37742  1.0000
  S   S20       1.0  0.24993  0.68830  0.36951  1.0000
  Fe  Fe10      1.0  0.13053  0.64984  0.36289  1.0000
  S   S21       1.0  0.12853  0.59560  0.37438  1.0000
  S   S22       1.0  0.08463  0.67832  0.36319  1.0000
  Fe  Fe11      1.0  0.16766  0.60590  0.41918  1.0000
  S   S23       1.0  0.16747  0.57842  0.47715  1.0000
  Fe  Fe12      1.0  0.16963  0.59505  0.33190  1.0000
  S   S24       1.0  0.16868  0.55942  0.28259  1.0000
  S   S25       1.0  0.16668  0.66023  0.41087  1.0000
  S   S26       1.0  0.16850  0.64899  0.31658  1.0000
  C   C106      1.0  0.16012  0.63449  0.51899  1.0000
  C   C107      1.0  0.02727  0.69388  0.32821  1.0000
  C   C108      1.0  0.31060  0.65239  0.28044  1.0000
  H   H113      1.0  0.25112  0.66456  0.48718  1.0000
  H   H114      1.0  0.08060  0.57891  0.28104  1.0000
  C   C109      1.0  0.29903  0.64207  0.21249  1.0000
  H   H115      1.0  0.05960  0.68985  0.22308  1.0000
  H   H116      1.0  0.23015  0.64073  0.26279  1.0000
  C   C110      1.0  0.21654  0.81313  0.26276  1.0000
  S   S27       1.0  0.34930  0.86012  0.20467  1.0000
  H   H117      1.0  0.26699  0.56368  0.30143  1.0000
  H   H118      1.0  0.24157  0.60246  0.21122  1.0000
  C   C111      1.0  0.07111  0.68335  0.28424  1.0000
  C   C112      1.0  0.05953  0.68526  0.32222  1.0000
  H   H119      1.0  0.26650  0.82899  0.27288  1.0000
  H   H120      1.0  0.09591  0.67663  0.27930  1.0000
  H   H121      1.0  0.26926  0.80276  0.33813  1.0000
  H   H122      1.0  0.16775  0.79400  0.25931  1.0000
  H   H123      1.0  0.21561  0.82471  0.23407  1.0000
  N   N8        1.0  0.26934  0.60741  0.26471  1.0000
  S   S28       1.0  0.35145  0.92913  0.28778  1.0000
  H   H124      1.0  0.20782  0.53075  0.34500  1.0000
  C   C113      1.0  0.26706  0.71276  0.33129  1.0000
  C   C114      1.0  0.25348  0.71306  0.29384  1.0000
  C   C115      1.0  0.26842  0.73230  0.26403  1.0000
  C   C116      1.0  0.29677  0.75165  0.27151  1.0000
  C   C117      1.0  0.31007  0.75168  0.30910  1.0000
  C   C118      1.0  0.29529  0.73219  0.33882  1.0000
  H   H125      1.0  0.23166  0.69842  0.28775  1.0000
  H   H126      1.0  0.25808  0.73222  0.23496  1.0000
  H   H127      1.0  0.33193  0.76640  0.31511  1.0000
  H   H128      1.0  0.30591  0.73209  0.36775  1.0000
  C   C119      1.0  0.33217  0.67817  0.26947  1.0000
  H   H129      1.0  0.30653  0.64842  0.31125  1.0000
  C   C120      1.0  0.28416  0.58453  0.29345  1.0000
  H   H130      1.0  0.15797  0.64729  0.49139  1.0000
  H   H131      1.0  0.14020  0.79989  0.35495  1.0000
  H   H132      1.0  0.22255  0.60446  0.29230  1.0000
  H   H133      1.0  0.23860  0.56760  0.24284  1.0000
  H   H134      1.0  0.06907  0.61178  0.31114  1.0000
  C   C121      1.0  0.24168  0.62296  0.28321  1.0000
  C   C122      1.0  0.05054  0.69078  0.25246  1.0000
  H   H135      1.0  0.06721  0.61679  0.25982  1.0000
  H   H136      1.0  0.27566  0.57562  0.21642  1.0000
  C   C123      1.0  0.25593  0.58751  0.23221  1.0000
  S   S29       1.0  0.31528  0.77440  0.23279  1.0000
  C   C124      1.0  0.29346  0.63337  0.25228  1.0000
  H   H137      1.0  0.15026  0.52943  0.41628  1.0000
  H   H138      1.0  0.24938  0.63656  0.30961  1.0000
  C   C125      1.0  0.06281  0.59859  0.28400  1.0000
  H   H139      1.0  0.22346  0.77062  0.36422  1.0000
  N   N9        1.0  0.16178  0.75901  0.32839  1.0000
  C   C126      1.0  0.15229  0.73401  0.29941  1.0000
  C   C127      1.0  0.16766  0.74145  0.36603  1.0000
  C   C128      1.0  0.13392  0.78044  0.33375  1.0000
  C   C129      1.0  0.19045  0.77886  0.31429  1.0000
  C   C130      1.0  0.18942  0.79524  0.27739  1.0000
  C   C131      1.0  0.21997  0.78244  0.33613  1.0000
  H   H140      1.0  0.29070  0.59642  0.32134  1.0000
  C   C132      1.0  0.24672  0.80089  0.32145  1.0000
  C   C133      1.0  0.03343  0.56421  0.35292  1.0000
  H   H141      1.0  0.17354  0.71937  0.29191  1.0000
  H   H142      1.0  0.13262  0.71685  0.31060  1.0000
  H   H143      1.0  0.14260  0.74489  0.27193  1.0000
  H   H144      1.0  0.18814  0.72449  0.36385  1.0000
  H   H145      1.0  0.14581  0.72633  0.37551  1.0000
  H   H146      1.0  0.17324  0.75871  0.38991  1.0000
  H   H147      1.0  0.12638  0.79278  0.30610  1.0000
  H   H148      1.0  0.11199  0.76624  0.34478  1.0000
  H   H149      1.0  0.03714  0.55441  0.23481  1.0000
  H   H150      1.0  0.28679  0.62950  0.18897  1.0000
  H   H151      1.0  0.30663  0.57420  0.28167  1.0000
  N   N10       1.0  0.02869  0.58501  0.28364  1.0000
  C   C134      1.0  0.24519  0.81580  0.28468  1.0000
  C   C135      1.0  0.02958  0.53966  0.38174  1.0000
  H   H152      1.0  0.32359  0.67526  0.17152  1.0000
  Fe  Fe13      1.0  0.35623  0.81321  0.23903  1.0000
  H   H153      1.0  0.34778  0.98680  0.33294  1.0000
  H   H154      1.0  0.03657  0.54466  0.41159  1.0000
  H   H155      1.0  0.10619  0.52783  0.46441  1.0000
  C   C136      1.0  0.25333  0.66876  0.51816  1.0000
  C   C137      1.0  0.32029  0.66832  0.20192  1.0000
  C   C138      1.0  0.33672  0.68638  0.23034  1.0000
  H   H156      1.0  0.34438  0.69287  0.29148  1.0000
  C   C139      1.0  0.16446  0.60075  0.52032  1.0000
  H   H157      1.0  0.27366  0.71757  0.51052  1.0000
  H   H158      1.0  0.04308  0.58791  0.36181  1.0000
  H   H159      1.0  0.35229  0.70743  0.22210  1.0000
  H   H160      1.0  0.35544  0.77954  0.05899  1.0000
  C   C140      1.0  0.02482  0.55843  0.31349  1.0000
  H   H161      1.0  0.02467  0.59479  0.22169  1.0000
  Fe  Fe14      1.0  0.15855  0.57504  0.74594  1.0000
  S   S30       1.0  0.17202  0.60377  0.79879  1.0000
  S   S31       1.0  0.34604  0.83730  0.87425  1.0000
  Fe  Fe15      1.0  0.16287  0.63482  0.69218  1.0000
  S   S32       1.0  0.17614  0.66889  0.74080  1.0000
  S   S33       1.0  0.15947  0.65888  0.63244  1.0000
  Fe  Fe16      1.0  0.20957  0.62998  0.76096  1.0000
  S   S34       1.0  0.26022  0.64150  0.78517  1.0000
  Fe  Fe17      1.0  0.13756  0.64062  0.77469  1.0000
  S   S35       1.0  0.10626  0.66465  0.81862  1.0000
  S   S36       1.0  0.19935  0.59756  0.70986  1.0000
  S   S37       1.0  0.12100  0.61010  0.72441  1.0000
  H   H162      1.0  0.23552  0.63021  0.60351  1.0000
  S   S38       1.0  0.32771  0.78409  0.78530  1.0000
  H   H163      1.0  0.23662  0.71906  0.68111  1.0000
  C   C141      1.0  0.23716  0.71371  0.64957  1.0000
  C   C142      1.0  0.05408  0.66697  0.76752  1.0000
  H   H164      1.0  0.25207  0.66388  0.69823  1.0000
  H   H165      1.0  0.16713  0.58922  0.61927  1.0000
  H   H166      1.0  0.30122  0.72120  0.63895  1.0000
  H   H167      1.0  0.29533  0.70126  0.68497  1.0000
  H   H168      1.0  0.15518  0.67799  0.55223  1.0000
  H   H169      1.0  0.22379  0.65084  0.66173  1.0000
  H   H170      1.0  0.27747  0.72804  0.58017  1.0000
  C   C143      1.0  0.24975  0.65844  0.66672  1.0000
  H   H171      1.0  0.24433  0.73697  0.63403  1.0000
  C   C144      1.0  0.06498  0.66958  0.80603  1.0000
  C   C145      1.0  0.04265  0.67627  0.83516  1.0000
  H   H172      1.0  0.05099  0.67856  0.86495  1.0000
  H   H173      1.0  0.07120  0.66228  0.74479  1.0000
  H   H174      1.0  0.26522  0.63720  0.66178  1.0000
  N   N11       1.0  0.25943  0.68706  0.64144  1.0000
  C   C146      1.0  0.29314  0.69756  0.65297  1.0000
  H   H175      1.0  0.05295  0.56025  0.77050  1.0000
  H   H176      1.0  0.34278  0.72351  0.82746  1.0000
  C   C147      1.0  0.27760  0.68172  0.78683  1.0000
  C   C148      1.0  0.30583  0.68772  0.80939  1.0000
  C   C149      1.0  0.32094  0.71921  0.81018  1.0000
  C   C150      1.0  0.30832  0.74475  0.78762  1.0000
  C   C151      1.0  0.27992  0.73879  0.76530  1.0000
  C   C152      1.0  0.26432  0.70755  0.76540  1.0000
  H   H177      1.0  0.31619  0.66788  0.82617  1.0000
  H   H178      1.0  0.19611  0.53282  0.80206  1.0000
  H   H179      1.0  0.26994  0.75853  0.74799  1.0000
  H   H180      1.0  0.24236  0.70334  0.74848  1.0000
  C   C153      1.0  0.15844  0.65187  0.55360  1.0000
  C   C154      1.0  0.16094  0.63571  0.58990  1.0000
  C   C155      1.0  0.16520  0.60193  0.59141  1.0000
  H   H181      1.0  0.03246  0.59900  0.80971  1.0000
  N   N12       1.0  0.19434  0.71595  0.85845  1.0000
  C   C156      1.0  0.16720  0.71999  0.88590  1.0000
  C   C157      1.0  0.18374  0.72905  0.81984  1.0000
  C   C158      1.0  0.19937  0.68050  0.85436  1.0000
  C   C159      1.0  0.22461  0.73227  0.87357  1.0000
  C   C160      1.0  0.24190  0.75787  0.85281  1.0000
  C   C161      1.0  0.23772  0.72261  0.91033  1.0000
  C   C162      1.0  0.27029  0.77281  0.86818  1.0000
  C   C163      1.0  0.26618  0.73771  0.92535  1.0000
  C   C164      1.0  0.28242  0.76277  0.90432  1.0000
  H   H182      1.0  0.16339  0.74636  0.89088  1.0000
  H   H183      1.0  0.14378  0.70892  0.87461  1.0000
  H   H184      1.0  0.17163  0.70790  0.91464  1.0000
  H   H185      1.0  0.17858  0.75551  0.82092  1.0000
  H   H186      1.0  0.16085  0.71632  0.80944  1.0000
  H   H187      1.0  0.20242  0.72548  0.79727  1.0000
  H   H188      1.0  0.17745  0.66761  0.84178  1.0000
  H   H189      1.0  0.22026  0.67643  0.83495  1.0000
  H   H190      1.0  0.20455  0.66787  0.88256  1.0000
  H   H191      1.0  0.23439  0.76664  0.82437  1.0000
  H   H192      1.0  0.22614  0.70316  0.92763  1.0000
  H   H193      1.0  0.28330  0.79204  0.85164  1.0000
  H   H194      1.0  0.27588  0.72996  0.95341  1.0000
  H   H195      1.0  0.30458  0.77436  0.91596  1.0000
  H   H196      1.0  0.17029  0.55841  0.55801  1.0000
  H   H197      1.0  0.21170  0.70697  0.64033  1.0000
  H   H198      1.0  0.31082  0.67884  0.64530  1.0000
  C   C165      1.0  0.24500  0.64984  0.58477  1.0000
  C   C166      1.0  0.26816  0.70427  0.57135  1.0000
  C   C167      1.0  0.16694  0.58452  0.55668  1.0000
  C   C168      1.0  0.25783  0.68001  0.59934  1.0000
  H   H199      1.0  0.23260  0.62143  0.53435  1.0000
  C   C169      1.0  0.24302  0.64443  0.54478  1.0000
  C   C170      1.0  0.03776  0.53834  0.77547  1.0000
  C   C171      1.0  0.26595  0.69861  0.53140  1.0000
  Fe  Fe18      1.0  0.41446  0.12545  0.40316  1.0000
  S   S39       1.0  0.44227  0.17347  0.39444  1.0000
  S   S40       1.0  0.39343  0.10343  0.45906  1.0000
  Fe  Fe19      1.0  0.42267  0.10574  0.31893  1.0000
  S   S41       1.0  0.45084  0.15225  0.30370  1.0000
  H   H200      1.0  0.53353  0.08475  0.32341  1.0000
  Fe  Fe20      1.0  0.47725  0.14458  0.36015  1.0000
  S   S42       1.0  0.53221  0.14454  0.36770  1.0000
  Fe  Fe21      1.0  0.41327  0.17711  0.33835  1.0000
  S   S43       1.0  0.45158  0.09624  0.37313  1.0000
  C   C172      1.0  0.40156  0.03100  0.27587  1.0000
  C   C173      1.0  0.55112  0.09245  0.24786  1.0000
  H   H201      1.0  0.38444  0.16489  0.21595  1.0000
  S   S44       1.0  0.62528  0.18404  0.22662  1.0000
  C   C174      1.0  0.41573  0.15294  0.50734  1.0000
  C   C175      1.0  0.55775  0.15578  0.32828  1.0000
  C   C176      1.0  0.54544  0.17015  0.29418  1.0000
  C   C177      1.0  0.56648  0.17863  0.26323  1.0000
  C   C178      1.0  0.59982  0.17242  0.26595  1.0000
  C   C179      1.0  0.61215  0.15782  0.29996  1.0000
  C   C180      1.0  0.59114  0.14979  0.33114  1.0000
  H   H202      1.0  0.51985  0.17527  0.29185  1.0000
  H   H203      1.0  0.55687  0.19014  0.23707  1.0000
  H   H204      1.0  0.63784  0.15302  0.30234  1.0000
  H   H205      1.0  0.60066  0.13905  0.35770  1.0000
  H   H206      1.0  0.58300  0.06010  0.31003  1.0000
  H   H207      1.0  0.41097  0.03732  0.42288  1.0000
  Fe  Fe22      1.0  0.67873  0.17253  0.22683  1.0000
  H   H208      1.0  0.36948  0.09375  0.20878  1.0000
  H   H209      1.0  0.42131  0.16717  0.48118  1.0000
  H   H210      1.0  0.66501  0.18973  0.03660  1.0000
  C   C181      1.0  0.37450  0.15090  0.24163  1.0000
  H   H211      1.0  0.39363  0.13373  0.25090  1.0000
  N   N13       1.0  0.67225  0.26921  0.29332  1.0000
  C   C182      1.0  0.64593  0.24341  0.29760  1.0000
  H   H212      1.0  0.37181  0.16806  0.26595  1.0000
  H   H213      1.0  0.65190  0.02411  0.26561  1.0000
  C   C183      1.0  0.57352  0.03746  0.29792  1.0000
  H   H214      1.0  0.66511  0.26851  0.23084  1.0000
  H   H215      1.0  0.67453  0.32217  0.29140  1.0000
  H   H216      1.0  0.62598  0.24656  0.27571  1.0000
  S   S45       1.0  0.38287  0.13102  0.34937  1.0000
  C   C184      1.0  0.40256  0.12101  0.50459  1.0000
  H   H217      1.0  0.56394  0.08306  0.22228  1.0000
  C   C185      1.0  0.51441  0.07969  0.30101  1.0000
  H   H218      1.0  0.50200  0.10312  0.29565  1.0000
  S   S46       1.0  0.41971  0.07052  0.26932  1.0000
  C   C186      1.0  0.36063  0.28922  0.37841  1.0000
  C   C187      1.0  0.50058  0.06282  0.23652  1.0000
  H   H219      1.0  0.53850  0.11489  0.23808  1.0000
  C   C188      1.0  0.68482  0.17304  0.03623  1.0000
  H   H220      1.0  0.50912  0.05392  0.20819  1.0000
  H   H221      1.0  0.56998  0.10095  0.26912  1.0000
  H   H222      1.0  0.63450  0.24349  0.32681  1.0000
  H   H223      1.0  0.68174  0.22011  0.35132  1.0000
  C   C189      1.0  0.65725  0.30125  0.29812  1.0000
  C   C190      1.0  0.68103  0.07045  0.37558  1.0000
  C   C191      1.0  0.65133  0.08552  0.37781  1.0000
  H   H224      1.0  0.60140  0.08051  0.39588  1.0000
  H   H225      1.0  0.48815  0.08618  0.23040  1.0000
  H   H226      1.0  0.49613  0.06189  0.31400  1.0000
  C   C192      1.0  0.62720  0.03616  0.40745  1.0000
  C   C193      1.0  0.68401  0.03809  0.38875  1.0000
  C   C194      1.0  0.62442  0.06847  0.39377  1.0000
  H   H227      1.0  0.38660  0.29315  0.37363  1.0000
  H   H228      1.0  0.36751  0.27960  0.27284  1.0000
  H   H229      1.0  0.65521  0.21870  0.29266  1.0000
  H   H230      1.0  0.64941  0.11056  0.36731  1.0000
  C   C195      1.0  0.68494  0.26777  0.25318  1.0000
  H   H231      1.0  0.64877  0.30386  0.32852  1.0000
  H   H232      1.0  0.48123  0.04549  0.24808  1.0000
  H   H233      1.0  0.63586  0.30418  0.27828  1.0000
  N   N14       1.0  0.52800  0.06721  0.26473  1.0000
  S   S47       1.0  0.39594  0.22495  0.31196  1.0000
  C   C196      1.0  0.67620  0.02425  0.27809  1.0000
  H   H234      1.0  0.37537  0.04187  0.32765  1.0000
  C   C197      1.0  0.54516  0.03671  0.27383  1.0000
  H   H235      1.0  0.68425  0.07612  0.26911  1.0000
  H   H236      1.0  0.36560  0.23936  0.39803  1.0000
  H   H237      1.0  0.46694  0.02645  0.40225  1.0000
  H   H238      1.0  0.60581  0.02412  0.42014  1.0000
  Fe  Fe23      1.0  0.39726  0.07026  0.72053  1.0000
  S   S48       1.0  0.38820  0.09336  0.77780  1.0000
  C   C198      1.0  0.40003  0.25818  0.73150  1.0000
  Fe  Fe24      1.0  0.40929  0.13590  0.67820  1.0000
  S   S49       1.0  0.40236  0.16400  0.73266  1.0000
  S   S50       1.0  0.42063  0.16676  0.62401  1.0000
  Fe  Fe25      1.0  0.43191  0.12555  0.76231  1.0000
  S   S51       1.0  0.46841  0.13883  0.80948  1.0000
  H   H239      1.0  0.62638  0.04850  0.82781  1.0000
  S   S52       1.0  0.44286  0.10034  0.70698  1.0000
  C   C199      1.0  0.55411  0.03082  0.77880  1.0000
  S   S53       1.0  0.66584  0.10648  0.87077  1.0000
  Fe  Fe26      1.0  0.65741  0.13880  0.81817  1.0000
  S   S54       1.0  0.61836  0.13218  0.77228  1.0000
  C   C200      1.0  0.41086  0.25022  0.69478  1.0000
  C   C201      1.0  0.51006  0.13469  0.80023  1.0000
  C   C202      1.0  0.53331  0.14334  0.82875  1.0000
  C   C203      1.0  0.56680  0.14250  0.82078  1.0000
  C   C204      1.0  0.57696  0.13356  0.78400  1.0000
  C   C205      1.0  0.55371  0.12480  0.75565  1.0000
  C   C206      1.0  0.52042  0.12482  0.76397  1.0000
  H   H240      1.0  0.52539  0.15102  0.85692  1.0000
  H   H241      1.0  0.58467  0.14921  0.84284  1.0000
  H   H242      1.0  0.56145  0.11782  0.72714  1.0000
  H   H243      1.0  0.50286  0.11745  0.74212  1.0000
  C   C207      1.0  0.40112  0.11650  0.57560  1.0000
  C   C208      1.0  0.41396  0.14854  0.57834  1.0000
  H   H244      1.0  0.39549  0.25422  0.66945  1.0000
  S   S55       1.0  0.67300  0.18503  0.84753  1.0000
  Fe  Fe27      1.0  0.35941  0.12973  0.74326  1.0000
  N   N15       1.0  0.58974  0.03156  0.78647  1.0000
  H   H245      1.0  0.40569  0.02865  0.79252  1.0000
  H   H246      1.0  0.59322  0.07481  0.82121  1.0000
  C   C209      1.0  0.60672  0.04875  0.75347  1.0000
  H   H247      1.0  0.44810  0.22977  0.66159  1.0000
  N   N16       1.0  0.49419  0.21614  0.71772  1.0000
  C   C210      1.0  0.51376  0.23586  0.68891  1.0000
  C   C211      1.0  0.51393  0.21387  0.75412  1.0000
  C   C212      1.0  0.48900  0.18257  0.70307  1.0000
  C   C213      1.0  0.46213  0.23084  0.72307  1.0000
  H   H248      1.0  0.46373  0.23476  0.78683  1.0000
  H   H249      1.0  0.41088  0.25819  0.79273  1.0000
  H   H250      1.0  0.58789  0.03669  0.84882  1.0000
  H   H251      1.0  0.59439  0.07150  0.74475  1.0000
  C   C214      1.0  0.59949  0.04858  0.82273  1.0000
  H   H252      1.0  0.51626  0.26190  0.69753  1.0000
  H   H253      1.0  0.53877  0.22650  0.68610  1.0000
  H   H254      1.0  0.50279  0.23525  0.65922  1.0000
  H   H255      1.0  0.51931  0.23840  0.76645  1.0000
  H   H256      1.0  0.53774  0.20241  0.74935  1.0000
  H   H257      1.0  0.50132  0.19815  0.77662  1.0000
  H   H258      1.0  0.47585  0.18210  0.67463  1.0000
  H   H259      1.0  0.51246  0.17041  0.69881  1.0000
  H   H260      1.0  0.47428  0.16714  0.72397  1.0000
  H   H261      1.0  0.39538  0.10227  0.60174  1.0000
  H   H262      1.0  0.63227  0.05642  0.76101  1.0000
  C   C215      1.0  0.41962  0.25247  0.76410  1.0000
  C   C216      1.0  0.42126  0.16668  0.54410  1.0000
  S   S56       1.0  0.67307  0.17096  0.95774  1.0000
  H   H263      1.0  0.37628  0.26847  0.73487  1.0000
  H   H264      1.0  0.53914  0.05926  0.82873  1.0000
  C   C217      1.0  0.45021  0.23901  0.76019  1.0000
  C   C218      1.0  0.44130  0.23656  0.69054  1.0000
  C   C219      1.0  0.53162  0.04621  0.80302  1.0000
  C   C220      1.0  0.49834  0.04638  0.79364  1.0000
  Fe  Fe28      1.0  0.68631  0.15235  0.89862  1.0000
  H   H265      1.0  0.43126  0.19145  0.54597  1.0000
  H   H266      1.0  0.48171  0.05910  0.81188  1.0000
  C   C221      1.0  0.48650  0.03149  0.76009  1.0000
  H   H267      1.0  0.46079  0.03230  0.75253  1.0000
  H   H268      1.0  0.67144  0.02546  0.73066  1.0000
  H   H269      1.0  0.60772  0.03353  0.72721  1.0000
  S   S57       1.0  0.36444  0.10370  0.68680  1.0000
  C   C222      1.0  0.39531  0.10288  0.53885  1.0000
  H   H270      1.0  0.36349  0.19491  0.66011  1.0000
  H   H271      1.0  0.38508  0.07819  0.53700  1.0000
  S   S58       1.0  0.40731  0.80596  0.21773  1.0000
  S   S59       1.0  0.42215  0.88421  0.23540  1.0000
  Fe  Fe29      1.0  0.42400  0.83646  0.26855  1.0000
  S   S60       1.0  0.46321  0.83162  0.31527  1.0000
  Fe  Fe30      1.0  0.64998  0.84070  0.32077  1.0000
  S   S61       1.0  0.63861  0.88543  0.35290  1.0000
  S   S62       1.0  0.61350  0.80958  0.28692  1.0000
  H   H272      1.0  0.67961  0.76507  0.17768  1.0000
  H   H273      1.0  0.48927  0.92069  0.38159  1.0000
  C   C223      1.0  0.40089  0.84725  0.08477  1.0000
  C   C224      1.0  0.39275  0.97554  0.25229  1.0000
  C   C225      1.0  0.40735  0.86018  0.04731  1.0000
  H   H274      1.0  0.46095  0.90443  0.41754  1.0000
  C   C226      1.0  0.68880  0.99515  0.29310  1.0000
  C   C227      1.0  0.40768  0.00698  0.24870  1.0000
  N   N17       1.0  0.43835  0.92016  0.36390  1.0000
  C   C228      1.0  0.46693  0.74832  0.06511  1.0000
  C   C229      1.0  0.59044  0.00911  0.30651  1.0000
  H   H275      1.0  0.68324  0.79056  0.27818  1.0000
  H   H276      1.0  0.63489  0.81683  0.47823  1.0000
  H   H277      1.0  0.46454  0.72225  0.06105  1.0000
  C   C230      1.0  0.50499  0.82753  0.30521  1.0000
  C   C231      1.0  0.52808  0.83514  0.33435  1.0000
  C   C232      1.0  0.56145  0.83074  0.32841  1.0000
  C   C233      1.0  0.57195  0.81783  0.29361  1.0000
  C   C234      1.0  0.54889  0.81025  0.26438  1.0000
  C   C235      1.0  0.51552  0.81552  0.26992  1.0000
  H   H278      1.0  0.52012  0.84410  0.36186  1.0000
  H   H279      1.0  0.57893  0.83628  0.35127  1.0000
  H   H280      1.0  0.55682  0.80018  0.23743  1.0000
  H   H281      1.0  0.49788  0.80938  0.24740  1.0000
  H   H282      1.0  0.45476  0.90145  0.30975  1.0000
  C   C236      1.0  0.67771  0.76303  0.20984  1.0000
  H   H283      1.0  0.47116  0.88105  0.37607  1.0000
  H   H284      1.0  0.42381  0.01270  0.22459  1.0000
  N   N18       1.0  0.65937  0.98563  0.41980  1.0000
  H   H285      1.0  0.36692  0.99506  0.41525  1.0000
  H   H286      1.0  0.47536  0.84107  0.08511  1.0000
  C   C237      1.0  0.58987  0.78824  0.47953  1.0000
  Fe  Fe31      1.0  0.67853  0.91116  0.31903  1.0000
  H   H287      1.0  0.47665  0.80111  0.13980  1.0000
  H   H288      1.0  0.42188  0.88268  0.04393  1.0000
  H   H289      1.0  0.63833  0.96511  0.36790  1.0000
  H   H290      1.0  0.38992  0.90280  0.34720  1.0000
  C   C238      1.0  0.41633  0.01378  0.41096  1.0000
  C   C239      1.0  0.47125  0.75918  0.10317  1.0000
  C   C240      1.0  0.45477  0.97735  0.38378  1.0000
  Fe  Fe32      1.0  0.37090  0.88581  0.25649  1.0000
  H   H291      1.0  0.59297  0.95731  0.29794  1.0000
  C   C241      1.0  0.37103  0.96817  0.28262  1.0000
  H   H292      1.0  0.37762  0.94246  0.38812  1.0000
  H   H293      1.0  0.63636  0.93824  0.40993  1.0000
  C   C242      1.0  0.47427  0.79254  0.11025  1.0000
  H   H294      1.0  0.65563  0.95866  0.47445  1.0000
  H   H295      1.0  0.51293  0.00245  0.24154  1.0000
  C   C243      1.0  0.36473  0.99231  0.30958  1.0000
  C   C244      1.0  0.65705  0.01984  0.40507  1.0000
  C   C245      1.0  0.55139  0.97742  0.26876  1.0000
  H   H296      1.0  0.60933  0.97098  0.40565  1.0000
  H   H297      1.0  0.54500  0.76077  0.48946  1.0000
  S   S63       1.0  0.68651  0.82324  0.36533  1.0000
  Fe  Fe33      1.0  0.40106  0.85431  0.18635  1.0000
  S   S64       1.0  0.66406  0.95917  0.29143  1.0000
  C   C246      1.0  0.39819  0.95948  0.39142  1.0000
  C   C247      1.0  0.68106  0.87058  0.49975  1.0000
  H   H298      1.0  0.39747  0.95721  0.23109  1.0000
  H   H299      1.0  0.54309  0.95403  0.25725  1.0000
  C   C248      1.0  0.53433  0.00564  0.25981  1.0000
  C   C249      1.0  0.43025  0.95213  0.37992  1.0000
  H   H300      1.0  0.37690  0.80799  0.11760  1.0000
  C   C250      1.0  0.61585  0.80572  0.49649  1.0000
  C   C251      1.0  0.56523  0.77428  0.50287  1.0000
  S   S65       1.0  0.41866  0.86703  0.12542  1.0000
  C   C252      1.0  0.38193  0.81821  0.08886  1.0000
  C   C253      1.0  0.46613  0.90616  0.38583  1.0000
  C   C254      1.0  0.44773  0.92487  0.32259  1.0000
  H   H301      1.0  0.66886  0.73765  0.21759  1.0000
  H   H302      1.0  0.47173  0.74175  0.12741  1.0000
  H   H303      1.0  0.67073  0.00036  0.47815  1.0000
  C   C255      1.0  0.47360  0.81508  0.07931  1.0000
  S   S66       1.0  0.66425  0.88561  0.45569  1.0000
  C   C256      1.0  0.57946  0.97918  0.29185  1.0000
  C   C257      1.0  0.39156  0.98985  0.40686  1.0000
  C   C258      1.0  0.41091  0.89538  0.36566  1.0000
  C   C259      1.0  0.44786  0.00758  0.39931  1.0000
  H   H304      1.0  0.58881  0.78567  0.44820  1.0000
  C   C260      1.0  0.46497  0.77072  0.03300  1.0000
  S   S67       1.0  0.37331  0.83936  0.29246  1.0000
  H   H305      1.0  0.61265  0.01043  0.32387  1.0000
  H   H306      1.0  0.42709  0.93421  0.30486  1.0000
  H   H307      1.0  0.65824  0.77981  0.21819  1.0000
  C   C261      1.0  0.46891  0.80456  0.04122  1.0000
  C   C262      1.0  0.63472  0.96424  0.39996  1.0000
  H   H308      1.0  0.40238  0.89084  0.39597  1.0000
  H   H309      1.0  0.62815  0.99133  0.46935  1.0000
  H   H310      1.0  0.46875  0.94250  0.31869  1.0000
  Fe  Fe34      1.0  0.67830  0.87116  0.39487  1.0000
  C   C263      1.0  0.65314  0.98401  0.46224  1.0000
  C   C264      1.0  0.36988  0.80210  0.05561  1.0000
  H   H311      1.0  0.47944  0.97396  0.37451  1.0000
  H   H312      1.0  0.41801  0.87139  0.35438  1.0000
  S   S68       1.0  0.68702  0.86748  0.28350  1.0000
  C   C265      1.0  0.38031  0.02351  0.30661  1.0000
  S   S69       1.0  0.39366  0.77389  0.87422  1.0000
  S   S70       1.0  0.42124  0.84489  0.90538  1.0000
  Fe  Fe35      1.0  0.43492  0.81006  0.85974  1.0000
  S   S71       1.0  0.48868  0.79971  0.86530  1.0000
  C   C266      1.0  0.59265  0.79555  0.56153  1.0000
  C   C267      1.0  0.55652  0.92864  0.73867  1.0000
  H   H313      1.0  0.49410  0.87274  0.85185  1.0000
  S   S72       1.0  0.66499  0.86805  0.77582  1.0000
  C   C268      1.0  0.57917  0.89820  0.79270  1.0000
  Fe  Fe36      1.0  0.63943  0.83841  0.72963  1.0000
  S   S73       1.0  0.58633  0.82202  0.72425  1.0000
  S   S74       1.0  0.40735  0.83586  0.81204  1.0000
  S   S75       1.0  0.65143  0.87437  0.68114  1.0000
  N   N19       1.0  0.45894  0.75860  0.99321  1.0000
  S   S76       1.0  0.68264  0.80787  0.71787  1.0000
  H   H314      1.0  0.58776  0.98321  0.81286  1.0000
  S   S77       1.0  0.39530  0.92329  0.86091  1.0000
  C   C269      1.0  0.54954  0.89893  0.81233  1.0000
  C   C270      1.0  0.42887  0.73717  0.99269  1.0000
  H   H315      1.0  0.60556  0.91170  0.74064  1.0000
  C   C271      1.0  0.46495  0.90039  0.79083  1.0000
  C   C272      1.0  0.51550  0.80800  0.82614  1.0000
  C   C273      1.0  0.50383  0.81270  0.78817  1.0000
  C   C274      1.0  0.52587  0.81756  0.75731  1.0000
  C   C275      1.0  0.55968  0.81827  0.76425  1.0000
  C   C276      1.0  0.57137  0.81448  0.80237  1.0000
  C   C277      1.0  0.54931  0.80914  0.83318  1.0000
  H   H316      1.0  0.47785  0.81151  0.78241  1.0000
  H   H317      1.0  0.51666  0.82034  0.72787  1.0000
  H   H318      1.0  0.59736  0.81474  0.80798  1.0000
  H   H319      1.0  0.55849  0.80542  0.86250  1.0000
  H   H320      1.0  0.61293  0.85108  0.59885  1.0000
  H   H321      1.0  0.46070  0.91393  0.76295  1.0000
  H   H322      1.0  0.55695  0.00431  0.72481  1.0000
  C   C278      1.0  0.52245  0.91500  0.79564  1.0000
  C   C279      1.0  0.39540  0.99009  0.75229  1.0000
  Fe  Fe37      1.0  0.36450  0.80263  0.83036  1.0000
  H   H323      1.0  0.50786  0.91049  0.87461  1.0000
  H   H324      1.0  0.44930  0.77540  0.93421  1.0000
  C   C280      1.0  0.45455  0.78518  0.96365  1.0000
  C   C281      1.0  0.39508  0.84424  0.01414  1.0000
  S   S78       1.0  0.66956  0.95629  0.72640  1.0000
  H   H325      1.0  0.50995  0.75490  0.98157  1.0000
  H   H326      1.0  0.63777  0.82329  0.54846  1.0000
  H   H327      1.0  0.40374  0.99217  0.85077  1.0000
  H   H328      1.0  0.59932  0.88531  0.80568  1.0000
  H   H329      1.0  0.50720  0.94230  0.74374  1.0000
  C   C282      1.0  0.40062  0.00283  0.78924  1.0000
  C   C283      1.0  0.39359  0.94834  0.81865  1.0000
  Fe  Fe38      1.0  0.39069  0.86826  0.85904  1.0000
  N   N20       1.0  0.59422  0.80098  0.60399  1.0000
  C   C284      1.0  0.62568  0.78995  0.62044  1.0000
  C   C285      1.0  0.59185  0.83642  0.61105  1.0000
  C   C286      1.0  0.56765  0.78330  0.62596  1.0000
  H   H330      1.0  0.43364  0.80027  0.97108  1.0000
  C   C287      1.0  0.58265  0.91288  0.75593  1.0000
  C   C288      1.0  0.56638  0.77784  0.54328  1.0000
  H   H331      1.0  0.62680  0.79240  0.65269  1.0000
  H   H332      1.0  0.64705  0.80461  0.60908  1.0000
  C   C289      1.0  0.38950  0.95627  0.74855  1.0000
  H   H333      1.0  0.59139  0.84145  0.64276  1.0000
  H   H334      1.0  0.56924  0.84612  0.59776  1.0000
  H   H335      1.0  0.57005  0.78700  0.65786  1.0000
  H   H336      1.0  0.54324  0.79226  0.61756  1.0000
  H   H337      1.0  0.56804  0.75642  0.62184  1.0000
  Fe  Fe39      1.0  0.37826  0.81110  0.91683  1.0000
  Fe  Fe40      1.0  0.67957  0.90236  0.72659  1.0000
  H   H338      1.0  0.55922  0.93958  0.70979  1.0000
  H   H339      1.0  0.38351  0.90940  0.77870  1.0000
  H   H340      1.0  0.46034  0.95276  0.83907  1.0000
  H   H341      1.0  0.39990  0.85476  0.98557  1.0000
  C   C290      1.0  0.48975  0.89935  0.85411  1.0000
  H   H342      1.0  0.50274  0.96461  0.83580  1.0000
  C   C291      1.0  0.37650  0.81498  0.01812  1.0000
  H   H343      1.0  0.62944  0.76388  0.61386  1.0000
  H   H344      1.0  0.42101  0.73100  0.96254  1.0000
  H   H345      1.0  0.46541  0.90090  0.86802  1.0000
  C   C292      1.0  0.60139  0.99769  0.79007  1.0000
  C   C293      1.0  0.39962  0.98206  0.82227  1.0000
  N   N21       1.0  0.49063  0.91626  0.81532  1.0000
  H   H346      1.0  0.62785  0.99745  0.79780  1.0000
  C   C294      1.0  0.38840  0.93539  0.78171  1.0000
  H   H347      1.0  0.48350  0.73075  0.95074  1.0000
  H   H348      1.0  0.47120  0.87495  0.78394  1.0000
  S   S79       1.0  0.36221  0.79339  0.97689  1.0000
  H   H349      1.0  0.65555  0.90468  0.53403  1.0000
  C   C295      1.0  0.54114  0.01575  0.74495  1.0000
  H   H350      1.0  0.54832  0.88608  0.84013  1.0000
  H   H351      1.0  0.47704  0.96395  0.79303  1.0000
  C   C296      1.0  0.48250  0.95087  0.82093  1.0000
  C   C297      1.0  0.52689  0.92994  0.75826  1.0000
  H   H352      1.0  0.44110  0.89902  0.80587  1.0000
  H   H353      1.0  0.38538  0.94628  0.71999  1.0000
  S   S80       1.0  0.39711  0.01585  0.71047  1.0000
  C   C298      1.0  0.67179  0.88446  0.53472  1.0000
  H   H354      1.0  0.59892  0.98429  0.76242  1.0000
  H   H355      1.0  0.54633  0.76664  0.55946  1.0000
  C   C299      1.0  0.48692  0.73957  0.98101  1.0000
  H   H356      1.0  0.47685  0.80134  0.96038  1.0000
  H   H357      1.0  0.67585  0.88304  0.59744  1.0000
  H   H358      1.0  0.40821  0.74950  0.00620  1.0000
  C   C300      1.0  0.68637  0.01638  0.75433  1.0000
  H   H359      1.0  0.49052  0.71772  0.00018  1.0000
  H   H360      1.0  0.43185  0.71357  0.00869  1.0000
  H   H361      1.0  0.49840  0.00517  0.70937  1.0000
  H   H362      1.0  0.46747  0.82357  0.01898  1.0000
  C   C301      1.0  0.50782  0.01616  0.73581  1.0000
  C   C302      1.0  0.61730  0.80930  0.53681  1.0000
  C   C303      1.0  0.68313  0.87214  0.57071  1.0000
  Fe  Fe41      1.0  0.74696  0.20418  0.23457  1.0000
  C   C304      1.0  0.70102  0.16485  0.07120  1.0000
  S   S81       1.0  0.77009  0.25530  0.24135  1.0000
  Fe  Fe42      1.0  0.73392  0.13233  0.25763  1.0000
  H   H363      1.0  0.92424  0.34395  0.22978  1.0000
  H   H364      1.0  0.99727  0.47846  0.32680  1.0000
  C   C305      1.0  0.75221  0.28577  0.34791  1.0000
  S   S82       1.0  0.77109  0.15799  0.21878  1.0000
  C   C306      1.0  0.91667  0.31779  0.23445  1.0000
  Fe  Fe43      1.0  0.93821  0.39320  0.42869  1.0000
  S   S83       1.0  0.95513  0.35512  0.38814  1.0000
  S   S84       1.0  0.96048  0.40578  0.48733  1.0000
  Fe  Fe44      1.0  0.89333  0.42285  0.36714  1.0000
  S   S85       1.0  0.90605  0.38732  0.32152  1.0000
  S   S86       1.0  0.85980  0.46450  0.35626  1.0000
  Fe  Fe45      1.0  0.90194  0.34959  0.37020  1.0000
  S   S87       1.0  0.87932  0.29808  0.36499  1.0000
  Fe  Fe46      1.0  0.95771  0.39555  0.34282  1.0000
  C   C307      1.0  0.92473  0.35769  0.52754  1.0000
  S   S88       1.0  0.88502  0.38472  0.41459  1.0000
  S   S89       1.0  0.94501  0.43409  0.38459  1.0000
  H   H365      1.0  0.79955  0.40598  0.52084  1.0000
  H   H366      1.0  0.75972  0.06641  0.22395  1.0000
  H   H367      1.0  0.91981  0.25229  0.24210  1.0000
  H   H368      1.0  0.89260  0.31792  0.24921  1.0000
  H   H369      1.0  0.91645  0.34908  0.49948  1.0000
  C   C308      1.0  0.80104  0.26638  0.27535  1.0000
  C   C309      1.0  0.81306  0.29904  0.27573  1.0000
  C   C310      1.0  0.83686  0.30921  0.30315  1.0000
  C   C311      1.0  0.84893  0.28669  0.33043  1.0000
  C   C312      1.0  0.83713  0.25398  0.32983  1.0000
  C   C313      1.0  0.81327  0.24382  0.30245  1.0000
  H   H370      1.0  0.80364  0.31667  0.25493  1.0000
  H   H371      1.0  0.84568  0.33447  0.30334  1.0000
  H   H372      1.0  0.84642  0.23638  0.35076  1.0000
  H   H373      1.0  0.80415  0.21865  0.30254  1.0000
  C   C314      1.0  0.69944  0.26557  0.32165  1.0000
  H   H374      1.0  0.90180  0.26947  0.28373  1.0000
  C   C315      1.0  0.84801  0.42197  0.50448  1.0000
  Fe  Fe47      1.0  0.73253  0.15272  0.17208  1.0000
  C   C316      1.0  0.72621  0.05421  0.29527  1.0000
  H   H375      1.0  0.70557  0.05008  0.19483  1.0000
  C   C317      1.0  0.90708  0.48904  0.30657  1.0000
  C   C318      1.0  0.87670  0.49378  0.32312  1.0000
  H   H376      1.0  0.72756  0.30886  0.30079  1.0000
  N   N22       1.0  0.94085  0.29939  0.25780  1.0000
  H   H377      1.0  0.69365  0.17521  0.09824  1.0000
  H   H378      1.0  0.91967  0.46676  0.31280  1.0000
  H   H379      1.0  0.77369  0.25676  0.39357  1.0000
  H   H380      1.0  0.70277  0.28814  0.24604  1.0000
  S   S90       1.0  0.71110  0.20081  0.18455  1.0000
  N   N23       1.0  0.75251  0.03925  0.17173  1.0000
  S   S91       1.0  0.69706  0.12397  0.20998  1.0000
  C   C319      1.0  0.97167  0.29737  0.23612  1.0000
  H   H381      1.0  0.84396  0.41742  0.47384  1.0000
  H   H382      1.0  0.79593  0.06332  0.19598  1.0000
  C   C320      1.0  0.92534  0.26696  0.26836  1.0000
  C   C321      1.0  0.98731  0.26737  0.23085  1.0000
  C   C322      1.0  0.94772  0.31685  0.29434  1.0000
  C   C323      1.0  0.75286  0.25942  0.37424  1.0000
  H   H383      1.0  0.01334  0.48989  0.39472  1.0000
  C   C324      1.0  0.73577  0.12985  0.03575  1.0000
  H   H384      1.0  0.96568  0.30379  0.31289  1.0000
  H   H385      1.0  0.69792  0.24479  0.24916  1.0000
  H   H386      1.0  0.76541  0.09033  0.17996  1.0000
  S   S92       1.0  0.99881  0.41031  0.30179  1.0000
  H   H387      1.0  0.97843  0.35018  0.22590  1.0000
  S   S93       1.0  0.71288  0.17895  0.27775  1.0000
  H   H388      1.0  0.01092  0.34328  0.32685  1.0000
  H   H389      1.0  0.95768  0.34223  0.28895  1.0000
  C   C325      1.0  0.70062  0.23917  0.34935  1.0000
  H   H390      1.0  0.91260  0.30674  0.20545  1.0000
  C   C326      1.0  0.72653  0.14317  0.07109  1.0000
  H   H391      1.0  0.92530  0.31884  0.31171  1.0000
  H   H392      1.0  0.89799  0.43794  0.49671  1.0000
  H   H393      1.0  0.71574  0.07200  0.15075  1.0000
  S   S94       1.0  0.74938  0.09122  0.29808  1.0000
  S   S95       1.0  0.74727  0.13205  0.11447  1.0000
  C   C327      1.0  0.98803  0.32631  0.22157  1.0000
  H   H394      1.0  0.94083  0.25276  0.28890  1.0000
  H   H395      1.0  0.97710  0.24415  0.24139  1.0000
  C   C328      1.0  0.73903  0.02502  0.30996  1.0000
  C   C329      1.0  0.76915  0.06585  0.19382  1.0000
  C   C330      1.0  0.92145  0.51328  0.28208  1.0000
  C   C331      1.0  0.00767  0.50241  0.33401  1.0000
  C   C332      1.0  0.72612  0.28874  0.32175  1.0000
  H   H396      1.0  0.93214  0.51864  0.11569  1.0000
  H   H397      1.0  0.94286  0.51302  0.38665  1.0000
  C   C333      1.0  0.01751  0.26670  0.21239  1.0000
  H   H398      1.0  0.72795  0.21552  0.39527  1.0000
  C   C334      1.0  0.72711  0.23621  0.37501  1.0000
  H   H399      1.0  0.77265  0.30340  0.34686  1.0000
  C   C335      1.0  0.87838  0.43378  0.51742  1.0000
  C   C336      1.0  0.71789  0.04792  0.16635  1.0000
  H   H400      1.0  0.89259  0.51134  0.42528  1.0000
  H   H401      1.0  0.76373  0.06177  0.11574  1.0000
  H   H402      1.0  0.70404  0.02966  0.14856  1.0000
  H   H403      1.0  0.94503  0.50950  0.26965  1.0000
  C   C337      1.0  0.69472  0.05370  0.27942  1.0000
  H   H404      1.0  0.70196  0.08391  0.36326  1.0000
  H   H405      1.0  0.76345  0.02529  0.32218  1.0000
  C   C338      1.0  0.86025  0.52246  0.31394  1.0000
  H   H406      1.0  0.79398  0.03516  0.13395  1.0000
  C   C339      1.0  0.76725  0.03844  0.13255  1.0000
  H   H407      1.0  0.00411  0.51994  0.27593  1.0000
  C   C340      1.0  0.01801  0.32527  0.20283  1.0000
  C   C341      1.0  0.01665  0.50883  0.37231  1.0000
  H   H408      1.0  0.70773  0.02801  0.38559  1.0000
  H   H409      1.0  0.75547  0.11304  0.03545  1.0000
  C   C342      1.0  0.94624  0.38491  0.52967  1.0000
  H   H410      1.0  0.77676  0.21202  0.97071  1.0000
  S   S96       1.0  0.74046  0.05448  0.84311  1.0000
  Fe  Fe48      1.0  0.72329  0.17596  0.82662  1.0000
  C   C343      1.0  0.72937  0.25429  0.97081  1.0000
  S   S97       1.0  0.74925  0.21634  0.79171  1.0000
  H   H411      1.0  0.81109  0.08442  0.76237  1.0000
  H   H412      1.0  0.86302  0.41113  0.68072  1.0000
  S   S98       1.0  0.73792  0.14634  0.87945  1.0000
  C   C344      1.0  0.69389  0.15957  0.00095  1.0000
  Fe  Fe49      1.0  0.89632  0.40489  0.75366  1.0000
  S   S99       1.0  0.92095  0.38285  0.80604  1.0000
  S   S100      1.0  0.87155  0.45324  0.74793  1.0000
  Fe  Fe50      1.0  0.91689  0.35096  0.70061  1.0000
  S   S101      1.0  0.94369  0.32454  0.74843  1.0000
  S   S102      1.0  0.91184  0.33008  0.64056  1.0000
  Fe  Fe51      1.0  0.90021  0.33451  0.78507  1.0000
  S   S103      1.0  0.88166  0.29529  0.82812  1.0000
  Fe  Fe52      1.0  0.96203  0.37461  0.76538  1.0000
  C   C345      1.0  0.88394  0.43946  0.55694  1.0000
  S   S104      1.0  0.87187  0.35727  0.73588  1.0000
  S   S105      1.0  0.93889  0.40019  0.71428  1.0000
  C   C346      1.0  0.94588  0.37972  0.60055  1.0000
  C   C347      1.0  0.92484  0.35209  0.59838  1.0000
  C   C348      1.0  0.91432  0.34117  0.56182  1.0000
  H   H413      1.0  0.95405  0.38838  0.62853  1.0000
  H   H414      1.0  0.89803  0.31980  0.55994  1.0000
  C   C349      1.0  0.84491  0.27319  0.81806  1.0000
  C   C350      1.0  0.83515  0.24639  0.84218  1.0000
  C   C351      1.0  0.80575  0.22862  0.83477  1.0000
  C   C352      1.0  0.78603  0.23772  0.80322  1.0000
  C   C353      1.0  0.79579  0.26450  0.77928  1.0000
  C   C354      1.0  0.82509  0.28216  0.78664  1.0000
  H   H415      1.0  0.85040  0.23945  0.86664  1.0000
  H   H416      1.0  0.79853  0.20794  0.85326  1.0000
  H   H417      1.0  0.78064  0.27159  0.75478  1.0000
  H   H418      1.0  0.83228  0.30272  0.76796  1.0000
  H   H419      1.0  0.84969  0.23891  0.71759  1.0000
  C   C355      1.0  0.76135  0.21226  0.94396  1.0000
  H   H420      1.0  0.81612  0.13036  0.83130  1.0000
  H   H421      1.0  0.74207  0.19270  0.94876  1.0000
  H   H422      1.0  0.73416  0.23168  0.87689  1.0000
  C   C356      1.0  0.90035  0.49625  0.84866  1.0000
  C   C357      1.0  0.89554  0.47331  0.81920  1.0000
  C   C358      1.0  0.87900  0.48185  0.78489  1.0000
  C   C359      1.0  0.72273  0.24025  0.90389  1.0000
  H   H423      1.0  0.84013  0.10731  0.73234  1.0000
  H   H424      1.0  0.91285  0.48929  0.87528  1.0000
  H   H425      1.0  0.90417  0.44888  0.82339  1.0000
  C   C360      1.0  0.00139  0.47995  0.78739  1.0000
  H   H426      1.0  0.80002  0.26245  0.98110  1.0000
  H   H427      1.0  0.87615  0.38941  0.63920  1.0000
  C   C361      1.0  0.71950  0.13798  0.00077  1.0000
  H   H428      1.0  0.80825  0.41554  0.59010  1.0000
  N   N24       1.0  0.86369  0.43920  0.62690  1.0000
  C   C362      1.0  0.85894  0.40783  0.64899  1.0000
  C   C363      1.0  0.89667  0.45297  0.63696  1.0000
  C   C364      1.0  0.83958  0.46247  0.64042  1.0000
  C   C365      1.0  0.85887  0.43350  0.58481  1.0000
  H   H429      1.0  0.75631  0.28438  0.86788  1.0000
  H   H430      1.0  0.83392  0.39689  0.64575  1.0000
  H   H431      1.0  0.91600  0.43589  0.62961  1.0000
  H   H432      1.0  0.89930  0.45722  0.66879  1.0000
  H   H433      1.0  0.90175  0.47697  0.62188  1.0000
  H   H434      1.0  0.81410  0.45248  0.63822  1.0000
  H   H435      1.0  0.84351  0.46834  0.67169  1.0000
  H   H436      1.0  0.84130  0.48589  0.62327  1.0000
  C   C366      1.0  0.85355  0.21842  0.73753  1.0000
  N   N25       1.0  0.74709  0.24455  0.93579  1.0000
  H   H437      1.0  0.84521  0.30094  0.96481  1.0000
  S   S106      1.0  0.01298  0.39240  0.78092  1.0000
  C   C367      1.0  0.88491  0.19382  0.78932  1.0000
  C   C368      1.0  0.77339  0.26922  0.92635  1.0000
  C   C369      1.0  0.77449  0.28749  0.89056  1.0000
  C   C370      1.0  0.79932  0.27523  0.95323  1.0000
  C   C371      1.0  0.80028  0.30982  0.88224  1.0000
  C   C372      1.0  0.82520  0.29733  0.94433  1.0000
  C   C373      1.0  0.82579  0.31439  0.90877  1.0000
  H   H438      1.0  0.89707  0.24068  0.76232  1.0000
  C   C374      1.0  0.83095  0.19192  0.73911  1.0000
  H   H439      1.0  0.97340  0.41700  0.56799  1.0000
  C   C375      1.0  0.82827  0.42123  0.57059  1.0000
  Fe  Fe53      1.0  0.71642  0.10296  0.84730  1.0000
  H   H440      1.0  0.72663  0.12738  0.97378  1.0000
  C   C376      1.0  0.86269  0.16702  0.79089  1.0000
  H   H441      1.0  0.76902  0.16051  0.74564  1.0000
  H   H442      1.0  0.96081  0.50852  0.79798  1.0000
  H   H443      1.0  0.01360  0.32147  0.77425  1.0000
  S   S107      1.0  0.70671  0.13217  0.79311  1.0000
  H   H444      1.0  0.80125  0.32272  0.85428  1.0000
  H   H445      1.0  0.74534  0.25535  0.99708  1.0000
  H   H446      1.0  0.84635  0.33075  0.90129  1.0000
  H   H447      1.0  0.81018  0.19344  0.71973  1.0000
  H   H448      1.0  0.90547  0.19518  0.80937  1.0000
  C   C377      1.0  0.88034  0.21945  0.76268  1.0000
  H   H449      1.0  0.77661  0.20494  0.91934  1.0000
  C   C378      1.0  0.72138  0.02693  0.81037  1.0000
  C   C379      1.0  0.70092  0.03832  0.78065  1.0000
  H   H450      1.0  0.69669  0.06411  0.77747  1.0000
  H   H451      1.0  0.86717  0.14793  0.81233  1.0000
  C   C380      1.0  0.86786  0.51371  0.77997  1.0000
  H   H452      1.0  0.70324  0.22174  0.91195  1.0000
  H   H453      1.0  0.79238  0.13971  0.71000  1.0000
  C   C381      1.0  0.95681  0.39587  0.56626  1.0000
  H   H454      1.0  0.00823  0.35493  0.71251  1.0000
  H   H455      1.0  0.84756  0.10123  0.78354  1.0000
  H   H456      1.0  0.00889  0.30003  0.65409  1.0000
  H   H457      1.0  0.77901  0.11394  0.81132  1.0000
  H   H458      1.0  0.78530  0.15757  0.81509  1.0000
  H   H459      1.0  0.76664  0.11698  0.74344  1.0000
  N   N26       1.0  0.81145  0.13683  0.76872  1.0000
  C   C382      1.0  0.82835  0.10619  0.76140  1.0000
  C   C383      1.0  0.79746  0.13458  0.80831  1.0000
  C   C384      1.0  0.78378  0.13871  0.74060  1.0000
  C   C385      1.0  0.83492  0.16525  0.76590  1.0000
  H   H460      1.0  0.98296  0.34792  0.67052  1.0000
  H   H461      1.0  0.00433  0.38639  0.67612  1.0000
  H   H462      1.0  0.71883  0.27877  0.96627  1.0000
  H   H463      1.0  0.70892  0.23644  0.97812  1.0000
  H   H464      1.0  0.98738  0.45714  0.79199  1.0000
  H   H465      1.0  0.71005  0.26328  0.89704  1.0000
  C   C386      1.0  0.98640  0.50986  0.79075  1.0000
  H   H466      1.0  0.00944  0.34327  0.60535  1.0000
  H   H467      1.0  0.90827  0.44801  0.56483  1.0000
  C   C387      1.0  0.00642  0.35961  0.68066  1.0000
  H   H468      1.0  0.85494  0.52048  0.75358  1.0000
  C   C388      1.0  0.82301  0.41563  0.53102  1.0000
  S   S108      1.0  0.71787  0.89980  0.36234  1.0000
  S   S109      1.0  0.77057  0.83828  0.30217  1.0000
  H   H469      1.0  0.88854  0.61166  0.12409  1.0000
  Fe  Fe54      1.0  0.87466  0.68605  0.26612  1.0000
  S   S110      1.0  0.89291  0.71636  0.21473  1.0000
  S   S111      1.0  0.84226  0.70262  0.31476  1.0000
  Fe  Fe55      1.0  0.90659  0.62390  0.23877  1.0000
  S   S112      1.0  0.92588  0.64952  0.18513  1.0000
  S   S113      1.0  0.92595  0.57320  0.24594  1.0000
  Fe  Fe56      1.0  0.94004  0.69035  0.22481  1.0000
  S   S114      1.0  0.99258  0.70811  0.21856  1.0000
  Fe  Fe57      1.0  0.87736  0.67234  0.18014  1.0000
  S   S115      1.0  0.84600  0.67230  0.12563  1.0000
  S   S116      1.0  0.92318  0.66360  0.27896  1.0000
  S   S117      1.0  0.85647  0.64321  0.23097  1.0000
  C   C389      1.0  0.86577  0.67934  0.08086  1.0000
  C   C390      1.0  0.89742  0.69316  0.07923  1.0000
  H   H470      1.0  0.72417  0.78065  0.28901  1.0000
  H   H471      1.0  0.91007  0.69991  0.10580  1.0000
  H   H472      1.0  0.99516  0.56582  0.24024  1.0000
  C   C391      1.0  0.72103  0.80420  0.21665  1.0000
  C   C392      1.0  0.92919  0.54692  0.06191  1.0000
  H   H473      1.0  0.73051  0.97298  0.31980  1.0000
  H   H474      1.0  0.90043  0.65340  0.36126  1.0000
  C   C393      1.0  0.78826  0.99607  0.20062  1.0000
  H   H475      1.0  0.74588  0.73046  0.27990  1.0000
  C   C394      1.0  0.78955  0.80007  0.30620  1.0000
  C   C395      1.0  0.78191  0.77701  0.33581  1.0000
  C   C396      1.0  0.79833  0.74733  0.33824  1.0000
  C   C397      1.0  0.82214  0.74025  0.31084  1.0000
  C   C398      1.0  0.82927  0.76307  0.28090  1.0000
  C   C399      1.0  0.81323  0.79288  0.27879  1.0000
  H   H476      1.0  0.76388  0.78233  0.35725  1.0000
  H   H477      1.0  0.79263  0.72985  0.36153  1.0000
  H   H478      1.0  0.84747  0.75800  0.25960  1.0000
  H   H479      1.0  0.81936  0.81054  0.25582  1.0000
  Fe  Fe58      1.0  0.72327  0.85303  0.32954  1.0000
  C   C400      1.0  0.87463  0.54671  0.28915  1.0000
  H   H480      1.0  0.73100  0.75581  0.15744  1.0000
  C   C401      1.0  0.78179  0.70237  0.20020  1.0000
  C   C402      1.0  0.90560  0.54242  0.27399  1.0000
  H   H481      1.0  0.98175  0.70730  0.30148  1.0000
  C   C403      1.0  0.79280  0.96628  0.22045  1.0000
  H   H482      1.0  0.85690  0.55709  0.42415  1.0000
  C   C404      1.0  0.87888  0.55990  0.40729  1.0000
  H   H483      1.0  0.72473  0.80601  0.18473  1.0000
  C   C405      1.0  0.91527  0.58805  0.36142  1.0000
  C   C406      1.0  0.75016  0.72817  0.24918  1.0000
  C   C407      1.0  0.73460  0.95703  0.22465  1.0000
  H   H484      1.0  0.95697  0.56132  0.34484  1.0000
  C   C408      1.0  0.90010  0.59359  0.10680  1.0000
  H   H485      1.0  0.80052  0.68572  0.19252  1.0000
  C   C409      1.0  0.88315  0.64767  0.38533  1.0000
  H   H486      1.0  0.86754  0.61995  0.31765  1.0000
  H   H487      1.0  0.83545  0.59282  0.33573  1.0000
  C   C410      1.0  0.92456  0.54126  0.10189  1.0000
  H   H488      1.0  0.93690  0.71000  0.04204  1.0000
  H   H489      1.0  0.82518  0.65972  0.04744  1.0000
  H   H490      1.0  0.86690  0.66891  0.38533  1.0000
  C   C411      1.0  0.75657  0.00745  0.19250  1.0000
  H   H491      1.0  0.83171  0.63636  0.33721  1.0000
  H   H492      1.0  0.98054  0.60204  0.29329  1.0000
  C   C412      1.0  0.76606  0.72032  0.17122  1.0000
  C   C413      1.0  0.69177  0.97173  0.41347  1.0000
  H   H493      1.0  0.82056  0.59355  0.40469  1.0000
  H   H494      1.0  0.69280  0.74856  0.28412  1.0000
  H   H495      1.0  0.84780  0.61346  0.43951  1.0000
  C   C414      1.0  0.70218  0.77259  0.27214  1.0000
  C   C415      1.0  0.72037  0.99547  0.30884  1.0000
  C   C416      1.0  0.00650  0.70034  0.29652  1.0000
  C   C417      1.0  0.73363  0.74695  0.22032  1.0000
  H   H496      1.0  0.78638  0.69237  0.26148  1.0000
  C   C418      1.0  0.90496  0.59963  0.06708  1.0000
  H   H497      1.0  0.90661  0.56019  0.15531  1.0000
  H   H498      1.0  0.74481  0.81097  0.23085  1.0000
  N   N27       1.0  0.86445  0.61619  0.38024  1.0000
  H   H499      1.0  0.75607  0.01817  0.11531  1.0000
  H   H500      1.0  0.89724  0.62272  0.05514  1.0000
  C   C419      1.0  0.91009  0.56456  0.12430  1.0000
  C   C420      1.0  0.84959  0.67069  0.04622  1.0000
  N   N28       1.0  0.70911  0.77112  0.22988  1.0000
  C   C421      1.0  0.91952  0.57652  0.04329  1.0000
  H   H501      1.0  0.71158  0.98553  0.42908  1.0000
  H   H502      1.0  0.89730  0.64754  0.41311  1.0000
  H   H503      1.0  0.77279  0.71736  0.14109  1.0000
  H   H504      1.0  0.70925  0.83354  0.47413  1.0000
  H   H505      1.0  0.82279  0.63691  0.40703  1.0000
  H   H506      1.0  0.92165  0.60779  0.34115  1.0000
  C   C422      1.0  0.77371  0.70613  0.23901  1.0000
  C   C423      1.0  0.93570  0.56147  0.36319  1.0000
  C   C424      1.0  0.83783  0.61480  0.40930  1.0000
  H   H507      1.0  0.94036  0.52779  0.04632  1.0000
  H   H508      1.0  0.86187  0.56858  0.28160  1.0000
  C   C425      1.0  0.88637  0.58829  0.38378  1.0000
  C   C426      1.0  0.84915  0.61632  0.34104  1.0000
  H   H509      1.0  0.80980  0.01033  0.19195  1.0000
  C   C427      1.0  0.70204  0.84444  0.50092  1.0000
  C   C428      1.0  0.74225  0.74222  0.18097  1.0000
  H   H510      1.0  0.76954  0.92383  0.24820  1.0000
  C   C429      1.0  0.91256  0.69882  0.04309  1.0000
  H   H511      1.0  0.81723  0.95828  0.22678  1.0000
  C   C430      1.0  0.02116  0.57431  0.24343  1.0000
  H   H512      1.0  0.01221  0.62296  0.32074  1.0000
  H   H513      1.0  0.83651  0.52593  0.32622  1.0000
  H   H514      1.0  0.70354  0.82320  0.22377  1.0000
  C   C431      1.0  0.00637  0.61145  0.29242  1.0000
  H   H515      1.0  0.00757  0.63143  0.26982  1.0000
  C   C432      1.0  0.72974  0.98693  0.20518  1.0000
  C   C433      1.0  0.76600  0.94681  0.23249  1.0000
  C   C434      1.0  0.01172  0.52667  0.30488  1.0000
  C   C435      1.0  0.01813  0.69914  0.25855  1.0000
  C   C436      1.0  0.89938  0.53334  0.40853  1.0000
  H   H516      1.0  0.01829  0.69568  0.35754  1.0000
  C   C437      1.0  0.92776  0.53417  0.38665  1.0000
  H   H517      1.0  0.70470  0.99353  0.20109  1.0000
  H   H518      1.0  0.69264  0.94595  0.42453  1.0000
  H   H519      1.0  0.71378  0.94199  0.23451  1.0000
  H   H520      1.0  0.69760  0.97136  0.38195  1.0000
  H   H521      1.0  0.98048  0.57584  0.72667  1.0000
  S   S118      1.0  0.75026  0.82640  0.80101  1.0000
  S   S119      1.0  0.72614  0.87779  0.71380  1.0000
  Fe  Fe59      1.0  0.92098  0.66792  0.82375  1.0000
  S   S120      1.0  0.87837  0.63402  0.80977  1.0000
  S   S121      1.0  0.95678  0.67882  0.77542  1.0000
  Fe  Fe60      1.0  0.89998  0.67462  0.90773  1.0000
  S   S122      1.0  0.85602  0.64109  0.90074  1.0000
  S   S123      1.0  0.91660  0.69775  0.96387  1.0000
  Fe  Fe61      1.0  0.88918  0.60977  0.86734  1.0000
  S   S124      1.0  0.89593  0.55623  0.88128  1.0000
  Fe  Fe62      1.0  0.84904  0.66866  0.84384  1.0000
  S   S125      1.0  0.79812  0.68137  0.82403  1.0000
  S   S126      1.0  0.93394  0.64123  0.87891  1.0000
  S   S127      1.0  0.89088  0.70468  0.85315  1.0000
  H   H522      1.0  0.86398  0.56115  0.80536  1.0000
  C   C438      1.0  0.89656  0.68992  0.00847  1.0000
  C   C439      1.0  0.95451  0.56997  0.79939  1.0000
  H   H523      1.0  0.85869  0.74508  0.98895  1.0000
  H   H524      1.0  0.85266  0.66796  0.98386  1.0000
  C   C440      1.0  0.00719  0.59145  0.81851  1.0000
  H   H525      1.0  0.93930  0.55673  0.77739  1.0000
  H   H526      1.0  0.72917  0.81151  0.53774  1.0000
  H   H527      1.0  0.95004  0.61980  0.96480  1.0000
  H   H528      1.0  0.95125  0.55745  0.82826  1.0000
  H   H529      1.0  0.82295  0.82224  0.93996  1.0000
  C   C441      1.0  0.76375  0.78598  0.80477  1.0000
  C   C442      1.0  0.74263  0.75907  0.79791  1.0000
  C   C443      1.0  0.75361  0.72713  0.80361  1.0000
  C   C444      1.0  0.78583  0.72187  0.81564  1.0000
  C   C445      1.0  0.80725  0.74879  0.82114  1.0000
  C   C446      1.0  0.79612  0.78074  0.81621  1.0000
  H   H530      1.0  0.71760  0.76285  0.78929  1.0000
  H   H531      1.0  0.73694  0.70638  0.79915  1.0000
  H   H532      1.0  0.83231  0.74499  0.82928  1.0000
  H   H533      1.0  0.81260  0.80149  0.82140  1.0000
  S   S128      1.0  0.71670  0.82830  0.61672  1.0000
  H   H534      1.0  0.82399  0.71737  0.89541  1.0000
  H   H535      1.0  0.84026  0.78389  0.98853  1.0000
  C   C447      1.0  0.83661  0.75818  0.97919  1.0000
  C   C448      1.0  0.71326  0.83200  0.53698  1.0000
  C   C449      1.0  0.00427  0.54008  0.78492  1.0000
  N   N29       1.0  0.98944  0.57229  0.78834  1.0000
  C   C450      1.0  0.74631  0.77657  0.89878  1.0000
  C   C451      1.0  0.77311  0.75849  0.91042  1.0000
  N   N30       1.0  0.79847  0.78659  0.67754  1.0000
  C   C452      1.0  0.77482  0.79714  0.70657  1.0000
  C   C453      1.0  0.80973  0.81627  0.65491  1.0000
  C   C454      1.0  0.78121  0.76427  0.65014  1.0000
  C   C455      1.0  0.82516  0.76919  0.69752  1.0000
  C   C456      1.0  0.85855  0.77973  0.69472  1.0000
  C   C457      1.0  0.81815  0.74034  0.72024  1.0000
  C   C458      1.0  0.88314  0.76216  0.71332  1.0000
  C   C459      1.0  0.84295  0.72290  0.73844  1.0000
  C   C460      1.0  0.87537  0.73377  0.73503  1.0000
  H   H536      1.0  0.76228  0.77617  0.72199  1.0000
  H   H537      1.0  0.78707  0.81267  0.72899  1.0000
  H   H538      1.0  0.75520  0.81163  0.69275  1.0000
  H   H539      1.0  0.82180  0.83475  0.67408  1.0000
  H   H540      1.0  0.82672  0.81014  0.63139  1.0000
  H   H541      1.0  0.76904  0.74290  0.66532  1.0000
  H   H542      1.0  0.76165  0.77688  0.63354  1.0000
  H   H543      1.0  0.79839  0.75477  0.62868  1.0000
  H   H544      1.0  0.86638  0.80145  0.67841  1.0000
  H   H545      1.0  0.79336  0.73106  0.72437  1.0000
  H   H546      1.0  0.90848  0.77051  0.71090  1.0000
  H   H547      1.0  0.83693  0.70090  0.75561  1.0000
  H   H548      1.0  0.89454  0.72018  0.74931  1.0000
  H   H549      1.0  0.88271  0.75568  0.92261  1.0000
  H   H550      1.0  0.74291  0.98429  0.83639  1.0000
  C   C461      1.0  0.71160  0.97115  0.78781  1.0000
  H   H551      1.0  0.78892  0.82865  0.64036  1.0000
  H   H552      1.0  0.86745  0.79542  0.92610  1.0000
  H   H553      1.0  0.99240  0.68460  0.84868  1.0000
  Fe  Fe63      1.0  0.69646  0.84655  0.67290  1.0000
  H   H554      1.0  0.85689  0.77143  0.88448  1.0000
  H   H555      1.0  0.72721  0.82448  0.89057  1.0000
  H   H556      1.0  0.85167  0.70832  0.93408  1.0000
  H   H557      1.0  0.94201  0.56333  0.94848  1.0000
  C   C462      1.0  0.00947  0.67969  0.82599  1.0000
  C   C463      1.0  0.77524  0.82653  0.91629  1.0000
  C   C464      1.0  0.93914  0.55699  0.98004  1.0000
  N   N31       1.0  0.92420  0.58379  0.00122  1.0000
  H   H558      1.0  0.01280  0.66921  0.72834  1.0000
  H   H559      1.0  0.94405  0.59459  0.80179  1.0000
  C   C465      1.0  0.74752  0.81051  0.90127  1.0000
  C   C466      1.0  0.82873  0.72079  0.92701  1.0000
  C   C467      1.0  0.72700  0.99329  0.81358  1.0000
  C   C468      1.0  0.89224  0.58980  0.98235  1.0000
  H   H560      1.0  0.81543  0.74715  0.99549  1.0000
  H   H561      1.0  0.71552  0.94521  0.79093  1.0000
  C   C469      1.0  0.86512  0.67547  0.01015  1.0000
  C   C470      1.0  0.80208  0.80869  0.92840  1.0000
  H   H562      1.0  0.99478  0.61441  0.82466  1.0000
  H   H563      1.0  0.80912  0.70744  0.94379  1.0000
  N   N32       1.0  0.83139  0.75600  0.93659  1.0000
  C   C471      1.0  0.88901  0.52800  0.84385  1.0000
  H   H564      1.0  0.77610  0.85299  0.91780  1.0000
  H   H565      1.0  0.77070  0.73239  0.90649  1.0000
  C   C472      1.0  0.87299  0.53680  0.80927  1.0000
  C   C473      1.0  0.80215  0.77416  0.92499  1.0000
  C   C474      1.0  0.86073  0.77031  0.91656  1.0000
  Fe  Fe64      1.0  0.70961  0.84076  0.75966  1.0000
  C   C475      1.0  0.99853  0.67687  0.78750  1.0000
  H   H566      1.0  0.72493  0.76432  0.88624  1.0000
  H   H567      1.0  0.89478  0.59458  0.95050  1.0000
  C   C476      1.0  0.70368  0.84567  0.57196  1.0000
  H   H568      1.0  0.88045  0.61141  0.99395  1.0000
  H   H569      1.0  0.00877  0.57718  0.84641  1.0000
  H   H570      1.0  0.87501  0.56829  0.98627  1.0000
  C   C477      1.0  0.94575  0.61354  0.99609  1.0000
  C   C478      1.0  0.02103  0.67106  0.75824  1.0000
  H   H571      1.0  0.92350  0.53412  0.98136  1.0000
  H   H572      1.0  0.97891  0.61398  0.75122  1.0000
  C   C479      1.0  0.99170  0.59046  0.75053  1.0000
  H   H573      1.0  0.96984  0.61034  0.01054  1.0000
  H   H574      1.0  0.93519  0.63551  0.00858  1.0000
  H   H575      1.0  0.96390  0.55187  0.99156  1.0000
  H   H576      1.0  0.01736  0.59691  0.74236  1.0000
  C   C480      1.0  0.69108  0.98274  0.75821  1.0000
