data_image0
_chemical_formula_structural       NHCH3SH2CFeS2FeS2FeSFeS3HS3H4CH2CFeHCHC6H5C5HCH3CH2C6H4C2NCHC6H11CH2C2HCHC2HCHC2HCH6C2H2CHC2HC3H6NH3C2H2N2C8H5FeHCH3CHCH2CH3C2FeH2CHFeS2FeC3HFeSCS2HFeS2FeSCFeSFeS3FeS2FeSCFeS2FeSFeS2HCSH2CH6C8H4C6H4CHSNC2HC7H4C4H3C2HNC9H14NC9H16C2H2CHSCFeSHC2HNCSCHC4HC2HC3HFeSH2NC9HCH13C2SCHSC2HSHCHCHCHC2H2NH7NC2S2CHCHCHCHSH3SCH2C3SCFe2CHCH4CFeC2H5CH2SH4SHFeS2FeS2FeSFeS4HNH2CH2CHSCH3C2HFeNH6C6H4C6H4C4NCH3C7H3FeC2H11CH3C2H4CHC2H2CH3CH2C2H6C2H4CN2C2HC3HCH2C2SH3C2HCH2S2C2HCHCHC2HCHCH3CH7CFeCFeS2HC2HS2FeS2FeS2FeSFeS3FeC2FeCSFeS3HSC4FeS3CH2NCH3CHSHC6H4C6H4SHFe2H3CSHC5H2SC7H4C2NC6H11NHC3FeC3HC2H2S2NC6SFeCH10C2HC2HCHCH3C2HCHFe2C2SHCH5S2H3CH3FeC3H2C2H3CHCHNC9H14NC3SH4CHC2SHSC2H2SH2CH2C2H3NHCFeCH3C7SH3CH2CHCH4C2HC3H2CHFeSHFeS2FeS2FeSFeS3H2CHC2SCH3C6H4C6H4C5H2C9H8C2HCHC2H2CHSH2NC4H2CNH14CNC2HCNC2H8SCNCH2C6H4CHC3HSHCH2CH2C3H4C2HCHCH4CHCHNCSCH3CH3SC2H9CHSH2C3FeSCSHS2FeSHFeS2FeSCSCFeS2FeS2FeSFeS2FeS2Fe2HS2CSCHSFe2SFeHSH2CSH2C2HCH2SHC6H4C6H5C6H5C3HC2HC2H2C3H2CH5C2SCH4NC9H11NCHCH4CSCH2FeCH9CH3NC4H2C2H5C2H3CH2NH2CHCH2C2HN2C2FeHC2H2CHCHFeCHC5SCHCHCHFeH2NHCH4CSC2H2SHC2FeCHC2SC2H2CHC2HCHC3H2NC2H2C2H2CSHFeS2FeS2FeSFeS3HSC6H4CHC4H4C6H4C6H4CHSH3SH2C2HFeH2C2HNC9H8CH5C5H3NH5CHCNHSHFeCH4C6H3CSH5CH3C3H2C2H3C2HCH2CSHCH2C2H3FeHSCSCSHCHCHFeCH2C3SHFeHNH2NCH2CHFeS2FeS2FeSFeS3CSCS2HFeSFeS2CSFeHSC2FeSHSFeS2H11CHFeH2CFeH2C2H2CH3CHC4HCH4C2HC3H3CFeC7H4C6H4C6H4CNH2CSCHC3FeH3SHCHCH2CSCHNC9H11C2HNC9H9NC4H3CH5CH2CSH5C2NH2C3SHC2FeSH2CH3CH2CSHC2SHCSC2HCFeCH3C2HS2CNH2NC2FeSHFeS2FeS2FeSFeS3CHNHC2H2S2FeH2C6H4C4H3C6H4C6H5NH2CH3CH4CH2CH4SH3NC9H2CH5SH5CH5C2H2C3H2C3HCHC2H4CNC9H13CHSHCHCH2SFeHCH3C2HC2HC3HSCH4CH2FeCH3C2HSCHC3H3C2H2CSHSFeS2CSFeSCHSCFeSFeS2HFeS2FeS2FeSFeS3HFeS2FeC5NH2C6H5NHC2SCHNFeC7H4C3SCH2CFeH2C2H2SC6H5C4HSH4C2NC9H14CH2C3H5C2HCHCH3CHCHC2H6CSFeH3FeH3NC9H12CH3SCHNSH2SCSC2H2C2FeCHCH2CH2FeCH2C2H2CH4CH2CHSHFeS2FeS2FeSFeS3HFeS2C2H2CSCH4CHC6H4C6H4C3HC2H2C6H9CHC2HCH8C2HCNCHNSHC7SCH4CH4CH3CH2C2HCH2CHFeCHCHCNHCH4CHSNC9H14CH2SC2HCSHC2SCSCHC4H2CH2CFeS2FeHC2S2FeS2FeS2Fe2S3FeS2FeSFeS2FeS2H4FeSHS3CH3C2SH3NHCHC2HC2HFeH2NC8H4C6H8CHSC2H2FeHNCSH2CHC6H4C2HNH2CH3NC9H12CHNH3C2H2CH2FeHCH2C2H2C2H2CH3C3H6CHCH2CHC5H2C2H2CH3CH2C2HCHC4H2C2H2C2HNC2H2C3SH2CHCHFeHSCH2C2H2SH2SCHC2FeCH2CHC3FeHCHCNC2FeHCSCNFeH2CHSH2SHFeS2FeS2FeSFeS3CNCHC7H5C3SHNC6H4C6H4C3HCH2NC9H18CH2CHNCH3C2H2CHFeC3SH6CH6FeH3C2NCHCH2CFeHCH2CHC2H2SHC4H2CHSCHC3SHSCH3SH2CH2C2HCSCH4CH6FeSC3FeS3FeSFeS2FeSFeCS2FeS2FeS2FeSFeHS2FeS2FeHC2H2C2H3C6H4CHNC6H2FeHC6H5C3NCH3FeHSC7H5C2H2CHCNSNC9H14NC6H12C2SCHC3HCH3CH6CH3C2HC3HCNHCH5C2HSNC9H13C2H2S2C2SHC2H5CHCHCHCSH5C2HCH3SCHSH3C2HC2FeHFeH5C2H3S2NFeSHCFeS2FeS2FeSFeS3C3HSH2C6H4C7H5C6H8NHC2HC3HCH4CSH2C3HNC5H2C2HCH10FeH3CH2CHC2HC2H4C2NC5H3FeH2C2NC2H2C2H2SH3CSC3H2CNH2SH5SCHC2H5CSCH2CNH3CSHCH2C3HC2H4FeCH4CFeS2HSHFeSHFeCFeSHSHFeSFeS2FeSFeS3FeS2CHFeSFeSHSC2HSHCH2CHNC3HSH2CHC6H9CH3C2SC6H8CH2C6H5CHC2H3CHSH2SHCHCHC4H4CHC2H2CH2CNC9H12NC9H2SHCHSC2HCH2CHCHC2H7C3H4CH2FeCHCH2C2SNCHC2HCFeCHC4H2FeCSC2HC2H2SHSFeCHCHC2FeH
_chemical_formula_sum              "N96 H1728 C1440 S384 Fe192"
_cell_length_a       59.3168
_cell_length_b       60.0282
_cell_length_c       60.4637
_cell_angle_alpha    80.8431
_cell_angle_beta     80.9005
_cell_angle_gamma    80.9018

_space_group_name_H-M_alt    "P 1"
_space_group_IT_number       1

loop_
  _space_group_symop_operation_xyz
  'x, y, z'

loop_
  _atom_site_type_symbol
  _atom_site_label
  _atom_site_symmetry_multiplicity
  _atom_site_fract_x
  _atom_site_fract_y
  _atom_site_fract_z
  _atom_site_occupancy
  N   N1        1.0  0.46922  0.23028  0.19234  1.0000
  H   H1        1.0  0.26971  0.29548  0.00405  1.0000
  C   C1        1.0  0.20528  0.24946  0.23169  1.0000
  H   H2        1.0  0.30854  0.28627  0.99492  1.0000
  H   H3        1.0  0.17206  0.17601  0.21658  1.0000
  H   H4        1.0  0.27693  0.46439  0.23788  1.0000
  S   S1        1.0  0.12612  0.24229  0.20019  1.0000
  H   H5        1.0  0.30736  0.32739  0.20229  1.0000
  H   H6        1.0  0.23128  0.27032  0.01494  1.0000
  C   C2        1.0  0.31012  0.19429  0.20166  1.0000
  Fe  Fe1       1.0  0.26076  0.20973  0.12755  1.0000
  S   S2        1.0  0.26954  0.22878  0.15333  1.0000
  S   S3        1.0  0.24779  0.17599  0.13791  1.0000
  Fe  Fe2       1.0  0.26271  0.24918  0.08952  1.0000
  S   S4        1.0  0.27119  0.27192  0.11233  1.0000
  S   S5        1.0  0.25413  0.26376  0.05421  1.0000
  Fe  Fe3       1.0  0.29561  0.24180  0.12518  1.0000
  S   S6        1.0  0.32824  0.25287  0.13203  1.0000
  Fe  Fe4       1.0  0.24469  0.25731  0.13884  1.0000
  S   S7        1.0  0.22144  0.27849  0.16317  1.0000
  S   S8        1.0  0.28927  0.21990  0.10020  1.0000
  S   S9        1.0  0.23392  0.23732  0.11515  1.0000
  H   H7        1.0  0.28555  0.35688  0.22367  1.0000
  S   S10       1.0  0.39503  0.26030  0.22648  1.0000
  S   S11       1.0  0.39438  0.20239  0.20274  1.0000
  S   S12       1.0  0.30309  0.11249  0.21019  1.0000
  H   H8        1.0  0.23166  0.18464  0.03747  1.0000
  H   H9        1.0  0.28711  0.19985  0.01181  1.0000
  H   H10       1.0  0.31955  0.31701  0.16709  1.0000
  H   H11       1.0  0.29203  0.15945  0.22624  1.0000
  C   C3        1.0  0.06599  0.33017  0.22476  1.0000
  H   H12       1.0  0.45104  0.24107  0.22320  1.0000
  H   H13       1.0  0.31867  0.28911  0.20062  1.0000
  C   C4        1.0  0.19672  0.23028  0.22765  1.0000
  Fe  Fe5       1.0  0.39470  0.22259  0.23112  1.0000
  H   H14       1.0  0.06117  0.31963  0.19366  1.0000
  C   C5        1.0  0.30089  0.22361  0.23989  1.0000
  H   H15       1.0  0.20940  0.23869  0.06267  1.0000
  C   C6        1.0  0.34547  0.23808  0.15233  1.0000
  C   C7        1.0  0.35670  0.25075  0.16366  1.0000
  C   C8        1.0  0.37121  0.23985  0.17945  1.0000
  C   C9        1.0  0.37550  0.21610  0.18336  1.0000
  C   C10       1.0  0.36465  0.20329  0.17171  1.0000
  C   C11       1.0  0.34930  0.21426  0.15650  1.0000
  H   H16       1.0  0.35425  0.26915  0.16016  1.0000
  H   H17       1.0  0.37971  0.24992  0.18795  1.0000
  H   H18       1.0  0.36809  0.18489  0.17444  1.0000
  H   H19       1.0  0.34112  0.20435  0.14742  1.0000
  H   H20       1.0  0.17330  0.19245  0.23833  1.0000
  C   C12       1.0  0.20743  0.19077  0.18794  1.0000
  C   C13       1.0  0.27491  0.21526  0.01247  1.0000
  C   C14       1.0  0.25707  0.24747  0.03179  1.0000
  C   C15       1.0  0.27286  0.22759  0.03079  1.0000
  C   C16       1.0  0.45292  0.21408  0.19147  1.0000
  H   H21       1.0  0.22586  0.16231  0.09689  1.0000
  C   C17       1.0  0.24605  0.24299  0.99566  1.0000
  H   H22       1.0  0.28361  0.22183  0.04403  1.0000
  H   H23       1.0  0.24596  0.21589  0.07025  1.0000
  H   H24       1.0  0.23399  0.16874  0.21808  1.0000
  C   C18       1.0  0.21138  0.21261  0.21726  1.0000
  H   H25       1.0  0.31630  0.29610  0.15039  1.0000
  H   H26       1.0  0.22197  0.33878  0.21180  1.0000
  C   C19       1.0  0.15177  0.25370  0.18930  1.0000
  C   C20       1.0  0.15835  0.27128  0.19849  1.0000
  C   C21       1.0  0.17954  0.27924  0.19004  1.0000
  C   C22       1.0  0.19433  0.26940  0.17265  1.0000
  C   C23       1.0  0.18747  0.25215  0.16326  1.0000
  C   C24       1.0  0.16617  0.24449  0.17141  1.0000
  H   H27       1.0  0.14704  0.27894  0.21189  1.0000
  H   H28       1.0  0.18459  0.29280  0.19720  1.0000
  H   H29       1.0  0.19857  0.24458  0.14981  1.0000
  H   H30       1.0  0.16104  0.23102  0.16423  1.0000
  C   C25       1.0  0.25249  0.34980  0.21873  1.0000
  C   C26       1.0  0.49345  0.19614  0.21202  1.0000
  N   N2        1.0  0.20294  0.19210  0.21256  1.0000
  C   C27       1.0  0.24364  0.25504  0.01422  1.0000
  H   H31       1.0  0.44595  0.20640  0.20872  1.0000
  C   C28       1.0  0.28768  0.13038  0.19032  1.0000
  C   C29       1.0  0.29863  0.14633  0.17451  1.0000
  C   C30       1.0  0.28624  0.16091  0.15874  1.0000
  C   C31       1.0  0.26318  0.15883  0.15823  1.0000
  C   C32       1.0  0.25224  0.14292  0.17406  1.0000
  C   C33       1.0  0.26436  0.12902  0.19040  1.0000
  H   H32       1.0  0.31671  0.14730  0.17439  1.0000
  H   H33       1.0  0.29474  0.17316  0.14647  1.0000
  H   H34       1.0  0.23441  0.14129  0.17367  1.0000
  H   H35       1.0  0.25586  0.11670  0.20259  1.0000
  H   H36       1.0  0.24298  0.36262  0.22872  1.0000
  H   H37       1.0  0.15813  0.24737  0.11975  1.0000
  H   H38       1.0  0.26479  0.27597  0.18346  1.0000
  H   H39       1.0  0.18045  0.26319  0.08421  1.0000
  H   H40       1.0  0.29206  0.19422  0.19879  1.0000
  H   H41       1.0  0.43756  0.22266  0.18343  1.0000
  H   H42       1.0  0.16734  0.20637  0.21068  1.0000
  C   C34       1.0  0.23502  0.21533  0.21139  1.0000
  H   H43       1.0  0.25892  0.18801  0.06407  1.0000
  H   H44       1.0  0.48628  0.25499  0.16807  1.0000
  C   C35       1.0  0.30497  0.28145  0.19507  1.0000
  C   C36       1.0  0.47620  0.24072  0.16880  1.0000
  H   H45       1.0  0.31433  0.21195  0.19644  1.0000
  C   C37       1.0  0.24069  0.33631  0.20913  1.0000
  H   H46       1.0  0.28715  0.27231  0.16028  1.0000
  C   C38       1.0  0.27735  0.31579  0.19318  1.0000
  C   C39       1.0  0.26210  0.47696  0.23476  1.0000
  H   H47       1.0  0.22606  0.18934  0.18129  1.0000
  C   C40       1.0  0.24338  0.23465  0.21537  1.0000
  H   H48       1.0  0.20106  0.17570  0.18370  1.0000
  C   C41       1.0  0.30649  0.30883  0.16115  1.0000
  C   C42       1.0  0.28878  0.32968  0.20346  1.0000
  H   H49       1.0  0.26580  0.29672  0.15829  1.0000
  C   C43       1.0  0.17785  0.19181  0.21985  1.0000
  H   H50       1.0  0.24711  0.20267  0.20328  1.0000
  H   H51       1.0  0.19365  0.18087  0.11304  1.0000
  H   H52       1.0  0.20848  0.15565  0.22252  1.0000
  H   H53       1.0  0.26139  0.23655  0.21029  1.0000
  H   H54       1.0  0.22318  0.21383  0.03937  1.0000
  H   H55       1.0  0.19888  0.20618  0.17823  1.0000
  C   C44       1.0  0.27646  0.28525  0.17021  1.0000
  C   C45       1.0  0.25280  0.31959  0.19640  1.0000
  H   H56       1.0  0.23297  0.31943  0.00727  1.0000
  H   H57       1.0  0.20160  0.19499  0.04467  1.0000
  C   C46       1.0  0.21530  0.17139  0.22454  1.0000
  H   H58       1.0  0.46096  0.24796  0.16001  1.0000
  C   C47       1.0  0.05455  0.32010  0.21137  1.0000
  C   C48       1.0  0.45647  0.24832  0.20541  1.0000
  H   H59       1.0  0.16501  0.20621  0.13363  1.0000
  C   C49       1.0  0.27647  0.34656  0.21583  1.0000
  C   C50       1.0  0.03494  0.31016  0.22092  1.0000
  C   C51       1.0  0.48995  0.21958  0.20286  1.0000
  H   H60       1.0  0.46691  0.26196  0.20615  1.0000
  H   H61       1.0  0.46113  0.20018  0.18147  1.0000
  H   H62       1.0  0.31392  0.26681  0.18643  1.0000
  H   H63       1.0  0.24247  0.30992  0.18933  1.0000
  H   H64       1.0  0.29341  0.26199  0.99666  1.0000
  H   H65       1.0  0.44073  0.25688  0.19810  1.0000
  N   N3        1.0  0.31328  0.18579  0.22552  1.0000
  H   H66       1.0  0.29411  0.27464  0.21065  1.0000
  H   H67       1.0  0.48109  0.18476  0.21200  1.0000
  H   H68       1.0  0.24794  0.19287  0.09253  1.0000
  C   C52       1.0  0.26171  0.22303  0.99473  1.0000
  C   C53       1.0  0.17056  0.23615  0.10998  1.0000
  H   H69       1.0  0.32148  0.18348  0.18986  1.0000
  H   H70       1.0  0.29655  0.32210  0.15003  1.0000
  N   N4        1.0  0.29090  0.29810  0.18012  1.0000
  N   N5        1.0  0.22183  0.19222  0.07187  1.0000
  C   C54       1.0  0.22135  0.16746  0.07939  1.0000
  C   C55       1.0  0.21936  0.19662  0.04739  1.0000
  C   C56       1.0  0.24468  0.19744  0.07469  1.0000
  C   C57       1.0  0.20373  0.20690  0.08483  1.0000
  C   C58       1.0  0.19944  0.23071  0.07752  1.0000
  C   C59       1.0  0.19096  0.19848  0.10560  1.0000
  C   C60       1.0  0.18303  0.24502  0.08991  1.0000
  C   C61       1.0  0.17452  0.21296  0.11780  1.0000
  H   H71       1.0  0.23430  0.15688  0.06858  1.0000
  H   H72       1.0  0.20412  0.16263  0.07876  1.0000
  H   H73       1.0  0.08157  0.33744  0.21741  1.0000
  H   H74       1.0  0.02630  0.30193  0.21059  1.0000
  H   H75       1.0  0.25167  0.00433  0.22465  1.0000
  Fe  Fe6       1.0  0.11286  0.24757  0.23616  1.0000
  H   H76       1.0  0.34335  0.20312  0.22213  1.0000
  C   C62       1.0  0.22851  0.25173  0.22542  1.0000
  H   H77       1.0  0.48697  0.22788  0.15876  1.0000
  H   H78       1.0  0.17842  0.23002  0.23231  1.0000
  H   H79       1.0  0.23486  0.26697  0.22797  1.0000
  C   C63       1.0  0.22104  0.48622  0.23499  1.0000
  H   H80       1.0  0.34983  0.17414  0.21838  1.0000
  C   C64       1.0  0.33764  0.18621  0.22829  1.0000
  H   H81       1.0  0.31487  0.23081  0.22877  1.0000
  H   H82       1.0  0.32197  0.15070  0.21941  1.0000
  C   C65       1.0  0.30922  0.16159  0.23014  1.0000
  H   H83       1.0  0.19357  0.26303  0.23897  1.0000
  H   H84       1.0  0.18792  0.04996  0.23391  1.0000
  H   H85       1.0  0.20409  0.48077  0.23842  1.0000
  C   C66       1.0  0.29761  0.20057  0.24045  1.0000
  C   C67       1.0  0.24038  0.47006  0.23750  1.0000
  Fe  Fe7       1.0  0.27885  0.10250  0.24115  1.0000
  H   H86       1.0  0.19984  0.07227  0.24237  1.0000
  H   H87       1.0  0.23836  0.45227  0.24279  1.0000
  C   C68       1.0  0.25292  0.99959  0.24250  1.0000
  H   H88       1.0  0.02988  0.25720  0.24294  1.0000
  Fe  Fe8       1.0  0.26316  0.06749  0.27995  1.0000
  S   S13       1.0  0.29266  0.08836  0.27360  1.0000
  S   S14       1.0  0.26574  0.02981  0.29416  1.0000
  Fe  Fe9       1.0  0.22921  0.10715  0.26379  1.0000
  C   C69       1.0  0.15812  0.15242  0.26731  1.0000
  C   C70       1.0  0.32249  0.30522  0.25875  1.0000
  C   C71       1.0  0.17194  0.29361  0.32651  1.0000
  H   H89       1.0  0.46483  0.21735  0.31935  1.0000
  Fe  Fe10      1.0  0.26732  0.11603  0.28818  1.0000
  S   S15       1.0  0.27850  0.14478  0.30194  1.0000
  C   C72       1.0  0.02951  0.29507  0.29309  1.0000
  S   S16       1.0  0.23901  0.09391  0.29824  1.0000
  S   S17       1.0  0.14885  0.20559  0.30307  1.0000
  H   H90       1.0  0.45193  0.29014  0.30928  1.0000
  Fe  Fe11      1.0  0.29483  0.22796  0.41305  1.0000
  S   S18       1.0  0.26696  0.22371  0.39351  1.0000
  S   S19       1.0  0.32723  0.24251  0.39756  1.0000
  Fe  Fe12      1.0  0.27023  0.21016  0.45868  1.0000
  S   S20       1.0  0.23997  0.20418  0.44335  1.0000
  C   C73       1.0  0.13987  0.34375  0.28130  1.0000
  Fe  Fe13      1.0  0.26571  0.19021  0.41593  1.0000
  S   S21       1.0  0.25913  0.15778  0.40515  1.0000
  Fe  Fe14      1.0  0.24335  0.23797  0.42203  1.0000
  S   S22       1.0  0.21072  0.26058  0.41483  1.0000
  S   S23       1.0  0.29594  0.19308  0.43289  1.0000
  S   S24       1.0  0.27124  0.24551  0.43979  1.0000
  Fe  Fe15      1.0  0.38602  0.21960  0.28254  1.0000
  S   S25       1.0  0.38467  0.25721  0.28201  1.0000
  S   S26       1.0  0.37728  0.19489  0.31354  1.0000
  Fe  Fe16      1.0  0.21883  0.36763  0.28639  1.0000
  S   S27       1.0  0.19693  0.38980  0.31036  1.0000
  C   C74       1.0  0.33915  0.31469  0.26681  1.0000
  Fe  Fe17      1.0  0.26327  0.37751  0.29902  1.0000
  S   S28       1.0  0.24551  0.40029  0.32437  1.0000
  S   S29       1.0  0.30178  0.36899  0.29306  1.0000
  Fe  Fe18      1.0  0.22171  0.37378  0.33474  1.0000
  S   S30       1.0  0.20837  0.36336  0.37127  1.0000
  Fe  Fe19      1.0  0.22251  0.41476  0.29798  1.0000
  S   S31       1.0  0.20961  0.45258  0.29102  1.0000
  S   S32       1.0  0.24156  0.34966  0.31191  1.0000
  H   H91       1.0  0.30537  0.30005  0.31134  1.0000
  C   C75       1.0  0.22787  0.47309  0.29181  1.0000
  S   S33       1.0  0.19269  0.11820  0.25735  1.0000
  H   H92       1.0  0.14157  0.27813  0.34306  1.0000
  H   H93       1.0  0.28676  0.30865  0.25409  1.0000
  C   C76       1.0  0.25156  0.46688  0.29217  1.0000
  H   H94       1.0  0.12540  0.35362  0.29017  1.0000
  H   H95       1.0  0.25889  0.44914  0.29292  1.0000
  H   H96       1.0  0.21345  0.17229  0.24299  1.0000
  H   H97       1.0  0.35684  0.30652  0.26544  1.0000
  H   H98       1.0  0.19201  0.17658  0.30579  1.0000
  H   H99       1.0  0.06145  0.32096  0.29438  1.0000
  C   C77       1.0  0.17209  0.30031  0.36480  1.0000
  C   C78       1.0  0.34273  0.24751  0.48957  1.0000
  C   C79       1.0  0.21332  0.28906  0.40392  1.0000
  C   C80       1.0  0.19812  0.30610  0.41381  1.0000
  C   C81       1.0  0.19755  0.32885  0.40396  1.0000
  C   C82       1.0  0.21151  0.33470  0.38363  1.0000
  C   C83       1.0  0.22693  0.31770  0.37364  1.0000
  C   C84       1.0  0.22811  0.29486  0.38401  1.0000
  H   H100      1.0  0.18656  0.30168  0.42908  1.0000
  H   H101      1.0  0.18569  0.34192  0.41179  1.0000
  H   H102      1.0  0.23802  0.32220  0.35812  1.0000
  H   H103      1.0  0.23979  0.28170  0.37621  1.0000
  C   C85       1.0  0.34088  0.22945  0.37404  1.0000
  C   C86       1.0  0.33223  0.21123  0.36804  1.0000
  C   C87       1.0  0.34322  0.20095  0.34919  1.0000
  C   C88       1.0  0.36284  0.20887  0.33623  1.0000
  C   C89       1.0  0.37123  0.22739  0.34197  1.0000
  C   C90       1.0  0.36038  0.23754  0.36099  1.0000
  H   H104      1.0  0.31721  0.20485  0.37802  1.0000
  H   H105      1.0  0.33639  0.18692  0.34465  1.0000
  H   H106      1.0  0.38646  0.23348  0.33212  1.0000
  H   H107      1.0  0.36717  0.25159  0.36560  1.0000
  C   C91       1.0  0.26594  0.48374  0.29084  1.0000
  H   H108      1.0  0.27989  0.29826  0.33192  1.0000
  S   S34       1.0  0.25526  0.13114  0.25512  1.0000
  N   N6        1.0  0.16903  0.31137  0.34156  1.0000
  C   C92       1.0  0.29343  0.33602  0.27015  1.0000
  C   C93       1.0  0.14833  0.17190  0.27729  1.0000
  H   H109      1.0  0.15895  0.28890  0.37198  1.0000
  C   C94       1.0  0.31000  0.34543  0.27842  1.0000
  C   C95       1.0  0.27039  0.14917  0.33032  1.0000
  C   C96       1.0  0.27479  0.16926  0.33696  1.0000
  C   C97       1.0  0.27123  0.17216  0.35988  1.0000
  C   C98       1.0  0.26278  0.15517  0.37622  1.0000
  C   C99       1.0  0.25763  0.13544  0.36950  1.0000
  C   C100      1.0  0.26146  0.13240  0.34657  1.0000
  H   H110      1.0  0.28166  0.18234  0.32442  1.0000
  H   H111      1.0  0.27554  0.18727  0.36491  1.0000
  H   H112      1.0  0.25110  0.12224  0.38213  1.0000
  H   H113      1.0  0.25808  0.11684  0.34158  1.0000
  C   C101      1.0  0.18578  0.32800  0.33457  1.0000
  C   C102      1.0  0.19239  0.15046  0.28497  1.0000
  C   C103      1.0  0.18252  0.16988  0.29506  1.0000
  C   C104      1.0  0.16056  0.18078  0.29104  1.0000
  H   H114      1.0  0.20481  0.07231  0.28061  1.0000
  H   H115      1.0  0.15289  0.05613  0.26265  1.0000
  H   H116      1.0  0.20942  0.14227  0.28799  1.0000
  C   C105      1.0  0.18559  0.02292  0.27591  1.0000
  C   C106      1.0  0.32107  0.22822  0.46969  1.0000
  H   H117      1.0  0.13180  0.31401  0.34986  1.0000
  N   N7        1.0  0.20045  0.21222  0.36833  1.0000
  C   C107      1.0  0.20793  0.20171  0.39039  1.0000
  C   C108      1.0  0.20755  0.19508  0.35242  1.0000
  C   C109      1.0  0.21295  0.23200  0.35937  1.0000
  C   C110      1.0  0.17532  0.22004  0.37137  1.0000
  C   C111      1.0  0.15982  0.21278  0.35915  1.0000
  C   C112      1.0  0.16568  0.23574  0.38673  1.0000
  C   C113      1.0  0.13623  0.22072  0.36228  1.0000
  C   C114      1.0  0.14202  0.24343  0.38986  1.0000
  C   C115      1.0  0.12733  0.23595  0.37763  1.0000
  H   H118      1.0  0.19831  0.18728  0.39822  1.0000
  H   H119      1.0  0.22659  0.19488  0.38855  1.0000
  H   H120      1.0  0.20553  0.21401  0.40280  1.0000
  H   H121      1.0  0.19905  0.17951  0.35841  1.0000
  H   H122      1.0  0.22643  0.18924  0.35076  1.0000
  H   H123      1.0  0.20353  0.20212  0.33508  1.0000
  H   H124      1.0  0.21032  0.24463  0.37147  1.0000
  H   H125      1.0  0.23191  0.22668  0.35613  1.0000
  H   H126      1.0  0.20709  0.24097  0.34326  1.0000
  H   H127      1.0  0.16539  0.20100  0.34697  1.0000
  H   H128      1.0  0.17638  0.24207  0.39658  1.0000
  H   H129      1.0  0.12484  0.21498  0.35259  1.0000
  H   H130      1.0  0.13507  0.25511  0.40200  1.0000
  H   H131      1.0  0.10898  0.24188  0.38008  1.0000
  N   N8        1.0  0.30858  0.30771  0.34433  1.0000
  C   C116      1.0  0.31892  0.28383  0.35079  1.0000
  C   C117      1.0  0.29484  0.30778  0.32587  1.0000
  C   C118      1.0  0.32786  0.32116  0.33557  1.0000
  C   C119      1.0  0.29363  0.31797  0.36316  1.0000
  C   C120      1.0  0.28324  0.34104  0.35972  1.0000
  C   C121      1.0  0.28842  0.30553  0.38501  1.0000
  C   C122      1.0  0.26861  0.35101  0.37700  1.0000
  C   C123      1.0  0.27366  0.31569  0.40216  1.0000
  C   C124      1.0  0.26380  0.33837  0.39816  1.0000
  H   H132      1.0  0.30554  0.27231  0.35661  1.0000
  H   H133      1.0  0.02433  0.29341  0.31172  1.0000
  H   H134      1.0  0.32982  0.28264  0.36442  1.0000
  H   H135      1.0  0.43941  0.25299  0.30886  1.0000
  H   H136      1.0  0.13120  0.17984  0.27454  1.0000
  H   H137      1.0  0.28785  0.32532  0.31898  1.0000
  H   H138      1.0  0.33791  0.32242  0.34927  1.0000
  H   H139      1.0  0.33991  0.31346  0.32187  1.0000
  H   H140      1.0  0.32182  0.33881  0.32811  1.0000
  H   H141      1.0  0.28602  0.35151  0.34347  1.0000
  H   H142      1.0  0.29525  0.28784  0.38922  1.0000
  H   H143      1.0  0.26033  0.36847  0.37377  1.0000
  H   H144      1.0  0.26937  0.30579  0.41850  1.0000
  H   H145      1.0  0.25182  0.34604  0.41124  1.0000
  H   H146      1.0  0.03646  0.32900  0.31346  1.0000
  H   H147      1.0  0.31222  0.27340  0.46253  1.0000
  C   C125      1.0  0.19277  0.00696  0.26028  1.0000
  C   C126      1.0  0.47411  0.25912  0.25868  1.0000
  H   H148      1.0  0.37290  0.12607  0.29106  1.0000
  H   H149      1.0  0.16450  0.36529  0.28543  1.0000
  C   C127      1.0  0.25976  0.00976  0.27800  1.0000
  H   H150      1.0  0.32686  0.26427  0.43692  1.0000
  S   S35       1.0  0.36285  0.22334  0.25616  1.0000
  C   C128      1.0  0.01363  0.25281  0.25211  1.0000
  Fe  Fe20      1.0  0.12269  0.22853  0.28348  1.0000
  S   S36       1.0  0.44603  0.27266  0.25455  1.0000
  H   H151      1.0  0.27458  0.17570  0.25719  1.0000
  C   C129      1.0  0.50138  0.22529  0.26734  1.0000
  C   C130      1.0  0.17716  0.31876  0.25790  1.0000
  H   H152      1.0  0.27576  0.34416  0.27137  1.0000
  N   N9        1.0  0.33842  0.24405  0.46696  1.0000
  C   C131      1.0  0.15609  0.27758  0.32982  1.0000
  S   S37       1.0  0.10930  0.31452  0.27924  1.0000
  C   C132      1.0  0.01248  0.24294  0.27476  1.0000
  H   H153      1.0  0.50244  0.21819  0.32973  1.0000
  C   C133      1.0  0.04344  0.32986  0.29518  1.0000
  C   C134      1.0  0.18074  0.33760  0.26727  1.0000
  C   C135      1.0  0.13660  0.32399  0.27324  1.0000
  C   C136      1.0  0.15845  0.26064  0.31591  1.0000
  H   H154      1.0  0.34035  0.18167  0.24634  1.0000
  C   C137      1.0  0.17688  0.25875  0.29864  1.0000
  C   C138      1.0  0.18021  0.14179  0.27098  1.0000
  H   H155      1.0  0.25702  0.24067  0.27970  1.0000
  C   C139      1.0  0.19301  0.27392  0.29514  1.0000
  C   C140      1.0  0.17590  0.01430  0.29804  1.0000
  C   C141      1.0  0.05802  0.33019  0.24781  1.0000
  H   H156      1.0  0.25001  0.20078  0.28106  1.0000
  Fe  Fe21      1.0  0.36417  0.26061  0.25309  1.0000
  S   S38       1.0  0.41840  0.21500  0.25786  1.0000
  H   H157      1.0  0.14857  0.14570  0.25663  1.0000
  H   H158      1.0  0.17836  0.24571  0.28777  1.0000
  N   N10       1.0  0.34840  0.13402  0.32021  1.0000
  C   C142      1.0  0.37237  0.13050  0.30834  1.0000
  C   C143      1.0  0.33751  0.11360  0.31910  1.0000
  C   C144      1.0  0.33581  0.15410  0.30766  1.0000
  C   C145      1.0  0.34725  0.13797  0.34399  1.0000
  C   C146      1.0  0.36608  0.14429  0.35240  1.0000
  C   C147      1.0  0.32638  0.13710  0.35912  1.0000
  C   C148      1.0  0.36410  0.14900  0.37462  1.0000
  C   C149      1.0  0.32462  0.14178  0.38130  1.0000
  C   C150      1.0  0.34342  0.14775  0.38903  1.0000
  H   H159      1.0  0.38315  0.11652  0.31787  1.0000
  C   C151      1.0  0.19840  0.05371  0.24625  1.0000
  H   H160      1.0  0.38069  0.14629  0.30580  1.0000
  H   H161      1.0  0.34017  0.10893  0.30168  1.0000
  H   H162      1.0  0.31845  0.11639  0.32368  1.0000
  H   H163      1.0  0.34455  0.09861  0.33056  1.0000
  H   H164      1.0  0.34391  0.16970  0.30711  1.0000
  H   H165      1.0  0.33505  0.15156  0.28998  1.0000
  H   H166      1.0  0.31784  0.15781  0.31582  1.0000
  H   H167      1.0  0.38228  0.14658  0.34193  1.0000
  H   H168      1.0  0.31101  0.13332  0.35386  1.0000
  H   H169      1.0  0.37850  0.15434  0.38047  1.0000
  H   H170      1.0  0.30841  0.14115  0.39247  1.0000
  H   H171      1.0  0.34178  0.15182  0.40610  1.0000
  H   H172      1.0  0.35541  0.23232  0.43571  1.0000
  C   C152      1.0  0.46295  0.27460  0.31456  1.0000
  C   C153      1.0  0.27856  0.19288  0.25551  1.0000
  S   S39       1.0  0.20904  0.34400  0.26493  1.0000
  C   C154      1.0  0.49967  0.25551  0.32672  1.0000
  H   H173      1.0  0.14196  0.33165  0.32474  1.0000
  S   S40       1.0  0.09456  0.25313  0.29913  1.0000
  C   C155      1.0  0.47023  0.23360  0.32018  1.0000
  C   C156      1.0  0.47898  0.23545  0.26370  1.0000
  H   H174      1.0  0.01741  0.28631  0.28640  1.0000
  S   S41       1.0  0.32964  0.27993  0.24681  1.0000
  H   H175      1.0  0.48829  0.29078  0.25312  1.0000
  C   C157      1.0  0.21863  0.49624  0.29081  1.0000
  H   H176      1.0  0.19484  0.05179  0.30306  1.0000
  C   C158      1.0  0.15523  0.31184  0.26108  1.0000
  H   H177      1.0  0.18456  0.33679  0.31706  1.0000
  C   C159      1.0  0.35928  0.23429  0.45273  1.0000
  H   H178      1.0  0.36616  0.21696  0.46047  1.0000
  C   C160      1.0  0.19067  0.29116  0.30878  1.0000
  C   C161      1.0  0.33292  0.33492  0.27648  1.0000
  H   H179      1.0  0.20699  0.27288  0.28128  1.0000
  H   H180      1.0  0.34577  0.34226  0.28276  1.0000
  N   N11       1.0  0.18779  0.04747  0.26996  1.0000
  H   H181      1.0  0.14351  0.33900  0.35199  1.0000
  H   H182      1.0  0.18273  0.34161  0.34570  1.0000
  H   H183      1.0  0.18930  0.28987  0.36515  1.0000
  H   H184      1.0  0.14570  0.24906  0.31832  1.0000
  H   H185      1.0  0.20341  0.30276  0.30461  1.0000
  H   H186      1.0  0.20380  0.31975  0.33551  1.0000
  H   H187      1.0  0.16565  0.07976  0.26784  1.0000
  N   N12       1.0  0.02945  0.31914  0.28258  1.0000
  C   C162      1.0  0.26413  0.20726  0.26943  1.0000
  C   C163      1.0  0.16198  0.35036  0.27867  1.0000
  S   S42       1.0  0.24229  0.39386  0.27157  1.0000
  S   S43       1.0  0.08352  0.27360  0.24760  1.0000
  C   C164      1.0  0.45582  0.25365  0.31433  1.0000
  H   H188      1.0  0.33024  0.27670  0.33630  1.0000
  C   C165      1.0  0.16469  0.06120  0.27299  1.0000
  H   H189      1.0  0.19151  0.30913  0.24862  1.0000
  C   C166      1.0  0.14558  0.32448  0.34208  1.0000
  H   H190      1.0  0.17068  0.31313  0.37657  1.0000
  C   C167      1.0  0.25808  0.01557  0.25494  1.0000
  H   H191      1.0  0.01170  0.30190  0.25058  1.0000
  S   S44       1.0  0.03670  0.23840  0.28954  1.0000
  H   H192      1.0  0.17011  0.02537  0.31085  1.0000
  H   H193      1.0  0.34133  0.27894  0.45305  1.0000
  H   H194      1.0  0.48922  0.29229  0.32053  1.0000
  S   S45       1.0  0.13714  0.25542  0.25768  1.0000
  C   C168      1.0  0.26807  0.22965  0.26870  1.0000
  H   H195      1.0  0.04696  0.28515  0.28993  1.0000
  H   H196      1.0  0.31063  0.15422  0.24806  1.0000
  C   C169      1.0  0.02675  0.31017  0.24391  1.0000
  C   C170      1.0  0.49192  0.23437  0.32615  1.0000
  C   C171      1.0  0.29969  0.31594  0.26032  1.0000
  S   S46       1.0  0.10046  0.21858  0.26095  1.0000
  C   C172      1.0  0.32935  0.26612  0.45439  1.0000
  Fe  Fe22      1.0  0.41595  0.25311  0.25554  1.0000
  Fe  Fe23      1.0  0.07302  0.24530  0.27448  1.0000
  C   C173      1.0  0.49192  0.27246  0.25705  1.0000
  H   H197      1.0  0.37302  0.24551  0.44975  1.0000
  C   C174      1.0  0.20236  0.05406  0.28497  1.0000
  H   H198      1.0  0.28430  0.47878  0.29068  1.0000
  H   H199      1.0  0.15645  0.05938  0.29089  1.0000
  H   H200      1.0  0.21971  0.04374  0.28360  1.0000
  H   H201      1.0  0.46547  0.22497  0.26509  1.0000
  C   C175      1.0  0.28640  0.23781  0.25396  1.0000
  Fe  Fe24      1.0  0.10717  0.27940  0.27118  1.0000
  C   C176      1.0  0.00550  0.33105  0.28561  1.0000
  C   C177      1.0  0.03814  0.32002  0.25814  1.0000
  H   H202      1.0  0.04392  0.34818  0.28846  1.0000
  H   H203      1.0  0.15281  0.29716  0.25403  1.0000
  H   H204      1.0  0.06820  0.33769  0.25721  1.0000
  H   H205      1.0  0.26108  0.03228  0.24654  1.0000
  H   H206      1.0  0.37929  0.23281  0.48726  1.0000
  C   C178      1.0  0.48444  0.27560  0.32081  1.0000
  H   H207      1.0  0.31841  0.22395  0.45313  1.0000
  H   H208      1.0  0.32626  0.21194  0.48051  1.0000
  S   S47       1.0  0.25141  0.07978  0.24606  1.0000
  H   H209      1.0  0.28967  0.25516  0.25368  1.0000
  H   H210      1.0  0.30395  0.23555  0.47771  1.0000
  H   H211      1.0  0.21621  0.04461  0.24300  1.0000
  H   H212      1.0  0.20068  0.01165  0.24316  1.0000
  S   S48       1.0  0.13617  0.24373  0.70272  1.0000
  H   H213      1.0  0.20009  0.33285  0.71611  1.0000
  Fe  Fe25      1.0  0.26210  0.23579  0.65124  1.0000
  S   S49       1.0  0.25233  0.26902  0.62989  1.0000
  S   S50       1.0  0.24090  0.21011  0.67205  1.0000
  Fe  Fe26      1.0  0.31299  0.23760  0.63942  1.0000
  S   S51       1.0  0.30833  0.27061  0.61613  1.0000
  S   S52       1.0  0.34475  0.21610  0.65098  1.0000
  Fe  Fe27      1.0  0.28038  0.28134  0.64354  1.0000
  S   S53       1.0  0.27788  0.31697  0.65160  1.0000
  Fe  Fe28      1.0  0.28065  0.25596  0.60379  1.0000
  S   S54       1.0  0.27208  0.26485  0.56787  1.0000
  S   S55       1.0  0.28719  0.24956  0.66769  1.0000
  S   S56       1.0  0.28825  0.22169  0.62427  1.0000
  S   S57       1.0  0.26280  0.45315  0.73988  1.0000
  H   H214      1.0  0.17200  0.18140  0.66840  1.0000
  N   N13       1.0  0.17489  0.29592  0.71890  1.0000
  H   H215      1.0  0.14013  0.21158  0.65933  1.0000
  H   H216      1.0  0.38452  0.23891  0.52473  1.0000
  C   C179      1.0  0.27040  0.11740  0.69178  1.0000
  H   H217      1.0  0.15498  0.28575  0.69620  1.0000
  H   H218      1.0  0.26096  0.17207  0.70157  1.0000
  C   C180      1.0  0.19902  0.20816  0.61904  1.0000
  H   H219      1.0  0.18279  0.07321  0.72951  1.0000
  S   S58       1.0  0.40263  0.26551  0.70303  1.0000
  C   C181      1.0  0.18023  0.22521  0.61433  1.0000
  H   H220      1.0  0.21389  0.01179  0.73356  1.0000
  H   H221      1.0  0.20774  0.22280  0.57311  1.0000
  H   H222      1.0  0.35651  0.33085  0.71924  1.0000
  C   C182      1.0  0.30634  0.12963  0.69584  1.0000
  C   C183      1.0  0.27382  0.21669  0.51565  1.0000
  H   H223      1.0  0.37335  0.14150  0.73342  1.0000
  Fe  Fe29      1.0  0.40986  0.24736  0.73716  1.0000
  N   N14       1.0  0.30740  0.17005  0.70320  1.0000
  H   H224      1.0  0.24041  0.48297  0.68291  1.0000
  H   H225      1.0  0.47160  0.22429  0.72013  1.0000
  H   H226      1.0  0.33757  0.31218  0.68454  1.0000
  H   H227      1.0  0.18264  0.25923  0.72118  1.0000
  H   H228      1.0  0.30290  0.09569  0.69068  1.0000
  H   H229      1.0  0.23478  0.20023  0.72702  1.0000
  C   C184      1.0  0.36013  0.23010  0.66589  1.0000
  C   C185      1.0  0.37341  0.21735  0.68196  1.0000
  C   C186      1.0  0.38580  0.22822  0.69404  1.0000
  C   C187      1.0  0.38572  0.25181  0.68942  1.0000
  C   C188      1.0  0.37258  0.26456  0.67322  1.0000
  C   C189      1.0  0.35942  0.25379  0.66180  1.0000
  H   H230      1.0  0.37429  0.19902  0.68498  1.0000
  H   H231      1.0  0.39601  0.21824  0.70636  1.0000
  H   H232      1.0  0.37259  0.28279  0.66948  1.0000
  H   H233      1.0  0.34929  0.26373  0.64934  1.0000
  C   C190      1.0  0.26647  0.32304  0.67888  1.0000
  C   C191      1.0  0.26613  0.34512  0.68379  1.0000
  C   C192      1.0  0.25835  0.35041  0.70569  1.0000
  C   C193      1.0  0.25054  0.33371  0.72270  1.0000
  C   C194      1.0  0.25059  0.31162  0.71783  1.0000
  C   C195      1.0  0.25873  0.30622  0.69593  1.0000
  H   H234      1.0  0.27216  0.35815  0.67063  1.0000
  H   H235      1.0  0.25805  0.36754  0.70925  1.0000
  H   H236      1.0  0.50437  0.27505  0.67397  1.0000
  H   H237      1.0  0.25913  0.28911  0.69224  1.0000
  C   C196      1.0  0.27246  0.24569  0.54844  1.0000
  C   C197      1.0  0.28116  0.22263  0.55283  1.0000
  C   C198      1.0  0.28175  0.20817  0.53649  1.0000
  C   C199      1.0  0.17423  0.19331  0.65298  1.0000
  N   N15       1.0  0.49155  0.24930  0.70008  1.0000
  C   C200      1.0  0.26425  0.25412  0.52774  1.0000
  H   H238      1.0  0.28779  0.21602  0.56860  1.0000
  H   H239      1.0  0.28874  0.19038  0.53983  1.0000
  H   H240      1.0  0.25745  0.27196  0.52428  1.0000
  C   C201      1.0  0.16490  0.23382  0.69324  1.0000
  C   C202      1.0  0.17570  0.21339  0.70375  1.0000
  C   C203      1.0  0.19896  0.20605  0.69679  1.0000
  C   C204      1.0  0.21166  0.21946  0.67977  1.0000
  C   C205      1.0  0.20086  0.23980  0.66904  1.0000
  C   C206      1.0  0.17734  0.24674  0.67548  1.0000
  C   C207      1.0  0.32628  0.28595  0.72661  1.0000
  H   H241      1.0  0.20708  0.18998  0.70471  1.0000
  H   H242      1.0  0.21047  0.25004  0.65564  1.0000
  H   H243      1.0  0.16888  0.26224  0.66688  1.0000
  Fe  Fe30      1.0  0.12753  0.23324  0.74016  1.0000
  C   C208      1.0  0.30125  0.17297  0.72738  1.0000
  C   C209      1.0  0.32496  0.32024  0.69762  1.0000
  H   H244      1.0  0.21107  0.29603  0.70681  1.0000
  H   H245      1.0  0.19597  0.28401  0.68937  1.0000
  H   H246      1.0  0.34164  0.17920  0.70079  1.0000
  H   H247      1.0  0.16597  0.20297  0.71691  1.0000
  H   H248      1.0  0.24466  0.29865  0.73106  1.0000
  H   H249      1.0  0.47727  0.22193  0.69025  1.0000
  H   H250      1.0  0.27225  0.00020  0.71797  1.0000
  H   H251      1.0  0.32450  0.12461  0.69677  1.0000
  H   H252      1.0  0.30733  0.31835  0.69492  1.0000
  H   H253      1.0  0.32638  0.33880  0.69417  1.0000
  H   H254      1.0  0.49525  0.27927  0.71444  1.0000
  C   C210      1.0  0.17891  0.27296  0.73217  1.0000
  H   H255      1.0  0.13839  0.29390  0.72139  1.0000
  H   H256      1.0  0.23527  0.20641  0.56914  1.0000
  H   H257      1.0  0.31124  0.20519  0.69056  1.0000
  C   C211      1.0  0.36454  0.24083  0.49739  1.0000
  C   C212      1.0  0.32294  0.27259  0.71026  1.0000
  H   H258      1.0  0.01960  0.22479  0.73294  1.0000
  H   H259      1.0  0.24033  0.14244  0.69498  1.0000
  H   H260      1.0  0.21989  0.24497  0.59842  1.0000
  H   H261      1.0  0.35222  0.25685  0.55007  1.0000
  C   C213      1.0  0.23085  0.22939  0.60522  1.0000
  H   H262      1.0  0.30267  0.18988  0.67090  1.0000
  C   C214      1.0  0.23905  0.18876  0.61092  1.0000
  C   C215      1.0  0.29513  0.15197  0.69862  1.0000
  H   H263      1.0  0.46624  0.27503  0.71439  1.0000
  H   H264      1.0  0.33988  0.14995  0.70978  1.0000
  C   C216      1.0  0.15621  0.21032  0.64790  1.0000
  H   H265      1.0  0.23308  0.17215  0.61067  1.0000
  H   H266      1.0  0.14523  0.23969  0.62496  1.0000
  H   H267      1.0  0.48336  0.25716  0.73404  1.0000
  C   C217      1.0  0.30055  0.19198  0.68914  1.0000
  H   H268      1.0  0.31408  0.26881  0.53739  1.0000
  H   H269      1.0  0.36593  0.30308  0.71061  1.0000
  C   C218      1.0  0.19434  0.29771  0.70020  1.0000
  C   C219      1.0  0.32213  0.24919  0.71582  1.0000
  H   H270      1.0  0.14899  0.31533  0.69968  1.0000
  H   H271      1.0  0.24821  0.22979  0.59515  1.0000
  H   H272      1.0  0.31105  0.18543  0.73210  1.0000
  H   H273      1.0  0.28246  0.19945  0.69406  1.0000
  H   H274      1.0  0.20881  0.17909  0.64442  1.0000
  H   H275      1.0  0.45616  0.24389  0.70055  1.0000
  C   C220      1.0  0.21847  0.20736  0.58047  1.0000
  C   C221      1.0  0.26493  0.23971  0.51138  1.0000
  H   H276      1.0  0.32159  0.27965  0.69285  1.0000
  H   H277      1.0  0.18186  0.23827  0.59986  1.0000
  H   H278      1.0  0.33839  0.16175  0.68043  1.0000
  H   H279      1.0  0.19301  0.36226  0.74028  1.0000
  C   C222      1.0  0.15343  0.29787  0.70863  1.0000
  N   N16       1.0  0.22147  0.20820  0.60424  1.0000
  N   N17       1.0  0.32941  0.31029  0.72090  1.0000
  C   C223      1.0  0.29406  0.11270  0.69238  1.0000
  C   C224      1.0  0.36783  0.24423  0.51898  1.0000
  H   H280      1.0  0.26080  0.10412  0.68971  1.0000
  C   C225      1.0  0.15919  0.22622  0.62859  1.0000
  C   C226      1.0  0.32818  0.26103  0.52615  1.0000
  C   C227      1.0  0.34970  0.25432  0.53331  1.0000
  H   H281      1.0  0.23242  0.23090  0.62299  1.0000
  C   C228      1.0  0.25887  0.13902  0.69474  1.0000
  H   H282      1.0  0.31422  0.34263  0.73176  1.0000
  H   H283      1.0  0.47542  0.27067  0.67312  1.0000
  C   C229      1.0  0.35350  0.31268  0.72273  1.0000
  C   C230      1.0  0.27092  0.15596  0.69845  1.0000
  S   S59       1.0  0.28288  0.38888  0.73717  1.0000
  H   H284      1.0  0.25556  0.18912  0.59921  1.0000
  H   H285      1.0  0.19287  0.14924  0.72437  1.0000
  H   H286      1.0  0.24346  0.18932  0.62807  1.0000
  C   C231      1.0  0.33289  0.16487  0.69829  1.0000
  C   C232      1.0  0.19540  0.19220  0.63892  1.0000
  H   H287      1.0  0.21024  0.19227  0.57919  1.0000
  C   C233      1.0  0.22680  0.05075  0.74191  1.0000
  H   H288      1.0  0.19197  0.31414  0.68877  1.0000
  H   H289      1.0  0.29543  0.32108  0.73752  1.0000
  S   S60       1.0  0.22635  0.11077  0.73709  1.0000
  S   S61       1.0  0.27573  0.19814  0.49527  1.0000
  C   C234      1.0  0.47347  0.23411  0.70285  1.0000
  C   C235      1.0  0.31361  0.32403  0.73682  1.0000
  H   H290      1.0  0.25857  0.24640  0.49549  1.0000
  C   C236      1.0  0.32463  0.25756  0.50472  1.0000
  H   H291      1.0  0.49908  0.24996  0.66405  1.0000
  C   C237      1.0  0.48385  0.26592  0.71637  1.0000
  H   H292      1.0  0.22145  0.06273  0.72708  1.0000
  C   C238      1.0  0.49269  0.26180  0.67680  1.0000
  C   C239      1.0  0.32416  0.23846  0.73772  1.0000
  H   H293      1.0  0.32066  0.23926  0.70277  1.0000
  C   C240      1.0  0.17227  0.31366  0.73392  1.0000
  H   H294      1.0  0.30745  0.26263  0.50022  1.0000
  C   C241      1.0  0.18608  0.33162  0.72985  1.0000
  H   H295      1.0  0.28256  0.17888  0.73168  1.0000
  H   H296      1.0  0.19467  0.03604  0.72386  1.0000
  H   H297      1.0  0.24166  0.03874  0.73532  1.0000
  C   C242      1.0  0.19997  0.02527  0.73939  1.0000
  H   H298      1.0  0.30514  0.15653  0.73841  1.0000
  H   H299      1.0  0.27972  0.49606  0.73308  1.0000
  H   H300      1.0  0.19354  0.27159  0.74200  1.0000
  H   H301      1.0  0.28315  0.02504  0.74267  1.0000
  H   H302      1.0  0.35813  0.30593  0.73985  1.0000
  H   H303      1.0  0.32428  0.22021  0.74178  1.0000
  H   H304      1.0  0.15081  0.10092  0.74276  1.0000
  C   C243      1.0  0.18839  0.14317  0.74211  1.0000
  Fe  Fe31      1.0  0.28267  0.05615  0.78152  1.0000
  C   C244      1.0  0.23646  0.30482  0.81240  1.0000
  Fe  Fe32      1.0  0.26710  0.09837  0.80517  1.0000
  S   S62       1.0  0.27061  0.12261  0.77294  1.0000
  S   S63       1.0  0.25310  0.10897  0.83927  1.0000
  H   H305      1.0  0.22052  0.23164  0.74974  1.0000
  C   C245      1.0  0.37458  0.09787  0.79555  1.0000
  C   C246      1.0  0.26279  0.30227  0.98848  1.0000
  H   H306      1.0  0.14381  0.30054  0.75725  1.0000
  S   S64       1.0  0.24797  0.07514  0.79201  1.0000
  S   S65       1.0  0.30158  0.07752  0.79775  1.0000
  Fe  Fe33      1.0  0.27210  0.21396  0.88748  1.0000
  S   S66       1.0  0.24145  0.20745  0.91323  1.0000
  S   S67       1.0  0.29226  0.19249  0.86193  1.0000
  Fe  Fe34      1.0  0.27260  0.26122  0.89922  1.0000
  S   S68       1.0  0.24153  0.25943  0.92573  1.0000
  S   S69       1.0  0.29624  0.28798  0.88945  1.0000
  Fe  Fe35      1.0  0.25808  0.22377  0.93652  1.0000
  S   S70       1.0  0.26538  0.20741  0.97173  1.0000
  Fe  Fe36      1.0  0.22743  0.24341  0.90024  1.0000
  S   S71       1.0  0.19054  0.25094  0.89307  1.0000
  S   S72       1.0  0.29007  0.22683  0.91160  1.0000
  S   S73       1.0  0.25713  0.24874  0.87298  1.0000
  Fe  Fe37      1.0  0.09066  0.23618  0.78079  1.0000
  C   C247      1.0  0.34028  0.15966  0.78961  1.0000
  C   C248      1.0  0.38810  0.31444  0.77313  1.0000
  Fe  Fe38      1.0  0.12907  0.19653  0.78052  1.0000
  C   C249      1.0  0.18214  0.34881  0.74368  1.0000
  S   S74       1.0  0.13925  0.15977  0.79385  1.0000
  Fe  Fe39      1.0  0.14015  0.24359  0.78400  1.0000
  S   S75       1.0  0.16763  0.26161  0.79283  1.0000
  S   S76       1.0  0.28722  0.01776  0.79058  1.0000
  S   S77       1.0  0.11584  0.22118  0.80541  1.0000
  H   H307      1.0  0.20285  0.29734  0.84660  1.0000
  S   S78       1.0  0.48373  0.21036  0.76483  1.0000
  C   C250      1.0  0.34464  0.13629  0.75956  1.0000
  C   C251      1.0  0.22080  0.21414  0.75774  1.0000
  C   C252      1.0  0.16457  0.34864  0.76192  1.0000
  C   C253      1.0  0.38904  0.12687  0.81052  1.0000
  Fe  Fe40      1.0  0.26504  0.38480  0.80168  1.0000
  S   S79       1.0  0.25223  0.38094  0.83889  1.0000
  S   S80       1.0  0.29082  0.40737  0.78357  1.0000
  S   S81       1.0  0.43356  0.26084  0.75572  1.0000
  C   C254      1.0  0.34624  0.33735  0.79169  1.0000
  H   H308      1.0  0.34966  0.31242  0.82129  1.0000
  H   H309      1.0  0.33003  0.34611  0.79881  1.0000
  N   N18       1.0  0.20782  0.03862  0.75468  1.0000
  C   C255      1.0  0.16174  0.07172  0.79357  1.0000
  H   H310      1.0  0.05611  0.18825  0.80236  1.0000
  H   H311      1.0  0.22192  0.14853  0.82262  1.0000
  H   H312      1.0  0.37542  0.08749  0.78221  1.0000
  C   C256      1.0  0.03059  0.24500  0.77920  1.0000
  H   H313      1.0  0.22825  0.29515  0.78131  1.0000
  S   S82       1.0  0.05328  0.24747  0.79411  1.0000
  H   H314      1.0  0.23444  0.16015  0.74502  1.0000
  C   C257      1.0  0.28353  0.31337  0.87511  1.0000
  C   C258      1.0  0.29655  0.32493  0.85680  1.0000
  C   C259      1.0  0.28675  0.34541  0.84528  1.0000
  C   C260      1.0  0.26432  0.35494  0.85275  1.0000
  C   C261      1.0  0.25134  0.34347  0.87122  1.0000
  C   C262      1.0  0.26076  0.32240  0.88207  1.0000
  H   H315      1.0  0.31415  0.31798  0.85136  1.0000
  H   H316      1.0  0.29674  0.35412  0.83094  1.0000
  H   H317      1.0  0.23391  0.35076  0.87691  1.0000
  H   H318      1.0  0.25057  0.31340  0.89607  1.0000
  C   C263      1.0  0.18476  0.25139  0.86523  1.0000
  C   C264      1.0  0.20215  0.25315  0.84676  1.0000
  C   C265      1.0  0.19669  0.25613  0.82463  1.0000
  C   C266      1.0  0.17396  0.25640  0.82081  1.0000
  C   C267      1.0  0.15671  0.25340  0.83921  1.0000
  C   C268      1.0  0.16206  0.25127  0.86138  1.0000
  H   H319      1.0  0.21965  0.25326  0.84941  1.0000
  H   H320      1.0  0.21014  0.25828  0.81046  1.0000
  H   H321      1.0  0.13910  0.25360  0.83640  1.0000
  H   H322      1.0  0.14850  0.24984  0.87558  1.0000
  S   S83       1.0  0.23934  0.39671  0.77730  1.0000
  H   H323      1.0  0.40341  0.11467  0.77901  1.0000
  Fe  Fe41      1.0  0.26666  0.41691  0.75761  1.0000
  Fe  Fe42      1.0  0.39662  0.21123  0.77644  1.0000
  H   H324      1.0  0.32229  0.26149  0.98278  1.0000
  H   H325      1.0  0.13756  0.33065  0.78105  1.0000
  H   H326      1.0  0.22058  0.15122  0.78475  1.0000
  C   C269      1.0  0.15092  0.08765  0.77785  1.0000
  S   S84       1.0  0.42007  0.22102  0.79803  1.0000
  H   H327      1.0  0.27067  0.30411  0.93101  1.0000
  C   C270      1.0  0.19608  0.11670  0.77551  1.0000
  C   C271      1.0  0.17660  0.12748  0.78790  1.0000
  C   C272      1.0  0.16331  0.14651  0.77765  1.0000
  C   C273      1.0  0.35733  0.31828  0.80436  1.0000
  C   C274      1.0  0.32974  0.38870  0.82736  1.0000
  H   H328      1.0  0.20611  0.10202  0.78363  1.0000
  H   H329      1.0  0.17182  0.12106  0.80551  1.0000
  S   S85       1.0  0.39103  0.28169  0.80983  1.0000
  C   C275      1.0  0.39037  0.11315  0.79372  1.0000
  C   C276      1.0  0.26108  0.13431  0.84450  1.0000
  C   C277      1.0  0.27429  0.14739  0.82770  1.0000
  C   C278      1.0  0.28261  0.16624  0.83288  1.0000
  C   C279      1.0  0.27769  0.17207  0.85480  1.0000
  C   C280      1.0  0.26333  0.15985  0.87126  1.0000
  C   C281      1.0  0.25506  0.14091  0.86609  1.0000
  H   H330      1.0  0.27873  0.14259  0.81094  1.0000
  H   H331      1.0  0.29334  0.17600  0.82003  1.0000
  H   H332      1.0  0.25954  0.16427  0.88825  1.0000
  H   H333      1.0  0.24466  0.13090  0.87908  1.0000
  C   C282      1.0  0.34351  0.40104  0.81055  1.0000
  C   C283      1.0  0.33759  0.42456  0.80514  1.0000
  N   N19       1.0  0.33611  0.10984  0.85055  1.0000
  C   C284      1.0  0.32835  0.13254  0.85821  1.0000
  C   C285      1.0  0.31545  0.10162  0.84523  1.0000
  C   C286      1.0  0.34510  0.09388  0.86943  1.0000
  C   C287      1.0  0.35465  0.11096  0.83099  1.0000
  C   C288      1.0  0.35715  0.09649  0.81402  1.0000
  C   C289      1.0  0.37164  0.12570  0.82903  1.0000
  H   H334      1.0  0.32496  0.14588  0.84368  1.0000
  H   H335      1.0  0.31215  0.13283  0.87041  1.0000
  H   H336      1.0  0.34106  0.13797  0.86718  1.0000
  H   H337      1.0  0.31842  0.08320  0.84348  1.0000
  H   H338      1.0  0.30981  0.11134  0.82933  1.0000
  H   H339      1.0  0.30047  0.10342  0.85880  1.0000
  H   H340      1.0  0.33176  0.09243  0.88461  1.0000
  H   H341      1.0  0.35071  0.07651  0.86458  1.0000
  H   H342      1.0  0.36033  0.09952  0.87446  1.0000
  H   H343      1.0  0.34557  0.08426  0.81438  1.0000
  H   H344      1.0  0.37148  0.13687  0.84137  1.0000
  N   N20       1.0  0.29664  0.28244  0.96392  1.0000
  H   H345      1.0  0.33136  0.28561  0.94772  1.0000
  C   C290      1.0  0.32907  0.47357  0.81427  1.0000
  C   C291      1.0  0.32674  0.25115  0.75430  1.0000
  C   C292      1.0  0.27415  0.29716  0.96695  1.0000
  Fe  Fe43      1.0  0.30512  0.37797  0.76464  1.0000
  C   C293      1.0  0.22879  0.19645  0.74493  1.0000
  C   C294      1.0  0.30994  0.39980  0.83874  1.0000
  C   C295      1.0  0.50381  0.22771  0.76885  1.0000
  H   H346      1.0  0.40419  0.30560  0.76582  1.0000
  C   C296      1.0  0.03768  0.18771  0.80623  1.0000
  C   C297      1.0  0.29445  0.26311  0.95224  1.0000
  H   H347      1.0  0.23565  0.24905  0.98217  1.0000
  H   H348      1.0  0.19224  0.30192  0.80594  1.0000
  S   S86       1.0  0.15537  0.21765  0.76112  1.0000
  S   S87       1.0  0.33607  0.11468  0.74737  1.0000
  N   N21       1.0  0.20319  0.18221  0.81606  1.0000
  C   C298      1.0  0.20406  0.15761  0.82498  1.0000
  C   C299      1.0  0.21684  0.19225  0.82954  1.0000
  C   C300      1.0  0.17876  0.19269  0.81986  1.0000
  C   C301      1.0  0.21223  0.18667  0.79169  1.0000
  C   C302      1.0  0.21267  0.20939  0.78075  1.0000
  C   C303      1.0  0.22051  0.16902  0.77811  1.0000
  S   S88       1.0  0.10223  0.20966  0.75750  1.0000
  Fe  Fe44      1.0  0.44571  0.22396  0.76648  1.0000
  C   C304      1.0  0.15107  0.33102  0.76668  1.0000
  H   H349      1.0  0.20415  0.01222  0.78330  1.0000
  H   H350      1.0  0.19784  0.15476  0.84344  1.0000
  H   H351      1.0  0.23540  0.18516  0.82667  1.0000
  H   H352      1.0  0.21087  0.18880  0.84803  1.0000
  H   H353      1.0  0.21558  0.21101  0.82533  1.0000
  H   H354      1.0  0.16811  0.18593  0.80955  1.0000
  H   H355      1.0  0.17110  0.18930  0.83790  1.0000
  H   H356      1.0  0.17660  0.21144  0.81522  1.0000
  H   H357      1.0  0.20630  0.22369  0.78988  1.0000
  H   H358      1.0  0.29896  0.39008  0.85152  1.0000
  C   C305      1.0  0.36390  0.14674  0.74899  1.0000
  C   C306      1.0  0.25897  0.47471  0.75721  1.0000
  H   H359      1.0  0.35862  0.39221  0.80135  1.0000
  C   C307      1.0  0.15481  0.31378  0.75293  1.0000
  C   C308      1.0  0.18031  0.05583  0.78641  1.0000
  H   H360      1.0  0.31037  0.25052  0.95125  1.0000
  C   C309      1.0  0.27521  0.28762  0.82067  1.0000
  H   H361      1.0  0.20529  0.35684  0.81769  1.0000
  C   C310      1.0  0.18846  0.05538  0.76302  1.0000
  H   H362      1.0  0.18842  0.32591  0.84618  1.0000
  H   H363      1.0  0.33136  0.46987  0.83248  1.0000
  H   H364      1.0  0.21659  0.31925  0.85377  1.0000
  C   C311      1.0  0.35979  0.16976  0.77936  1.0000
  C   C312      1.0  0.24587  0.47243  0.77859  1.0000
  H   H365      1.0  0.15888  0.16902  0.74670  1.0000
  C   C313      1.0  0.20196  0.12441  0.75259  1.0000
  H   H366      1.0  0.33142  0.16437  0.80553  1.0000
  Fe  Fe45      1.0  0.25419  0.09767  0.75904  1.0000
  Fe  Fe46      1.0  0.30372  0.10004  0.76425  1.0000
  C   C314      1.0  0.37758  0.33407  0.76092  1.0000
  C   C315      1.0  0.24212  0.49040  0.79164  1.0000
  S   S89       1.0  0.36989  0.18878  0.79373  1.0000
  H   H367      1.0  0.20198  0.32531  0.78587  1.0000
  C   C316      1.0  0.24062  0.29329  0.79302  1.0000
  H   H368      1.0  0.28008  0.25387  0.96105  1.0000
  H   H369      1.0  0.23316  0.06102  0.75278  1.0000
  H   H370      1.0  0.18504  0.01665  0.74808  1.0000
  H   H371      1.0  0.29088  0.26870  0.93464  1.0000
  H   H372      1.0  0.34607  0.46884  0.80424  1.0000
  S   S90       1.0  0.28169  0.35435  0.78518  1.0000
  S   S91       1.0  0.28760  0.07693  0.74717  1.0000
  H   H373      1.0  0.28895  0.46890  0.84014  1.0000
  H   H374      1.0  0.31544  0.31116  0.95754  1.0000
  H   H375      1.0  0.23159  0.48875  0.80800  1.0000
  C   C317      1.0  0.16926  0.15446  0.75475  1.0000
  H   H376      1.0  0.30955  0.30196  0.93246  1.0000
  H   H377      1.0  0.33426  0.37043  0.83133  1.0000
  H   H378      1.0  0.23349  0.32810  0.93541  1.0000
  Fe  Fe47      1.0  0.40614  0.25691  0.78555  1.0000
  C   C318      1.0  0.37138  0.16357  0.75878  1.0000
  C   C319      1.0  0.37807  0.30658  0.79488  1.0000
  C   C320      1.0  0.19673  0.31949  0.80412  1.0000
  H   H379      1.0  0.18813  0.04430  0.79954  1.0000
  H   H380      1.0  0.29470  0.26566  0.79756  1.0000
  C   C321      1.0  0.31400  0.29587  0.94984  1.0000
  C   C322      1.0  0.35640  0.34520  0.76994  1.0000
  H   H381      1.0  0.23817  0.45705  0.78483  1.0000
  H   H382      1.0  0.22782  0.34880  0.79565  1.0000
  H   H383      1.0  0.31778  0.13516  0.78796  1.0000
  C   C323      1.0  0.02495  0.18659  0.78908  1.0000
  H   H384      1.0  0.19293  0.14925  0.81664  1.0000
  C   C324      1.0  0.25455  0.30171  0.82588  1.0000
  H   H385      1.0  0.25303  0.31052  0.84036  1.0000
  N   N22       1.0  0.34537  0.23903  0.84554  1.0000
  C   C325      1.0  0.34186  0.26433  0.84244  1.0000
  C   C326      1.0  0.36780  0.23143  0.83252  1.0000
  C   C327      1.0  0.32679  0.23178  0.83566  1.0000
  C   C328      1.0  0.34546  0.22863  0.86945  1.0000
  C   C329      1.0  0.34584  0.20474  0.87552  1.0000
  C   C330      1.0  0.34667  0.24142  0.88702  1.0000
  C   C331      1.0  0.34688  0.19438  0.89782  1.0000
  C   C332      1.0  0.34807  0.23083  0.90921  1.0000
  C   C333      1.0  0.34806  0.20739  0.91462  1.0000
  H   H386      1.0  0.32539  0.27107  0.85220  1.0000
  H   H387      1.0  0.35628  0.27126  0.84758  1.0000
  H   H388      1.0  0.34141  0.27163  0.82436  1.0000
  H   H389      1.0  0.36859  0.23883  0.81442  1.0000
  H   H390      1.0  0.37112  0.21260  0.83300  1.0000
  H   H391      1.0  0.38231  0.23677  0.83915  1.0000
  H   H392      1.0  0.30978  0.23534  0.84619  1.0000
  H   H393      1.0  0.32546  0.24060  0.81821  1.0000
  H   H394      1.0  0.32984  0.21334  0.83395  1.0000
  H   H395      1.0  0.34523  0.19388  0.86305  1.0000
  H   H396      1.0  0.34635  0.25968  0.88412  1.0000
  H   H397      1.0  0.34654  0.17620  0.90209  1.0000
  H   H398      1.0  0.34886  0.24095  0.92231  1.0000
  H   H399      1.0  0.34866  0.19931  0.93192  1.0000
  N   N23       1.0  0.21509  0.32057  0.81788  1.0000
  C   C334      1.0  0.20542  0.31551  0.84208  1.0000
  C   C335      1.0  0.22067  0.34419  0.81364  1.0000
  C   C336      1.0  0.27853  0.00841  0.74976  1.0000
  S   S92       1.0  0.24067  0.34024  0.75011  1.0000
  H   H400      1.0  0.13699  0.10039  0.78351  1.0000
  H   H401      1.0  0.18057  0.33071  0.80924  1.0000
  H   H402      1.0  0.23381  0.34646  0.82396  1.0000
  H   H403      1.0  0.40111  0.13908  0.80879  1.0000
  C   C337      1.0  0.27863  0.27642  0.80169  1.0000
  H   H404      1.0  0.28412  0.48929  0.81590  1.0000
  C   C338      1.0  0.33260  0.14310  0.77970  1.0000
  C   C339      1.0  0.26143  0.27933  0.78784  1.0000
  S   S93       1.0  0.38129  0.24713  0.76594  1.0000
  H   H405      1.0  0.47863  0.25464  0.78089  1.0000
  S   S94       1.0  0.42365  0.21046  0.74576  1.0000
  C   C340      1.0  0.26300  0.30706  0.94791  1.0000
  C   C341      1.0  0.03478  0.23557  0.75897  1.0000
  H   H406      1.0  0.26430  0.27098  0.77281  1.0000
  H   H407      1.0  0.32585  0.46151  0.77420  1.0000
  S   S95       1.0  0.11397  0.26096  0.76157  1.0000
  H   H408      1.0  0.32458  0.49238  0.81009  1.0000
  H   H409      1.0  0.28863  0.28564  0.83138  1.0000
  C   C342      1.0  0.24170  0.32088  0.95025  1.0000
  H   H410      1.0  0.03660  0.19051  0.84126  1.0000
  H   H411      1.0  0.34883  0.43332  0.79192  1.0000
  C   C343      1.0  0.28864  0.47071  0.82159  1.0000
  C   C344      1.0  0.31730  0.43640  0.81611  1.0000
  H   H412      1.0  0.16158  0.36208  0.77250  1.0000
  H   H413      1.0  0.28778  0.43054  0.84241  1.0000
  H   H414      1.0  0.03357  0.18627  0.77190  1.0000
  N   N24       1.0  0.31102  0.46120  0.80948  1.0000
  H   H415      1.0  0.27421  0.46232  0.81841  1.0000
  C   C345      1.0  0.15873  0.08792  0.75487  1.0000
  Fe  Fe48      1.0  0.25797  0.36769  0.75932  1.0000
  C   C346      1.0  0.32796  0.27452  0.74887  1.0000
  H   H416      1.0  0.38651  0.17120  0.75079  1.0000
  H   H417      1.0  0.15597  0.07204  0.81147  1.0000
  H   H418      1.0  0.32889  0.24257  0.77117  1.0000
  C   C347      1.0  0.01622  0.23258  0.74830  1.0000
  C   C348      1.0  0.30367  0.42327  0.83327  1.0000
  C   C349      1.0  0.22865  0.17395  0.75509  1.0000
  C   C350      1.0  0.21747  0.02211  0.77302  1.0000
  C   C351      1.0  0.24146  0.31610  0.99063  1.0000
  C   C352      1.0  0.26896  0.49466  0.74931  1.0000
  C   C353      1.0  0.00774  0.25219  0.78815  1.0000
  S   S96       1.0  0.34279  0.36845  0.75335  1.0000
  H   H419      1.0  0.21432  0.33594  0.97336  1.0000
  H   H420      1.0  0.33119  0.28344  0.76199  1.0000
  H   H421      1.0  0.50143  0.22239  0.82283  1.0000
  C   C354      1.0  0.17716  0.07204  0.74749  1.0000
  H   H422      1.0  0.16365  0.26883  0.74442  1.0000
  H   H423      1.0  0.22535  0.03071  0.78434  1.0000
  C   C355      1.0  0.02659  0.18907  0.82815  1.0000
  H   H424      1.0  0.05229  0.23017  0.75177  1.0000
  C   C356      1.0  0.30927  0.46604  0.78492  1.0000
  H   H425      1.0  0.30373  0.48445  0.77955  1.0000
  H   H426      1.0  0.31821  0.32040  0.75427  1.0000
  H   H427      1.0  0.29648  0.45635  0.78048  1.0000
  H   H428      1.0  0.23136  0.00929  0.76616  1.0000
  C   C357      1.0  0.27909  0.00074  0.77277  1.0000
  C   C358      1.0  0.49679  0.24866  0.77695  1.0000
  H   H429      1.0  0.38559  0.34028  0.74420  1.0000
  C   C359      1.0  0.30556  0.27271  0.98555  1.0000
  C   C360      1.0  0.23092  0.32534  0.97158  1.0000
  C   C361      1.0  0.30979  0.64458  0.21273  1.0000
  H   H430      1.0  0.35402  0.73205  0.17513  1.0000
  H   H431      1.0  0.27448  0.65950  0.21236  1.0000
  C   C362      1.0  0.35048  0.90302  0.21438  1.0000
  H   H432      1.0  0.16250  0.84916  0.22392  1.0000
  Fe  Fe49      1.0  0.26277  0.87795  0.21986  1.0000
  S   S97       1.0  0.27077  0.86851  0.18449  1.0000
  H   H433      1.0  0.28183  0.50418  0.22842  1.0000
  Fe  Fe50      1.0  0.26400  0.75628  0.13864  1.0000
  S   S98       1.0  0.24386  0.77638  0.11189  1.0000
  S   S99       1.0  0.27550  0.76569  0.16932  1.0000
  Fe  Fe51      1.0  0.25994  0.71086  0.12456  1.0000
  S   S100      1.0  0.23855  0.72648  0.09710  1.0000
  S   S101      1.0  0.27462  0.67395  0.13122  1.0000
  Fe  Fe52      1.0  0.26349  0.75198  0.08855  1.0000
  S   S102      1.0  0.27796  0.76311  0.05209  1.0000
  Fe  Fe53      1.0  0.22045  0.74959  0.12196  1.0000
  S   S103      1.0  0.18273  0.76250  0.12568  1.0000
  S   S104      1.0  0.28638  0.73469  0.11437  1.0000
  S   S105      1.0  0.23901  0.73118  0.15042  1.0000
  H   H434      1.0  0.28361  0.69708  0.19506  1.0000
  H   H435      1.0  0.05655  0.70450  0.24021  1.0000
  C   C363      1.0  0.29474  0.70036  0.06752  1.0000
  H   H436      1.0  0.46789  0.75601  0.22207  1.0000
  C   C364      1.0  0.08138  0.67341  0.17855  1.0000
  C   C365      1.0  0.22335  0.50934  0.22942  1.0000
  S   S106      1.0  0.23023  0.62090  0.22252  1.0000
  C   C366      1.0  0.27132  0.67151  0.06710  1.0000
  H   H437      1.0  0.09821  0.66426  0.17343  1.0000
  H   H438      1.0  0.20520  0.78206  0.15855  1.0000
  H   H439      1.0  0.02074  0.70440  0.19781  1.0000
  C   C367      1.0  0.26249  0.65961  0.15696  1.0000
  C   C368      1.0  0.27459  0.63946  0.16687  1.0000
  C   C369      1.0  0.26503  0.62771  0.18732  1.0000
  C   C370      1.0  0.24316  0.63591  0.19768  1.0000
  C   C371      1.0  0.23098  0.65591  0.18766  1.0000
  C   C372      1.0  0.24072  0.66788  0.16747  1.0000
  H   H440      1.0  0.29145  0.63303  0.15881  1.0000
  H   H441      1.0  0.27446  0.61223  0.19493  1.0000
  H   H442      1.0  0.21395  0.66216  0.19553  1.0000
  H   H443      1.0  0.23105  0.68311  0.15974  1.0000
  C   C373      1.0  0.16837  0.74751  0.14958  1.0000
  C   C374      1.0  0.17730  0.72525  0.15769  1.0000
  C   C375      1.0  0.16608  0.71371  0.17733  1.0000
  C   C376      1.0  0.14651  0.72476  0.18935  1.0000
  C   C377      1.0  0.13771  0.74708  0.18131  1.0000
  C   C378      1.0  0.14830  0.75822  0.16111  1.0000
  H   H444      1.0  0.19261  0.71675  0.14864  1.0000
  H   H445      1.0  0.17284  0.69638  0.18345  1.0000
  H   H446      1.0  0.12263  0.75572  0.19051  1.0000
  H   H447      1.0  0.14129  0.77540  0.15479  1.0000
  C   C379      1.0  0.27735  0.76101  0.00699  1.0000
  C   C380      1.0  0.26796  0.75397  0.02936  1.0000
  C   C381      1.0  0.25051  0.74011  0.03324  1.0000
  C   C382      1.0  0.24207  0.73385  0.01502  1.0000
  C   C383      1.0  0.18726  0.77849  0.01195  1.0000
  H   H448      1.0  0.24339  0.73427  0.05024  1.0000
  H   H449      1.0  0.22840  0.72330  0.01821  1.0000
  C   C384      1.0  0.07968  0.69280  0.18913  1.0000
  C   C385      1.0  0.03995  0.67714  0.18188  1.0000
  C   C386      1.0  0.29232  0.66244  0.20840  1.0000
  C   C387      1.0  0.27179  0.83985  0.18056  1.0000
  C   C388      1.0  0.27039  0.83471  0.15900  1.0000
  C   C389      1.0  0.27081  0.81206  0.15544  1.0000
  C   C390      1.0  0.27326  0.79440  0.17334  1.0000
  C   C391      1.0  0.27472  0.79949  0.19488  1.0000
  C   C392      1.0  0.27377  0.82216  0.19854  1.0000
  H   H450      1.0  0.26882  0.84834  0.14505  1.0000
  H   H451      1.0  0.26979  0.80826  0.13875  1.0000
  H   H452      1.0  0.27672  0.78586  0.20875  1.0000
  H   H453      1.0  0.27504  0.82593  0.21513  1.0000
  H   H454      1.0  0.30558  0.62786  0.22028  1.0000
  H   H455      1.0  0.35638  0.67195  0.19668  1.0000
  H   H456      1.0  0.03259  0.75251  0.22133  1.0000
  H   H457      1.0  0.15838  0.81036  0.19573  1.0000
  C   C393      1.0  0.07073  0.74210  0.19376  1.0000
  C   C394      1.0  0.19414  0.78213  0.21529  1.0000
  H   H458      1.0  0.32194  0.73535  0.15409  1.0000
  C   C395      1.0  0.03803  0.69659  0.19246  1.0000
  H   H459      1.0  0.18982  0.86537  0.24187  1.0000
  C   C396      1.0  0.32087  0.68868  0.19431  1.0000
  C   C397      1.0  0.33272  0.64837  0.20798  1.0000
  H   H460      1.0  0.31741  0.74621  0.19303  1.0000
  H   H461      1.0  0.34617  0.63452  0.21216  1.0000
  C   C398      1.0  0.16573  0.84222  0.24095  1.0000
  H   H462      1.0  0.29925  0.71847  0.16303  1.0000
  S   S107      1.0  0.24334  0.95820  0.23621  1.0000
  H   H463      1.0  0.20046  0.75942  0.18072  1.0000
  H   H464      1.0  0.37517  0.87277  0.21868  1.0000
  N   N25       1.0  0.19325  0.78231  0.05144  1.0000
  C   C399      1.0  0.17185  0.79813  0.05653  1.0000
  C   C400      1.0  0.18849  0.75861  0.05977  1.0000
  C   C401      1.0  0.21068  0.78714  0.06455  1.0000
  C   C402      1.0  0.20067  0.78510  0.02668  1.0000
  H   H465      1.0  0.29095  0.77166  0.00378  1.0000
  H   H466      1.0  0.35011  0.90204  0.19668  1.0000
  C   C403      1.0  0.46978  0.78865  0.23131  1.0000
  N   N26       1.0  0.32598  0.71190  0.18467  1.0000
  H   H467      1.0  0.16655  0.79937  0.16935  1.0000
  H   H468      1.0  0.15753  0.79473  0.04824  1.0000
  H   H469      1.0  0.16577  0.79661  0.07508  1.0000
  H   H470      1.0  0.17466  0.81613  0.05052  1.0000
  H   H471      1.0  0.17308  0.75460  0.05371  1.0000
  H   H472      1.0  0.18505  0.75539  0.07859  1.0000
  H   H473      1.0  0.20334  0.74605  0.05424  1.0000
  H   H474      1.0  0.21389  0.80520  0.06062  1.0000
  H   H475      1.0  0.20494  0.78423  0.08310  1.0000
  H   H476      1.0  0.22735  0.77595  0.06124  1.0000
  H   H477      1.0  0.08944  0.73555  0.19171  1.0000
  H   H478      1.0  0.06541  0.74682  0.17661  1.0000
  H   H479      1.0  0.22515  0.77420  0.17871  1.0000
  H   H480      1.0  0.09557  0.69784  0.19209  1.0000
  C   C404      1.0  0.48418  0.80435  0.23297  1.0000
  N   N27       1.0  0.29302  0.68049  0.05637  1.0000
  C   C405      1.0  0.31253  0.66256  0.06121  1.0000
  C   C406      1.0  0.29411  0.68715  0.03157  1.0000
  H   H481      1.0  0.23810  0.56971  0.19483  1.0000
  C   C407      1.0  0.06590  0.71800  0.22960  1.0000
  N   N28       1.0  0.05667  0.72532  0.20784  1.0000
  C   C408      1.0  0.05795  0.70514  0.19623  1.0000
  C   C409      1.0  0.47915  0.76831  0.22310  1.0000
  H   H482      1.0  0.31152  0.70697  0.06251  1.0000
  H   H483      1.0  0.27062  0.66743  0.08582  1.0000
  H   H484      1.0  0.32947  0.66866  0.05505  1.0000
  H   H485      1.0  0.31205  0.65681  0.07974  1.0000
  H   H486      1.0  0.31209  0.64740  0.05287  1.0000
  H   H487      1.0  0.35659  0.83048  0.22936  1.0000
  H   H488      1.0  0.22249  0.85504  0.20888  1.0000
  H   H489      1.0  0.15996  0.78053  0.19483  1.0000
  S   S108      1.0  0.13319  0.71055  0.21435  1.0000
  C   C410      1.0  0.20654  0.77641  0.17676  1.0000
  N   N29       1.0  0.19293  0.79270  0.19147  1.0000
  C   C411      1.0  0.31256  0.69827  0.01914  1.0000
  H   H490      1.0  0.17153  0.77135  0.01838  1.0000
  H   H491      1.0  0.20773  0.52122  0.22845  1.0000
  C   C412      1.0  0.20167  0.81497  0.18584  1.0000
  C   C413      1.0  0.20168  0.82711  0.16366  1.0000
  C   C414      1.0  0.20944  0.82566  0.20206  1.0000
  C   C415      1.0  0.20892  0.84861  0.15812  1.0000
  C   C416      1.0  0.21637  0.84726  0.19637  1.0000
  C   C417      1.0  0.21613  0.85871  0.17449  1.0000
  H   H492      1.0  0.02452  0.67084  0.17935  1.0000
  H   H493      1.0  0.29457  0.72949  0.20112  1.0000
  H   H494      1.0  0.21692  0.55115  0.20333  1.0000
  H   H495      1.0  0.32007  0.96574  0.23070  1.0000
  C   C418      1.0  0.16848  0.79582  0.18761  1.0000
  H   H496      1.0  0.31847  0.72424  0.21687  1.0000
  C   C419      1.0  0.27144  0.54650  0.21546  1.0000
  C   C420      1.0  0.27755  0.68231  0.01898  1.0000
  C   C421      1.0  0.33832  0.67011  0.19914  1.0000
  H   H497      1.0  0.19592  0.82007  0.15050  1.0000
  S   S109      1.0  0.22830  0.89762  0.23056  1.0000
  H   H498      1.0  0.20907  0.85748  0.14104  1.0000
  C   C422      1.0  0.33641  0.92046  0.22483  1.0000
  H   H499      1.0  0.22214  0.87522  0.17015  1.0000
  H   H500      1.0  0.28111  0.71465  0.06331  1.0000
  C   C423      1.0  0.06156  0.66562  0.17489  1.0000
  H   H501      1.0  0.25596  0.68425  0.06389  1.0000
  H   H502      1.0  0.35771  0.71014  0.19844  1.0000
  C   C424      1.0  0.31356  0.72859  0.19958  1.0000
  C   C425      1.0  0.50293  0.76342  0.21669  1.0000
  C   C426      1.0  0.31392  0.70477  0.99575  1.0000
  H   H503      1.0  0.36126  0.70314  0.16989  1.0000
  H   H504      1.0  0.26963  0.65538  0.06103  1.0000
  H   H505      1.0  0.32660  0.70557  0.15051  1.0000
  H   H506      1.0  0.29283  0.69605  0.08626  1.0000
  C   C427      1.0  0.29772  0.68403  0.19889  1.0000
  C   C428      1.0  0.31818  0.71804  0.16210  1.0000
  H   H507      1.0  0.21218  0.77906  0.21918  1.0000
  C   C429      1.0  0.35087  0.71428  0.18190  1.0000
  H   H508      1.0  0.32563  0.93241  0.21432  1.0000
  C   C430      1.0  0.27925  0.68869  0.99555  1.0000
  H   H509      1.0  0.26284  0.67404  0.02677  1.0000
  H   H510      1.0  0.08445  0.71091  0.22728  1.0000
  H   H511      1.0  0.21012  0.81787  0.21934  1.0000
  H   H512      1.0  0.06293  0.65047  0.16685  1.0000
  C   C431      1.0  0.03288  0.73727  0.21279  1.0000
  H   H513      1.0  0.18750  0.76539  0.21894  1.0000
  C   C432      1.0  0.36462  0.88653  0.22670  1.0000
  H   H514      1.0  0.27234  0.56507  0.21053  1.0000
  N   N30       1.0  0.24723  0.54161  0.22039  1.0000
  C   C433      1.0  0.22083  0.79483  0.01641  1.0000
  S   S110      1.0  0.09838  0.76779  0.23503  1.0000
  C   C434      1.0  0.24527  0.51698  0.22614  1.0000
  H   H515      1.0  0.02485  0.74329  0.19711  1.0000
  H   H516      1.0  0.45132  0.79217  0.23649  1.0000
  H   H517      1.0  0.23237  0.80014  0.02606  1.0000
  C   C435      1.0  0.23584  0.55143  0.20016  1.0000
  H   H518      1.0  0.20242  0.71836  0.20231  1.0000
  H   H519      1.0  0.24302  0.54197  0.18565  1.0000
  H   H520      1.0  0.17681  0.70016  0.23246  1.0000
  S   S111      1.0  0.28309  0.90150  0.23132  1.0000
  C   C436      1.0  0.20922  0.70953  0.21743  1.0000
  C   C437      1.0  0.23255  0.70845  0.21905  1.0000
  H   H521      1.0  0.24374  0.71664  0.20527  1.0000
  H   H522      1.0  0.28124  0.53767  0.20134  1.0000
  H   H523      1.0  0.23600  0.57233  0.23560  1.0000
  H   H524      1.0  0.06902  0.75802  0.20155  1.0000
  H   H525      1.0  0.32600  0.70224  0.02739  1.0000
  H   H526      1.0  0.02162  0.72618  0.22461  1.0000
  H   H527      1.0  0.18329  0.79297  0.22734  1.0000
  H   H528      1.0  0.47678  0.82014  0.23945  1.0000
  H   H529      1.0  0.28055  0.54126  0.23065  1.0000
  C   C438      1.0  0.19462  0.69883  0.23497  1.0000
  H   H530      1.0  0.25965  0.69529  0.23938  1.0000
  S   S112      1.0  0.40929  0.74567  0.23865  1.0000
  H   H531      1.0  0.29565  0.94995  0.23721  1.0000
  H   H532      1.0  0.06425  0.73245  0.23949  1.0000
  C   C439      1.0  0.24142  0.69654  0.23822  1.0000
  C   C440      1.0  0.23575  0.55362  0.23959  1.0000
  C   C441      1.0  0.26463  0.50005  0.22931  1.0000
  Fe  Fe54      1.0  0.12033  0.73410  0.24030  1.0000
  S   S113      1.0  0.13556  0.81292  0.23905  1.0000
  C   C442      1.0  0.22723  0.79727  0.99296  1.0000
  S   S114      1.0  0.27609  0.52738  0.28635  1.0000
  H   H533      1.0  0.37505  0.87386  0.25929  1.0000
  S   S115      1.0  0.30573  0.86792  0.28856  1.0000
  S   S116      1.0  0.24672  0.89873  0.27868  1.0000
  Fe  Fe55      1.0  0.12205  0.78010  0.25454  1.0000
  S   S117      1.0  0.14591  0.74724  0.25657  1.0000
  H   H534      1.0  0.20030  0.50115  0.29070  1.0000
  Fe  Fe56      1.0  0.07877  0.75676  0.26893  1.0000
  S   S118      1.0  0.09914  0.72181  0.27263  1.0000
  S   S119      1.0  0.03990  0.76638  0.27124  1.0000
  Fe  Fe57      1.0  0.12318  0.73755  0.28884  1.0000
  S   S120      1.0  0.14109  0.71516  0.31616  1.0000
  C   C443      1.0  0.22784  0.78741  0.28651  1.0000
  S   S121      1.0  0.10099  0.77175  0.28832  1.0000
  C   C444      1.0  0.23298  0.51308  0.28991  1.0000
  Fe  Fe58      1.0  0.22213  0.74432  0.39291  1.0000
  S   S122      1.0  0.22184  0.71300  0.41868  1.0000
  S   S123      1.0  0.19529  0.76397  0.37213  1.0000
  Fe  Fe59      1.0  0.27004  0.75119  0.39870  1.0000
  S   S124      1.0  0.27456  0.72068  0.42516  1.0000
  S   S125      1.0  0.29560  0.77467  0.38197  1.0000
  Fe  Fe60      1.0  0.25813  0.70346  0.40280  1.0000
  S   S126      1.0  0.27364  0.66809  0.39646  1.0000
  Fe  Fe61      1.0  0.23809  0.73227  0.43968  1.0000
  S   S127      1.0  0.25698  0.73285  0.37499  1.0000
  S   S128      1.0  0.23506  0.76463  0.41525  1.0000
  Fe  Fe62      1.0  0.24981  0.61161  0.29966  1.0000
  S   S129      1.0  0.28214  0.58708  0.30373  1.0000
  S   S130      1.0  0.22706  0.63359  0.32345  1.0000
  Fe  Fe63      1.0  0.29630  0.60625  0.27084  1.0000
  Fe  Fe64      1.0  0.26855  0.56611  0.28220  1.0000
  H   H535      1.0  0.18501  0.63986  0.28840  1.0000
  S   S131      1.0  0.26494  0.63214  0.26822  1.0000
  S   S132      1.0  0.23472  0.58895  0.28139  1.0000
  C   C445      1.0  0.20307  0.68662  0.25483  1.0000
  S   S133      1.0  0.42521  0.75182  0.28731  1.0000
  C   C446      1.0  0.49344  0.71869  0.25911  1.0000
  H   H536      1.0  0.25347  0.80868  0.27318  1.0000
  S   S134      1.0  0.40660  0.70433  0.28087  1.0000
  Fe  Fe65      1.0  0.22983  0.87476  0.26372  1.0000
  Fe  Fe66      1.0  0.39675  0.73148  0.30349  1.0000
  S   S135      1.0  0.38759  0.71903  0.34029  1.0000
  Fe  Fe67      1.0  0.43317  0.72636  0.26269  1.0000
  H   H537      1.0  0.21375  0.64476  0.27783  1.0000
  S   S136      1.0  0.37028  0.75195  0.28325  1.0000
  H   H538      1.0  0.29313  0.92039  0.27035  1.0000
  H   H539      1.0  0.22463  0.79758  0.34410  1.0000
  C   C447      1.0  0.49086  0.73524  0.27352  1.0000
  S   S137      1.0  0.33281  0.61428  0.26643  1.0000
  H   H540      1.0  0.47407  0.74433  0.27835  1.0000
  H   H541      1.0  0.28223  0.63350  0.47969  1.0000
  C   C448      1.0  0.22785  0.66137  0.48943  1.0000
  C   C449      1.0  0.27666  0.85186  0.34897  1.0000
  H   H542      1.0  0.43582  0.71958  0.34677  1.0000
  C   C450      1.0  0.33584  0.95187  0.27071  1.0000
  H   H543      1.0  0.32064  0.78203  0.31209  1.0000
  H   H544      1.0  0.29296  0.94271  0.28695  1.0000
  S   S138      1.0  0.35198  0.71665  0.24599  1.0000
  H   H545      1.0  0.22557  0.53076  0.28956  1.0000
  C   C451      1.0  0.32172  0.75944  0.37126  1.0000
  C   C452      1.0  0.32694  0.73614  0.37847  1.0000
  C   C453      1.0  0.34756  0.72398  0.36935  1.0000
  C   C454      1.0  0.36255  0.73487  0.35233  1.0000
  C   C455      1.0  0.35725  0.75813  0.34488  1.0000
  C   C456      1.0  0.33711  0.77052  0.35475  1.0000
  H   H546      1.0  0.31525  0.72752  0.39130  1.0000
  H   H547      1.0  0.35175  0.70604  0.37530  1.0000
  H   H548      1.0  0.36893  0.76668  0.33191  1.0000
  H   H549      1.0  0.33326  0.78861  0.34933  1.0000
  C   C457      1.0  0.26076  0.65860  0.37608  1.0000
  C   C458      1.0  0.27176  0.63973  0.36572  1.0000
  C   C459      1.0  0.26182  0.63224  0.34911  1.0000
  C   C460      1.0  0.24055  0.64327  0.34326  1.0000
  C   C461      1.0  0.22964  0.66222  0.35354  1.0000
  C   C462      1.0  0.23986  0.67007  0.36971  1.0000
  H   H550      1.0  0.28796  0.63085  0.37057  1.0000
  H   H551      1.0  0.27027  0.61754  0.34132  1.0000
  H   H552      1.0  0.21317  0.67079  0.34910  1.0000
  H   H553      1.0  0.23130  0.68469  0.37757  1.0000
  H   H554      1.0  0.25737  0.75845  0.47502  1.0000
  C   C463      1.0  0.15698  0.72875  0.33087  1.0000
  C   C464      1.0  0.17183  0.71562  0.34537  1.0000
  C   C465      1.0  0.18413  0.72621  0.35782  1.0000
  C   C466      1.0  0.18125  0.74997  0.35604  1.0000
  C   C467      1.0  0.16673  0.76307  0.34123  1.0000
  C   C468      1.0  0.15479  0.75250  0.32850  1.0000
  H   H555      1.0  0.17350  0.69722  0.34729  1.0000
  H   H556      1.0  0.19526  0.71601  0.36924  1.0000
  H   H557      1.0  0.16441  0.78145  0.33981  1.0000
  H   H558      1.0  0.14335  0.76271  0.31737  1.0000
  H   H559      1.0  0.38175  0.67440  0.25728  1.0000
  C   C469      1.0  0.02586  0.72397  0.27393  1.0000
  C   C470      1.0  0.19563  0.64967  0.27451  1.0000
  C   C471      1.0  0.30015  0.79412  0.27614  1.0000
  H   H560      1.0  0.04244  0.71675  0.27905  1.0000
  C   C472      1.0  0.32905  0.84880  0.27833  1.0000
  C   C473      1.0  0.15440  0.82417  0.25272  1.0000
  H   H561      1.0  0.32546  0.96638  0.27875  1.0000
  C   C474      1.0  0.36400  0.82299  0.28484  1.0000
  C   C475      1.0  0.34433  0.83713  0.29305  1.0000
  H   H562      1.0  0.37613  0.81451  0.29613  1.0000
  H   H563      1.0  0.34125  0.83940  0.31073  1.0000
  C   C476      1.0  0.18517  0.84285  0.27319  1.0000
  C   C477      1.0  0.17372  0.82488  0.28508  1.0000
  C   C478      1.0  0.15861  0.81530  0.27474  1.0000
  H   H564      1.0  0.25624  0.62633  0.47251  1.0000
  H   H565      1.0  0.24460  0.54761  0.25476  1.0000
  C   C479      1.0  0.31963  0.66067  0.25912  1.0000
  H   H566      1.0  0.17658  0.81826  0.30227  1.0000
  H   H567      1.0  0.14988  0.80139  0.28394  1.0000
  H   H568      1.0  0.24723  0.72666  0.27487  1.0000
  H   H569      1.0  0.42920  0.69344  0.32597  1.0000
  H   H570      1.0  0.18700  0.70041  0.29479  1.0000
  C   C480      1.0  0.25160  0.97146  0.27588  1.0000
  C   C481      1.0  0.24954  0.79417  0.28539  1.0000
  S   S139      1.0  0.28522  0.58374  0.24939  1.0000
  C   C482      1.0  0.34665  0.68826  0.25322  1.0000
  H   H571      1.0  0.27350  0.81235  0.32532  1.0000
  H   H572      1.0  0.24884  0.95455  0.28409  1.0000
  H   H573      1.0  0.29953  0.82037  0.30880  1.0000
  H   H574      1.0  0.31267  0.91700  0.29060  1.0000
  N   N31       1.0  0.31712  0.69158  0.32311  1.0000
  C   C483      1.0  0.33901  0.70128  0.31511  1.0000
  C   C484      1.0  0.30988  0.69568  0.34690  1.0000
  C   C485      1.0  0.32213  0.66664  0.32250  1.0000
  C   C486      1.0  0.29829  0.70148  0.30957  1.0000
  C   C487      1.0  0.30084  0.71888  0.29078  1.0000
  C   C488      1.0  0.27642  0.69371  0.31512  1.0000
  C   C489      1.0  0.28259  0.72775  0.27842  1.0000
  C   C490      1.0  0.25828  0.70272  0.30276  1.0000
  C   C491      1.0  0.26136  0.71968  0.28439  1.0000
  H   H575      1.0  0.33684  0.71988  0.31600  1.0000
  H   H576      1.0  0.35273  0.69345  0.32572  1.0000
  H   H577      1.0  0.34597  0.69821  0.29749  1.0000
  H   H578      1.0  0.30593  0.71422  0.34818  1.0000
  H   H579      1.0  0.32342  0.68824  0.35780  1.0000
  H   H580      1.0  0.29426  0.68788  0.35467  1.0000
  H   H581      1.0  0.33680  0.65866  0.33179  1.0000
  H   H582      1.0  0.30727  0.65758  0.33038  1.0000
  H   H583      1.0  0.32665  0.66281  0.30479  1.0000
  H   H584      1.0  0.31694  0.72555  0.28497  1.0000
  H   H585      1.0  0.27318  0.68046  0.32911  1.0000
  N   N32       1.0  0.28775  0.79134  0.29958  1.0000
  C   C492      1.0  0.35042  0.90441  0.26029  1.0000
  H   H586      1.0  0.21743  0.55092  0.24452  1.0000
  C   C493      1.0  0.25662  0.98757  0.28840  1.0000
  H   H587      1.0  0.20315  0.82835  0.39271  1.0000
  H   H588      1.0  0.27580  0.66838  0.45166  1.0000
  H   H589      1.0  0.48803  0.75979  0.34971  1.0000
  H   H590      1.0  0.21700  0.82055  0.32254  1.0000
  C   C494      1.0  0.26057  0.86239  0.33483  1.0000
  S   S140      1.0  0.20411  0.85449  0.28639  1.0000
  C   C495      1.0  0.23255  0.83727  0.35446  1.0000
  H   H591      1.0  0.01504  0.69133  0.27361  1.0000
  H   H592      1.0  0.29120  0.80780  0.26471  1.0000
  Fe  Fe68      1.0  0.27959  0.87891  0.26459  1.0000
  C   C496      1.0  0.22697  0.68573  0.25583  1.0000
  H   H593      1.0  0.28504  0.74077  0.26396  1.0000
  H   H594      1.0  0.17861  0.67404  0.30964  1.0000
  H   H595      1.0  0.20810  0.67592  0.30047  1.0000
  H   H596      1.0  0.49743  0.66156  0.33478  1.0000
  H   H597      1.0  0.43460  0.68029  0.35400  1.0000
  H   H598      1.0  0.15270  0.67046  0.28580  1.0000
  H   H599      1.0  0.29356  0.85733  0.34668  1.0000
  H   H600      1.0  0.24177  0.69642  0.30758  1.0000
  H   H601      1.0  0.26506  0.87605  0.32163  1.0000
  C   C497      1.0  0.02004  0.74762  0.27004  1.0000
  H   H602      1.0  0.28404  0.82522  0.37617  1.0000
  H   H603      1.0  0.34426  0.94054  0.28433  1.0000
  H   H604      1.0  0.27307  0.82687  0.29705  1.0000
  N   N33       1.0  0.46505  0.68258  0.32926  1.0000
  C   C498      1.0  0.47865  0.66238  0.34073  1.0000
  C   C499      1.0  0.44029  0.67985  0.33559  1.0000
  C   C500      1.0  0.47055  0.68277  0.30449  1.0000
  C   C501      1.0  0.47093  0.70375  0.33526  1.0000
  H   H605      1.0  0.47603  0.66252  0.35936  1.0000
  H   H606      1.0  0.44703  0.75373  0.35569  1.0000
  C   C502      1.0  0.49421  0.70802  0.33173  1.0000
  C   C503      1.0  0.30435  0.92959  0.27774  1.0000
  H   H607      1.0  0.16642  0.98497  0.32120  1.0000
  H   H608      1.0  0.17933  0.95809  0.29315  1.0000
  H   H609      1.0  0.47369  0.64617  0.33750  1.0000
  H   H610      1.0  0.27973  0.69614  0.47214  1.0000
  H   H611      1.0  0.19499  0.80640  0.34052  1.0000
  C   C504      1.0  0.27126  0.83386  0.36554  1.0000
  C   C505      1.0  0.23605  0.75843  0.31772  1.0000
  H   H612      1.0  0.48913  0.68350  0.29828  1.0000
  H   H613      1.0  0.46600  0.66745  0.29888  1.0000
  H   H614      1.0  0.46073  0.69794  0.29551  1.0000
  C   C506      1.0  0.36440  0.67066  0.25790  1.0000
  H   H615      1.0  0.23049  0.74488  0.33062  1.0000
  H   H616      1.0  0.31046  0.69668  0.25018  1.0000
  N   N34       1.0  0.32136  0.93987  0.25992  1.0000
  H   H617      1.0  0.21596  0.79646  0.27514  1.0000
  H   H618      1.0  0.17393  0.84231  0.35514  1.0000
  C   C507      1.0  0.16340  0.67902  0.27102  1.0000
  H   H619      1.0  0.20402  0.76472  0.30386  1.0000
  C   C508      1.0  0.46026  0.74081  0.34921  1.0000
  H   H620      1.0  0.30254  0.77800  0.26864  1.0000
  H   H621      1.0  0.19270  0.85510  0.33315  1.0000
  C   C509      1.0  0.48331  0.74425  0.34587  1.0000
  C   C510      1.0  0.19126  0.84805  0.35136  1.0000
  H   H622      1.0  0.30679  0.75846  0.30925  1.0000
  N   N35       1.0  0.25317  0.65969  0.48261  1.0000
  N   N36       1.0  0.18831  0.67455  0.27351  1.0000
  C   C511      1.0  0.19071  0.68158  0.29541  1.0000
  C   C512      1.0  0.45403  0.72092  0.34400  1.0000
  Fe  Fe69      1.0  0.38197  0.72630  0.25929  1.0000
  H   H623      1.0  0.29664  0.77512  0.33221  1.0000
  C   C513      1.0  0.18128  0.85137  0.25105  1.0000
  C   C514      1.0  0.35988  0.64798  0.26236  1.0000
  H   H624      1.0  0.43647  0.66348  0.33159  1.0000
  H   H625      1.0  0.19114  0.86214  0.36133  1.0000
  C   C515      1.0  0.30353  0.77595  0.31389  1.0000
  H   H626      1.0  0.31759  0.79914  0.27558  1.0000
  C   C516      1.0  0.20270  0.81749  0.37954  1.0000
  H   H627      1.0  0.23468  0.67626  0.27014  1.0000
  Fe  Fe70      1.0  0.25230  0.60790  0.25011  1.0000
  C   C517      1.0  0.26540  0.78299  0.30023  1.0000
  H   H628      1.0  0.24697  0.81196  0.38091  1.0000
  C   C518      1.0  0.23899  0.85503  0.33719  1.0000
  C   C519      1.0  0.17368  0.99119  0.30415  1.0000
  C   C520      1.0  0.22107  0.76961  0.30269  1.0000
  C   C521      1.0  0.24965  0.82648  0.36821  1.0000
  C   C522      1.0  0.28326  0.81370  0.30798  1.0000
  S   S141      1.0  0.22486  0.72613  0.47710  1.0000
  C   C523      1.0  0.21173  0.81273  0.34017  1.0000
  H   H629      1.0  0.22768  0.86316  0.32503  1.0000
  C   C524      1.0  0.50025  0.72786  0.33718  1.0000
  H   H630      1.0  0.24912  0.66088  0.44737  1.0000
  C   C525      1.0  0.33752  0.64291  0.26274  1.0000
  H   H631      1.0  0.21357  0.80094  0.38349  1.0000
  Fe  Fe71      1.0  0.39952  0.76964  0.26447  1.0000
  H   H632      1.0  0.25781  0.98292  0.30626  1.0000
  H   H633      1.0  0.18496  0.81283  0.38139  1.0000
  N   N37       1.0  0.20992  0.82909  0.35647  1.0000
  H   H634      1.0  0.37379  0.63429  0.26518  1.0000
  C   C526      1.0  0.25681  0.50693  0.28945  1.0000
  H   H635      1.0  0.26852  0.75562  0.32885  1.0000
  H   H636      1.0  0.15981  0.67264  0.25578  1.0000
  H   H637      1.0  0.21924  0.65444  0.47742  1.0000
  H   H638      1.0  0.30239  0.65700  0.25938  1.0000
  C   C527      1.0  0.25792  0.76489  0.31656  1.0000
  S   S142      1.0  0.39519  0.80675  0.25078  1.0000
  C   C528      1.0  0.24974  0.97747  0.25284  1.0000
  C   C529      1.0  0.26314  0.63532  0.48421  1.0000
  H   H639      1.0  0.15683  0.69750  0.27009  1.0000
  H   H640      1.0  0.19608  0.97203  0.25438  1.0000
  S   S143      1.0  0.46941  0.71125  0.24936  1.0000
  H   H641      1.0  0.19440  0.64368  0.25827  1.0000
  C   C530      1.0  0.36868  0.82097  0.26179  1.0000
  C   C531      1.0  0.25713  0.66967  0.45844  1.0000
  Fe  Fe72      1.0  0.24870  0.91966  0.24445  1.0000
  C   C532      1.0  0.32427  0.68322  0.25388  1.0000
  H   H642      1.0  0.24933  0.68782  0.45603  1.0000
  C   C533      1.0  0.35298  0.83203  0.24721  1.0000
  C   C534      1.0  0.19029  0.98393  0.26654  1.0000
  S   S144      1.0  0.26276  0.85355  0.25197  1.0000
  C   C535      1.0  0.36462  0.88724  0.24960  1.0000
  C   C536      1.0  0.33294  0.84568  0.25555  1.0000
  H   H643      1.0  0.34965  0.95881  0.25802  1.0000
  H   H644      1.0  0.29821  0.97119  0.25379  1.0000
  C   C537      1.0  0.01025  0.70962  0.27099  1.0000
  H   H645      1.0  0.32118  0.85466  0.24411  1.0000
  C   C538      1.0  0.18089  0.97604  0.28841  1.0000
  C   C539      1.0  0.33604  0.92173  0.24820  1.0000
  H   H646      1.0  0.22002  0.67948  0.48983  1.0000
  C   C540      1.0  0.30835  0.95735  0.24465  1.0000
  H   H647      1.0  0.35041  0.90365  0.27826  1.0000
  C   C541      1.0  0.27680  0.68923  0.48978  1.0000
  C   C542      1.0  0.25222  0.75206  0.49256  1.0000
  C   C543      1.0  0.24643  0.87175  0.63959  1.0000
  H   H648      1.0  0.27845  0.80236  0.57400  1.0000
  H   H649      1.0  0.29537  0.71413  0.49827  1.0000
  N   N38       1.0  0.25189  0.82655  0.58945  1.0000
  C   C544      1.0  0.26410  0.85927  0.60394  1.0000
  C   C545      1.0  0.26040  0.66409  0.52155  1.0000
  H   H650      1.0  0.21337  0.76338  0.70694  1.0000
  H   H651      1.0  0.25054  0.65044  0.52892  1.0000
  C   C546      1.0  0.04466  0.84347  0.72806  1.0000
  C   C547      1.0  0.50472  0.71453  0.69261  1.0000
  H   H652      1.0  0.33442  0.79897  0.69560  1.0000
  H   H653      1.0  0.49510  0.78850  0.73024  1.0000
  C   C548      1.0  0.20900  0.71977  0.72083  1.0000
  S   S145      1.0  0.27914  0.60295  0.70688  1.0000
  H   H654      1.0  0.07681  0.87269  0.72836  1.0000
  Fe  Fe73      1.0  0.25254  0.75759  0.63785  1.0000
  S   S146      1.0  0.28286  0.76072  0.61084  1.0000
  S   S147      1.0  0.23311  0.78199  0.66104  1.0000
  Fe  Fe74      1.0  0.24789  0.71025  0.63002  1.0000
  S   S148      1.0  0.27765  0.70881  0.60183  1.0000
  S   S149      1.0  0.22526  0.68420  0.64766  1.0000
  Fe  Fe75      1.0  0.29528  0.72484  0.62432  1.0000
  S   S150      1.0  0.33215  0.71202  0.62884  1.0000
  Fe  Fe76      1.0  0.26310  0.74494  0.58994  1.0000
  S   S151      1.0  0.26507  0.76269  0.55381  1.0000
  S   S152      1.0  0.26686  0.72310  0.65341  1.0000
  S   S153      1.0  0.23158  0.74490  0.61601  1.0000
  H   H655      1.0  0.32254  0.83130  0.71502  1.0000
  S   S154      1.0  0.38181  0.76713  0.68326  1.0000
  C   C549      1.0  0.34552  0.72779  0.64387  1.0000
  C   C550      1.0  0.33665  0.75033  0.64680  1.0000
  C   C551      1.0  0.34811  0.76263  0.65845  1.0000
  C   C552      1.0  0.36786  0.75210  0.66800  1.0000
  C   C553      1.0  0.37631  0.72942  0.66553  1.0000
  C   C554      1.0  0.36549  0.71749  0.65304  1.0000
  H   H656      1.0  0.32133  0.75845  0.63965  1.0000
  H   H657      1.0  0.34159  0.78024  0.66012  1.0000
  H   H658      1.0  0.39159  0.72121  0.67272  1.0000
  H   H659      1.0  0.37262  0.70018  0.65062  1.0000
  C   C555      1.0  0.25433  0.75179  0.53267  1.0000
  H   H660      1.0  0.09623  0.81178  0.73632  1.0000
  C   C556      1.0  0.20041  0.73448  0.68189  1.0000
  C   C557      1.0  0.27245  0.99429  0.73581  1.0000
  C   C558      1.0  0.23006  0.72804  0.52095  1.0000
  C   C559      1.0  0.23900  0.73566  0.53819  1.0000
  H   H661      1.0  0.22786  0.58751  0.71710  1.0000
  H   H662      1.0  0.21804  0.71573  0.52533  1.0000
  H   H663      1.0  0.23379  0.72931  0.55572  1.0000
  H   H664      1.0  0.29062  0.64763  0.71533  1.0000
  C   C560      1.0  0.26389  0.62556  0.69077  1.0000
  C   C561      1.0  0.27383  0.63344  0.66891  1.0000
  C   C562      1.0  0.26217  0.65171  0.65576  1.0000
  C   C563      1.0  0.24014  0.66155  0.66411  1.0000
  C   C564      1.0  0.22992  0.65324  0.68576  1.0000
  C   C565      1.0  0.24199  0.63559  0.69930  1.0000
  H   H665      1.0  0.29079  0.62572  0.66227  1.0000
  H   H666      1.0  0.27010  0.65798  0.63902  1.0000
  H   H667      1.0  0.21283  0.66078  0.69225  1.0000
  H   H668      1.0  0.23422  0.62963  0.71620  1.0000
  C   C566      1.0  0.27130  0.83431  0.68088  1.0000
  C   C567      1.0  0.28198  0.82102  0.66406  1.0000
  C   C568      1.0  0.27080  0.80413  0.65850  1.0000
  C   C569      1.0  0.24880  0.80079  0.66956  1.0000
  C   C570      1.0  0.23846  0.81358  0.68685  1.0000
  C   C571      1.0  0.24975  0.83025  0.69261  1.0000
  H   H669      1.0  0.29869  0.82411  0.65502  1.0000
  H   H670      1.0  0.27891  0.79424  0.64522  1.0000
  H   H671      1.0  0.22144  0.81101  0.69544  1.0000
  H   H672      1.0  0.24140  0.84049  0.70556  1.0000
  C   C572      1.0  0.28601  0.69978  0.50468  1.0000
  H   H673      1.0  0.29889  0.75992  0.73120  1.0000
  S   S155      1.0  0.28464  0.85658  0.68626  1.0000
  H   H674      1.0  0.21862  0.85432  0.65741  1.0000
  H   H675      1.0  0.01328  0.87915  0.69017  1.0000
  H   H676      1.0  0.27699  0.86145  0.58931  1.0000
  S   S156      1.0  0.25963  0.95525  0.72662  1.0000
  H   H677      1.0  0.24601  0.82811  0.55495  1.0000
  H   H678      1.0  0.24099  0.79528  0.58399  1.0000
  C   C573      1.0  0.02742  0.82940  0.73728  1.0000
  C   C574      1.0  0.23780  0.51495  0.69561  1.0000
  H   H679      1.0  0.22615  0.84738  0.57112  1.0000
  Fe  Fe77      1.0  0.39711  0.74294  0.71103  1.0000
  H   H680      1.0  0.01754  0.75543  0.71431  1.0000
  H   H681      1.0  0.28885  0.70150  0.53937  1.0000
  C   C575      1.0  0.32397  0.78880  0.70935  1.0000
  C   C576      1.0  0.24942  0.84220  0.60660  1.0000
  H   H682      1.0  0.19806  0.71766  0.67766  1.0000
  N   N39       1.0  0.31699  0.66718  0.69758  1.0000
  C   C577      1.0  0.33269  0.68155  0.70347  1.0000
  C   C578      1.0  0.30086  0.68180  0.68322  1.0000
  C   C579      1.0  0.30302  0.65835  0.71879  1.0000
  C   C580      1.0  0.33060  0.64897  0.68519  1.0000
  C   C581      1.0  0.33111  0.62539  0.69356  1.0000
  C   C582      1.0  0.34420  0.65462  0.66414  1.0000
  C   C583      1.0  0.34400  0.60870  0.68127  1.0000
  C   C584      1.0  0.35710  0.63784  0.65200  1.0000
  C   C585      1.0  0.35696  0.61490  0.66052  1.0000
  H   H683      1.0  0.32328  0.69519  0.71323  1.0000
  H   H684      1.0  0.34545  0.67109  0.71374  1.0000
  H   H685      1.0  0.34266  0.69015  0.68827  1.0000
  H   H686      1.0  0.28979  0.69519  0.69230  1.0000
  H   H687      1.0  0.28943  0.67159  0.67747  1.0000
  H   H688      1.0  0.30999  0.69090  0.66788  1.0000
  H   H689      1.0  0.36050  0.62720  0.72757  1.0000
  H   H690      1.0  0.24415  0.50636  0.71099  1.0000
  C   C586      1.0  0.00597  0.83296  0.72958  1.0000
  H   H691      1.0  0.32168  0.61928  0.70956  1.0000
  H   H692      1.0  0.34504  0.67212  0.65691  1.0000
  H   H693      1.0  0.34387  0.59085  0.68795  1.0000
  H   H694      1.0  0.36727  0.64278  0.63592  1.0000
  H   H695      1.0  0.36698  0.60193  0.65109  1.0000
  C   C587      1.0  0.17707  0.83407  0.72651  1.0000
  C   C588      1.0  0.49114  0.74405  0.66395  1.0000
  C   C589      1.0  0.25923  0.55113  0.71159  1.0000
  C   C590      1.0  0.22599  0.57764  0.70354  1.0000
  C   C591      1.0  0.26087  0.75997  0.50982  1.0000
  H   H696      1.0  0.18180  0.83209  0.70883  1.0000
  H   H697      1.0  0.33153  0.98613  0.73202  1.0000
  H   H698      1.0  0.21648  0.54237  0.63884  1.0000
  N   N40       1.0  0.19403  0.73600  0.70644  1.0000
  H   H699      1.0  0.47764  0.75206  0.65395  1.0000
  H   H700      1.0  0.08748  0.85456  0.70651  1.0000
  H   H701      1.0  0.20298  0.54518  0.72987  1.0000
  H   H702      1.0  0.15798  0.74300  0.70238  1.0000
  H   H703      1.0  0.18966  0.74760  0.67139  1.0000
  C   C592      1.0  0.28231  0.69271  0.52788  1.0000
  H   H704      1.0  0.16834  0.71344  0.71096  1.0000
  C   C593      1.0  0.23111  0.85589  0.64226  1.0000
  N   N41       1.0  0.23451  0.55304  0.70915  1.0000
  H   H705      1.0  0.23614  0.58557  0.68798  1.0000
  S   S157      1.0  0.14594  0.80442  0.72757  1.0000
  H   H706      1.0  0.20742  0.58048  0.70140  1.0000
  Fe  Fe78      1.0  0.43495  0.72050  0.73975  1.0000
  C   C594      1.0  0.03896  0.86165  0.71082  1.0000
  H   H707      1.0  0.25501  0.85332  0.56116  1.0000
  H   H708      1.0  0.29277  0.67234  0.72759  1.0000
  H   H709      1.0  0.47132  0.71802  0.68194  1.0000
  H   H710      1.0  0.06873  0.80201  0.74131  1.0000
  C   C595      1.0  0.01733  0.86521  0.70334  1.0000
  C   C596      1.0  0.22575  0.70242  0.71222  1.0000
  C   C597      1.0  0.22236  0.53475  0.65479  1.0000
  C   C598      1.0  0.22807  0.51119  0.65914  1.0000
  C   C599      1.0  0.23663  0.73619  0.49810  1.0000
  C   C600      1.0  0.08366  0.85498  0.72508  1.0000
  H   H711      1.0  0.26187  0.56039  0.72534  1.0000
  H   H712      1.0  0.20082  0.85817  0.72569  1.0000
  H   H713      1.0  0.21859  0.73736  0.67610  1.0000
  C   C601      1.0  0.22153  0.54479  0.73125  1.0000
  S   S158      1.0  0.38674  0.66216  0.73003  1.0000
  H   H714      1.0  0.35854  0.80320  0.72174  1.0000
  H   H715      1.0  0.05088  0.87330  0.70281  1.0000
  H   H716      1.0  0.27270  0.77247  0.50544  1.0000
  H   H717      1.0  0.21977  0.56669  0.66624  1.0000
  H   H718      1.0  0.33222  0.77078  0.70934  1.0000
  C   C602      1.0  0.26959  0.67485  0.53630  1.0000
  H   H719      1.0  0.32146  0.95043  0.72306  1.0000
  H   H720      1.0  0.26714  0.53325  0.71559  1.0000
  H   H721      1.0  0.24594  0.88232  0.65269  1.0000
  C   C603      1.0  0.50030  0.77057  0.73547  1.0000
  C   C604      1.0  0.24445  0.83944  0.56824  1.0000
  C   C605      1.0  0.23872  0.68666  0.72655  1.0000
  H   H722      1.0  0.07995  0.81394  0.71334  1.0000
  H   H723      1.0  0.26936  0.55844  0.69571  1.0000
  C   C606      1.0  0.23196  0.53902  0.69185  1.0000
  C   C607      1.0  0.23794  0.80749  0.59661  1.0000
  H   H724      1.0  0.26651  0.66964  0.55441  1.0000
  H   H725      1.0  0.16747  0.66012  0.74218  1.0000
  H   H726      1.0  0.22062  0.82882  0.62981  1.0000
  C   C608      1.0  0.18786  0.84880  0.73602  1.0000
  C   C609      1.0  0.27638  0.81635  0.58462  1.0000
  H   H727      1.0  0.28760  0.82880  0.57511  1.0000
  C   C610      1.0  0.16990  0.73128  0.71286  1.0000
  H   H728      1.0  0.21912  0.81359  0.59852  1.0000
  H   H729      1.0  0.28358  0.80918  0.60059  1.0000
  C   C611      1.0  0.23251  0.84123  0.62613  1.0000
  S   S159      1.0  0.42194  0.71061  0.71019  1.0000
  H   H730      1.0  0.24227  0.79757  0.61291  1.0000
  C   C612      1.0  0.19520  0.75978  0.70979  1.0000
  H   H731      1.0  0.18567  0.77254  0.69786  1.0000
  H   H732      1.0  0.30644  0.79075  0.70425  1.0000
  C   C613      1.0  0.22429  0.54858  0.67080  1.0000
  C   C614      1.0  0.26278  0.87356  0.62039  1.0000
  H   H733      1.0  0.22881  0.70034  0.69452  1.0000
  H   H734      1.0  0.22309  0.65195  0.50644  1.0000
  H   H735      1.0  0.31413  0.64795  0.73087  1.0000
  Fe  Fe79      1.0  0.26753  0.87291  0.71676  1.0000
  H   H736      1.0  0.27476  0.88585  0.61853  1.0000
  S   S160      1.0  0.23656  0.89973  0.71947  1.0000
  C   C615      1.0  0.01228  0.75999  0.73115  1.0000
  S   S161      1.0  0.41298  0.75462  0.73768  1.0000
  C   C616      1.0  0.48754  0.72484  0.67963  1.0000
  S   S162      1.0  0.28966  0.89203  0.73149  1.0000
  H   H737      1.0  0.16336  0.73330  0.73078  1.0000
  C   C617      1.0  0.26351  0.67110  0.49781  1.0000
  H   H738      1.0  0.25932  0.62605  0.50150  1.0000
  C   C618      1.0  0.23581  0.50132  0.67951  1.0000
  H   H739      1.0  0.25074  0.67311  0.71972  1.0000
  Fe  Fe80      1.0  0.25791  0.91744  0.73716  1.0000
  C   C619      1.0  0.07850  0.81562  0.73160  1.0000
  H   H740      1.0  0.18739  0.76362  0.72694  1.0000
  H   H741      1.0  0.10068  0.85068  0.73154  1.0000
  C   C620      1.0  0.48440  0.75505  0.73741  1.0000
  C   C621      1.0  0.16011  0.82207  0.73979  1.0000
  C   C622      1.0  0.32443  0.95152  0.74009  1.0000
  S   S163      1.0  0.36972  0.72699  0.73509  1.0000
  H   H742      1.0  0.46709  0.76099  0.73356  1.0000
  Fe  Fe81      1.0  0.39545  0.69539  0.73645  1.0000
  H   H743      1.0  0.35525  0.77640  0.73888  1.0000
  N   N42       1.0  0.06748  0.83868  0.73614  1.0000
  H   H744      1.0  0.50165  0.69978  0.70506  1.0000
  H   H745      1.0  0.29495  0.82298  0.72647  1.0000
  N   N43       1.0  0.32330  0.79657  0.73163  1.0000
  C   C623      1.0  0.34746  0.79457  0.73615  1.0000
  H   H746      1.0  0.04689  0.76285  0.73650  1.0000
  H   H747      1.0  0.22821  0.52710  0.73802  1.0000
  C   C624      1.0  0.31323  0.82092  0.72951  1.0000
  H   H748      1.0  0.22661  0.50054  0.64668  1.0000
  Fe  Fe82      1.0  0.24280  0.73624  0.88648  1.0000
  S   S164      1.0  0.22795  0.76185  0.90995  1.0000
  S   S165      1.0  0.22684  0.71996  0.86280  1.0000
  Fe  Fe83      1.0  0.29177  0.73671  0.89492  1.0000
  S   S166      1.0  0.28170  0.76277  0.91900  1.0000
  S   S167      1.0  0.32674  0.71789  0.88431  1.0000
  Fe  Fe84      1.0  0.25259  0.74259  0.93336  1.0000
  S   S168      1.0  0.23979  0.73266  0.97049  1.0000
  Fe  Fe85      1.0  0.25795  0.78006  0.89391  1.0000
  S   S169      1.0  0.24980  0.81769  0.88308  1.0000
  S   S170      1.0  0.26464  0.71507  0.91123  1.0000
  S   S171      1.0  0.27081  0.75599  0.86859  1.0000
  C   C625      1.0  0.28587  0.75308  0.76590  1.0000
  S   S172      1.0  0.09748  0.73675  0.79849  1.0000
  C   C626      1.0  0.26748  0.96480  0.76776  1.0000
  S   S173      1.0  0.27396  0.62749  0.76421  1.0000
  S   S174      1.0  0.10237  0.79091  0.78371  1.0000
  H   H749      1.0  0.19346  0.73258  0.75238  1.0000
  Fe  Fe86      1.0  0.12120  0.76075  0.80317  1.0000
  S   S175      1.0  0.12956  0.76643  0.83659  1.0000
  Fe  Fe87      1.0  0.08068  0.76630  0.77632  1.0000
  S   S176      1.0  0.04201  0.77597  0.78195  1.0000
  S   S177      1.0  0.14745  0.75240  0.77368  1.0000
  C   C627      1.0  0.36583  0.65093  0.77361  1.0000
  S   S178      1.0  0.13287  0.69734  0.75441  1.0000
  Fe  Fe88      1.0  0.27631  0.87297  0.76460  1.0000
  H   H750      1.0  0.41536  0.70416  0.87060  1.0000
  S   S179      1.0  0.30121  0.85383  0.78759  1.0000
  C   C628      1.0  0.21407  0.78993  0.97911  1.0000
  C   C629      1.0  0.35768  0.63058  0.74491  1.0000
  Fe  Fe89      1.0  0.24148  0.61832  0.78543  1.0000
  S   S180      1.0  0.21873  0.64707  0.80075  1.0000
  H   H751      1.0  0.27636  0.76009  0.97150  1.0000
  S   S181      1.0  0.25936  0.59189  0.80961  1.0000
  Fe  Fe90      1.0  0.38697  0.73652  0.76186  1.0000
  S   S182      1.0  0.40987  0.70295  0.76609  1.0000
  S   S183      1.0  0.36711  0.75935  0.78628  1.0000
  H   H752      1.0  0.31677  0.91808  0.75242  1.0000
  H   H753      1.0  0.05455  0.85586  0.76519  1.0000
  H   H754      1.0  0.15916  0.84236  0.78946  1.0000
  H   H755      1.0  0.06477  0.65752  0.77160  1.0000
  H   H756      1.0  0.32777  0.71383  0.98667  1.0000
  H   H757      1.0  0.41104  0.78010  0.79012  1.0000
  H   H758      1.0  0.02840  0.72520  0.79704  1.0000
  H   H759      1.0  0.34887  0.80212  0.75142  1.0000
  H   H760      1.0  0.08797  0.67311  0.75908  1.0000
  H   H761      1.0  0.05697  0.71857  0.74509  1.0000
  H   H762      1.0  0.26302  0.94810  0.77473  1.0000
  C   C630      1.0  0.33004  0.97164  0.74511  1.0000
  H   H763      1.0  0.29796  0.70560  0.96595  1.0000
  Fe  Fe91      1.0  0.12206  0.73109  0.76702  1.0000
  H   H764      1.0  0.18416  0.77460  0.97769  1.0000
  H   H765      1.0  0.27402  0.97289  0.79950  1.0000
  C   C631      1.0  0.35129  0.63846  0.78992  1.0000
  Fe  Fe92      1.0  0.29162  0.59958  0.78712  1.0000
  H   H766      1.0  0.06204  0.70438  0.80604  1.0000
  H   H767      1.0  0.35448  0.89714  0.78879  1.0000
  C   C632      1.0  0.29834  0.76521  0.74755  1.0000
  C   C633      1.0  0.30763  0.78882  0.77292  1.0000
  H   H768      1.0  0.33347  0.60648  0.75602  1.0000
  H   H769      1.0  0.27355  0.52770  0.75657  1.0000
  C   C634      1.0  0.32450  0.91831  0.82030  1.0000
  H   H770      1.0  0.24546  0.77780  0.82337  1.0000
  H   H771      1.0  0.17838  0.84274  0.87615  1.0000
  H   H772      1.0  0.23748  0.79713  0.84348  1.0000
  C   C635      1.0  0.27358  0.97890  0.78172  1.0000
  H   H773      1.0  0.05542  0.82545  0.77082  1.0000
  C   C636      1.0  0.32994  0.95511  0.78438  1.0000
  C   C637      1.0  0.16116  0.68922  0.78715  1.0000
  C   C638      1.0  0.18008  0.67780  0.79745  1.0000
  C   C639      1.0  0.19462  0.66010  0.78781  1.0000
  H   H774      1.0  0.21220  0.82668  0.85259  1.0000
  C   C640      1.0  0.19010  0.65370  0.76785  1.0000
  H   H775      1.0  0.14997  0.70274  0.79485  1.0000
  H   H776      1.0  0.18350  0.68273  0.81293  1.0000
  H   H777      1.0  0.27513  0.74891  0.80185  1.0000
  H   H778      1.0  0.44450  0.74355  0.77388  1.0000
  C   C641      1.0  0.29518  0.77654  0.79112  1.0000
  C   C642      1.0  0.41169  0.72094  0.86115  1.0000
  H   H779      1.0  0.33633  0.98943  0.77116  1.0000
  C   C643      1.0  0.43470  0.73898  0.79084  1.0000
  C   C644      1.0  0.15413  0.82467  0.76264  1.0000
  C   C645      1.0  0.25177  0.51053  0.78358  1.0000
  H   H780      1.0  0.24512  0.67515  0.76090  1.0000
  H   H781      1.0  0.39559  0.78007  0.82710  1.0000
  H   H782      1.0  0.31233  0.93282  0.82655  1.0000
  C   C646      1.0  0.20918  0.78621  0.80271  1.0000
  Fe  Fe93      1.0  0.25713  0.56720  0.78602  1.0000
  C   C647      1.0  0.28439  0.75866  0.78763  1.0000
  C   C648      1.0  0.33786  0.72896  0.85687  1.0000
  C   C649      1.0  0.33110  0.75170  0.84856  1.0000
  C   C650      1.0  0.34028  0.76074  0.82683  1.0000
  C   C651      1.0  0.35600  0.74703  0.81321  1.0000
  C   C652      1.0  0.36270  0.72419  0.82136  1.0000
  C   C653      1.0  0.35372  0.71518  0.84331  1.0000
  H   H783      1.0  0.31937  0.76255  0.85915  1.0000
  H   H784      1.0  0.33535  0.77845  0.82062  1.0000
  H   H785      1.0  0.37492  0.71355  0.81091  1.0000
  H   H786      1.0  0.35901  0.69757  0.84975  1.0000
  C   C654      1.0  0.19959  0.73263  0.85598  1.0000
  C   C655      1.0  0.18626  0.74911  0.86823  1.0000
  C   C656      1.0  0.16463  0.75913  0.86234  1.0000
  C   C657      1.0  0.15640  0.75299  0.84398  1.0000
  C   C658      1.0  0.16977  0.73656  0.83166  1.0000
  C   C659      1.0  0.19129  0.72630  0.83775  1.0000
  H   H787      1.0  0.19248  0.75398  0.88238  1.0000
  H   H788      1.0  0.15429  0.77177  0.87196  1.0000
  H   H789      1.0  0.16340  0.73146  0.81773  1.0000
  H   H790      1.0  0.20148  0.71340  0.82836  1.0000
  C   C660      1.0  0.26455  0.82767  0.85678  1.0000
  C   C661      1.0  0.25513  0.84777  0.84440  1.0000
  C   C662      1.0  0.26609  0.85558  0.82292  1.0000
  C   C663      1.0  0.28699  0.84380  0.81414  1.0000
  C   C664      1.0  0.29675  0.82403  0.82675  1.0000
  C   C665      1.0  0.28533  0.81571  0.84789  1.0000
  H   H791      1.0  0.23910  0.85711  0.85127  1.0000
  H   H792      1.0  0.25849  0.87091  0.81336  1.0000
  H   H793      1.0  0.31306  0.81508  0.82009  1.0000
  H   H794      1.0  0.29284  0.80036  0.85753  1.0000
  C   C666      1.0  0.33284  0.97341  0.76718  1.0000
  N   N44       1.0  0.05798  0.69339  0.77462  1.0000
  H   H795      1.0  0.33246  0.70119  0.75744  1.0000
  H   H796      1.0  0.20139  0.64016  0.76027  1.0000
  C   C667      1.0  0.20632  0.72038  0.74450  1.0000
  S   S184      1.0  0.29132  0.57248  0.76551  1.0000
  C   C668      1.0  0.18117  0.85203  0.75868  1.0000
  H   H797      1.0  0.03046  0.81538  0.75051  1.0000
  C   C669      1.0  0.26910  0.75451  0.98866  1.0000
  C   C670      1.0  0.26706  0.97240  0.74473  1.0000
  C   C671      1.0  0.06877  0.67418  0.76203  1.0000
  Fe  Fe94      1.0  0.22756  0.88027  0.75388  1.0000
  H   H798      1.0  0.27755  0.73905  0.76329  1.0000
  H   H799      1.0  0.28386  0.92524  0.80391  1.0000
  H   H800      1.0  0.37466  0.66345  0.77847  1.0000
  S   S185      1.0  0.25655  0.85187  0.74956  1.0000
  H   H801      1.0  0.31127  0.66811  0.76261  1.0000
  C   C672      1.0  0.06767  0.68980  0.79629  1.0000
  H   H802      1.0  0.33090  0.72306  0.78913  1.0000
  C   C673      1.0  0.03248  0.69558  0.77912  1.0000
  H   H803      1.0  0.44029  0.78257  0.77879  1.0000
  H   H804      1.0  0.06230  0.67431  0.80731  1.0000
  C   C674      1.0  0.33615  0.89413  0.79143  1.0000
  S   S186      1.0  0.24694  0.53250  0.80054  1.0000
  C   C675      1.0  0.36905  0.64690  0.75110  1.0000
  H   H805      1.0  0.31585  0.80244  0.77655  1.0000
  N   N45       1.0  0.28307  0.67527  0.83782  1.0000
  C   C676      1.0  0.28355  0.68950  0.85569  1.0000
  C   C677      1.0  0.25857  0.67540  0.83515  1.0000
  C   C678      1.0  0.29300  0.65165  0.84590  1.0000
  C   C679      1.0  0.29609  0.68327  0.81577  1.0000
  C   C680      1.0  0.29700  0.67157  0.79697  1.0000
  C   C681      1.0  0.30855  0.70226  0.81233  1.0000
  C   C682      1.0  0.30980  0.67818  0.77619  1.0000
  C   C683      1.0  0.32124  0.70876  0.79136  1.0000
  C   C684      1.0  0.32196  0.69665  0.77339  1.0000
  H   H806      1.0  0.27608  0.70748  0.85081  1.0000
  H   H807      1.0  0.27307  0.68348  0.87189  1.0000
  H   H808      1.0  0.30137  0.68918  0.85955  1.0000
  H   H809      1.0  0.25629  0.66293  0.82416  1.0000
  H   H810      1.0  0.25086  0.69254  0.82771  1.0000
  H   H811      1.0  0.24781  0.67100  0.85166  1.0000
  H   H812      1.0  0.31176  0.65056  0.84685  1.0000
  H   H813      1.0  0.28435  0.64536  0.86295  1.0000
  H   H814      1.0  0.29120  0.63931  0.83456  1.0000
  H   H815      1.0  0.28848  0.65662  0.79849  1.0000
  H   H816      1.0  0.30914  0.71214  0.82564  1.0000
  C   C685      1.0  0.16437  0.83988  0.77195  1.0000
  C   C686      1.0  0.34247  0.61882  0.76097  1.0000
  H   H817      1.0  0.22260  0.55528  0.74458  1.0000
  N   N46       1.0  0.21426  0.80097  0.81833  1.0000
  C   C687      1.0  0.23034  0.78687  0.83318  1.0000
  C   C688      1.0  0.02216  0.77010  0.76547  1.0000
  C   C689      1.0  0.22604  0.81953  0.80446  1.0000
  C   C690      1.0  0.19343  0.81098  0.83226  1.0000
  C   C691      1.0  0.17068  0.80860  0.82918  1.0000
  C   C692      1.0  0.19553  0.82385  0.84942  1.0000
  C   C693      1.0  0.15144  0.81808  0.84284  1.0000
  C   C694      1.0  0.17619  0.83325  0.86299  1.0000
  C   C695      1.0  0.15417  0.83030  0.85976  1.0000
  H   H818      1.0  0.22155  0.77382  0.84515  1.0000
  H   H819      1.0  0.19836  0.79609  0.79001  1.0000
  H   H820      1.0  0.21453  0.83041  0.79298  1.0000
  H   H821      1.0  0.23111  0.83095  0.81501  1.0000
  H   H822      1.0  0.24202  0.81285  0.79386  1.0000
  H   H823      1.0  0.16716  0.79914  0.81664  1.0000
  H   H824      1.0  0.08691  0.68770  0.79349  1.0000
  H   H825      1.0  0.13433  0.81546  0.84052  1.0000
  H   H826      1.0  0.13919  0.83739  0.87042  1.0000
  N   N47       1.0  0.43586  0.75527  0.80645  1.0000
  C   C696      1.0  0.42872  0.77850  0.79488  1.0000
  C   C697      1.0  0.46019  0.75399  0.81022  1.0000
  C   C698      1.0  0.42115  0.74918  0.82811  1.0000
  C   C699      1.0  0.42598  0.72761  0.84126  1.0000
  H   H827      1.0  0.38080  0.73009  0.88364  1.0000
  H   H828      1.0  0.32176  0.90310  0.83314  1.0000
  H   H829      1.0  0.34250  0.92154  0.82011  1.0000
  C   C700      1.0  0.01981  0.71312  0.79110  1.0000
  H   H830      1.0  0.42922  0.79176  0.80565  1.0000
  H   H831      1.0  0.46774  0.73645  0.81661  1.0000
  H   H832      1.0  0.47150  0.75906  0.79419  1.0000
  H   H833      1.0  0.46173  0.76535  0.82261  1.0000
  H   H834      1.0  0.44052  0.71546  0.83589  1.0000
  C   C701      1.0  0.39230  0.73555  0.86861  1.0000
  H   H835      1.0  0.14126  0.81539  0.77310  1.0000
  H   H836      1.0  0.33417  0.87912  0.80471  1.0000
  C   C702      1.0  0.15654  0.68283  0.76727  1.0000
  S   S187      1.0  0.10352  0.75878  0.74437  1.0000
  H   H837      1.0  0.29270  0.89550  0.81291  1.0000
  H   H838      1.0  0.31367  0.82881  0.74485  1.0000
  H   H839      1.0  0.44209  0.72126  0.79689  1.0000
  H   H840      1.0  0.08145  0.83762  0.76729  1.0000
  H   H841      1.0  0.33172  0.95798  0.80115  1.0000
  C   C703      1.0  0.30973  0.78346  0.75055  1.0000
  C   C704      1.0  0.32160  0.93310  0.75712  1.0000
  N   N48       1.0  0.32043  0.91469  0.79759  1.0000
  H   H842      1.0  0.33260  0.88872  0.77571  1.0000
  H   H843      1.0  0.05983  0.72955  0.77026  1.0000
  C   C705      1.0  0.29629  0.91012  0.79961  1.0000
  C   C706      1.0  0.32419  0.93430  0.77982  1.0000
  C   C707      1.0  0.06497  0.71459  0.76097  1.0000
  S   S188      1.0  0.31988  0.60838  0.80348  1.0000
  H   H844      1.0  0.21966  0.79096  0.96103  1.0000
  C   C708      1.0  0.19410  0.78062  0.98857  1.0000
  C   C709      1.0  0.40121  0.76369  0.83623  1.0000
  Fe  Fe95      1.0  0.12688  0.78071  0.75377  1.0000
  S   S189      1.0  0.47201  0.71163  0.74645  1.0000
  H   H845      1.0  0.34882  0.64151  0.80735  1.0000
  H   H846      1.0  0.37169  0.76794  0.86185  1.0000
  C   C710      1.0  0.38718  0.75691  0.85627  1.0000
  H   H847      1.0  0.02751  0.66716  0.76229  1.0000
  H   H848      1.0  0.29228  0.90557  0.78369  1.0000
  H   H849      1.0  0.20013  0.77194  0.81221  1.0000
  C   C711      1.0  0.06455  0.83945  0.76087  1.0000
  H   H850      1.0  0.08400  0.71324  0.75620  1.0000
  H   H851      1.0  0.41649  0.73873  0.78863  1.0000
  C   C712      1.0  0.33935  0.62267  0.78351  1.0000
  S   S190      1.0  0.24644  0.90000  0.77192  1.0000
  H   H852      1.0  0.22518  0.77846  0.79291  1.0000
  C   C713      1.0  0.23563  0.68780  0.74968  1.0000
  C   C714      1.0  0.49111  0.73187  0.74403  1.0000
  S   S191      1.0  0.19290  0.87159  0.77075  1.0000
  H   H853      1.0  0.29424  0.78075  0.80808  1.0000
  C   C715      1.0  0.17095  0.66501  0.75763  1.0000
  S   S192      1.0  0.23579  0.59306  0.76376  1.0000
  C   C716      1.0  0.21959  0.70473  0.75860  1.0000
  C   C717      1.0  0.01951  0.68091  0.77161  1.0000
  H   H854      1.0  0.21673  0.70510  0.77673  1.0000
  C   C718      1.0  0.26550  0.51251  0.76252  1.0000
  Fe  Fe96      1.0  0.27020  0.59994  0.74467  1.0000
  C   C719      1.0  0.29726  0.70004  0.98400  1.0000
  H   H855      1.0  0.26601  0.68562  0.98631  1.0000
  H   H856      1.0  0.24303  0.80407  0.98551  1.0000
  H   H857      1.0  0.06313  0.67630  0.74502  1.0000
  C   C720      1.0  0.02894  0.76408  0.74373  1.0000
  C   C721      1.0  0.25123  0.74107  0.99266  1.0000
  H   H858      1.0  0.73113  0.30631  0.00676  1.0000
  S   S193      1.0  0.84173  0.27159  0.21447  1.0000
  S   S194      1.0  0.63478  0.29347  0.22521  1.0000
  C   C722      1.0  0.84381  0.31397  0.14435  1.0000
  N   N49       1.0  0.79572  0.18005  0.04245  1.0000
  H   H859      1.0  0.85924  0.19392  0.09203  1.0000
  H   H860      1.0  0.77658  0.31620  0.23444  1.0000
  N   N50       1.0  0.90569  0.29455  0.17619  1.0000
  C   C723      1.0  0.77506  0.19762  0.23567  1.0000
  C   C724      1.0  0.89946  0.28672  0.20061  1.0000
  Fe  Fe97      1.0  0.78181  0.10731  0.21496  1.0000
  S   S195      1.0  0.80620  0.11595  0.18360  1.0000
  H   H861      1.0  0.86347  0.04391  0.19260  1.0000
  Fe  Fe98      1.0  0.80404  0.24432  0.11371  1.0000
  S   S196      1.0  0.77585  0.23279  0.14016  1.0000
  S   S197      1.0  0.84026  0.23621  0.12206  1.0000
  Fe  Fe99      1.0  0.77156  0.26278  0.07902  1.0000
  S   S198      1.0  0.74045  0.25315  0.10278  1.0000
  S   S199      1.0  0.77112  0.27785  0.04237  1.0000
  Fe  Fe100     1.0  0.75588  0.26646  0.12894  1.0000
  S   S200      1.0  0.73286  0.28400  0.15633  1.0000
  Fe  Fe101     1.0  0.76320  0.22057  0.11196  1.0000
  S   S201      1.0  0.75048  0.18671  0.11644  1.0000
  S   S202      1.0  0.78517  0.27923  0.10435  1.0000
  S   S203      1.0  0.79312  0.22905  0.08637  1.0000
  C   C725      1.0  0.69420  0.27066  0.00018  1.0000
  H   H862      1.0  0.81175  0.19203  0.00890  1.0000
  N   N51       1.0  0.82894  0.03616  0.20472  1.0000
  H   H863      1.0  0.83357  0.16462  0.10649  1.0000
  C   C726      1.0  0.81607  0.17075  0.07698  1.0000
  C   C727      1.0  0.81386  0.18353  0.05534  1.0000
  H   H864      1.0  0.86116  0.01615  0.17130  1.0000
  H   H865      1.0  0.75852  0.18324  0.04644  1.0000
  S   S204      1.0  0.77219  0.35579  0.20064  1.0000
  S   S205      1.0  0.71879  0.39901  0.22506  1.0000
  Fe  Fe102     1.0  0.74943  0.37220  0.22889  1.0000
  H   H866      1.0  0.80469  0.15834  0.08441  1.0000
  H   H867      1.0  0.81682  0.15185  0.02827  1.0000
  C   C728      1.0  0.74477  0.30238  0.16983  1.0000
  C   C729      1.0  0.73146  0.31220  0.18805  1.0000
  C   C730      1.0  0.73989  0.32825  0.19802  1.0000
  C   C731      1.0  0.76176  0.33444  0.18984  1.0000
  C   C732      1.0  0.77540  0.32395  0.17222  1.0000
  C   C733      1.0  0.76694  0.30797  0.16221  1.0000
  H   H868      1.0  0.71443  0.30770  0.19415  1.0000
  H   H869      1.0  0.72928  0.33624  0.21162  1.0000
  H   H870      1.0  0.79232  0.32864  0.16591  1.0000
  H   H871      1.0  0.77733  0.30047  0.14822  1.0000
  C   C734      1.0  0.76293  0.26025  0.02519  1.0000
  C   C735      1.0  0.74981  0.24284  0.03472  1.0000
  C   C736      1.0  0.74278  0.22938  0.02078  1.0000
  C   C737      1.0  0.84645  0.32367  0.16307  1.0000
  H   H872      1.0  0.74473  0.24004  0.05283  1.0000
  H   H873      1.0  0.73240  0.21611  0.02823  1.0000
  H   H874      1.0  0.71542  0.18164  0.15544  1.0000
  C   C738      1.0  0.79117  0.13503  0.16415  1.0000
  C   C739      1.0  0.80103  0.15387  0.15212  1.0000
  C   C740      1.0  0.78854  0.16985  0.13744  1.0000
  C   C741      1.0  0.76661  0.16646  0.13403  1.0000
  C   C742      1.0  0.75704  0.14730  0.14559  1.0000
  C   C743      1.0  0.76907  0.13189  0.16107  1.0000
  H   H875      1.0  0.81810  0.15634  0.15453  1.0000
  H   H876      1.0  0.79596  0.18468  0.12860  1.0000
  H   H877      1.0  0.74006  0.14464  0.14303  1.0000
  H   H878      1.0  0.76138  0.11738  0.17037  1.0000
  C   C744      1.0  0.84174  0.26113  0.18905  1.0000
  C   C745      1.0  0.86031  0.24615  0.18025  1.0000
  C   C746      1.0  0.86018  0.23894  0.15928  1.0000
  C   C747      1.0  0.84119  0.24619  0.14751  1.0000
  C   C748      1.0  0.82248  0.26076  0.15661  1.0000
  C   C749      1.0  0.82286  0.26839  0.17723  1.0000
  H   H879      1.0  0.87488  0.24039  0.18936  1.0000
  H   H880      1.0  0.87458  0.22748  0.15235  1.0000
  H   H881      1.0  0.80779  0.26641  0.14763  1.0000
  H   H882      1.0  0.80850  0.28002  0.18399  1.0000
  H   H883      1.0  0.69078  0.17027  0.20097  1.0000
  N   N52       1.0  0.81117  0.19039  0.20810  1.0000
  H   H884      1.0  0.67516  0.26379  0.23157  1.0000
  H   H885      1.0  0.84248  0.06832  0.19626  1.0000
  C   C750      1.0  0.82082  0.19685  0.18413  1.0000
  H   H886      1.0  0.86770  0.32544  0.18768  1.0000
  H   H887      1.0  0.93730  0.27092  0.17607  1.0000
  H   H888      1.0  0.83266  0.33584  0.17001  1.0000
  C   C751      1.0  0.92206  0.27588  0.16673  1.0000
  H   H889      1.0  0.79070  0.23228  0.18671  1.0000
  H   H890      1.0  0.88965  0.27204  0.20303  1.0000
  H   H891      1.0  0.67989  0.30456  0.22765  1.0000
  H   H892      1.0  0.80301  0.00191  0.22241  1.0000
  C   C752      1.0  0.80854  0.16584  0.21085  1.0000
  H   H893      1.0  0.65345  0.25635  0.99626  1.0000
  H   H894      1.0  0.72771  0.33548  0.11972  1.0000
  C   C753      1.0  0.88461  0.30096  0.16503  1.0000
  H   H895      1.0  0.79453  0.16309  0.20174  1.0000
  H   H896      1.0  0.82802  0.31846  0.13680  1.0000
  H   H897      1.0  0.92890  0.28096  0.14872  1.0000
  H   H898      1.0  0.91497  0.28114  0.20942  1.0000
  S   S206      1.0  0.89740  0.22698  0.23129  1.0000
  H   H899      1.0  0.90738  0.32873  0.18223  1.0000
  H   H900      1.0  0.77913  0.27757  0.99417  1.0000
  H   H901      1.0  0.83681  0.18539  0.17890  1.0000
  N   N53       1.0  0.71571  0.19331  0.18744  1.0000
  C   C754      1.0  0.70910  0.19679  0.16432  1.0000
  C   C755      1.0  0.74100  0.19239  0.18579  1.0000
  C   C756      1.0  0.70972  0.17075  0.19866  1.0000
  C   C757      1.0  0.70433  0.21242  0.19973  1.0000
  C   C758      1.0  0.70643  0.23528  0.19004  1.0000
  C   C759      1.0  0.84880  0.00552  0.18060  1.0000
  C   C760      1.0  0.69588  0.25359  0.20138  1.0000
  C   C761      1.0  0.76005  0.23818  0.20926  1.0000
  C   C762      1.0  0.82810  0.19345  0.22256  1.0000
  H   H902      1.0  0.69003  0.20007  0.16488  1.0000
  H   H903      1.0  0.71652  0.21120  0.15319  1.0000
  C   C763      1.0  0.69155  0.20907  0.22165  1.0000
  H   H904      1.0  0.74705  0.20822  0.17627  1.0000
  H   H905      1.0  0.75034  0.17802  0.17703  1.0000
  H   H906      1.0  0.74642  0.18999  0.20288  1.0000
  H   H907      1.0  0.75935  0.35542  0.12527  1.0000
  H   H908      1.0  0.71794  0.15672  0.18876  1.0000
  S   S207      1.0  0.75464  0.08421  0.21993  1.0000
  H   H909      1.0  0.71629  0.23923  0.17361  1.0000
  H   H910      1.0  0.92251  0.32142  0.15566  1.0000
  H   H911      1.0  0.69734  0.27092  0.19345  1.0000
  H   H912      1.0  0.85891  0.29016  0.12138  1.0000
  H   H913      1.0  0.80335  0.06602  0.20552  1.0000
  C   C764      1.0  0.74911  0.23299  0.99726  1.0000
  H   H914      1.0  0.71584  0.16609  0.21546  1.0000
  H   H915      1.0  0.80074  0.04793  0.18540  1.0000
  H   H916      1.0  0.79769  0.14376  0.05341  1.0000
  H   H917      1.0  0.68589  0.25695  0.01027  1.0000
  H   H918      1.0  0.74146  0.00211  0.21235  1.0000
  C   C765      1.0  0.82945  0.19970  0.04723  1.0000
  C   C766      1.0  0.84572  0.20316  0.06034  1.0000
  H   H919      1.0  0.99471  0.26461  0.22379  1.0000
  H   H920      1.0  0.93421  0.31035  0.18163  1.0000
  C   C767      1.0  0.88144  0.29157  0.14573  1.0000
  C   C768      1.0  0.91798  0.31465  0.17381  1.0000
  C   C769      1.0  0.86657  0.31744  0.17318  1.0000
  H   H921      1.0  0.78646  0.15316  0.02730  1.0000
  H   H922      1.0  0.79208  0.21344  0.02279  1.0000
  C   C770      1.0  0.83252  0.17425  0.08983  1.0000
  C   C771      1.0  0.78893  0.20428  0.21498  1.0000
  C   C772      1.0  0.84712  0.19061  0.08165  1.0000
  H   H923      1.0  0.82902  0.21043  0.03114  1.0000
  C   C773      1.0  0.79935  0.15616  0.03769  1.0000
  H   H924      1.0  0.75425  0.25405  0.19906  1.0000
  C   C774      1.0  0.83148  0.01314  0.19792  1.0000
  C   C775      1.0  0.70773  0.28159  0.01083  1.0000
  H   H925      1.0  0.79349  0.28832  0.23331  1.0000
  H   H926      1.0  0.85688  0.21614  0.05423  1.0000
  H   H927      1.0  0.88869  0.30012  0.20980  1.0000
  H   H928      1.0  0.80827  0.19625  0.17243  1.0000
  C   C776      1.0  0.79534  0.19512  0.02043  1.0000
  N   N54       1.0  0.67609  0.36856  0.17619  1.0000
  C   C777      1.0  0.67670  0.37840  0.19713  1.0000
  C   C778      1.0  0.66021  0.38437  0.16247  1.0000
  C   C779      1.0  0.66650  0.34666  0.18320  1.0000
  C   C780      1.0  0.69903  0.36510  0.16237  1.0000
  C   C781      1.0  0.70314  0.35073  0.14520  1.0000
  C   C782      1.0  0.71749  0.37671  0.16469  1.0000
  C   C783      1.0  0.72467  0.34734  0.13201  1.0000
  C   C784      1.0  0.73889  0.37331  0.15129  1.0000
  C   C785      1.0  0.74252  0.35855  0.13510  1.0000
  H   H929      1.0  0.65988  0.37903  0.20839  1.0000
  H   H930      1.0  0.68987  0.36812  0.20719  1.0000
  H   H931      1.0  0.68040  0.39632  0.19351  1.0000
  H   H932      1.0  0.66666  0.40112  0.15702  1.0000
  H   H933      1.0  0.64267  0.38753  0.17216  1.0000
  H   H934      1.0  0.65840  0.37751  0.14687  1.0000
  H   H935      1.0  0.67944  0.33325  0.19059  1.0000
  H   H936      1.0  0.65088  0.34819  0.19610  1.0000
  H   H937      1.0  0.66089  0.34017  0.16905  1.0000
  H   H938      1.0  0.68996  0.34166  0.14193  1.0000
  H   H939      1.0  0.71607  0.38818  0.17703  1.0000
  H   H940      1.0  0.89396  0.27879  0.13835  1.0000
  H   H941      1.0  0.75300  0.38160  0.15405  1.0000
  C   C786      1.0  0.64359  0.31487  0.23712  1.0000
  H   H942      1.0  0.80480  0.15831  0.22881  1.0000
  S   S208      1.0  0.72888  0.45557  0.24140  1.0000
  H   H943      1.0  0.91375  0.26021  0.16814  1.0000
  C   C787      1.0  0.78099  0.22530  0.20220  1.0000
  H   H944      1.0  0.70937  0.27644  0.02860  1.0000
  C   C788      1.0  0.66706  0.31686  0.23549  1.0000
  H   H945      1.0  0.84280  0.05372  0.17272  1.0000
  H   H946      1.0  0.82456  0.15527  0.20408  1.0000
  S   S209      1.0  0.75887  0.13554  0.23056  1.0000
  Fe  Fe103     1.0  0.73295  0.11110  0.23897  1.0000
  H   H947      1.0  0.82593  0.21415  0.18131  1.0000
  C   C789      1.0  0.86130  0.29806  0.13565  1.0000
  H   H948      1.0  0.85031  0.02493  0.23113  1.0000
  H   H949      1.0  0.76983  0.20192  0.06102  1.0000
  H   H950      1.0  0.84505  0.18285  0.21862  1.0000
  C   C790      1.0  0.80527  0.04794  0.20257  1.0000
  C   C791      1.0  0.75050  0.99843  0.22698  1.0000
  H   H951      1.0  0.77053  0.17240  0.07184  1.0000
  C   C792      1.0  0.75527  0.01648  0.23701  1.0000
  C   C793      1.0  0.76907  0.26403  0.00163  1.0000
  H   H952      1.0  0.79203  0.03998  0.21510  1.0000
  C   C794      1.0  0.77273  0.18454  0.05599  1.0000
  C   C795      1.0  0.83286  0.03406  0.22865  1.0000
  C   C796      1.0  0.84524  0.05102  0.19089  1.0000
  H   H953      1.0  0.83115  0.21158  0.22047  1.0000
  S   S210      1.0  0.69610  0.12382  0.23444  1.0000
  C   C797      1.0  0.68119  0.22749  0.23287  1.0000
  H   H954      1.0  0.83114  0.05101  0.23447  1.0000
  H   H955      1.0  0.82017  0.02449  0.24040  1.0000
  H   H956      1.0  0.68913  0.19239  0.23047  1.0000
  H   H957      1.0  0.74984  0.03389  0.23011  1.0000
  C   C798      1.0  0.68334  0.24966  0.22277  1.0000
  H   H958      1.0  0.78136  0.19231  0.01123  1.0000
  H   H959      1.0  0.53988  0.23374  0.21577  1.0000
  Fe  Fe104     1.0  0.86611  0.25244  0.23790  1.0000
  C   C799      1.0  0.52710  0.22319  0.21418  1.0000
  H   H960      1.0  0.80699  0.31342  0.22638  1.0000
  H   H961      1.0  0.82198  0.18855  0.24074  1.0000
  H   H962      1.0  0.69199  0.33675  0.24197  1.0000
  C   C800      1.0  0.79303  0.30555  0.23812  1.0000
  C   C801      1.0  0.72004  0.29846  0.99851  1.0000
  H   H963      1.0  0.50566  0.25088  0.19841  1.0000
  S   S211      1.0  0.94776  0.25699  0.23879  1.0000
  C   C802      1.0  0.74658  0.23076  0.22931  1.0000
  H   H964      1.0  0.65149  0.15098  0.24051  1.0000
  C   C803      1.0  0.51323  0.18673  0.22194  1.0000
  C   C804      1.0  0.99368  0.25698  0.24131  1.0000
  C   C805      1.0  0.53000  0.20022  0.22301  1.0000
  H   H965      1.0  0.54501  0.19308  0.23128  1.0000
  H   H966      1.0  0.73034  0.24075  0.23467  1.0000
  H   H967      1.0  0.51547  0.16892  0.22916  1.0000
  C   C806      1.0  0.50737  0.23282  0.20436  1.0000
  C   C807      1.0  0.75407  0.21054  0.24250  1.0000
  H   H968      1.0  0.62098  0.36172  0.26237  1.0000
  H   H969      1.0  0.67314  0.13698  0.32556  1.0000
  C   C808      1.0  0.71005  0.46480  0.30040  1.0000
  S   S212      1.0  0.61314  0.23434  0.25078  1.0000
  H   H970      1.0  0.53849  0.26151  0.29843  1.0000
  S   S213      1.0  0.88247  0.27178  0.25831  1.0000
  Fe  Fe105     1.0  0.86911  0.24780  0.28808  1.0000
  S   S214      1.0  0.85064  0.26109  0.32000  1.0000
  S   S215      1.0  0.90154  0.22249  0.28579  1.0000
  C   C809      1.0  0.77813  0.29229  0.30198  1.0000
  S   S216      1.0  0.74383  0.09632  0.27273  1.0000
  Fe  Fe106     1.0  0.62747  0.22683  0.28377  1.0000
  S   S217      1.0  0.59290  0.23062  0.30483  1.0000
  C   C810      1.0  0.73222  0.48540  0.31822  1.0000
  H   H971      1.0  0.81829  0.27248  0.26303  1.0000
  S   S218      1.0  0.58046  0.27891  0.27130  1.0000
  C   C811      1.0  0.82563  0.13686  0.26780  1.0000
  Fe  Fe107     1.0  0.59745  0.26720  0.30267  1.0000
  S   S219      1.0  0.59286  0.28523  0.33325  1.0000
  Fe  Fe108     1.0  0.57843  0.24158  0.27196  1.0000
  S   S220      1.0  0.54726  0.22473  0.26954  1.0000
  S   S221      1.0  0.63300  0.26267  0.28409  1.0000
  H   H972      1.0  0.63633  0.18224  0.26367  1.0000
  Fe  Fe109     1.0  0.68515  0.24269  0.40971  1.0000
  S   S222      1.0  0.68313  0.26802  0.43349  1.0000
  S   S223      1.0  0.65671  0.22616  0.40158  1.0000
  Fe  Fe110     1.0  0.73679  0.24038  0.39701  1.0000
  S   S224      1.0  0.74013  0.26557  0.41997  1.0000
  S   S225      1.0  0.76115  0.22137  0.37155  1.0000
  Fe  Fe111     1.0  0.71492  0.24712  0.44543  1.0000
  S   S226      1.0  0.71166  0.23976  0.48366  1.0000
  Fe  Fe112     1.0  0.70811  0.28475  0.40691  1.0000
  S   S227      1.0  0.70079  0.32253  0.39800  1.0000
  S   S228      1.0  0.71470  0.21998  0.42377  1.0000
  S   S229      1.0  0.70702  0.26149  0.38179  1.0000
  H   H973      1.0  0.69758  0.30874  0.44692  1.0000
  Fe  Fe113     1.0  0.74543  0.37277  0.27914  1.0000
  S   S230      1.0  0.76366  0.35447  0.30799  1.0000
  S   S231      1.0  0.71438  0.39944  0.28012  1.0000
  Fe  Fe114     1.0  0.91331  0.24494  0.25378  1.0000
  C   C812      1.0  0.99128  0.23722  0.28642  1.0000
  C   C813      1.0  0.79683  0.16399  0.35672  1.0000
  C   C814      1.0  0.76734  0.01189  0.25569  1.0000
  C   C815      1.0  0.81860  0.29037  0.26551  1.0000
  C   C816      1.0  0.77633  0.47534  0.27353  1.0000
  N   N55       1.0  0.72101  0.32306  0.46287  1.0000
  H   H974      1.0  0.78665  0.13788  0.34119  1.0000
  H   H975      1.0  0.79017  0.46738  0.28302  1.0000
  C   C817      1.0  0.71793  0.33125  0.37275  1.0000
  C   C818      1.0  0.70969  0.35002  0.35786  1.0000
  C   C819      1.0  0.72342  0.35694  0.33758  1.0000
  C   C820      1.0  0.74571  0.34561  0.33264  1.0000
  C   C821      1.0  0.75404  0.32709  0.34773  1.0000
  C   C822      1.0  0.73997  0.31954  0.36750  1.0000
  H   H976      1.0  0.69268  0.35917  0.36194  1.0000
  H   H977      1.0  0.71701  0.37142  0.32610  1.0000
  H   H978      1.0  0.77142  0.31855  0.34411  1.0000
  H   H979      1.0  0.74648  0.30511  0.37899  1.0000
  H   H980      1.0  0.99862  0.33133  0.30382  1.0000
  N   N56       1.0  0.52251  0.25710  0.33291  1.0000
  H   H981      1.0  0.50497  0.20697  0.27131  1.0000
  C   C823      1.0  0.76380  0.46171  0.26448  1.0000
  C   C824      1.0  0.51921  0.23860  0.26568  1.0000
  S   S232      1.0  0.66491  0.37530  0.26184  1.0000
  C   C825      1.0  0.74643  0.33565  0.48681  1.0000
  H   H982      1.0  0.83294  0.29693  0.25331  1.0000
  N   N57       1.0  0.79617  0.30438  0.26220  1.0000
  Fe  Fe115     1.0  0.61611  0.27081  0.25284  1.0000
  C   C826      1.0  0.51959  0.26920  0.35296  1.0000
  C   C827      1.0  0.60993  0.26921  0.35309  1.0000
  C   C828      1.0  0.62185  0.28003  0.36562  1.0000
  C   C829      1.0  0.63646  0.26700  0.38053  1.0000
  C   C830      1.0  0.63848  0.24318  0.38344  1.0000
  C   C831      1.0  0.62597  0.23251  0.37145  1.0000
  C   C832      1.0  0.61204  0.24545  0.35610  1.0000
  H   H983      1.0  0.62004  0.29844  0.36354  1.0000
  H   H984      1.0  0.64582  0.27532  0.39006  1.0000
  H   H985      1.0  0.62721  0.21413  0.37387  1.0000
  H   H986      1.0  0.60256  0.23694  0.34698  1.0000
  C   C833      1.0  0.69611  0.48507  0.29373  1.0000
  C   C834      1.0  0.87590  0.16310  0.36111  1.0000
  C   C835      1.0  0.69064  0.16970  0.27779  1.0000
  S   S233      1.0  0.73174  0.35124  0.25864  1.0000
  C   C836      1.0  0.83794  0.16854  0.34929  1.0000
  H   H987      1.0  0.83835  0.21194  0.35989  1.0000
  H   H988      1.0  0.84443  0.19112  0.38402  1.0000
  C   C837      1.0  0.65385  0.17388  0.26397  1.0000
  Fe  Fe116     1.0  0.76767  0.07103  0.25314  1.0000
  H   H989      1.0  0.71663  0.14375  0.26533  1.0000
  H   H990      1.0  0.75520  0.32420  0.44394  1.0000
  C   C838      1.0  0.85137  0.19810  0.36654  1.0000
  C   C839      1.0  0.72804  0.46496  0.31260  1.0000
  H   H991      1.0  0.50895  0.26038  0.36756  1.0000
  H   H992      1.0  0.70172  0.17500  0.28799  1.0000
  S   S234      1.0  0.65789  0.20228  0.29425  1.0000
  C   C840      1.0  0.82404  0.25216  0.33265  1.0000
  C   C841      1.0  0.81303  0.26006  0.35280  1.0000
  C   C842      1.0  0.79310  0.25142  0.36450  1.0000
  C   C843      1.0  0.78424  0.23467  0.35613  1.0000
  C   C844      1.0  0.79475  0.22735  0.33564  1.0000
  C   C845      1.0  0.81443  0.23620  0.32385  1.0000
  H   H993      1.0  0.82027  0.27250  0.35968  1.0000
  H   H994      1.0  0.78506  0.25720  0.38030  1.0000
  H   H995      1.0  0.78793  0.21446  0.32902  1.0000
  H   H996      1.0  0.82242  0.23009  0.30834  1.0000
  H   H997      1.0  0.52777  0.28776  0.30943  1.0000
  C   C846      1.0  0.83440  0.17547  0.28377  1.0000
  C   C847      1.0  0.81202  0.16951  0.28746  1.0000
  C   C848      1.0  0.80760  0.15015  0.27954  1.0000
  C   C849      1.0  0.70235  0.30890  0.46398  1.0000
  H   H998      1.0  0.81056  0.18875  0.36973  1.0000
  S   S235      1.0  0.77956  0.14271  0.28499  1.0000
  H   H999      1.0  0.68628  0.31554  0.47444  1.0000
  H   H1000     1.0  0.55349  0.23644  0.34300  1.0000
  H   H1001     1.0  0.78045  0.33876  0.26493  1.0000
  H   H1002     1.0  0.86194  0.13238  0.25514  1.0000
  C   C850      1.0  0.71265  0.34649  0.45276  1.0000
  C   C851      1.0  0.81505  0.17499  0.35961  1.0000
  N   N58       1.0  0.67090  0.31509  0.31972  1.0000
  C   C852      1.0  0.65328  0.31171  0.30611  1.0000
  C   C853      1.0  0.68995  0.32519  0.30447  1.0000
  C   C854      1.0  0.68069  0.29225  0.33017  1.0000
  C   C855      1.0  0.66026  0.33064  0.33637  1.0000
  C   C856      1.0  0.65016  0.35312  0.32892  1.0000
  C   C857      1.0  0.65948  0.32416  0.36011  1.0000
  C   C858      1.0  0.63981  0.36807  0.34426  1.0000
  C   C859      1.0  0.64896  0.33922  0.37531  1.0000
  C   C860      1.0  0.63917  0.36111  0.36742  1.0000
  H   H1003     1.0  0.64580  0.32791  0.29678  1.0000
  H   H1004     1.0  0.66053  0.30028  0.29317  1.0000
  H   H1005     1.0  0.63864  0.30416  0.31706  1.0000
  H   H1006     1.0  0.70334  0.32830  0.31421  1.0000
  H   H1007     1.0  0.68390  0.34178  0.29479  1.0000
  H   H1008     1.0  0.69849  0.31400  0.29170  1.0000
  H   H1009     1.0  0.66718  0.28339  0.34150  1.0000
  H   H1010     1.0  0.68822  0.28098  0.31718  1.0000
  H   H1011     1.0  0.69466  0.29355  0.34005  1.0000
  H   H1012     1.0  0.65022  0.35936  0.31111  1.0000
  H   H1013     1.0  0.66712  0.30768  0.36750  1.0000
  H   H1014     1.0  0.63232  0.38516  0.33809  1.0000
  H   H1015     1.0  0.64890  0.33394  0.39333  1.0000
  H   H1016     1.0  0.63126  0.37276  0.37930  1.0000
  C   C861      1.0  0.97139  0.24116  0.27557  1.0000
  H   H1017     1.0  0.85811  0.14483  0.32732  1.0000
  H   H1018     1.0  0.85410  0.20344  0.32110  1.0000
  C   C862      1.0  0.82309  0.13915  0.33381  1.0000
  C   C863      1.0  0.74577  0.47190  0.25232  1.0000
  C   C864      1.0  0.69913  0.15202  0.26489  1.0000
  H   H1019     1.0  0.76798  0.44336  0.26702  1.0000
  H   H1020     1.0  0.74364  0.20479  0.25818  1.0000
  H   H1021     1.0  0.77947  0.16961  0.36437  1.0000
  H   H1022     1.0  0.89047  0.17136  0.36415  1.0000
  H   H1023     1.0  0.52803  0.27270  0.25879  1.0000
  C   C865      1.0  0.86732  0.19082  0.32901  1.0000
  C   C866      1.0  0.66795  0.18048  0.27756  1.0000
  H   H1024     1.0  0.86894  0.15361  0.37747  1.0000
  C   C867      1.0  0.74267  0.27566  0.28704  1.0000
  H   H1025     1.0  0.88188  0.20006  0.33013  1.0000
  C   C868      1.0  0.76154  0.28197  0.31754  1.0000
  H   H1026     1.0  0.88357  0.15040  0.34954  1.0000
  H   H1027     1.0  0.74815  0.29615  0.45474  1.0000
  H   H1028     1.0  0.70753  0.44900  0.29517  1.0000
  C   C869      1.0  0.75921  0.28596  0.27127  1.0000
  H   H1029     1.0  0.73607  0.31256  0.43064  1.0000
  C   C870      1.0  0.62708  0.33075  0.24733  1.0000
  H   H1030     1.0  0.70662  0.34660  0.43616  1.0000
  C   C871      1.0  0.65727  0.35149  0.25288  1.0000
  C   C872      1.0  0.84802  0.14282  0.26411  1.0000
  H   H1031     1.0  0.73931  0.44932  0.31694  1.0000
  H   H1032     1.0  0.72632  0.35776  0.44946  1.0000
  H   H1033     1.0  0.82249  0.12175  0.26189  1.0000
  H   H1034     1.0  0.73142  0.26532  0.32237  1.0000
  H   H1035     1.0  0.86646  0.20656  0.36778  1.0000
  H   H1036     1.0  0.74682  0.48563  0.32691  1.0000
  C   C873      1.0  0.51441  0.26226  0.26044  1.0000
  S   S236      1.0  0.88061  0.16945  0.26684  1.0000
  Fe  Fe117     1.0  0.88304  0.20689  0.26361  1.0000
  H   H1037     1.0  0.87401  0.17827  0.31701  1.0000
  H   H1038     1.0  0.82603  0.12562  0.32329  1.0000
  H   H1039     1.0  0.99023  0.22962  0.30396  1.0000
  Fe  Fe118     1.0  0.73314  0.41700  0.24857  1.0000
  H   H1040     1.0  0.54031  0.22501  0.32350  1.0000
  H   H1041     1.0  0.69798  0.35446  0.46409  1.0000
  H   H1042     1.0  0.51115  0.28706  0.34959  1.0000
  N   N59       1.0  0.70541  0.19463  0.34886  1.0000
  C   C874      1.0  0.71138  0.19058  0.37218  1.0000
  C   C875      1.0  0.72199  0.20861  0.33416  1.0000
  C   C876      1.0  0.68224  0.20839  0.34933  1.0000
  C   C877      1.0  0.70658  0.17245  0.34062  1.0000
  C   C878      1.0  0.72810  0.15852  0.33645  1.0000
  C   C879      1.0  0.68669  0.16378  0.33696  1.0000
  C   C880      1.0  0.72967  0.13774  0.32824  1.0000
  C   C881      1.0  0.68846  0.14286  0.32898  1.0000
  C   C882      1.0  0.70991  0.12998  0.32440  1.0000
  H   H1043     1.0  0.72921  0.18169  0.37303  1.0000
  H   H1044     1.0  0.71034  0.20688  0.37912  1.0000
  H   H1045     1.0  0.69931  0.18016  0.38382  1.0000
  H   H1046     1.0  0.74024  0.20117  0.33520  1.0000
  H   H1047     1.0  0.72048  0.22583  0.33934  1.0000
  H   H1048     1.0  0.71905  0.21064  0.31616  1.0000
  H   H1049     1.0  0.66913  0.19992  0.36163  1.0000
  H   H1050     1.0  0.68198  0.22526  0.35488  1.0000
  H   H1051     1.0  0.67639  0.21166  0.33236  1.0000
  H   H1052     1.0  0.74393  0.16366  0.33927  1.0000
  H   H1053     1.0  0.66955  0.17309  0.33950  1.0000
  H   H1054     1.0  0.74635  0.12772  0.32447  1.0000
  C   C883      1.0  0.77763  0.29446  0.27833  1.0000
  H   H1055     1.0  0.79152  0.29844  0.30865  1.0000
  H   H1056     1.0  0.83770  0.18989  0.29069  1.0000
  H   H1057     1.0  0.79822  0.17970  0.29684  1.0000
  S   S237      1.0  0.79678  0.09216  0.24655  1.0000
  C   C884      1.0  0.97249  0.25111  0.25295  1.0000
  H   H1058     1.0  0.75548  0.34457  0.47195  1.0000
  N   N60       1.0  0.85763  0.18004  0.35157  1.0000
  S   S238      1.0  0.77620  0.03390  0.26710  1.0000
  H   H1059     1.0  0.76247  0.28038  0.33550  1.0000
  H   H1060     1.0  0.71124  0.11409  0.31760  1.0000
  S   S239      1.0  0.76546  0.39186  0.24950  1.0000
  C   C885      1.0  0.84136  0.15029  0.33625  1.0000
  S   S240      1.0  0.85034  0.23078  0.26783  1.0000
  C   C886      1.0  0.85244  0.16223  0.27193  1.0000
  C   C887      1.0  0.74099  0.31359  0.44746  1.0000
  H   H1061     1.0  0.52769  0.22402  0.35298  1.0000
  H   H1062     1.0  0.95521  0.23662  0.28474  1.0000
  C   C888      1.0  0.63389  0.34916  0.25497  1.0000
  C   C889      1.0  0.80083  0.14612  0.34382  1.0000
  Fe  Fe119     1.0  0.77175  0.11877  0.26281  1.0000
  C   C890      1.0  0.79728  0.32787  0.26627  1.0000
  H   H1063     1.0  0.80185  0.32844  0.28328  1.0000
  C   C891      1.0  0.74394  0.27356  0.31011  1.0000
  H   H1064     1.0  0.75705  0.25524  0.47683  1.0000
  H   H1065     1.0  0.55342  0.27138  0.31788  1.0000
  C   C892      1.0  0.53648  0.23459  0.33835  1.0000
  H   H1066     1.0  0.78036  0.18247  0.24691  1.0000
  H   H1067     1.0  0.67118  0.22458  0.24943  1.0000
  Fe  Fe120     1.0  0.70241  0.37967  0.25672  1.0000
  C   C893      1.0  0.66239  0.15616  0.25097  1.0000
  H   H1068     1.0  0.70771  0.29081  0.47087  1.0000
  H   H1069     1.0  0.82322  0.29002  0.28272  1.0000
  C   C894      1.0  0.72806  0.32366  0.48519  1.0000
  C   C895      1.0  0.53605  0.27002  0.31385  1.0000
  H   H1070     1.0  0.53654  0.27023  0.35829  1.0000
  H   H1071     1.0  0.60895  0.32922  0.24870  1.0000
  C   C896      1.0  0.74060  0.49574  0.24903  1.0000
  H   H1072     1.0  0.72895  0.26910  0.28126  1.0000
  H   H1073     1.0  0.75730  0.28693  0.25367  1.0000
  H   H1074     1.0  0.99340  0.32261  0.27851  1.0000
  H   H1075     1.0  0.68307  0.48366  0.28365  1.0000
  C   C897      1.0  0.68501  0.14515  0.25152  1.0000
  H   H1076     1.0  0.81039  0.33616  0.25379  1.0000
  H   H1077     1.0  0.00460  0.34898  0.27711  1.0000
  C   C898      1.0  0.67392  0.33511  0.24351  1.0000
  H   H1078     1.0  0.86061  0.22053  0.63286  1.0000
  S   S241      1.0  0.74584  0.13729  0.71042  1.0000
  H   H1079     1.0  0.84037  0.13039  0.71396  1.0000
  Fe  Fe121     1.0  0.73231  0.28985  0.62922  1.0000
  S   S242      1.0  0.71739  0.27936  0.60114  1.0000
  S   S243      1.0  0.71685  0.32233  0.64311  1.0000
  Fe  Fe122     1.0  0.76352  0.24523  0.63684  1.0000
  S   S244      1.0  0.75174  0.23074  0.60936  1.0000
  S   S245      1.0  0.78738  0.22529  0.66062  1.0000
  Fe  Fe123     1.0  0.75378  0.26524  0.58911  1.0000
  S   S246      1.0  0.76890  0.26850  0.55209  1.0000
  Fe  Fe124     1.0  0.71640  0.24587  0.62345  1.0000
  S   S247      1.0  0.68694  0.22613  0.62508  1.0000
  S   S248      1.0  0.76906  0.27865  0.61545  1.0000
  S   S249      1.0  0.72801  0.25746  0.65260  1.0000
  H   H1080     1.0  0.81873  0.25732  0.71358  1.0000
  Fe  Fe125     1.0  0.76096  0.38623  0.72210  1.0000
  S   S250      1.0  0.62883  0.20018  0.71999  1.0000
  S   S251      1.0  0.77935  0.36933  0.69237  1.0000
  C   C899      1.0  0.68819  0.49480  0.73784  1.0000
  C   C900      1.0  0.55559  0.23814  0.70591  1.0000
  H   H1081     1.0  0.84794  0.27781  0.70187  1.0000
  H   H1082     1.0  0.60939  0.29937  0.69550  1.0000
  C   C901      1.0  0.54167  0.20185  0.71065  1.0000
  S   S252      1.0  0.72976  0.41276  0.72369  1.0000
  C   C902      1.0  0.82809  0.16705  0.65710  1.0000
  H   H1083     1.0  0.76815  0.34489  0.50842  1.0000
  H   H1084     1.0  0.80597  0.46083  0.72492  1.0000
  H   H1085     1.0  0.80700  0.48584  0.68828  1.0000
  H   H1086     1.0  0.64119  0.33106  0.64338  1.0000
  C   C903      1.0  0.75372  0.33613  0.50761  1.0000
  H   H1087     1.0  0.70019  0.24700  0.52954  1.0000
  C   C904      1.0  0.73438  0.33425  0.65768  1.0000
  C   C905      1.0  0.75839  0.32903  0.65410  1.0000
  C   C906      1.0  0.77209  0.33993  0.66477  1.0000
  C   C907      1.0  0.76183  0.35565  0.67947  1.0000
  C   C908      1.0  0.73781  0.36028  0.68367  1.0000
  C   C909      1.0  0.72412  0.34978  0.67259  1.0000
  H   H1088     1.0  0.76644  0.31713  0.64260  1.0000
  H   H1089     1.0  0.79067  0.33624  0.66156  1.0000
  H   H1090     1.0  0.72980  0.37242  0.69495  1.0000
  H   H1091     1.0  0.70557  0.35389  0.67545  1.0000
  C   C910      1.0  0.67161  0.21897  0.65191  1.0000
  C   C911      1.0  0.67296  0.23016  0.67019  1.0000
  C   C912      1.0  0.65975  0.22459  0.69123  1.0000
  C   C913      1.0  0.64553  0.20752  0.69401  1.0000
  C   C914      1.0  0.64443  0.19619  0.67581  1.0000
  C   C915      1.0  0.65727  0.20206  0.65476  1.0000
  H   H1092     1.0  0.68389  0.24328  0.66808  1.0000
  H   H1093     1.0  0.66067  0.23339  0.70526  1.0000
  H   H1094     1.0  0.63345  0.18301  0.67792  1.0000
  H   H1095     1.0  0.65612  0.19341  0.64067  1.0000
  C   C916      1.0  0.75248  0.26203  0.53260  1.0000
  C   C917      1.0  0.76194  0.26199  0.50977  1.0000
  C   C918      1.0  0.61748  0.31285  0.69944  1.0000
  H   H1096     1.0  0.68505  0.30612  0.68216  1.0000
  C   C919      1.0  0.73009  0.25684  0.53959  1.0000
  C   C920      1.0  0.69317  0.34843  0.74031  1.0000
  H   H1097     1.0  0.76097  0.14877  0.64871  1.0000
  H   H1098     1.0  0.72248  0.25729  0.55701  1.0000
  C   C921      1.0  0.75614  0.16303  0.69873  1.0000
  C   C922      1.0  0.77589  0.16886  0.70504  1.0000
  C   C923      1.0  0.78502  0.18852  0.69391  1.0000
  C   C924      1.0  0.77451  0.20223  0.67634  1.0000
  C   C925      1.0  0.75411  0.19695  0.67087  1.0000
  C   C926      1.0  0.74485  0.17750  0.68218  1.0000
  H   H1099     1.0  0.78464  0.15777  0.71785  1.0000
  H   H1100     1.0  0.80066  0.19255  0.69843  1.0000
  H   H1101     1.0  0.74570  0.20747  0.65750  1.0000
  H   H1102     1.0  0.72926  0.17331  0.67759  1.0000
  H   H1103     1.0  0.78826  0.16473  0.61711  1.0000
  H   H1104     1.0  0.71973  0.15225  0.64491  1.0000
  H   H1105     1.0  0.80485  0.14310  0.65594  1.0000
  H   H1106     1.0  0.81334  0.11951  0.69161  1.0000
  H   H1107     1.0  0.70311  0.30297  0.50639  1.0000
  C   C927      1.0  0.60565  0.32474  0.71687  1.0000
  H   H1108     1.0  0.77797  0.32373  0.71929  1.0000
  C   C928      1.0  0.65743  0.32165  0.64906  1.0000
  C   C929      1.0  0.67490  0.29412  0.67719  1.0000
  H   H1109     1.0  0.88701  0.18060  0.67651  1.0000
  C   C930      1.0  0.84812  0.15985  0.69003  1.0000
  H   H1110     1.0  0.74539  0.30950  0.70973  1.0000
  H   H1111     1.0  0.65154  0.27851  0.65053  1.0000
  H   H1112     1.0  0.77922  0.26617  0.50424  1.0000
  H   H1113     1.0  0.63767  0.27421  0.67890  1.0000
  H   H1114     1.0  0.66486  0.34079  0.68748  1.0000
  H   H1115     1.0  0.89103  0.20166  0.65258  1.0000
  H   H1116     1.0  0.83248  0.21254  0.63883  1.0000
  H   H1117     1.0  0.69901  0.16442  0.72362  1.0000
  C   C931      1.0  0.85108  0.20562  0.63858  1.0000
  C   C932      1.0  0.63607  0.34808  0.71220  1.0000
  H   H1118     1.0  0.67220  0.28069  0.69192  1.0000
  C   C933      1.0  0.82204  0.13430  0.68534  1.0000
  N   N61       1.0  0.65268  0.30550  0.66998  1.0000
  C   C934      1.0  0.72723  0.25015  0.50144  1.0000
  H   H1119     1.0  0.85945  0.16410  0.70062  1.0000
  N   N62       1.0  0.82306  0.30035  0.72125  1.0000
  S   S253      1.0  0.90725  0.26198  0.73564  1.0000
  H   H1120     1.0  0.54486  0.18342  0.71403  1.0000
  C   C935      1.0  0.69056  0.32776  0.73369  1.0000
  C   C936      1.0  0.80211  0.29205  0.71700  1.0000
  C   C937      1.0  0.80301  0.26918  0.71303  1.0000
  C   C938      1.0  0.78048  0.30614  0.71640  1.0000
  C   C939      1.0  0.78380  0.26130  0.70773  1.0000
  C   C940      1.0  0.76139  0.29808  0.71109  1.0000
  C   C941      1.0  0.76310  0.27581  0.70652  1.0000
  S   S254      1.0  0.78072  0.40374  0.74132  1.0000
  C   C942      1.0  0.63930  0.31807  0.68808  1.0000
  H   H1121     1.0  0.67901  0.18837  0.73283  1.0000
  H   H1122     1.0  0.53132  0.26769  0.69976  1.0000
  H   H1123     1.0  0.67012  0.16097  0.73485  1.0000
  H   H1124     1.0  0.70713  0.35755  0.73186  1.0000
  C   C943      1.0  0.64085  0.28759  0.66415  1.0000
  H   H1125     1.0  0.66817  0.33448  0.65137  1.0000
  H   H1126     1.0  0.58933  0.32008  0.72575  1.0000
  H   H1127     1.0  0.80664  0.32953  0.73761  1.0000
  H   H1128     1.0  0.75123  0.20870  0.73524  1.0000
  C   C944      1.0  0.55968  0.21446  0.70974  1.0000
  H   H1129     1.0  0.81925  0.20315  0.73035  1.0000
  H   H1130     1.0  0.74847  0.26991  0.70163  1.0000
  H   H1131     1.0  0.64358  0.36136  0.71756  1.0000
  C   C945      1.0  0.64815  0.33615  0.69495  1.0000
  H   H1132     1.0  0.68606  0.28595  0.66335  1.0000
  H   H1133     1.0  0.74870  0.32496  0.54349  1.0000
  C   C946      1.0  0.88140  0.18706  0.65968  1.0000
  C   C947      1.0  0.61495  0.34227  0.72326  1.0000
  H   H1134     1.0  0.85724  0.22636  0.67182  1.0000
  C   C948      1.0  0.81738  0.14760  0.66510  1.0000
  H   H1135     1.0  0.57681  0.20588  0.71230  1.0000
  H   H1136     1.0  0.77531  0.18304  0.58178  1.0000
  C   C949      1.0  0.84901  0.21061  0.67739  1.0000
  H   H1137     1.0  0.70266  0.32100  0.72023  1.0000
  Fe  Fe126     1.0  0.76319  0.11842  0.73981  1.0000
  C   C950      1.0  0.84204  0.29625  0.70253  1.0000
  H   H1138     1.0  0.66735  0.31277  0.63497  1.0000
  C   C951      1.0  0.84409  0.17361  0.66924  1.0000
  H   H1139     1.0  0.71590  0.30498  0.54203  1.0000
  C   C952      1.0  0.71751  0.25104  0.52403  1.0000
  N   N63       1.0  0.85608  0.19388  0.66119  1.0000
  H   H1140     1.0  0.83001  0.21575  0.67956  1.0000
  C   C953      1.0  0.83726  0.14049  0.69787  1.0000
  H   H1141     1.0  0.82302  0.17698  0.64173  1.0000
  H   H1142     1.0  0.88722  0.17337  0.64877  1.0000
  H   H1143     1.0  0.85603  0.19399  0.62548  1.0000
  H   H1144     1.0  0.85389  0.20364  0.69432  1.0000
  C   C954      1.0  0.72419  0.31377  0.52653  1.0000
  H   H1145     1.0  0.62420  0.29492  0.65795  1.0000
  S   S255      1.0  0.74747  0.46715  0.73661  1.0000
  N   N64       1.0  0.73009  0.18882  0.57046  1.0000
  C   C955      1.0  0.71086  0.20733  0.57474  1.0000
  C   C956      1.0  0.74779  0.19881  0.55312  1.0000
  C   C957      1.0  0.72138  0.17123  0.56067  1.0000
  C   C958      1.0  0.73887  0.17841  0.59191  1.0000
  C   C959      1.0  0.72371  0.16931  0.61059  1.0000
  C   C960      1.0  0.76252  0.17633  0.59479  1.0000
  C   C961      1.0  0.73169  0.15879  0.63076  1.0000
  C   C962      1.0  0.77028  0.16579  0.61510  1.0000
  C   C963      1.0  0.75494  0.15689  0.63296  1.0000
  H   H1146     1.0  0.71649  0.22067  0.58265  1.0000
  H   H1147     1.0  0.70411  0.21571  0.55891  1.0000
  H   H1148     1.0  0.69583  0.20126  0.58616  1.0000
  H   H1149     1.0  0.76228  0.18568  0.54796  1.0000
  H   H1150     1.0  0.75478  0.21254  0.55930  1.0000
  H   H1151     1.0  0.74055  0.20677  0.53733  1.0000
  H   H1152     1.0  0.70665  0.16431  0.57194  1.0000
  H   H1153     1.0  0.71516  0.17825  0.54416  1.0000
  H   H1154     1.0  0.73514  0.15666  0.55778  1.0000
  H   H1155     1.0  0.70548  0.17038  0.60984  1.0000
  H   H1156     1.0  0.85760  0.30368  0.70445  1.0000
  H   H1157     1.0  0.60597  0.35117  0.73704  1.0000
  H   H1158     1.0  0.72031  0.19020  0.72816  1.0000
  H   H1159     1.0  0.56962  0.24783  0.70559  1.0000
  C   C964      1.0  0.51469  0.23702  0.70379  1.0000
  H   H1160     1.0  0.50622  0.20200  0.70949  1.0000
  H   H1161     1.0  0.78513  0.24404  0.70389  1.0000
  S   S256      1.0  0.79762  0.09658  0.73730  1.0000
  C   C965      1.0  0.53352  0.24931  0.70280  1.0000
  C   C966      1.0  0.51944  0.21284  0.70789  1.0000
  H   H1162     1.0  0.68805  0.47727  0.73399  1.0000
  C   C967      1.0  0.74935  0.25605  0.49418  1.0000
  S   S257      1.0  0.67068  0.28955  0.73618  1.0000
  H   H1163     1.0  0.83656  0.30404  0.68590  1.0000
  C   C968      1.0  0.81977  0.32510  0.72308  1.0000
  C   C969      1.0  0.68470  0.16978  0.73684  1.0000
  S   S258      1.0  0.61361  0.26197  0.73652  1.0000
  C   C970      1.0  0.80763  0.49297  0.70353  1.0000
  S   S259      1.0  0.85873  0.22521  0.73171  1.0000
  C   C971      1.0  0.71701  0.31278  0.50579  1.0000
  H   H1164     1.0  0.83594  0.33087  0.72584  1.0000
  C   C972      1.0  0.80725  0.47878  0.72413  1.0000
  C   C973      1.0  0.74269  0.32509  0.52741  1.0000
  C   C974      1.0  0.85291  0.19723  0.74118  1.0000
  C   C975      1.0  0.83186  0.19085  0.73845  1.0000
  H   H1165     1.0  0.81452  0.33553  0.70732  1.0000
  H   H1166     1.0  0.83392  0.26919  0.74248  1.0000
  C   C976      1.0  0.83045  0.28790  0.74265  1.0000
  H   H1167     1.0  0.69118  0.27394  0.93112  1.0000
  H   H1168     1.0  0.81076  0.16368  0.74436  1.0000
  C   C977      1.0  0.69201  0.27685  0.97686  1.0000
  Fe  Fe127     1.0  0.89571  0.23551  0.79798  1.0000
  S   S260      1.0  0.86721  0.25436  0.77939  1.0000
  S   S261      1.0  0.88856  0.21910  0.83386  1.0000
  Fe  Fe128     1.0  0.93275  0.24244  0.75805  1.0000
  H   H1169     1.0  0.71678  0.13583  0.75148  1.0000
  C   C978      1.0  0.67450  0.27568  0.94247  1.0000
  C   C979      1.0  0.70507  0.29396  0.96469  1.0000
  S   S262      1.0  0.91096  0.21426  0.77063  1.0000
  S   S263      1.0  0.91934  0.26211  0.78711  1.0000
  Fe  Fe129     1.0  0.77159  0.24432  0.89810  1.0000
  S   S264      1.0  0.78130  0.21209  0.92096  1.0000
  S   S265      1.0  0.79500  0.26908  0.87931  1.0000
  Fe  Fe130     1.0  0.72198  0.23638  0.90169  1.0000
  S   S266      1.0  0.72739  0.20310  0.92428  1.0000
  S   S267      1.0  0.68778  0.25331  0.89159  1.0000
  Fe  Fe131     1.0  0.74766  0.22144  0.94239  1.0000
  Fe  Fe132     1.0  0.76043  0.19662  0.90099  1.0000
  S   S268      1.0  0.77729  0.16399  0.88826  1.0000
  S   S269      1.0  0.73982  0.25535  0.92133  1.0000
  S   S270      1.0  0.75310  0.22824  0.87660  1.0000
  Fe  Fe133     1.0  0.80378  0.11405  0.76550  1.0000
  S   S271      1.0  0.77084  0.13799  0.76564  1.0000
  S   S272      1.0  0.83802  0.12475  0.76758  1.0000
  Fe  Fe134     1.0  0.78064  0.07214  0.76471  1.0000
  S   S273      1.0  0.74547  0.09267  0.76488  1.0000
  Fe  Fe135     1.0  0.75588  0.11078  0.79071  1.0000
  S   S274      1.0  0.73053  0.12379  0.81912  1.0000
  S   S275      1.0  0.78957  0.08810  0.79293  1.0000
  Fe  Fe136     1.0  0.63713  0.22935  0.79080  1.0000
  S   S276      1.0  0.62359  0.26661  0.78798  1.0000
  S   S277      1.0  0.65387  0.20669  0.81861  1.0000
  H   H1170     1.0  0.64238  0.31592  0.76961  1.0000
  H   H1171     1.0  0.95886  0.17472  0.79131  1.0000
  H   H1172     1.0  0.68316  0.47768  0.79444  1.0000
  H   H1173     1.0  0.57588  0.23145  0.87770  1.0000
  Fe  Fe137     1.0  0.59516  0.25678  0.77201  1.0000
  S   S278      1.0  0.55750  0.27049  0.78058  1.0000
  H   H1174     1.0  0.74143  0.03709  0.76697  1.0000
  S   S279      1.0  0.60724  0.21929  0.77809  1.0000
  S   S280      1.0  0.73329  0.40942  0.77816  1.0000
  S   S281      1.0  0.78177  0.35999  0.79920  1.0000
  C   C980      1.0  0.73193  0.28157  0.82161  1.0000
  H   H1175     1.0  0.75019  0.29710  0.84202  1.0000
  H   H1176     1.0  0.56205  0.22722  0.76323  1.0000
  H   H1177     1.0  0.71727  0.34292  0.79112  1.0000
  C   C981      1.0  0.73322  0.18717  0.78943  1.0000
  C   C982      1.0  0.81418  0.32638  0.86622  1.0000
  S   S282      1.0  0.74093  0.21481  0.98069  1.0000
  H   H1178     1.0  0.78123  0.28182  0.78923  1.0000
  H   H1179     1.0  0.67680  0.23186  0.95733  1.0000
  H   H1180     1.0  0.90085  0.31488  0.86070  1.0000
  N   N65       1.0  0.69150  0.16393  0.75994  1.0000
  H   H1181     1.0  0.55290  0.16611  0.80861  1.0000
  C   C983      1.0  0.70065  0.13940  0.76320  1.0000
  H   H1182     1.0  0.82899  0.29863  0.88874  1.0000
  C   C984      1.0  0.67756  0.35741  0.75757  1.0000
  C   C985      1.0  0.00101  0.18734  0.79365  1.0000
  H   H1183     1.0  0.97176  0.25545  0.78417  1.0000
  C   C986      1.0  0.83244  0.31136  0.87419  1.0000
  C   C987      1.0  0.53702  0.25408  0.77553  1.0000
  H   H1184     1.0  0.89345  0.34528  0.85566  1.0000
  Fe  Fe138     1.0  0.64309  0.26838  0.75287  1.0000
  H   H1185     1.0  0.99186  0.18806  0.77938  1.0000
  H   H1186     1.0  0.72900  0.31722  0.96585  1.0000
  N   N66       1.0  0.96366  0.19011  0.82010  1.0000
  C   C988      1.0  0.74010  0.29989  0.82808  1.0000
  C   C989      1.0  0.95413  0.18777  0.84449  1.0000
  C   C990      1.0  0.67810  0.24011  0.87167  1.0000
  C   C991      1.0  0.68838  0.21843  0.86711  1.0000
  C   C992      1.0  0.68059  0.20821  0.85094  1.0000
  C   C993      1.0  0.66284  0.21979  0.83902  1.0000
  C   C994      1.0  0.65249  0.24145  0.84361  1.0000
  C   C995      1.0  0.66003  0.25154  0.86004  1.0000
  H   H1187     1.0  0.70225  0.20947  0.87611  1.0000
  H   H1188     1.0  0.68852  0.19139  0.84750  1.0000
  H   H1189     1.0  0.63866  0.25039  0.83459  1.0000
  H   H1190     1.0  0.65207  0.26834  0.86357  1.0000
  C   C996      1.0  0.76414  0.15421  0.86824  1.0000
  C   C997      1.0  0.77747  0.13945  0.85396  1.0000
  C   C998      1.0  0.76737  0.13075  0.83828  1.0000
  C   C999      1.0  0.74370  0.13607  0.83741  1.0000
  C   C1000     1.0  0.73036  0.15101  0.85154  1.0000
  C   C1001     1.0  0.74064  0.16042  0.86668  1.0000
  H   H1191     1.0  0.79561  0.13444  0.85523  1.0000
  H   H1192     1.0  0.77777  0.11920  0.82751  1.0000
  H   H1193     1.0  0.71202  0.15499  0.85102  1.0000
  H   H1194     1.0  0.73023  0.17167  0.87779  1.0000
  H   H1195     1.0  0.70525  0.29928  0.94676  1.0000
  H   H1196     1.0  0.77771  0.01915  0.81258  1.0000
  H   H1197     1.0  0.71639  0.00752  0.76700  1.0000
  H   H1198     1.0  0.93467  0.21510  0.81263  1.0000
  C   C1002     1.0  0.82699  0.16857  0.74642  1.0000
  H   H1199     1.0  0.87567  0.34504  0.79876  1.0000
  S   S283      1.0  0.79154  0.03418  0.76364  1.0000
  C   C1003     1.0  0.81712  0.32473  0.79571  1.0000
  C   C1004     1.0  0.83923  0.31493  0.78713  1.0000
  H   H1200     1.0  0.80646  0.31490  0.80861  1.0000
  H   H1201     1.0  0.84551  0.29761  0.79350  1.0000
  Fe  Fe139     1.0  0.89202  0.27923  0.76590  1.0000
  H   H1202     1.0  0.68820  0.12861  0.76003  1.0000
  N   N67       1.0  0.88351  0.32757  0.83127  1.0000
  C   C1005     1.0  0.95559  0.17222  0.81010  1.0000
  S   S284      1.0  0.68125  0.38294  0.76643  1.0000
  H   H1203     1.0  0.81716  0.29131  0.75733  1.0000
  H   H1204     1.0  0.67614  0.25617  0.79507  1.0000
  C   C1006     1.0  0.98913  0.18840  0.81586  1.0000
  H   H1205     1.0  0.71283  0.27989  0.76058  1.0000
  C   C1007     1.0  0.86329  0.23348  0.84728  1.0000
  C   C1008     1.0  0.85477  0.25558  0.83830  1.0000
  C   C1009     1.0  0.83389  0.26652  0.84832  1.0000
  C   C1010     1.0  0.82153  0.25546  0.86746  1.0000
  C   C1011     1.0  0.83025  0.23349  0.87665  1.0000
  C   C1012     1.0  0.85121  0.22258  0.86667  1.0000
  H   H1206     1.0  0.86427  0.26432  0.82370  1.0000
  H   H1207     1.0  0.82714  0.28344  0.84100  1.0000
  H   H1208     1.0  0.82095  0.22491  0.89151  1.0000
  H   H1209     1.0  0.85779  0.20552  0.87376  1.0000
  C   C1013     1.0  0.56352  0.19099  0.82553  1.0000
  C   C1014     1.0  0.85325  0.32790  0.77092  1.0000
  H   H1210     1.0  0.73619  0.26510  0.83128  1.0000
  N   N68       1.0  0.57339  0.22208  0.84524  1.0000
  H   H1211     1.0  0.67660  0.27451  0.81584  1.0000
  H   H1212     1.0  0.75889  0.46276  0.78289  1.0000
  C   C1015     1.0  0.84326  0.15266  0.75698  1.0000
  H   H1213     1.0  0.74146  0.33604  0.82192  1.0000
  H   H1214     1.0  0.70491  0.13350  0.78066  1.0000
  H   H1215     1.0  0.90850  0.30521  0.81208  1.0000
  N   N69       1.0  0.81487  0.19440  0.81703  1.0000
  C   C1016     1.0  0.80348  0.17804  0.80804  1.0000
  C   C1017     1.0  0.83977  0.19140  0.80830  1.0000
  C   C1018     1.0  0.81242  0.18820  0.84199  1.0000
  C   C1019     1.0  0.80491  0.21821  0.80979  1.0000
  C   C1020     1.0  0.80281  0.22604  0.78666  1.0000
  C   C1021     1.0  0.79840  0.23462  0.82501  1.0000
  C   C1022     1.0  0.79397  0.24860  0.77943  1.0000
  C   C1023     1.0  0.79008  0.25723  0.81754  1.0000
  C   C1024     1.0  0.78766  0.26420  0.79485  1.0000
  H   H1216     1.0  0.80657  0.17942  0.78935  1.0000
  H   H1217     1.0  0.81017  0.16000  0.81402  1.0000
  H   H1218     1.0  0.78454  0.18029  0.81361  1.0000
  H   H1219     1.0  0.84285  0.19521  0.78960  1.0000
  H   H1220     1.0  0.84802  0.17361  0.81296  1.0000
  H   H1221     1.0  0.84906  0.20301  0.81512  1.0000
  H   H1222     1.0  0.79410  0.19160  0.84964  1.0000
  H   H1223     1.0  0.81827  0.16980  0.84715  1.0000
  H   H1224     1.0  0.82290  0.19763  0.84999  1.0000
  H   H1225     1.0  0.80856  0.21491  0.77392  1.0000
  H   H1226     1.0  0.79992  0.23055  0.84280  1.0000
  H   H1227     1.0  0.93658  0.17228  0.81438  1.0000
  C   C1025     1.0  0.99335  0.23928  0.75754  1.0000
  H   H1228     1.0  0.95990  0.22665  0.81594  1.0000
  N   N70       1.0  0.67710  0.26536  0.96612  1.0000
  H   H1229     1.0  0.65034  0.47888  0.76213  1.0000
  H   H1230     1.0  0.80393  0.35359  0.84063  1.0000
  H   H1231     1.0  0.78754  0.02077  0.85048  1.0000
  C   C1026     1.0  0.67030  0.16771  0.77639  1.0000
  C   C1027     1.0  0.80893  0.34736  0.78786  1.0000
  H   H1232     1.0  0.88064  0.36335  0.81797  1.0000
  H   H1233     1.0  0.73458  0.23835  0.80784  1.0000
  C   C1028     1.0  0.71559  0.24350  0.80948  1.0000
  H   H1234     1.0  0.99523  0.19080  0.85030  1.0000
  H   H1235     1.0  0.58300  0.24368  0.81450  1.0000
  Fe  Fe140     1.0  0.76413  0.38294  0.77203  1.0000
  H   H1236     1.0  0.68724  0.46094  0.77180  1.0000
  C   C1029     1.0  0.95379  0.21267  0.80940  1.0000
  H   H1237     1.0  0.60513  0.20622  0.82811  1.0000
  H   H1238     1.0  0.60840  0.21646  0.85324  1.0000
  C   C1030     1.0  0.55724  0.21185  0.83475  1.0000
  C   C1031     1.0  0.71514  0.17645  0.78572  1.0000
  H   H1239     1.0  0.84234  0.35535  0.82061  1.0000
  H   H1240     1.0  0.96155  0.17138  0.85372  1.0000
  C   C1032     1.0  0.52530  0.19294  0.81529  1.0000
  C   C1033     1.0  0.81829  0.34221  0.84705  1.0000
  H   H1241     1.0  0.70801  0.22980  0.80393  1.0000
  H   H1242     1.0  0.70875  0.24360  0.82770  1.0000
  C   C1034     1.0  0.51337  0.26176  0.78032  1.0000
  H   H1243     1.0  0.67774  0.28566  0.78649  1.0000
  H   H1244     1.0  0.93501  0.18823  0.84706  1.0000
  H   H1245     1.0  0.79253  0.25410  0.76168  1.0000
  C   C1035     1.0  0.56372  0.22469  0.86901  1.0000
  C   C1036     1.0  0.75649  0.48061  0.77600  1.0000
  C   C1037     1.0  0.00268  0.18933  0.83305  1.0000
  H   H1246     1.0  0.95870  0.21493  0.79075  1.0000
  H   H1247     1.0  0.88566  0.18581  0.75308  1.0000
  H   H1248     1.0  0.81681  0.37768  0.76566  1.0000
  H   H1249     1.0  0.66424  0.18612  0.77645  1.0000
  H   H1250     1.0  0.70344  0.31143  0.77888  1.0000
  H   H1251     1.0  0.71201  0.25004  0.76608  1.0000
  C   C1038     1.0  0.69003  0.47754  0.77624  1.0000
  H   H1252     1.0  0.56050  0.25707  0.83303  1.0000
  C   C1039     1.0  0.71373  0.30751  0.79258  1.0000
  H   H1253     1.0  0.53299  0.20384  0.75805  1.0000
  H   H1254     1.0  0.90411  0.34593  0.80364  1.0000
  C   C1040     1.0  0.85967  0.32774  0.84322  1.0000
  H   H1255     1.0  0.58060  0.18153  0.82523  1.0000
  C   C1041     1.0  0.59650  0.20829  0.84552  1.0000
  C   C1042     1.0  0.53436  0.22287  0.83352  1.0000
  C   C1043     1.0  0.78029  0.00619  0.84750  1.0000
  C   C1044     1.0  0.65362  0.26638  0.97915  1.0000
  C   C1045     1.0  0.72170  0.32569  0.79939  1.0000
  H   H1256     1.0  0.89138  0.29075  0.83546  1.0000
  H   H1257     1.0  0.64694  0.35275  0.78128  1.0000
  C   C1046     1.0  0.84065  0.34300  0.83564  1.0000
  C   C1047     1.0  0.82284  0.36011  0.77146  1.0000
  H   H1258     1.0  0.78583  0.26946  0.82952  1.0000
  H   H1259     1.0  0.58948  0.25283  0.83934  1.0000
  C   C1048     1.0  0.84502  0.35048  0.76320  1.0000
  H   H1260     1.0  0.54743  0.23673  0.87022  1.0000
  H   H1261     1.0  0.66283  0.26706  0.93494  1.0000
  H   H1262     1.0  0.76717  0.25329  0.96955  1.0000
  C   C1049     1.0  0.65909  0.34577  0.76798  1.0000
  H   H1263     1.0  0.87905  0.30322  0.81045  1.0000
  H   H1264     1.0  0.86816  0.29909  0.86912  1.0000
  C   C1050     1.0  0.89097  0.30574  0.82202  1.0000
  C   C1051     1.0  0.88600  0.34636  0.81219  1.0000
  H   H1265     1.0  0.70482  0.23970  0.95645  1.0000
  C   C1052     1.0  0.65655  0.32493  0.76145  1.0000
  H   H1266     1.0  0.79674  0.32533  0.87461  1.0000
  C   C1053     1.0  0.71886  0.30451  0.97547  1.0000
  C   C1054     1.0  0.85482  0.31181  0.86280  1.0000
  C   C1055     1.0  0.71842  0.26424  0.77204  1.0000
  C   C1056     1.0  0.89940  0.32976  0.84724  1.0000
  H   H1267     1.0  0.91725  0.33098  0.83847  1.0000
  H   H1268     1.0  0.87706  0.14669  0.76730  1.0000
  C   C1057     1.0  0.57671  0.24488  0.83262  1.0000
  C   C1058     1.0  0.54396  0.23329  0.76717  1.0000
  H   H1269     1.0  0.95727  0.20214  0.85267  1.0000
  H   H1270     1.0  0.59551  0.19109  0.85540  1.0000
  C   C1059     1.0  0.73509  0.32187  0.81691  1.0000
  C   C1060     1.0  0.76224  0.25038  0.98767  1.0000
  H   H1271     1.0  0.70633  0.16682  0.80026  1.0000
  N   N71       1.0  0.70942  0.26605  0.79613  1.0000
  C   C1061     1.0  0.77304  0.01420  0.76216  1.0000
  C   C1062     1.0  0.68708  0.24115  0.96579  1.0000
  H   H1272     1.0  0.50785  0.27784  0.78679  1.0000
  H   H1273     1.0  0.55998  0.20802  0.87879  1.0000
  C   C1063     1.0  0.98921  0.24959  0.77725  1.0000
  C   C1064     1.0  0.71858  0.28486  0.80345  1.0000
  C   C1065     1.0  0.68390  0.27079  0.79849  1.0000
  S   S285      1.0  0.88164  0.31708  0.76087  1.0000
  H   H1274     1.0  0.67285  0.16026  0.79401  1.0000
  H   H1275     1.0  0.73759  0.26134  0.76935  1.0000
  C   C1066     1.0  0.86920  0.18122  0.75140  1.0000
  H   H1276     1.0  0.68849  0.23177  0.98304  1.0000
  C   C1067     1.0  0.73493  0.00306  0.76478  1.0000
  H   H1277     1.0  0.70901  0.47727  0.77411  1.0000
  Fe  Fe141     1.0  0.71741  0.39141  0.75593  1.0000
  H   H1278     1.0  0.65592  0.15980  0.77244  1.0000
  S   S286      1.0  0.74705  0.36356  0.75241  1.0000
  C   C1068     1.0  0.52742  0.22012  0.76404  1.0000
  H   H1279     1.0  0.66733  0.29404  0.94142  1.0000
  H   H1280     1.0  0.64164  0.25921  0.97060  1.0000
  C   C1069     1.0  0.74907  0.01986  0.76474  1.0000
  C   C1070     1.0  0.86437  0.15903  0.75932  1.0000
  H   H1281     1.0  0.73761  0.18556  0.80642  1.0000
  H   H1282     1.0  0.96419  0.15498  0.81624  1.0000
  S   S287      1.0  0.65868  0.23181  0.75697  1.0000
  H   H1283     1.0  0.76333  0.49227  0.80603  1.0000
  H   H1284     1.0  0.52851  0.23912  0.83949  1.0000
  S   S288      1.0  0.97051  0.23335  0.74465  1.0000
  C   C1071     1.0  0.70938  0.17712  0.76368  1.0000
  H   H1285     1.0  0.64623  0.28429  0.98121  1.0000
  C   C1072     1.0  0.77471  0.00531  0.82619  1.0000
  C   C1073     1.0  0.54769  0.18181  0.81592  1.0000
  Fe  Fe142     1.0  0.88428  0.23560  0.75080  1.0000
  C   C1074     1.0  0.74608  0.19897  0.77133  1.0000
  H   H1286     1.0  0.80716  0.47671  0.75988  1.0000
  H   H1287     1.0  0.85586  0.36064  0.75081  1.0000
  C   C1075     1.0  0.75116  0.48708  0.75394  1.0000
  H   H1288     1.0  0.76044  0.20676  0.77416  1.0000
  C   C1076     1.0  0.74086  0.20009  0.74946  1.0000
  C   C1077     1.0  0.51867  0.21343  0.82405  1.0000
  C   C1078     1.0  0.72287  0.18930  0.74559  1.0000
  Fe  Fe143     1.0  0.74834  0.42879  0.74562  1.0000
  H   H1289     1.0  0.84671  0.29314  0.74581  1.0000
  C   C1079     1.0  0.65383  0.49575  0.76523  1.0000
  H   H1290     1.0  0.51322  0.18607  0.80736  1.0000
  C   C1080     1.0  0.80787  0.48778  0.74383  1.0000
  N   N72       1.0  0.67889  0.49726  0.76174  1.0000
  C   C1081     1.0  0.67241  0.31589  0.74437  1.0000
  C   C1082     1.0  0.75897  0.49736  0.78907  1.0000
  Fe  Fe144     1.0  0.62769  0.22519  0.74389  1.0000
  H   H1291     1.0  0.00440  0.25977  0.80363  1.0000
  C   C1083     1.0  0.72931  0.66374  0.20112  1.0000
  S   S289      1.0  0.72228  0.85277  0.21820  1.0000
  C   C1084     1.0  0.50797  0.79977  0.22641  1.0000
  N   N73       1.0  0.54337  0.77480  0.21108  1.0000
  Fe  Fe145     1.0  0.89703  0.72658  0.22315  1.0000
  H   H1292     1.0  0.72377  0.76709  0.22371  1.0000
  H   H1293     1.0  0.81802  0.72528  0.01260  1.0000
  C   C1085     1.0  0.72689  0.70942  0.02125  1.0000
  H   H1294     1.0  0.72053  0.65608  0.18979  1.0000
  S   S290      1.0  0.59695  0.71912  0.23313  1.0000
  H   H1295     1.0  0.69161  0.71254  0.19907  1.0000
  H   H1296     1.0  0.82231  0.77578  0.23000  1.0000
  S   S291      1.0  0.89041  0.73891  0.18734  1.0000
  H   H1297     1.0  0.74403  0.77543  0.00517  1.0000
  Fe  Fe146     1.0  0.76102  0.78442  0.11977  1.0000
  S   S292      1.0  0.74712  0.75952  0.14841  1.0000
  S   S293      1.0  0.76406  0.82037  0.12393  1.0000
  Fe  Fe147     1.0  0.77804  0.74862  0.08825  1.0000
  S   S294      1.0  0.76584  0.72080  0.11459  1.0000
  S   S295      1.0  0.79974  0.73776  0.05639  1.0000
  Fe  Fe148     1.0  0.73405  0.74561  0.12135  1.0000
  S   S296      1.0  0.70198  0.72887  0.12790  1.0000
  Fe  Fe149     1.0  0.77989  0.73689  0.13936  1.0000
  S   S297      1.0  0.79665  0.71434  0.16736  1.0000
  S   S298      1.0  0.74497  0.77256  0.09299  1.0000
  S   S299      1.0  0.79500  0.76270  0.11267  1.0000
  C   C1086     1.0  0.73321  0.88447  0.12769  1.0000
  N   N74       1.0  0.71680  0.92352  0.17372  1.0000
  C   C1087     1.0  0.81824  0.97562  0.20297  1.0000
  H   H1298     1.0  0.76915  0.68461  0.20315  1.0000
  C   C1088     1.0  0.81316  0.79807  0.17627  1.0000
  C   C1089     1.0  0.67923  0.74168  0.14598  1.0000
  C   C1090     1.0  0.66304  0.72833  0.15851  1.0000
  C   C1091     1.0  0.64467  0.73806  0.17308  1.0000
  C   C1092     1.0  0.64191  0.76137  0.17456  1.0000
  C   C1093     1.0  0.65798  0.77484  0.16187  1.0000
  C   C1094     1.0  0.67688  0.76491  0.14785  1.0000
  H   H1299     1.0  0.66477  0.71039  0.15707  1.0000
  H   H1300     1.0  0.63241  0.72754  0.18293  1.0000
  H   H1301     1.0  0.65604  0.79283  0.16317  1.0000
  H   H1302     1.0  0.68936  0.77529  0.13817  1.0000
  H   H1303     1.0  0.75500  0.74545  0.20012  1.0000
  C   C1095     1.0  0.80184  0.73620  0.01104  1.0000
  C   C1096     1.0  0.78914  0.74507  0.03010  1.0000
  C   C1097     1.0  0.76825  0.75919  0.02790  1.0000
  S   S300      1.0  0.91525  0.69217  0.23547  1.0000
  H   H1304     1.0  0.75829  0.76607  0.04246  1.0000
  N   N75       1.0  0.72584  0.70732  0.99734  1.0000
  C   C1098     1.0  0.86421  0.73230  0.18206  1.0000
  C   C1099     1.0  0.85310  0.71555  0.19649  1.0000
  C   C1100     1.0  0.83232  0.71016  0.19187  1.0000
  C   C1101     1.0  0.82249  0.72163  0.17294  1.0000
  C   C1102     1.0  0.83342  0.73860  0.15871  1.0000
  C   C1103     1.0  0.85436  0.74381  0.16314  1.0000
  H   H1305     1.0  0.86089  0.70630  0.21083  1.0000
  H   H1306     1.0  0.82400  0.69693  0.20285  1.0000
  H   H1307     1.0  0.82584  0.74767  0.14427  1.0000
  H   H1308     1.0  0.86295  0.75676  0.15194  1.0000
  C   C1104     1.0  0.73459  0.84306  0.19246  1.0000
  C   C1105     1.0  0.72475  0.82669  0.18443  1.0000
  C   C1106     1.0  0.73426  0.81891  0.16379  1.0000
  C   C1107     1.0  0.75327  0.82794  0.15087  1.0000
  C   C1108     1.0  0.76306  0.84432  0.15891  1.0000
  C   C1109     1.0  0.75392  0.85166  0.17977  1.0000
  H   H1309     1.0  0.70976  0.81999  0.19413  1.0000
  H   H1310     1.0  0.72633  0.80659  0.15750  1.0000
  H   H1311     1.0  0.77760  0.85153  0.14882  1.0000
  H   H1312     1.0  0.76148  0.86441  0.18564  1.0000
  C   C1110     1.0  0.85989  0.82008  0.24056  1.0000
  C   C1111     1.0  0.75801  0.69413  0.21539  1.0000
  C   C1112     1.0  0.55574  0.77564  0.23036  1.0000
  H   H1313     1.0  0.71737  0.92602  0.20897  1.0000
  C   C1113     1.0  0.75827  0.76036  0.20651  1.0000
  H   H1314     1.0  0.72872  0.89867  0.20037  1.0000
  H   H1315     1.0  0.79296  0.75754  0.19068  1.0000
  N   N76       1.0  0.85305  0.71159  0.09843  1.0000
  C   C1114     1.0  0.86237  0.70006  0.07833  1.0000
  C   C1115     1.0  0.82965  0.70528  0.10675  1.0000
  C   C1116     1.0  0.85045  0.73662  0.09127  1.0000
  C   C1117     1.0  0.86908  0.70518  0.11558  1.0000
  C   C1118     1.0  0.89127  0.71232  0.11125  1.0000
  C   C1119     1.0  0.86334  0.69192  0.13686  1.0000
  C   C1120     1.0  0.90620  0.70759  0.12764  1.0000
  C   C1121     1.0  0.87858  0.68699  0.15297  1.0000
  C   C1122     1.0  0.89978  0.69513  0.14853  1.0000
  H   H1316     1.0  0.86465  0.68121  0.08294  1.0000
  H   H1317     1.0  0.85059  0.70451  0.06512  1.0000
  H   H1318     1.0  0.87938  0.70498  0.07029  1.0000
  H   H1319     1.0  0.82991  0.68652  0.11095  1.0000
  H   H1320     1.0  0.81778  0.71085  0.09380  1.0000
  H   H1321     1.0  0.82166  0.71341  0.12193  1.0000
  H   H1322     1.0  0.86636  0.74250  0.08141  1.0000
  H   H1323     1.0  0.83681  0.74234  0.08007  1.0000
  H   H1324     1.0  0.84579  0.74600  0.10616  1.0000
  H   H1325     1.0  0.89707  0.72201  0.09530  1.0000
  H   H1326     1.0  0.84688  0.68575  0.14188  1.0000
  H   H1327     1.0  0.92269  0.71399  0.12435  1.0000
  H   H1328     1.0  0.87353  0.67758  0.16940  1.0000
  H   H1329     1.0  0.91103  0.69218  0.16152  1.0000
  H   H1330     1.0  0.68970  0.71797  0.03011  1.0000
  H   H1331     1.0  0.71549  0.85735  0.12298  1.0000
  H   H1332     1.0  0.51839  0.81251  0.22797  1.0000
  H   H1333     1.0  0.72390  0.69280  0.16264  1.0000
  C   C1123     1.0  0.80909  0.81738  0.20862  1.0000
  H   H1334     1.0  0.72432  0.65575  0.21879  1.0000
  H   H1335     1.0  0.72806  0.71675  0.08441  1.0000
  C   C1124     1.0  0.73396  0.90151  0.14079  1.0000
  H   H1336     1.0  0.74811  0.65849  0.19668  1.0000
  N   N77       1.0  0.80763  0.79525  0.20130  1.0000
  C   C1125     1.0  0.74797  0.70649  0.03047  1.0000
  H   H1337     1.0  0.76457  0.70284  0.02052  1.0000
  H   H1338     1.0  0.78712  0.69936  0.23018  1.0000
  H   H1339     1.0  0.79641  0.83126  0.20141  1.0000
  C   C1126     1.0  0.51813  0.77912  0.21808  1.0000
  C   C1127     1.0  0.76019  0.76446  0.00675  1.0000
  H   H1340     1.0  0.69002  0.68658  0.18915  1.0000
  H   H1341     1.0  0.85325  0.67268  0.23878  1.0000
  C   C1128     1.0  0.73179  0.69895  0.17570  1.0000
  H   H1342     1.0  0.68499  0.89383  0.17779  1.0000
  Fe  Fe150     1.0  0.75881  0.91702  0.23874  1.0000
  C   C1129     1.0  0.82550  0.77805  0.21118  1.0000
  C   C1130     1.0  0.73792  0.93488  0.16832  1.0000
  C   C1131     1.0  0.69670  0.94127  0.17070  1.0000
  S   S301      1.0  0.75217  0.95353  0.22203  1.0000
  H   H1343     1.0  0.51770  0.69456  0.24155  1.0000
  H   H1344     1.0  0.73966  0.94413  0.15080  1.0000
  H   H1345     1.0  0.73773  0.94785  0.17970  1.0000
  H   H1346     1.0  0.75369  0.92239  0.17060  1.0000
  H   H1347     1.0  0.69637  0.95521  0.18099  1.0000
  H   H1348     1.0  0.68009  0.93428  0.17597  1.0000
  C   C1132     1.0  0.78472  0.78750  0.20823  1.0000
  H   H1349     1.0  0.57034  0.74968  0.19795  1.0000
  H   H1350     1.0  0.76451  0.70704  0.05965  1.0000
  H   H1351     1.0  0.68967  0.68641  0.21868  1.0000
  H   H1352     1.0  0.74848  0.91088  0.13616  1.0000
  H   H1353     1.0  0.54334  0.75068  0.18811  1.0000
  H   H1354     1.0  0.84310  0.78309  0.20604  1.0000
  Fe  Fe151     1.0  0.74457  0.87158  0.23342  1.0000
  H   H1355     1.0  0.75079  0.69487  0.17149  1.0000
  H   H1356     1.0  0.68474  0.86388  0.15492  1.0000
  H   H1357     1.0  0.72752  0.71784  0.17349  1.0000
  C   C1133     1.0  0.71669  0.90562  0.15946  1.0000
  C   C1134     1.0  0.78000  0.76755  0.20102  1.0000
  N   N78       1.0  0.72311  0.68887  0.19892  1.0000
  C   C1135     1.0  0.71519  0.91353  0.19790  1.0000
  H   H1358     1.0  0.69707  0.94901  0.15266  1.0000
  C   C1136     1.0  0.76654  0.79929  0.22208  1.0000
  H   H1359     1.0  0.81510  0.78175  0.16934  1.0000
  H   H1360     1.0  0.69839  0.90741  0.20461  1.0000
  C   C1137     1.0  0.73373  0.69797  0.21559  1.0000
  Fe  Fe152     1.0  0.61768  0.74816  0.22481  1.0000
  H   H1361     1.0  0.82971  0.80510  0.17037  1.0000
  C   C1138     1.0  0.83536  0.96866  0.18595  1.0000
  H   H1362     1.0  0.83681  0.95165  0.18146  1.0000
  H   H1363     1.0  0.82189  0.65879  0.22392  1.0000
  C   C1139     1.0  0.70632  0.71510  0.03599  1.0000
  H   H1364     1.0  0.82645  0.82286  0.20310  1.0000
  C   C1140     1.0  0.74823  0.70895  0.05306  1.0000
  C   C1141     1.0  0.69868  0.89182  0.16388  1.0000
  H   H1365     1.0  0.56929  0.78940  0.18619  1.0000
  H   H1366     1.0  0.54105  0.79292  0.17766  1.0000
  S   S302      1.0  0.77294  0.89098  0.21546  1.0000
  H   H1367     1.0  0.79935  0.80975  0.16815  1.0000
  C   C1142     1.0  0.74075  0.77246  0.21982  1.0000
  C   C1143     1.0  0.55043  0.79253  0.19231  1.0000
  C   C1144     1.0  0.55130  0.75230  0.20315  1.0000
  C   C1145     1.0  0.70683  0.71761  0.05852  1.0000
  H   H1368     1.0  0.80619  0.81638  0.22736  1.0000
  H   H1369     1.0  0.74690  0.88099  0.11399  1.0000
  C   C1146     1.0  0.71545  0.87108  0.13271  1.0000
  H   H1370     1.0  0.54711  0.80984  0.19745  1.0000
  S   S303      1.0  0.61898  0.77318  0.19320  1.0000
  C   C1147     1.0  0.72775  0.71454  0.06701  1.0000
  H   H1371     1.0  0.76823  0.81483  0.22814  1.0000
  C   C1148     1.0  0.69755  0.69387  0.20171  1.0000
  C   C1149     1.0  0.82362  0.65497  0.24172  1.0000
  C   C1150     1.0  0.76853  0.70260  0.23081  1.0000
  S   S304      1.0  0.64695  0.66598  0.23112  1.0000
  H   H1372     1.0  0.57476  0.77181  0.22579  1.0000
  S   S305      1.0  0.91645  0.74630  0.24061  1.0000
  C   C1151     1.0  0.69822  0.87474  0.15076  1.0000
  H   H1373     1.0  0.80628  0.96406  0.21166  1.0000
  H   H1374     1.0  0.69099  0.72219  0.06950  1.0000
  H   H1375     1.0  0.87028  0.82693  0.22539  1.0000
  S   S306      1.0  0.82919  0.85852  0.23284  1.0000
  H   H1376     1.0  0.71847  0.67281  0.00544  1.0000
  H   H1377     1.0  0.54733  0.73807  0.21676  1.0000
  C   C1152     1.0  0.74497  0.79171  0.22780  1.0000
  H   H1378     1.0  0.82621  0.76111  0.20570  1.0000
  H   H1379     1.0  0.73113  0.80141  0.23770  1.0000
  C   C1153     1.0  0.75738  0.97571  0.23578  1.0000
  C   C1154     1.0  0.85062  0.98356  0.17481  1.0000
  H   H1380     1.0  0.68461  0.82545  0.23444  1.0000
  C   C1155     1.0  0.72063  0.71065  0.23240  1.0000
  S   S307      1.0  0.65039  0.72660  0.23199  1.0000
  C   C1156     1.0  0.71152  0.68946  0.99630  1.0000
  H   H1381     1.0  0.85582  0.59123  0.23685  1.0000
  H   H1382     1.0  0.70207  0.71446  0.23405  1.0000
  H   H1383     1.0  0.86396  0.97801  0.16161  1.0000
  H   H1384     1.0  0.50890  0.74705  0.21104  1.0000
  C   C1157     1.0  0.81638  0.99744  0.20895  1.0000
  H   H1385     1.0  0.55256  0.79260  0.23621  1.0000
  H   H1386     1.0  0.69333  0.69371  0.00391  1.0000
  H   H1387     1.0  0.68905  0.63528  0.22890  1.0000
  H   H1388     1.0  0.72690  0.50369  0.23936  1.0000
  H   H1389     1.0  0.65214  0.80271  0.24272  1.0000
  H   H1390     1.0  0.90173  0.56285  0.27203  1.0000
  Fe  Fe153     1.0  0.88670  0.69227  0.26471  1.0000
  S   S308      1.0  0.86629  0.76676  0.29028  1.0000
  C   C1158     1.0  0.75522  0.71510  0.24691  1.0000
  C   C1159     1.0  0.66629  0.52562  0.28048  1.0000
  C   C1160     1.0  0.84492  0.57544  0.33252  1.0000
  Fe  Fe154     1.0  0.75205  0.88078  0.27940  1.0000
  S   S309      1.0  0.73684  0.87390  0.31586  1.0000
  S   S310      1.0  0.78123  0.90108  0.26541  1.0000
  S   S311      1.0  0.90552  0.70878  0.28565  1.0000
  Fe  Fe155     1.0  0.77146  0.55209  0.28777  1.0000
  S   S312      1.0  0.75072  0.57823  0.26532  1.0000
  Fe  Fe156     1.0  0.77131  0.58495  0.32177  1.0000
  S   S313      1.0  0.75048  0.61351  0.30260  1.0000
  S   S314      1.0  0.78534  0.58647  0.35379  1.0000
  Fe  Fe157     1.0  0.72979  0.58686  0.29797  1.0000
  S   S315      1.0  0.69117  0.59335  0.30510  1.0000
  Fe  Fe158     1.0  0.77322  0.60275  0.27183  1.0000
  C   C1161     1.0  0.77400  0.98916  0.26460  1.0000
  S   S316      1.0  0.74870  0.55889  0.31999  1.0000
  S   S317      1.0  0.79584  0.57592  0.29139  1.0000
  Fe  Fe159     1.0  0.76281  0.75810  0.38439  1.0000
  S   S318      1.0  0.72803  0.76536  0.40474  1.0000
  S   S319      1.0  0.78599  0.78184  0.36336  1.0000
  Fe  Fe160     1.0  0.76510  0.70714  0.39600  1.0000
  S   S320      1.0  0.73056  0.70949  0.41732  1.0000
  S   S321      1.0  0.79167  0.67615  0.39391  1.0000
  Fe  Fe161     1.0  0.71941  0.73653  0.38949  1.0000
  S   S322      1.0  0.68398  0.73841  0.37975  1.0000
  Fe  Fe162     1.0  0.74173  0.73795  0.43113  1.0000
  H   H1391     1.0  0.66505  0.52695  0.32557  1.0000
  S   S323      1.0  0.75313  0.73150  0.36683  1.0000
  S   S324      1.0  0.77732  0.73341  0.41209  1.0000
  Fe  Fe163     1.0  0.64161  0.73526  0.26708  1.0000
  S   S325      1.0  0.62249  0.70524  0.27982  1.0000
  S   S326      1.0  0.67428  0.74324  0.27675  1.0000
  Fe  Fe164     1.0  0.59142  0.72862  0.26825  1.0000
  H   H1392     1.0  0.79899  0.68163  0.45229  1.0000
  C   C1162     1.0  0.99811  0.75676  0.26423  1.0000
  C   C1163     1.0  0.71831  0.50573  0.31180  1.0000
  H   H1393     1.0  0.67298  0.51868  0.26429  1.0000
  H   H1394     1.0  0.72839  0.81737  0.29075  1.0000
  C   C1164     1.0  0.53212  0.72846  0.27583  1.0000
  C   C1165     1.0  0.53484  0.71225  0.26102  1.0000
  H   H1395     1.0  0.69458  0.81161  0.34672  1.0000
  H   H1396     1.0  0.72257  0.52115  0.31620  1.0000
  H   H1397     1.0  0.81017  0.72475  0.25599  1.0000
  C   C1166     1.0  0.68120  0.74118  0.35099  1.0000
  C   C1167     1.0  0.70035  0.74297  0.33439  1.0000
  C   C1168     1.0  0.69790  0.74403  0.31156  1.0000
  C   C1169     1.0  0.67636  0.74307  0.30530  1.0000
  C   C1170     1.0  0.65710  0.74169  0.32179  1.0000
  C   C1171     1.0  0.65951  0.74094  0.34464  1.0000
  H   H1398     1.0  0.71704  0.74343  0.33911  1.0000
  H   H1399     1.0  0.71280  0.74518  0.29877  1.0000
  H   H1400     1.0  0.64042  0.74108  0.31698  1.0000
  H   H1401     1.0  0.64464  0.73965  0.35747  1.0000
  C   C1172     1.0  0.85880  0.84981  0.28968  1.0000
  H   H1402     1.0  0.77946  0.74706  0.46215  1.0000
  N   N79       1.0  0.69448  0.81843  0.31048  1.0000
  C   C1173     1.0  0.67913  0.61379  0.28459  1.0000
  C   C1174     1.0  0.65787  0.62682  0.29039  1.0000
  C   C1175     1.0  0.64818  0.64340  0.27417  1.0000
  C   C1176     1.0  0.77074  0.49916  0.27071  1.0000
  C   C1177     1.0  0.86816  0.79946  0.25301  1.0000
  C   C1178     1.0  0.69064  0.61724  0.26255  1.0000
  H   H1403     1.0  0.64890  0.62415  0.30742  1.0000
  H   H1404     1.0  0.63166  0.65332  0.27862  1.0000
  Fe  Fe165     1.0  0.93266  0.71174  0.25528  1.0000
  H   H1405     1.0  0.74909  0.52766  0.25547  1.0000
  C   C1179     1.0  0.78634  0.61240  0.36350  1.0000
  C   C1180     1.0  0.77196  0.63265  0.35724  1.0000
  C   C1181     1.0  0.77282  0.65248  0.36682  1.0000
  C   C1182     1.0  0.78854  0.65207  0.38201  1.0000
  C   C1183     1.0  0.80310  0.63199  0.38769  1.0000
  C   C1184     1.0  0.80173  0.61222  0.37882  1.0000
  H   H1406     1.0  0.75991  0.63287  0.34551  1.0000
  H   H1407     1.0  0.76149  0.66796  0.36242  1.0000
  H   H1408     1.0  0.81534  0.63157  0.39932  1.0000
  H   H1409     1.0  0.81270  0.59663  0.38386  1.0000
  H   H1410     1.0  0.75527  0.79391  0.48382  1.0000
  C   C1185     1.0  0.82876  0.64403  0.28744  1.0000
  C   C1186     1.0  0.81112  0.63629  0.27914  1.0000
  C   C1187     1.0  0.74451  0.67397  0.47585  1.0000
  N   N80       1.0  0.86632  0.57633  0.26925  1.0000
  C   C1188     1.0  0.84424  0.65683  0.27290  1.0000
  H   H1411     1.0  0.83066  0.63955  0.30516  1.0000
  H   H1412     1.0  0.79965  0.62598  0.29052  1.0000
  H   H1413     1.0  0.87120  0.84925  0.27445  1.0000
  Fe  Fe166     1.0  0.88781  0.74154  0.26932  1.0000
  H   H1414     1.0  0.86295  0.55020  0.24952  1.0000
  S   S327      1.0  0.73142  0.73851  0.46876  1.0000
  C   C1189     1.0  0.68495  0.80827  0.33345  1.0000
  C   C1190     1.0  0.75039  0.84853  0.32945  1.0000
  C   C1191     1.0  0.73967  0.83786  0.34986  1.0000
  C   C1192     1.0  0.75011  0.81694  0.36015  1.0000
  C   C1193     1.0  0.77158  0.80711  0.35034  1.0000
  C   C1194     1.0  0.78233  0.81803  0.33019  1.0000
  C   C1195     1.0  0.77170  0.83855  0.31964  1.0000
  H   H1415     1.0  0.72328  0.84571  0.35766  1.0000
  H   H1416     1.0  0.74188  0.80879  0.37594  1.0000
  H   H1417     1.0  0.79899  0.81073  0.32276  1.0000
  H   H1418     1.0  0.78027  0.84695  0.30419  1.0000
  H   H1419     1.0  0.73548  0.66071  0.48709  1.0000
  C   C1196     1.0  0.82515  0.82309  0.26754  1.0000
  C   C1197     1.0  0.83350  0.80255  0.28004  1.0000
  H   H1420     1.0  0.80880  0.83232  0.27353  1.0000
  H   H1421     1.0  0.82335  0.79561  0.29521  1.0000
  C   C1198     1.0  0.86650  0.60696  0.31976  1.0000
  H   H1422     1.0  0.55168  0.70299  0.25646  1.0000
  C   C1199     1.0  0.51555  0.70740  0.25269  1.0000
  N   N81       1.0  0.77000  0.66856  0.47401  1.0000
  S   S328      1.0  0.86785  0.66356  0.28358  1.0000
  N   N82       1.0  0.69487  0.66992  0.31898  1.0000
  C   C1200     1.0  0.69617  0.64483  0.32423  1.0000
  C   C1201     1.0  0.68293  0.67971  0.33947  1.0000
  C   C1202     1.0  0.68040  0.67800  0.30059  1.0000
  C   C1203     1.0  0.71843  0.67598  0.31167  1.0000
  C   C1204     1.0  0.72937  0.68817  0.32433  1.0000
  C   C1205     1.0  0.73165  0.66860  0.29183  1.0000
  C   C1206     1.0  0.75227  0.69209  0.31767  1.0000
  C   C1207     1.0  0.75464  0.67212  0.28567  1.0000
  C   C1208     1.0  0.76501  0.68370  0.29862  1.0000
  H   H1423     1.0  0.70753  0.63784  0.33743  1.0000
  H   H1424     1.0  0.67890  0.63934  0.33024  1.0000
  H   H1425     1.0  0.70324  0.63633  0.30914  1.0000
  H   H1426     1.0  0.69204  0.67318  0.35444  1.0000
  H   H1427     1.0  0.66505  0.67542  0.34417  1.0000
  H   H1428     1.0  0.68150  0.69854  0.33664  1.0000
  H   H1429     1.0  0.68035  0.69656  0.29500  1.0000
  H   H1430     1.0  0.68636  0.66918  0.28546  1.0000
  H   H1431     1.0  0.66218  0.67498  0.30602  1.0000
  H   H1432     1.0  0.72070  0.69468  0.33957  1.0000
  H   H1433     1.0  0.72459  0.65920  0.28133  1.0000
  H   H1434     1.0  0.76029  0.70131  0.32762  1.0000
  H   H1435     1.0  0.87274  0.62199  0.32307  1.0000
  H   H1436     1.0  0.78295  0.68607  0.29385  1.0000
  N   N83       1.0  0.84882  0.81558  0.34819  1.0000
  C   C1209     1.0  0.87120  0.81673  0.35572  1.0000
  C   C1210     1.0  0.84930  0.79261  0.34185  1.0000
  C   C1211     1.0  0.84524  0.83312  0.32838  1.0000
  C   C1212     1.0  0.82585  0.85046  0.32814  1.0000
  C   C1213     1.0  0.82314  0.86678  0.30913  1.0000
  C   C1214     1.0  0.83960  0.86649  0.28997  1.0000
  H   H1437     1.0  0.87202  0.83413  0.35950  1.0000
  H   H1438     1.0  0.87405  0.80444  0.37120  1.0000
  H   H1439     1.0  0.88611  0.81251  0.34271  1.0000
  H   H1440     1.0  0.86406  0.78829  0.32877  1.0000
  H   H1441     1.0  0.85077  0.77898  0.35656  1.0000
  H   H1442     1.0  0.83333  0.79132  0.33493  1.0000
  H   H1443     1.0  0.81225  0.85161  0.34224  1.0000
  H   H1444     1.0  0.80798  0.87954  0.30913  1.0000
  H   H1445     1.0  0.83719  0.87884  0.27505  1.0000
  H   H1446     1.0  0.77238  0.64504  0.44990  1.0000
  H   H1447     1.0  0.78334  0.98548  0.27905  1.0000
  H   H1448     1.0  0.82978  0.83491  0.37401  1.0000
  C   C1215     1.0  0.51014  0.74017  0.28173  1.0000
  C   C1216     1.0  0.98241  0.74241  0.26149  1.0000
  S   S329      1.0  0.55561  0.73400  0.28785  1.0000
  C   C1217     1.0  0.83061  0.81824  0.36787  1.0000
  H   H1449     1.0  0.78494  0.76094  0.26226  1.0000
  C   C1218     1.0  0.69279  0.84334  0.31057  1.0000
  C   C1219     1.0  0.89126  0.57499  0.26042  1.0000
  C   C1220     1.0  0.68239  0.81418  0.29224  1.0000
  H   H1450     1.0  0.73832  0.67560  0.45914  1.0000
  C   C1221     1.0  0.84922  0.56914  0.31079  1.0000
  H   H1451     1.0  0.66662  0.81544  0.33804  1.0000
  H   H1452     1.0  0.83358  0.80468  0.38239  1.0000
  H   H1453     1.0  0.99339  0.77504  0.26142  1.0000
  C   C1222     1.0  0.77987  0.68529  0.45568  1.0000
  H   H1454     1.0  0.80621  0.74708  0.49001  1.0000
  H   H1455     1.0  0.83994  0.55459  0.27157  1.0000
  H   H1456     1.0  0.65440  0.51427  0.29102  1.0000
  H   H1457     1.0  0.65576  0.54234  0.27591  1.0000
  H   H1458     1.0  0.65683  0.79402  0.31314  1.0000
  H   H1459     1.0  0.76450  0.66561  0.27081  1.0000
  C   C1223     1.0  0.84132  0.66283  0.25010  1.0000
  H   H1460     1.0  0.86758  0.53991  0.27820  1.0000
  H   H1461     1.0  0.67456  0.85161  0.31144  1.0000
  H   H1462     1.0  0.81338  0.81682  0.36362  1.0000
  C   C1224     1.0  0.75151  0.73770  0.48756  1.0000
  C   C1225     1.0  0.80882  0.64127  0.25618  1.0000
  H   H1463     1.0  0.71412  0.54750  0.28588  1.0000
  C   C1226     1.0  0.77391  0.74278  0.48004  1.0000
  C   C1227     1.0  0.76897  0.97112  0.25476  1.0000
  C   C1228     1.0  0.69991  0.54384  0.27763  1.0000
  H   H1464     1.0  0.84165  0.55456  0.30856  1.0000
  C   C1229     1.0  0.73135  0.71894  0.24783  1.0000
  N   N84       1.0  0.68542  0.52809  0.29270  1.0000
  H   H1465     1.0  0.68975  0.56065  0.27258  1.0000
  C   C1230     1.0  0.85518  0.79100  0.27307  1.0000
  H   H1466     1.0  0.66334  0.55478  0.30892  1.0000
  H   H1467     1.0  0.87984  0.61213  0.28497  1.0000
  H   H1468     1.0  0.76882  0.63224  0.47885  1.0000
  H   H1469     1.0  0.69979  0.84734  0.32528  1.0000
  H   H1470     1.0  0.68616  0.78943  0.33481  1.0000
  C   C1231     1.0  0.69979  0.50623  0.29936  1.0000
  C   C1232     1.0  0.75299  0.50933  0.25825  1.0000
  H   H1471     1.0  0.70701  0.60720  0.25795  1.0000
  S   S330      1.0  0.72867  0.89885  0.25460  1.0000
  N   N85       1.0  0.82657  0.70990  0.33040  1.0000
  C   C1233     1.0  0.82083  0.71888  0.35243  1.0000
  C   C1234     1.0  0.82072  0.68631  0.33412  1.0000
  C   C1235     1.0  0.85179  0.70909  0.32366  1.0000
  C   C1236     1.0  0.81442  0.72382  0.31217  1.0000
  C   C1237     1.0  0.79978  0.74460  0.31518  1.0000
  C   C1238     1.0  0.81756  0.71699  0.29034  1.0000
  C   C1239     1.0  0.78926  0.75771  0.29735  1.0000
  C   C1240     1.0  0.80695  0.73018  0.27262  1.0000
  C   C1241     1.0  0.79287  0.75055  0.27610  1.0000
  H   H1472     1.0  0.82575  0.73623  0.35123  1.0000
  H   H1473     1.0  0.80217  0.71946  0.35881  1.0000
  H   H1474     1.0  0.82999  0.70783  0.36579  1.0000
  H   H1475     1.0  0.80177  0.68622  0.33803  1.0000
  H   H1476     1.0  0.82853  0.67570  0.34858  1.0000
  H   H1477     1.0  0.82713  0.67721  0.31926  1.0000
  H   H1478     1.0  0.85692  0.72649  0.32052  1.0000
  H   H1479     1.0  0.86169  0.69873  0.33681  1.0000
  H   H1480     1.0  0.85781  0.70139  0.30789  1.0000
  H   H1481     1.0  0.79645  0.75131  0.33106  1.0000
  H   H1482     1.0  0.82879  0.70162  0.28666  1.0000
  H   H1483     1.0  0.77861  0.77375  0.30004  1.0000
  H   H1484     1.0  0.83457  0.59610  0.26079  1.0000
  C   C1242     1.0  0.65255  0.79783  0.27868  1.0000
  C   C1243     1.0  0.85350  0.59430  0.33700  1.0000
  H   H1485     1.0  0.77434  0.95370  0.26170  1.0000
  H   H1486     1.0  0.87631  0.82017  0.30700  1.0000
  S   S331      1.0  0.61016  0.75943  0.25900  1.0000
  S   S332      1.0  0.78627  0.51580  0.28286  1.0000
  C   C1244     1.0  0.98855  0.71877  0.26456  1.0000
  C   C1245     1.0  0.67506  0.53873  0.31316  1.0000
  S   S333      1.0  0.86707  0.72491  0.25064  1.0000
  H   H1487     1.0  0.70269  0.85196  0.29529  1.0000
  C   C1246     1.0  0.71914  0.80869  0.30638  1.0000
  C   C1247     1.0  0.77708  0.64564  0.46694  1.0000
  H   H1488     1.0  0.83430  0.56596  0.34589  1.0000
  H   H1489     1.0  0.72858  0.81041  0.32039  1.0000
  H   H1490     1.0  0.76333  0.72164  0.25889  1.0000
  H   H1491     1.0  0.79609  0.64078  0.46595  1.0000
  H   H1492     1.0  0.72094  0.79022  0.30484  1.0000
  C   C1248     1.0  0.86153  0.83322  0.30845  1.0000
  H   H1493     1.0  0.68828  0.54372  0.32188  1.0000
  C   C1249     1.0  0.85892  0.55429  0.26717  1.0000
  H   H1494     1.0  0.70781  0.53661  0.26193  1.0000
  C   C1250     1.0  0.66341  0.80157  0.29641  1.0000
  H   H1495     1.0  0.77356  0.68491  0.43938  1.0000
  C   C1251     1.0  0.65937  0.64636  0.25196  1.0000
  S   S334      1.0  0.97044  0.70021  0.25891  1.0000
  H   H1496     1.0  0.51815  0.73084  0.33391  1.0000
  H   H1497     1.0  0.63853  0.78762  0.28217  1.0000
  H   H1498     1.0  0.77485  0.70300  0.45970  1.0000
  H   H1499     1.0  0.73846  0.69042  0.48264  1.0000
  H   H1500     1.0  0.84968  0.59934  0.35377  1.0000
  C   C1252     1.0  0.86222  0.58184  0.29272  1.0000
  C   C1253     1.0  0.87063  0.60102  0.29791  1.0000
  H   H1501     1.0  0.72102  0.72848  0.26054  1.0000
  C   C1254     1.0  0.66029  0.80621  0.25641  1.0000
  H   H1502     1.0  0.96576  0.74966  0.25655  1.0000
  H   H1503     1.0  0.50794  0.69634  0.32415  1.0000
  H   H1504     1.0  0.70369  0.83283  0.26492  1.0000
  S   S335      1.0  0.76527  0.85176  0.25956  1.0000
  C   C1255     1.0  0.68955  0.82286  0.26939  1.0000
  H   H1505     1.0  0.50794  0.75308  0.29279  1.0000
  S   S336      1.0  0.78839  0.62926  0.24540  1.0000
  H   H1506     1.0  0.89765  0.59176  0.25829  1.0000
  H   H1507     1.0  0.88494  0.79057  0.24753  1.0000
  H   H1508     1.0  0.85873  0.61154  0.25460  1.0000
  C   C1256     1.0  0.68053  0.63319  0.24614  1.0000
  C   C1257     1.0  0.85340  0.59456  0.25472  1.0000
  H   H1509     1.0  0.80180  0.69395  0.48542  1.0000
  C   C1258     1.0  0.67868  0.81882  0.25179  1.0000
  C   C1259     1.0  0.83855  0.83212  0.24801  1.0000
  Fe  Fe167     1.0  0.79261  0.87332  0.24343  1.0000
  H   H1510     1.0  0.55047  0.76302  0.24507  1.0000
  Fe  Fe168     1.0  0.62937  0.69833  0.24377  1.0000
  H   H1511     1.0  0.89515  0.56927  0.24342  1.0000
  H   H1512     1.0  0.67234  0.70276  0.71472  1.0000
  H   H1513     1.0  0.93826  0.75710  0.62925  1.0000
  H   H1514     1.0  0.70815  0.66574  0.69081  1.0000
  H   H1515     1.0  0.73280  0.73731  0.68968  1.0000
  C   C1260     1.0  0.00092  0.85086  0.71265  1.0000
  C   C1261     1.0  0.72797  0.73095  0.70723  1.0000
  H   H1516     1.0  0.67835  0.50667  0.72563  1.0000
  H   H1517     1.0  0.67520  0.69880  0.68563  1.0000
  H   H1518     1.0  0.74369  0.86156  0.66671  1.0000
  S   S337      1.0  0.79963  0.62460  0.72034  1.0000
  S   S338      1.0  0.60155  0.78694  0.70188  1.0000
  N   N86       1.0  0.80784  0.55111  0.72111  1.0000
  Fe  Fe169     1.0  0.62192  0.75229  0.70240  1.0000
  S   S339      1.0  0.63352  0.73554  0.67112  1.0000
  H   H1519     1.0  0.84797  0.79393  0.73323  1.0000
  C   C1262     1.0  0.83799  0.80840  0.74041  1.0000
  Fe  Fe170     1.0  0.74949  0.75592  0.61055  1.0000
  S   S340      1.0  0.75223  0.72702  0.59072  1.0000
  S   S341      1.0  0.71809  0.78147  0.61666  1.0000
  Fe  Fe171     1.0  0.79834  0.74368  0.62200  1.0000
  S   S342      1.0  0.80581  0.71333  0.60299  1.0000
  S   S343      1.0  0.81995  0.76011  0.64076  1.0000
  Fe  Fe172     1.0  0.78727  0.73607  0.57608  1.0000
  S   S344      1.0  0.80084  0.73859  0.53862  1.0000
  Fe  Fe173     1.0  0.77010  0.70672  0.61886  1.0000
  S   S345      1.0  0.75687  0.67387  0.63353  1.0000
  S   S346      1.0  0.78298  0.76698  0.59372  1.0000
  S   S347      1.0  0.76424  0.73491  0.64009  1.0000
  C   C1263     1.0  0.78173  0.73797  0.51914  1.0000
  C   C1264     1.0  0.75953  0.73238  0.52649  1.0000
  C   C1265     1.0  0.74448  0.73229  0.51078  1.0000
  H   H1520     1.0  0.80865  0.52656  0.68620  1.0000
  S   S348      1.0  0.96816  0.75678  0.72418  1.0000
  H   H1521     1.0  0.75399  0.72801  0.54425  1.0000
  H   H1522     1.0  0.72728  0.72808  0.51667  1.0000
  C   C1266     1.0  0.65660  0.74849  0.65530  1.0000
  C   C1267     1.0  0.65921  0.77064  0.65792  1.0000
  C   C1268     1.0  0.67795  0.78080  0.64570  1.0000
  C   C1269     1.0  0.69454  0.76859  0.63143  1.0000
  C   C1270     1.0  0.69219  0.74628  0.62907  1.0000
  C   C1271     1.0  0.67301  0.73637  0.64074  1.0000
  H   H1523     1.0  0.64668  0.78008  0.66922  1.0000
  H   H1524     1.0  0.67973  0.79804  0.64762  1.0000
  H   H1525     1.0  0.70502  0.73669  0.61818  1.0000
  H   H1526     1.0  0.67115  0.71914  0.63886  1.0000
  C   C1272     1.0  0.68220  0.70715  0.69778  1.0000
  C   C1273     1.0  0.78786  0.63844  0.69623  1.0000
  C   C1274     1.0  0.76689  0.63338  0.69194  1.0000
  C   C1275     1.0  0.75772  0.64406  0.67236  1.0000
  C   C1276     1.0  0.76900  0.66046  0.65757  1.0000
  C   C1277     1.0  0.78962  0.66608  0.66221  1.0000
  C   C1278     1.0  0.79928  0.65473  0.68136  1.0000
  H   H1527     1.0  0.75793  0.62093  0.70344  1.0000
  H   H1528     1.0  0.74177  0.63973  0.66875  1.0000
  H   H1529     1.0  0.79840  0.67872  0.65074  1.0000
  H   H1530     1.0  0.81554  0.65863  0.68466  1.0000
  H   H1531     1.0  0.58023  0.75920  0.64623  1.0000
  C   C1279     1.0  0.86052  0.72121  0.69632  1.0000
  C   C1280     1.0  0.85346  0.70925  0.68105  1.0000
  C   C1281     1.0  0.84022  0.72084  0.66433  1.0000
  C   C1282     1.0  0.83420  0.74445  0.66279  1.0000
  C   C1283     1.0  0.84065  0.75624  0.67851  1.0000
  C   C1284     1.0  0.85375  0.74469  0.69526  1.0000
  H   H1532     1.0  0.85855  0.69103  0.68192  1.0000
  H   H1533     1.0  0.83530  0.71164  0.65224  1.0000
  H   H1534     1.0  0.83570  0.77445  0.67754  1.0000
  H   H1535     1.0  0.85883  0.75402  0.70714  1.0000
  H   H1536     1.0  0.69554  0.86421  0.69397  1.0000
  H   H1537     1.0  0.76721  0.64484  0.55180  1.0000
  H   H1538     1.0  0.70064  0.66891  0.71963  1.0000
  H   H1539     1.0  0.58343  0.75000  0.68531  1.0000
  N   N87       1.0  0.55122  0.75349  0.67186  1.0000
  H   H1540     1.0  0.73687  0.77644  0.66054  1.0000
  C   C1285     1.0  0.90336  0.78622  0.66863  1.0000
  C   C1286     1.0  0.88139  0.79190  0.66113  1.0000
  H   H1541     1.0  0.73004  0.66956  0.70678  1.0000
  C   C1287     1.0  0.86543  0.80976  0.66877  1.0000
  C   C1288     1.0  0.80032  0.68271  0.52043  1.0000
  C   C1289     1.0  0.87080  0.82243  0.68413  1.0000
  H   H1542     1.0  0.84479  0.54866  0.71598  1.0000
  C   C1290     1.0  0.76292  0.81244  0.69534  1.0000
  H   H1543     1.0  0.75812  0.85888  0.69104  1.0000
  H   H1544     1.0  0.89630  0.82736  0.70374  1.0000
  H   H1545     1.0  0.81254  0.69371  0.52240  1.0000
  H   H1546     1.0  0.83007  0.57645  0.70686  1.0000
  C   C1291     1.0  0.79662  0.70994  0.71492  1.0000
  S   S349      1.0  0.90037  0.76227  0.72865  1.0000
  H   H1547     1.0  0.68778  0.81601  0.55001  1.0000
  H   H1548     1.0  0.87618  0.78235  0.64950  1.0000
  C   C1292     1.0  0.92536  0.77096  0.63578  1.0000
  C   C1293     1.0  0.94170  0.76281  0.67050  1.0000
  C   C1294     1.0  0.77571  0.79252  0.68839  1.0000
  H   H1549     1.0  0.85820  0.83596  0.69042  1.0000
  N   N88       1.0  0.70083  0.78068  0.54839  1.0000
  C   C1295     1.0  0.70384  0.75934  0.56443  1.0000
  C   C1296     1.0  0.68966  0.79947  0.56131  1.0000
  C   C1297     1.0  0.68481  0.77753  0.53291  1.0000
  C   C1298     1.0  0.72360  0.78598  0.53653  1.0000
  C   C1299     1.0  0.77753  0.66883  0.49619  1.0000
  H   H1550     1.0  0.82128  0.66892  0.72584  1.0000
  H   H1551     1.0  0.83529  0.69088  0.73198  1.0000
  C   C1300     1.0  0.66118  0.85603  0.73319  1.0000
  C   C1301     1.0  0.65215  0.83533  0.73717  1.0000
  H   H1552     1.0  0.71323  0.74498  0.55561  1.0000
  C   C1302     1.0  0.51190  0.75309  0.66134  1.0000
  H   H1553     1.0  0.78039  0.72198  0.71443  1.0000
  H   H1554     1.0  0.69972  0.80159  0.57472  1.0000
  H   H1555     1.0  0.67228  0.79633  0.57018  1.0000
  H   H1556     1.0  0.99327  0.82166  0.73680  1.0000
  H   H1557     1.0  0.68105  0.79327  0.52085  1.0000
  H   H1558     1.0  0.69202  0.76318  0.52307  1.0000
  H   H1559     1.0  0.66794  0.77342  0.54233  1.0000
  H   H1560     1.0  0.71488  0.82754  0.73001  1.0000
  H   H1561     1.0  0.73799  0.78754  0.56730  1.0000
  H   H1562     1.0  0.81695  0.81813  0.71334  1.0000
  Fe  Fe174     1.0  0.62597  0.79346  0.72411  1.0000
  H   H1563     1.0  0.83200  0.55384  0.69034  1.0000
  H   H1564     1.0  0.67811  0.72588  0.69310  1.0000
  H   H1565     1.0  0.93873  0.75885  0.68928  1.0000
  C   C1303     1.0  0.52962  0.74326  0.67464  1.0000
  H   H1566     1.0  0.90385  0.74208  0.68563  1.0000
  H   H1567     1.0  0.56155  0.78548  0.67590  1.0000
  C   C1304     1.0  0.71527  0.71219  0.71401  1.0000
  H   H1568     1.0  0.95352  0.74801  0.66446  1.0000
  C   C1305     1.0  0.71875  0.70553  0.67410  1.0000
  C   C1306     1.0  0.74404  0.78631  0.67060  1.0000
  H   H1569     1.0  0.74371  0.75687  0.71776  1.0000
  C   C1307     1.0  0.56737  0.74197  0.68788  1.0000
  C   C1308     1.0  0.76842  0.65486  0.51574  1.0000
  H   H1570     1.0  0.69292  0.83456  0.69747  1.0000
  H   H1571     1.0  0.71373  0.76103  0.57804  1.0000
  H   H1572     1.0  0.55951  0.74300  0.70572  1.0000
  H   H1573     1.0  0.73781  0.70140  0.67308  1.0000
  C   C1309     1.0  0.74027  0.82004  0.68990  1.0000
  C   C1310     1.0  0.90856  0.79998  0.68378  1.0000
  N   N89       1.0  0.91968  0.76678  0.66074  1.0000
  C   C1311     1.0  0.82963  0.55776  0.70798  1.0000
  C   C1312     1.0  0.80754  0.84088  0.73856  1.0000
  C   C1313     1.0  0.76272  0.79364  0.53831  1.0000
  C   C1314     1.0  0.73101  0.80610  0.67761  1.0000
  C   C1315     1.0  0.77472  0.65529  0.53700  1.0000
  H   H1574     1.0  0.71337  0.69546  0.66233  1.0000
  H   H1575     1.0  0.71414  0.72366  0.66702  1.0000
  H   H1576     1.0  0.66006  0.86682  0.71719  1.0000
  Fe  Fe175     1.0  0.58127  0.77205  0.73392  1.0000
  H   H1577     1.0  0.53465  0.77947  0.69201  1.0000
  H   H1578     1.0  0.68705  0.75436  0.57320  1.0000
  C   C1316     1.0  0.73436  0.74239  0.72324  1.0000
  C   C1317     1.0  0.72495  0.84131  0.72118  1.0000
  N   N90       1.0  0.79807  0.69731  0.73796  1.0000
  C   C1318     1.0  0.98886  0.76170  0.74031  1.0000
  C   C1319     1.0  0.76778  0.79555  0.51488  1.0000
  H   H1579     1.0  0.57306  0.72381  0.68561  1.0000
  H   H1580     1.0  0.77175  0.55754  0.71771  1.0000
  C   C1320     1.0  0.90896  0.74552  0.66702  1.0000
  C   C1321     1.0  0.79054  0.66931  0.53935  1.0000
  H   H1581     1.0  0.56745  0.73425  0.64519  1.0000
  H   H1582     1.0  0.89327  0.74611  0.65890  1.0000
  S   S350      1.0  0.87766  0.70642  0.71657  1.0000
  H   H1583     1.0  0.53655  0.78854  0.66218  1.0000
  H   H1584     1.0  0.81107  0.72004  0.70888  1.0000
  H   H1585     1.0  0.74380  0.51547  0.72827  1.0000
  C   C1322     1.0  0.54576  0.77775  0.67554  1.0000
  S   S351      1.0  0.64817  0.75987  0.72188  1.0000
  C   C1323     1.0  0.76636  0.77961  0.67587  1.0000
  C   C1324     1.0  0.80831  0.51629  0.70259  1.0000
  C   C1325     1.0  0.71178  0.67514  0.70404  1.0000
  H   H1586     1.0  0.71391  0.81026  0.67276  1.0000
  H   H1587     1.0  0.77113  0.82216  0.70459  1.0000
  C   C1326     1.0  0.80811  0.52620  0.72247  1.0000
  N   N91       1.0  0.70730  0.70024  0.69765  1.0000
  H   H1588     1.0  0.84866  0.81358  0.66297  1.0000
  H   H1589     1.0  0.79518  0.66994  0.55587  1.0000
  S   S352      1.0  0.64192  0.82598  0.71502  1.0000
  H   H1590     1.0  0.93256  0.78732  0.63031  1.0000
  H   H1591     1.0  0.92094  0.73036  0.66200  1.0000
  H   H1592     1.0  0.79319  0.78740  0.69221  1.0000
  H   H1593     1.0  0.92476  0.79705  0.69052  1.0000
  H   H1594     1.0  0.95127  0.77778  0.66589  1.0000
  S   S353      1.0  0.54263  0.78291  0.73648  1.0000
  C   C1327     1.0  0.89232  0.81760  0.69156  1.0000
  H   H1595     1.0  0.70502  0.84889  0.67056  1.0000
  C   C1328     1.0  0.74089  0.86077  0.68544  1.0000
  C   C1329     1.0  0.56351  0.75223  0.64866  1.0000
  H   H1596     1.0  0.91000  0.77187  0.62706  1.0000
  H   H1597     1.0  0.79036  0.56134  0.69139  1.0000
  H   H1598     1.0  0.74173  0.83872  0.72784  1.0000
  H   H1599     1.0  0.77660  0.76454  0.67002  1.0000
  H   H1600     1.0  0.55330  0.76202  0.63552  1.0000
  C   C1330     1.0  0.52542  0.72357  0.69036  1.0000
  S   S354      1.0  0.78508  0.85788  0.72542  1.0000
  C   C1331     1.0  0.78829  0.56351  0.70952  1.0000
  H   H1601     1.0  0.78649  0.58223  0.70981  1.0000
  H   H1602     1.0  0.71753  0.78578  0.50152  1.0000
  C   C1332     1.0  0.70432  0.84751  0.68922  1.0000
  N   N92       1.0  0.72767  0.84193  0.69627  1.0000
  H   H1603     1.0  0.79727  0.69822  0.70219  1.0000
  H   H1604     1.0  0.53759  0.71504  0.70152  1.0000
  H   H1605     1.0  0.78042  0.67107  0.73059  1.0000
  C   C1333     1.0  0.82051  0.82212  0.72916  1.0000
  S   S355      1.0  0.59982  0.73653  0.73259  1.0000
  H   H1606     1.0  0.80483  0.57774  0.74205  1.0000
  C   C1334     1.0  0.70906  0.70612  0.73758  1.0000
  H   H1607     1.0  0.66410  0.53974  0.74018  1.0000
  H   H1608     1.0  0.77596  0.79518  0.54824  1.0000
  C   C1335     1.0  0.52302  0.76298  0.73987  1.0000
  C   C1336     1.0  0.72928  0.78825  0.51257  1.0000
  C   C1337     1.0  0.74097  0.78902  0.54905  1.0000
  H   H1609     1.0  0.64952  0.66124  0.73557  1.0000
  C   C1338     1.0  0.82013  0.68172  0.73763  1.0000
  C   C1339     1.0  0.78899  0.74288  0.49583  1.0000
  H   H1610     1.0  0.70639  0.49820  0.73397  1.0000
  H   H1611     1.0  0.71571  0.85764  0.72645  1.0000
  H   H1612     1.0  0.98423  0.85360  0.70675  1.0000
  H   H1613     1.0  0.82755  0.72852  0.73736  1.0000
  Fe  Fe176     1.0  0.89177  0.72664  0.73834  1.0000
  C   C1340     1.0  0.75107  0.79301  0.50204  1.0000
  H   H1614     1.0  0.75617  0.64363  0.51476  1.0000
  H   H1615     1.0  0.73190  0.87761  0.68970  1.0000
  H   H1616     1.0  0.78491  0.79839  0.50672  1.0000
  H   H1617     1.0  0.51388  0.76801  0.64899  1.0000
  C   C1341     1.0  0.79392  0.68266  0.49914  1.0000
  Fe  Fe177     1.0  0.90901  0.72104  0.78374  1.0000
  S   S356      1.0  0.91898  0.75609  0.77821  1.0000
  S   S357      1.0  0.91731  0.69604  0.81399  1.0000
  H   H1618     1.0  0.69988  0.78960  0.75427  1.0000
  S   S358      1.0  0.77337  0.90343  0.76985  1.0000
  H   H1619     1.0  0.85331  0.77817  0.89218  1.0000
  Fe  Fe178     1.0  0.71534  0.87744  0.77971  1.0000
  S   S359      1.0  0.72221  0.90243  0.80072  1.0000
  H   H1620     1.0  0.64504  0.80622  0.76166  1.0000
  Fe  Fe179     1.0  0.73731  0.92149  0.76804  1.0000
  C   C1342     1.0  0.82329  0.65061  0.88705  1.0000
  Fe  Fe180     1.0  0.75736  0.88259  0.80087  1.0000
  S   S360      1.0  0.77076  0.87229  0.83438  1.0000
  H   H1621     1.0  0.76135  0.98675  0.80537  1.0000
  S   S361      1.0  0.74944  0.85620  0.78218  1.0000
  H   H1622     1.0  0.96424  0.76976  0.76902  1.0000
  Fe  Fe181     1.0  0.77929  0.74303  0.93260  1.0000
  S   S362      1.0  0.75785  0.73797  0.90658  1.0000
  Fe  Fe182     1.0  0.82271  0.71824  0.90962  1.0000
  S   S363      1.0  0.80532  0.71065  0.88213  1.0000
  S   S364      1.0  0.86028  0.70598  0.91024  1.0000
  Fe  Fe183     1.0  0.78825  0.74666  0.88136  1.0000
  S   S365      1.0  0.78697  0.76489  0.84606  1.0000
  Fe  Fe184     1.0  0.77662  0.70242  0.90943  1.0000
  S   S366      1.0  0.75945  0.67157  0.90948  1.0000
  S   S367      1.0  0.80808  0.75520  0.90683  1.0000
  S   S368      1.0  0.79560  0.70655  0.93750  1.0000
  Fe  Fe185     1.0  0.75256  0.62835  0.79407  1.0000
  S   S369      1.0  0.72533  0.60476  0.80024  1.0000
  S   S370      1.0  0.76032  0.65894  0.80758  1.0000
  C   C1343     1.0  0.67223  0.84927  0.77084  1.0000
  H   H1623     1.0  0.80259  0.86050  0.76615  1.0000
  Fe  Fe186     1.0  0.71980  0.61738  0.76430  1.0000
  S   S371      1.0  0.86376  0.79741  0.77612  1.0000
  Fe  Fe187     1.0  0.75303  0.57931  0.78427  1.0000
  S   S372      1.0  0.75924  0.54134  0.79700  1.0000
  H   H1624     1.0  0.69157  0.57979  0.77903  1.0000
  S   S373      1.0  0.78078  0.60166  0.78200  1.0000
  C   C1344     1.0  0.82962  0.83246  0.77004  1.0000
  C   C1345     1.0  0.84496  0.64719  0.89408  1.0000
  H   H1625     1.0  0.76657  0.70375  0.77758  1.0000
  S   S374      1.0  0.64204  0.72440  0.77984  1.0000
  H   H1626     1.0  0.91758  0.73528  0.89315  1.0000
  C   C1346     1.0  0.68908  0.56317  0.77570  1.0000
  H   H1627     1.0  0.51897  0.70641  0.75392  1.0000
  H   H1628     1.0  0.74739  0.69950  0.96637  1.0000
  C   C1347     1.0  0.79524  0.74600  0.78432  1.0000
  H   H1629     1.0  0.89855  0.76784  0.82951  1.0000
  N   N93       1.0  0.83688  0.67154  0.82422  1.0000
  C   C1348     1.0  0.67950  0.66190  0.77892  1.0000
  C   C1349     1.0  0.66960  0.68326  0.78514  1.0000
  C   C1350     1.0  0.65291  0.69695  0.77309  1.0000
  H   H1630     1.0  0.80124  0.98723  0.75730  1.0000
  S   S375      1.0  0.72603  0.95971  0.76398  1.0000
  H   H1631     1.0  0.69271  0.65164  0.78799  1.0000
  H   H1632     1.0  0.67521  0.68937  0.79898  1.0000
  C   C1351     1.0  0.69811  0.54350  0.78873  1.0000
  H   H1633     1.0  0.96485  0.70345  0.79085  1.0000
  C   C1352     1.0  0.75713  0.66815  0.88159  1.0000
  C   C1353     1.0  0.75952  0.68640  0.86429  1.0000
  C   C1354     1.0  0.75965  0.68333  0.84180  1.0000
  C   C1355     1.0  0.75730  0.66206  0.83637  1.0000
  C   C1356     1.0  0.75431  0.64386  0.85365  1.0000
  C   C1357     1.0  0.75418  0.64694  0.87630  1.0000
  H   H1634     1.0  0.76148  0.70288  0.86822  1.0000
  H   H1635     1.0  0.76186  0.69744  0.82852  1.0000
  H   H1636     1.0  0.75257  0.62736  0.84957  1.0000
  H   H1637     1.0  0.75233  0.63277  0.88966  1.0000
  H   H1638     1.0  0.76107  0.92199  0.81334  1.0000
  H   H1639     1.0  0.80366  0.73446  0.97536  1.0000
  H   H1640     1.0  0.88105  0.75279  0.91290  1.0000
  H   H1641     1.0  0.76497  0.95622  0.87515  1.0000
  H   H1642     1.0  0.88173  0.80186  0.81650  1.0000
  C   C1358     1.0  0.76727  0.96949  0.86102  1.0000
  H   H1643     1.0  0.86979  0.65637  0.80858  1.0000
  H   H1644     1.0  0.86898  0.68537  0.81349  1.0000
  H   H1645     1.0  0.79460  0.75835  0.79580  1.0000
  C   C1359     1.0  0.99539  0.68381  0.77588  1.0000
  C   C1360     1.0  0.77968  0.71496  0.77344  1.0000
  S   S376      1.0  0.74440  0.64262  0.75923  1.0000
  C   C1361     1.0  0.77709  0.84245  0.83851  1.0000
  C   C1362     1.0  0.77330  0.82993  0.86009  1.0000
  C   C1363     1.0  0.77658  0.80596  0.86272  1.0000
  C   C1364     1.0  0.78371  0.79463  0.84375  1.0000
  C   C1365     1.0  0.78811  0.80717  0.82236  1.0000
  C   C1366     1.0  0.78499  0.83096  0.81984  1.0000
  H   H1646     1.0  0.76724  0.83875  0.87464  1.0000
  H   H1647     1.0  0.77323  0.79632  0.87933  1.0000
  H   H1648     1.0  0.79398  0.79856  0.80765  1.0000
  H   H1649     1.0  0.78878  0.84052  0.80337  1.0000
  H   H1650     1.0  0.74014  0.91643  0.84993  1.0000
  H   H1651     1.0  0.80774  0.51695  0.75927  1.0000
  H   H1652     1.0  0.92599  0.74290  0.85147  1.0000
  H   H1653     1.0  0.98571  0.67260  0.76993  1.0000
  C   C1367     1.0  0.74876  0.70109  0.98422  1.0000
  H   H1654     1.0  0.83275  0.70608  0.83125  1.0000
  H   H1655     1.0  0.99333  0.77730  0.79102  1.0000
  C   C1368     1.0  0.90149  0.70062  0.84035  1.0000
  C   C1369     1.0  0.87993  0.71418  0.84220  1.0000
  C   C1370     1.0  0.86700  0.71587  0.86365  1.0000
  C   C1371     1.0  0.87589  0.70446  0.88318  1.0000
  C   C1372     1.0  0.89772  0.69158  0.88123  1.0000
  C   C1373     1.0  0.91032  0.68939  0.85989  1.0000
  H   H1656     1.0  0.87311  0.72304  0.82716  1.0000
  H   H1657     1.0  0.85035  0.72622  0.86515  1.0000
  H   H1658     1.0  0.90470  0.68286  0.89627  1.0000
  H   H1659     1.0  0.92694  0.67890  0.85853  1.0000
  H   H1660     1.0  0.84250  0.81344  0.86986  1.0000
  C   C1374     1.0  0.99574  0.71578  0.79532  1.0000
  H   H1661     1.0  0.67658  0.75806  0.76682  1.0000
  C   C1375     1.0  0.75004  0.52693  0.75845  1.0000
  C   C1376     1.0  0.66194  0.82926  0.77531  1.0000
  H   H1662     1.0  0.82522  0.81478  0.84787  1.0000
  H   H1663     1.0  0.82208  0.67214  0.75468  1.0000
  H   H1664     1.0  0.85573  0.82070  0.81928  1.0000
  C   C1377     1.0  0.67369  0.54012  0.75385  1.0000
  H   H1665     1.0  0.82582  0.79076  0.86922  1.0000
  S   S377      1.0  0.87397  0.73174  0.77317  1.0000
  H   H1666     1.0  0.71046  0.71248  0.77135  1.0000
  H   H1667     1.0  0.86138  0.76821  0.81988  1.0000
  S   S378      1.0  0.76171  0.76170  0.96166  1.0000
  H   H1668     1.0  0.87617  0.81944  0.83873  1.0000
  C   C1378     1.0  0.69511  0.52201  0.78438  1.0000
  H   H1669     1.0  0.76014  0.71433  0.98325  1.0000
  C   C1379     1.0  0.85883  0.67323  0.80871  1.0000
  H   H1670     1.0  0.73042  0.96821  0.80997  1.0000
  C   C1380     1.0  0.78271  0.99171  0.75935  1.0000
  C   C1381     1.0  0.76128  0.96814  0.83944  1.0000
  C   C1382     1.0  0.77887  0.73105  0.78807  1.0000
  C   C1383     1.0  0.86213  0.65817  0.85555  1.0000
  H   H1671     1.0  0.88113  0.64831  0.88396  1.0000
  H   H1672     1.0  0.64431  0.50886  0.75368  1.0000
  H   H1673     1.0  0.66192  0.81900  0.79172  1.0000
  H   H1674     1.0  0.83305  0.83667  0.78583  1.0000
  C   C1384     1.0  0.99873  0.77233  0.77434  1.0000
  H   H1675     1.0  0.69851  0.69282  0.74394  1.0000
  C   C1385     1.0  0.86434  0.65071  0.87834  1.0000
  C   C1386     1.0  0.81225  0.84597  0.75893  1.0000
  H   H1676     1.0  0.76550  0.73192  0.80252  1.0000
  H   H1677     1.0  0.80812  0.64813  0.89934  1.0000
  C   C1387     1.0  0.71531  0.72939  0.98595  1.0000
  H   H1678     1.0  0.70790  0.54491  0.80206  1.0000
  H   H1679     1.0  0.78481  0.93213  0.82172  1.0000
  C   C1388     1.0  0.81258  0.74491  0.76593  1.0000
  N   N94       1.0  0.71363  0.79197  0.82836  1.0000
  C   C1389     1.0  0.72966  0.80879  0.81870  1.0000
  C   C1390     1.0  0.69381  0.80385  0.84212  1.0000
  C   C1391     1.0  0.72618  0.77384  0.84340  1.0000
  C   C1392     1.0  0.70490  0.78202  0.81099  1.0000
  C   C1393     1.0  0.70804  0.79086  0.78758  1.0000
  C   C1394     1.0  0.69140  0.76389  0.81747  1.0000
  C   C1395     1.0  0.69814  0.78205  0.77187  1.0000
  C   C1396     1.0  0.68167  0.75521  0.80161  1.0000
  C   C1397     1.0  0.68485  0.76439  0.77890  1.0000
  H   H1680     1.0  0.72081  0.82409  0.80906  1.0000
  H   H1681     1.0  0.73660  0.81539  0.83210  1.0000
  H   H1682     1.0  0.74471  0.80122  0.80753  1.0000
  H   H1683     1.0  0.68155  0.79208  0.85105  1.0000
  H   H1684     1.0  0.68393  0.81754  0.83125  1.0000
  H   H1685     1.0  0.69951  0.81207  0.85517  1.0000
  H   H1686     1.0  0.74024  0.76351  0.83341  1.0000
  H   H1687     1.0  0.73438  0.78105  0.85555  1.0000
  H   H1688     1.0  0.71482  0.76208  0.85396  1.0000
  H   H1689     1.0  0.71719  0.80524  0.78112  1.0000
  H   H1690     1.0  0.68760  0.75674  0.83498  1.0000
  H   H1691     1.0  0.67098  0.74167  0.80698  1.0000
  N   N95       1.0  0.85671  0.79115  0.84491  1.0000
  C   C1398     1.0  0.84755  0.77690  0.83147  1.0000
  C   C1399     1.0  0.83679  0.80300  0.85870  1.0000
  C   C1400     1.0  0.86814  0.80902  0.82930  1.0000
  C   C1401     1.0  0.87348  0.77651  0.85853  1.0000
  C   C1402     1.0  0.89452  0.76579  0.84772  1.0000
  C   C1403     1.0  0.86913  0.77156  0.88249  1.0000
  C   C1404     1.0  0.91038  0.75143  0.86015  1.0000
  C   C1405     1.0  0.88509  0.75708  0.89473  1.0000
  C   C1406     1.0  0.90568  0.74710  0.88361  1.0000
  H   H1692     1.0  0.83847  0.76352  0.84261  1.0000
  H   H1693     1.0  0.83508  0.78727  0.82066  1.0000
  S   S379      1.0  0.60419  0.78151  0.75639  1.0000
  H   H1694     1.0  0.76416  0.92297  0.86063  1.0000
  C   C1407     1.0  0.65227  0.82206  0.75836  1.0000
  H   H1695     1.0  0.87784  0.66110  0.84447  1.0000
  S   S380      1.0  0.68603  0.85675  0.79164  1.0000
  C   C1408     1.0  0.79372  0.74137  0.98993  1.0000
  C   C1409     1.0  0.67693  0.56150  0.75828  1.0000
  H   H1696     1.0  0.77624  0.95773  0.75705  1.0000
  C   C1410     1.0  0.77288  0.75558  0.98771  1.0000
  H   H1697     1.0  0.71681  0.96628  0.83873  1.0000
  H   H1698     1.0  0.73341  0.74441  0.75863  1.0000
  C   C1411     1.0  0.74764  0.93081  0.85436  1.0000
  H   H1699     1.0  0.74693  0.54462  0.75170  1.0000
  C   C1412     1.0  0.75578  0.52062  0.78033  1.0000
  H   H1700     1.0  0.80588  0.65661  0.82411  1.0000
  C   C1413     1.0  0.98219  0.76795  0.76193  1.0000
  C   C1414     1.0  0.82368  0.65686  0.81508  1.0000
  H   H1701     1.0  0.84670  0.64215  0.91182  1.0000
  H   H1702     1.0  0.82159  0.66288  0.79707  1.0000
  H   H1703     1.0  0.77995  0.67204  0.75996  1.0000
  H   H1704     1.0  0.98644  0.72945  0.80429  1.0000
  H   H1705     1.0  0.82023  0.55144  0.75282  1.0000
  H   H1706     1.0  0.80366  0.66097  0.85993  1.0000
  H   H1707     1.0  0.75759  0.68446  0.99164  1.0000
  C   C1415     1.0  0.82091  0.65797  0.86433  1.0000
  C   C1416     1.0  0.84019  0.66224  0.84788  1.0000
  C   C1417     1.0  0.84246  0.81364  0.76095  1.0000
  H   H1708     1.0  0.80626  0.69466  0.83366  1.0000
  H   H1709     1.0  0.83231  0.63892  0.81640  1.0000
  H   H1710     1.0  0.71656  0.72958  0.96734  1.0000
  H   H1711     1.0  0.85584  0.67965  0.79095  1.0000
  C   C1418     1.0  0.74459  0.98050  0.76228  1.0000
  H   H1712     1.0  0.82136  0.70277  0.80625  1.0000
  H   H1713     1.0  0.72041  0.94246  0.82319  1.0000
  Fe  Fe188     1.0  0.88534  0.76638  0.76433  1.0000
  C   C1419     1.0  0.74800  0.51029  0.74527  1.0000
  H   H1714     1.0  0.78104  0.98911  0.88143  1.0000
  C   C1420     1.0  0.82374  0.69475  0.82377  1.0000
  H   H1715     1.0  0.71103  0.68696  0.97850  1.0000
  H   H1716     1.0  0.82530  0.75661  0.76306  1.0000
  C   C1421     1.0  0.79700  0.71358  0.75430  1.0000
  C   C1422     1.0  0.67229  0.65394  0.76100  1.0000
  S   S381      1.0  0.92610  0.71287  0.74967  1.0000
  N   N96       1.0  0.75142  0.94857  0.83452  1.0000
  C   C1423     1.0  0.76728  0.93748  0.81671  1.0000
  H   H1717     1.0  0.72418  0.74361  0.98856  1.0000
  C   C1424     1.0  0.76534  0.98662  0.82219  1.0000
  C   C1425     1.0  0.72884  0.95673  0.82633  1.0000
  H   H1718     1.0  0.73544  0.93778  0.86835  1.0000
  C   C1426     1.0  0.98354  0.70120  0.78769  1.0000
  Fe  Fe189     1.0  0.76253  0.87821  0.75102  1.0000
  C   C1427     1.0  0.76857  0.97495  0.75930  1.0000
  H   H1719     1.0  0.76907  0.94882  0.80034  1.0000
  C   C1428     1.0  0.67157  0.86283  0.74986  1.0000
  C   C1429     1.0  0.52966  0.73981  0.74658  1.0000
  C   C1430     1.0  0.77659  0.98833  0.86488  1.0000
  C   C1431     1.0  0.68269  0.51967  0.76676  1.0000
  H   H1720     1.0  0.69680  0.73364  0.99245  1.0000
  H   H1721     1.0  0.78923  0.55460  0.75434  1.0000
  Fe  Fe190     1.0  0.62457  0.74703  0.75229  1.0000
  C   C1432     1.0  0.71571  0.71748  0.75343  1.0000
  S   S382      1.0  0.68561  0.62809  0.75187  1.0000
  C   C1433     1.0  0.51372  0.72434  0.74872  1.0000
  C   C1434     1.0  0.65515  0.66732  0.74942  1.0000
  H   H1722     1.0  0.54703  0.73383  0.75027  1.0000
  C   C1435     1.0  0.81360  0.72886  0.75122  1.0000
  C   C1436     1.0  0.64567  0.68887  0.75529  1.0000
  H   H1723     1.0  0.67870  0.87873  0.74664  1.0000
  H   H1724     1.0  0.67006  0.57698  0.74819  1.0000
  S   S383      1.0  0.74577  0.59102  0.74868  1.0000
  H   H1725     1.0  0.70308  0.50756  0.79484  1.0000
  S   S384      1.0  0.72746  0.89776  0.74661  1.0000
  Fe  Fe191     1.0  0.77124  0.61508  0.74767  1.0000
  C   C1437     1.0  0.72847  0.73551  0.74627  1.0000
  H   H1726     1.0  0.63274  0.69919  0.74602  1.0000
  C   C1438     1.0  0.80542  0.55894  0.74358  1.0000
  H   H1727     1.0  0.76197  0.69333  0.74338  1.0000
  C   C1439     1.0  0.77922  0.68294  0.74328  1.0000
  C   C1440     1.0  0.80818  0.51113  0.74318  1.0000
  Fe  Fe192     1.0  0.93345  0.74901  0.74311  1.0000
  H   H1728     1.0  0.64611  0.49816  0.78286  1.0000
