data_image0
_chemical_formula_structural       HCSFeS2FeSCFeSFeS3HNHCH2FeS2CSHC2HC6H4CHC6H4C2H3C3HCSC2HCH3C2H3CH2C2H2CHSCHNC2NH3C6SH3CFeCH5CSHCHCHC2FeC2H2NHCH4C3H3CH11NC2SC2HCH4CH2C2HC2SCH7C2HC2HSH5CHCFeCHFeH5SFeSHFeSFeSHCH3S2C2FeS4H3CH2FeH2C2H2NC4H2C6H7C2HCH2CH2CHCH2C2NCH2CFeC4H2CHCH2CHC3H2CH6CHCH6CHC3H2CHCSFeS2FeS2FeSFeS3FeS2NH2SCS3CS2CFeSFeCHS2H2C2H2C6H7C3H2C6H4CHC4HC6H4CH2FeH2CHC2H2CHCFeH6CH2CFeCH2CH11C2HCHC2NC3H3SNCHNCH2FeH3SHCHCH2CH4C2HCHCHCH3FeNC9HCHSH8CH4CHNC2FeCHCHSH4CNCHC3NC4HCH5C2HCH4CSCSCHNHFeHSHCHNC5H3CH2CHC3HC2H2CH2SHC2FeHCSCH2C3H2C3HC2HC2H2C2HCH2FeS2HFeS5CHCFeSC3FeHSCHFeSCHFeS2FeSFeS2FeS2FeSFeSFeS3FeHSCH3C7H4C3H2C6H4CH4C7H8C2H2C7H5C3HSHSH2S3H2CH2C4SCH2NC9H14CNC9H13N2CHC6H3SH2CH2SH3SCH3CH3FeHFeHCHCHCHSH2CHSH5CSCHC2FeHCHC2HSCFeS2FeS2FeSFeHS2C2HC3H2C6H5C2HC2H3C3HCH7C2FeHCHCH3SH2C2NCHCH3CHC2H4CHCHCH3CHC2HSCHCH2NHC5HC2H2CHCHCH2CHNH4FeHCH2CH5C2H2C3HCSFeSH2CFeS2FeSCHFeSHC2HCH2CSH2CHCFeHC6HSH4SNCSH2SCH3CHNHCHCH6CH6CHCHC2HCFeCFeCNCH4CHS2FeS2FeCSC2FeSCSHC3NCHC4H3CHCSHFeHNHC6H4C2SCFeCFeSCH2C4HCH3CH2CHCSCHCHCH2CHCH2CNCH2C3H2CH2CH3FeHCH4FeSC4H2NHC2HCHC2HCH4C2HCHC2H2CH2C3FeSCH2SH5C2H4C2HCH2SH3C2H3SHCHC2SHCH2CH2CHCSCH7CHFeH2SHSHCHCH3CS2HSH3SHFeHCFeCHC3H2CFeNSNCHC2SFeH4CSHC2SC2HC4SC3H2NCHSHC2HCNH2CHNSH2CHS2HSFeS2FeSHFeSFeS3H5FeSCSC2HCHSCSC3H2C6H7C6H4NHC6H2CH3C2H7CHC2NCHC3HNCH2C6H5FeCH2NH3CHCFeCH3CH4C3HC2HCSCH3CHCH2CHNC3H2CHNCH2CHFeC3SH3CHSHCHCH4CH2NH2C2H6SCFeH5FeS2FeSFeS4FeS2C3FeSFeCS2HC3H4C2H3C5HFeC6H3C6H8C2H2SH4SC2HC2SCHCSH2NH8C2H2C4NCHCH2CH2CH2SC2SFeCSH2C5H4C4HC2H2CHNHSH2C2HC4HCHC2H2CH3C2H6CHSH2N2FeC2H3CHC3H2CH2C4H2CHC2HC2H2C3H3SFeH3SHC2HCHCSCFeS4CHFeH2FeS2FeSHFeHFeHS2C2HC4SH4CH2C3H3SHCH2C2HCHCH3C6H4CHC4HNHC4NH2CHC2HSHCH6C3HCHCH2CH2C2FeHNHFeCHCH3FeSFe2S2CSFe2SFeS2FeS2FeSFeS3CHSHSFeS2FeS2FeSFeSFeS3C4H4C6H5CHC6H4C6H4C3HC7H4C6HSHSHSC2H2NC9H14C2FeHCHCH3C2HSHCH2C2H2CH3CH2CSNC3HCH4NC9H14SHSH2C4HCHCNHC6H3CFeCH3C2HC3H2SCH2C2H5SNCH3CHC2H2CHNCH5SC2SHC5H3C4H4CH2C2H2CHC2H4NH6CHCHNH3CHC2H2FeC2H3Fe2S2FeS3CFeSH2C4FeS2FeCH3FeSCFeS2FeS2FeSFeS3HSFeSCSHC2HC6H6NC3H5C3HC6H4C4HCHC2H2C3HNH3C2H2CHCH3C2H3SCH2SNH3SH2CNC5H13NH2C3H4SH2C4HSC3HC4HC2NH3C2H3C2HC3HC2H2FeH3CH4C2S2C3HCH3CH3C2H5CH2NC2H2C2HCHCHCFeCHC3H2CH3FeSHSH3CSCHCH2CNFeHSH2CFeCSCSCH3FeSFeSHCHC3H2CH2C3HSC6H6C2HCH3CHCHCH4C2H2C2HSHC2HCH3C2H2C2HCHCHCSFeS3FeSCFeS2FeSFeS3FeS2H4C5H2C6H5CHC7H5FeC4NC9H21CHC2H5CSH3CHCH2C6HCHCSNH2CHC2H7C2H2CHSHC2N2SFeH4CH3CH5CSHC3HNHC2H2
_chemical_formula_sum              "H1296 C1080 S288 Fe144 N72"
_cell_length_a       61.6383
_cell_length_b       69.8514
_cell_length_c       32.0771
_cell_angle_alpha    84.8719
_cell_angle_beta     87.6291
_cell_angle_gamma    108.208

_space_group_name_H-M_alt    "P 1"
_space_group_IT_number       1

loop_
  _space_group_symop_operation_xyz
  'x, y, z'

loop_
  _atom_site_type_symbol
  _atom_site_label
  _atom_site_symmetry_multiplicity
  _atom_site_fract_x
  _atom_site_fract_y
  _atom_site_fract_z
  _atom_site_occupancy
  H   H1        1.0  0.24023  0.16750  0.47365  1.0000
  C   C1        1.0  0.23155  0.20207  0.49353  1.0000
  S   S1        1.0  0.32150  0.07906  0.08654  1.0000
  Fe  Fe1       1.0  0.26401  0.06027  0.31825  1.0000
  S   S2        1.0  0.28894  0.09135  0.32057  1.0000
  S   S3        1.0  0.23642  0.05278  0.27298  1.0000
  Fe  Fe2       1.0  0.28431  0.04050  0.38792  1.0000
  S   S4        1.0  0.31136  0.06977  0.39576  1.0000
  C   C2        1.0  0.29193  0.16609  0.11935  1.0000
  Fe  Fe3       1.0  0.28343  0.08391  0.39042  1.0000
  S   S5        1.0  0.28575  0.10765  0.43467  1.0000
  Fe  Fe4       1.0  0.31477  0.07498  0.32580  1.0000
  S   S6        1.0  0.34922  0.08902  0.29154  1.0000
  S   S7        1.0  0.25573  0.05406  0.38833  1.0000
  S   S8        1.0  0.29043  0.04443  0.31752  1.0000
  H   H2        1.0  0.33977  0.20875  0.32137  1.0000
  N   N1        1.0  0.37529  0.06238  0.44052  1.0000
  H   H3        1.0  0.41897  0.07056  0.27471  1.0000
  C   C3        1.0  0.40111  0.06550  0.28618  1.0000
  H   H4        1.0  0.34723  0.20693  0.20792  1.0000
  H   H5        1.0  0.31470  0.06689  0.18611  1.0000
  Fe  Fe5       1.0  0.28877  0.21726  0.37143  1.0000
  S   S9        1.0  0.26401  0.18664  0.36315  1.0000
  S   S10       1.0  0.31954  0.22145  0.40885  1.0000
  C   C4        1.0  0.32932  0.20195  0.21880  1.0000
  S   S11       1.0  0.25999  0.08122  0.07839  1.0000
  H   H6        1.0  0.39596  0.09397  0.26622  1.0000
  C   C5        1.0  0.25092  0.01242  0.19675  1.0000
  C   C6        1.0  0.38813  0.07872  0.28137  1.0000
  H   H7        1.0  0.36036  0.02425  0.33649  1.0000
  C   C7        1.0  0.28033  0.12966  0.41343  1.0000
  C   C8        1.0  0.26629  0.12916  0.38011  1.0000
  C   C9        1.0  0.26123  0.14670  0.36518  1.0000
  C   C10       1.0  0.27074  0.16494  0.38256  1.0000
  C   C11       1.0  0.28527  0.16555  0.41512  1.0000
  C   C12       1.0  0.28977  0.14788  0.43090  1.0000
  H   H8        1.0  0.25876  0.11509  0.36676  1.0000
  H   H9        1.0  0.24989  0.14609  0.34010  1.0000
  H   H10       1.0  0.29273  0.17945  0.42876  1.0000
  H   H11       1.0  0.30065  0.14831  0.45666  1.0000
  C   C13       1.0  0.33455  0.19191  0.32682  1.0000
  H   H12       1.0  0.28918  0.17496  0.29678  1.0000
  C   C14       1.0  0.25436  0.07330  0.13268  1.0000
  C   C15       1.0  0.23159  0.06486  0.14890  1.0000
  C   C16       1.0  0.22640  0.05865  0.19191  1.0000
  C   C17       1.0  0.24389  0.06121  0.21937  1.0000
  C   C18       1.0  0.26675  0.06981  0.20347  1.0000
  C   C19       1.0  0.27197  0.07583  0.16009  1.0000
  H   H13       1.0  0.21788  0.06302  0.12806  1.0000
  H   H14       1.0  0.20870  0.05205  0.20400  1.0000
  H   H15       1.0  0.28033  0.07187  0.22460  1.0000
  H   H16       1.0  0.28952  0.08300  0.14812  1.0000
  C   C20       1.0  0.36509  0.07223  0.29627  1.0000
  C   C21       1.0  0.35509  0.05258  0.31628  1.0000
  H   H17       1.0  0.33748  0.04765  0.32875  1.0000
  H   H18       1.0  0.32685  0.15336  0.26563  1.0000
  H   H19       1.0  0.36176  0.07827  0.39246  1.0000
  C   C22       1.0  0.31762  0.16116  0.06652  1.0000
  C   C23       1.0  0.36506  0.07065  0.47457  1.0000
  C   C24       1.0  0.39772  0.05993  0.44944  1.0000
  H   H20       1.0  0.25055  0.02451  0.46686  1.0000
  C   C25       1.0  0.26428  0.99974  0.46587  1.0000
  S   S12       1.0  0.29134  0.22835  0.10143  1.0000
  C   C26       1.0  0.35105  0.07292  0.18328  1.0000
  C   C27       1.0  0.29690  0.18421  0.26796  1.0000
  H   H21       1.0  0.45650  0.05164  0.47142  1.0000
  C   C28       1.0  0.29146  0.20336  0.20498  1.0000
  H   H22       1.0  0.27688  0.21942  0.48513  1.0000
  H   H23       1.0  0.39018  0.09178  0.40562  1.0000
  H   H24       1.0  0.21868  0.24092  0.08254  1.0000
  C   C29       1.0  0.32842  0.06057  0.19135  1.0000
  C   C30       1.0  0.36878  0.06488  0.18989  1.0000
  H   H25       1.0  0.38830  0.16547  0.06125  1.0000
  H   H26       1.0  0.30327  0.00680  0.26342  1.0000
  H   H27       1.0  0.38564  0.07116  0.37462  1.0000
  C   C31       1.0  0.20907  0.20834  0.43533  1.0000
  H   H28       1.0  0.25592  0.02522  0.21648  1.0000
  H   H29       1.0  0.36370  0.03573  0.40710  1.0000
  C   C32       1.0  0.31476  0.20868  0.19317  1.0000
  C   C33       1.0  0.23449  0.00078  0.51683  1.0000
  H   H30       1.0  0.33922  0.15509  0.31554  1.0000
  H   H31       1.0  0.32161  0.21831  0.16413  1.0000
  C   C34       1.0  0.37828  0.07647  0.40175  1.0000
  H   H32       1.0  0.33165  0.10990  0.22403  1.0000
  S   S13       1.0  0.40769  0.02965  0.31197  1.0000
  C   C35       1.0  0.36400  0.04446  0.20486  1.0000
  H   H33       1.0  0.38639  0.07462  0.18409  1.0000
  N   N2        1.0  0.33522  0.00963  0.22860  1.0000
  C   C36       1.0  0.32340  0.04009  0.20584  1.0000
  C   C37       1.0  0.35854  0.04246  0.43431  1.0000
  N   N3        1.0  0.30036  0.15057  0.10162  1.0000
  H   H34       1.0  0.37862  0.03942  0.21007  1.0000
  H   H35       1.0  0.26683  0.12770  0.10753  1.0000
  H   H36       1.0  0.43873  0.06863  0.52112  1.0000
  C   C38       1.0  0.30944  0.13976  0.13498  1.0000
  C   C39       1.0  0.33185  0.13805  0.13155  1.0000
  C   C40       1.0  0.29546  0.13000  0.17195  1.0000
  C   C41       1.0  0.33970  0.12752  0.16354  1.0000
  C   C42       1.0  0.30351  0.11954  0.20374  1.0000
  C   C43       1.0  0.32559  0.11829  0.19956  1.0000
  S   S14       1.0  0.35067  0.22348  0.07968  1.0000
  H   H37       1.0  0.28694  0.12383  0.07026  1.0000
  H   H38       1.0  0.23644  0.01062  0.29630  1.0000
  H   H39       1.0  0.25338  0.00156  0.35885  1.0000
  C   C44       1.0  0.21276  0.99901  0.23034  1.0000
  Fe  Fe6       1.0  0.33789  0.24393  0.35432  1.0000
  C   C45       1.0  0.44034  0.05406  0.46532  1.0000
  H   H40       1.0  0.32819  0.01503  0.29190  1.0000
  H   H41       1.0  0.19630  0.22933  0.52067  1.0000
  H   H42       1.0  0.34360  0.14447  0.10426  1.0000
  H   H43       1.0  0.27795  0.12995  0.17614  1.0000
  H   H44       1.0  0.29232  0.11193  0.23132  1.0000
  C   C46       1.0  0.32768  0.16062  0.29531  1.0000
  S   S15       1.0  0.32427  0.02329  0.09507  1.0000
  H   H45       1.0  0.36234  0.18327  0.24069  1.0000
  C   C47       1.0  0.24409  0.99869  0.29512  1.0000
  H   H46       1.0  0.31701  0.18661  0.34268  1.0000
  C   C48       1.0  0.40938  0.06665  0.48546  1.0000
  H   H47       1.0  0.28633  0.17540  0.09458  1.0000
  C   C49       1.0  0.22054  0.21286  0.51804  1.0000
  C   C50       1.0  0.28115  0.13575  0.08370  1.0000
  Fe  Fe7       1.0  0.32680  0.24165  0.07075  1.0000
  C   C51       1.0  0.35559  0.00322  0.23698  1.0000
  C   C52       1.0  0.43034  0.06364  0.49315  1.0000
  H   H48       1.0  0.37086  0.18429  0.29330  1.0000
  H   H49       1.0  0.27802  0.02546  0.09738  1.0000
  N   N4        1.0  0.24893  0.19330  0.50984  1.0000
  H   H50       1.0  0.35642  0.03127  0.46238  1.0000
  C   C53       1.0  0.36805  0.03932  0.32074  1.0000
  H   H51       1.0  0.37590  0.08624  0.47935  1.0000
  H   H52       1.0  0.39127  0.02570  0.50153  1.0000
  H   H53       1.0  0.33276  0.17244  0.07773  1.0000
  H   H54       1.0  0.36562  0.01162  0.26139  1.0000
  C   C54       1.0  0.36014  0.18954  0.27071  1.0000
  C   C55       1.0  0.27731  0.00980  0.09764  1.0000
  C   C56       1.0  0.40872  0.05064  0.42136  1.0000
  H   H55       1.0  0.20472  0.20668  0.40313  1.0000
  H   H56       1.0  0.24278  0.21968  0.10376  1.0000
  H   H57       1.0  0.34798  0.07183  0.46706  1.0000
  C   C57       1.0  0.39103  0.04575  0.30561  1.0000
  H   H58       1.0  0.35680  0.12633  0.16000  1.0000
  H   H59       1.0  0.36762  0.20640  0.26581  1.0000
  H   H60       1.0  0.35488  0.08878  0.17201  1.0000
  H   H61       1.0  0.34129  0.04364  0.42825  1.0000
  H   H62       1.0  0.31040  0.15462  0.31230  1.0000
  H   H63       1.0  0.24116  0.99918  0.08879  1.0000
  H   H64       1.0  0.36242  0.06069  0.50474  1.0000
  H   H65       1.0  0.26954  0.19976  0.45102  1.0000
  H   H66       1.0  0.43736  0.04028  0.40747  1.0000
  H   H67       1.0  0.30563  0.17674  0.13530  1.0000
  H   H68       1.0  0.34601  0.18792  0.34958  1.0000
  N   N5        1.0  0.33568  0.18307  0.28674  1.0000
  C   C58       1.0  0.47192  0.00955  0.46559  1.0000
  C   C59       1.0  0.27094  0.20272  0.48441  1.0000
  S   S16       1.0  0.27731  0.24133  0.39901  1.0000
  C   C60       1.0  0.38332  0.01026  0.51456  1.0000
  C   C61       1.0  0.22527  0.20007  0.45164  1.0000
  H   H69       1.0  0.30670  0.00033  0.18976  1.0000
  C   C62       1.0  0.28253  0.19108  0.24226  1.0000
  H   H70       1.0  0.99105  0.23939  0.50813  1.0000
  H   H71       1.0  0.40247  0.07386  0.50868  1.0000
  H   H72       1.0  0.28030  0.20886  0.18535  1.0000
  H   H73       1.0  0.26445  0.18712  0.25186  1.0000
  C   C63       1.0  0.32078  0.18963  0.25743  1.0000
  H   H74       1.0  0.22351  0.00873  0.52905  1.0000
  H   H75       1.0  0.28471  0.19694  0.49618  1.0000
  C   C64       1.0  0.25076  0.23540  0.09154  1.0000
  C   C65       1.0  0.34104  0.03139  0.21324  1.0000
  H   H76       1.0  0.40126  0.04553  0.39282  1.0000
  C   C66       1.0  0.42958  0.04764  0.42941  1.0000
  C   C67       1.0  0.19858  0.21877  0.46019  1.0000
  S   S17       1.0  0.30792  0.23779  0.31482  1.0000
  C   C68       1.0  0.32279  0.99715  0.19679  1.0000
  H   H77       1.0  0.33355  0.00014  0.16670  1.0000
  H   H78       1.0  0.37855  0.99893  0.45401  1.0000
  H   H79       1.0  0.26683  0.00933  0.18642  1.0000
  H   H80       1.0  0.30559  0.03110  0.21099  1.0000
  H   H81       1.0  0.27693  0.15932  0.14241  1.0000
  H   H82       1.0  0.20360  0.00095  0.20184  1.0000
  H   H83       1.0  0.31062  0.16965  0.04239  1.0000
  C   C69       1.0  0.47263  0.01477  0.50679  1.0000
  C   C70       1.0  0.24136  0.17114  0.50677  1.0000
  H   H84       1.0  0.36706  0.00534  0.20806  1.0000
  C   C71       1.0  0.29732  0.00452  0.10064  1.0000
  C   C72       1.0  0.27462  0.24364  0.08719  1.0000
  H   H85       1.0  0.24385  0.01782  0.16823  1.0000
  S   S18       1.0  0.28508  0.01129  0.42397  1.0000
  H   H86       1.0  0.32351  0.15024  0.04967  1.0000
  H   H87       1.0  0.21606  0.01363  0.24408  1.0000
  H   H88       1.0  0.22418  0.16359  0.52346  1.0000
  H   H89       1.0  0.34608  0.24545  0.25642  1.0000
  H   H90       1.0  0.18608  0.22523  0.44744  1.0000
  C   C73       1.0  0.32027  0.00497  0.26811  1.0000
  H   H91       1.0  0.23297  0.19220  0.43095  1.0000
  C   C74       1.0  0.20429  0.22099  0.50144  1.0000
  Fe  Fe8       1.0  0.29175  0.07741  0.04813  1.0000
  C   C75       1.0  0.24976  0.00972  0.48149  1.0000
  H   H92       1.0  0.27997  0.04323  0.52947  1.0000
  Fe  Fe9       1.0  0.32232  0.05139  0.05737  1.0000
  H   H93       1.0  0.25354  0.16385  0.52046  1.0000
  H   H94       1.0  0.35133  0.00122  0.05190  1.0000
  H   H95       1.0  0.27386  0.14311  0.05813  1.0000
  H   H96       1.0  0.47335  0.00080  0.23018  1.0000
  H   H97       1.0  0.43076  0.10763  0.88221  1.0000
  S   S19       1.0  0.36261  0.01888  0.71026  1.0000
  Fe  Fe10      1.0  0.35902  0.23126  0.01037  1.0000
  S   S20       1.0  0.41870  0.03570  0.69235  1.0000
  H   H98       1.0  0.23758  0.18946  0.57554  1.0000
  Fe  Fe11      1.0  0.39288  0.03382  0.74570  1.0000
  S   S21       1.0  0.39518  0.05935  0.78548  1.0000
  Fe  Fe12      1.0  0.38859  0.01776  0.65990  1.0000
  S   S22       1.0  0.38741  0.02559  0.59027  1.0000
  H   H99       1.0  0.33599  0.03137  0.62691  1.0000
  C   C76       1.0  0.25337  0.19653  0.55429  1.0000
  H   H100      1.0  0.30415  0.21960  0.87364  1.0000
  H   H101      1.0  0.29063  0.02491  0.71296  1.0000
  H   H102      1.0  0.25769  0.00681  0.96760  1.0000
  S   S23       1.0  0.39571  0.00495  0.77794  1.0000
  S   S24       1.0  0.31255  0.09698  0.99183  1.0000
  C   C77       1.0  0.29192  0.04039  0.55128  1.0000
  C   C78       1.0  0.37432  0.18424  0.02050  1.0000
  Fe  Fe13      1.0  0.31582  0.06819  0.96980  1.0000
  S   S25       1.0  0.31029  0.05877  0.90424  1.0000
  S   S26       1.0  0.34718  0.06895  0.00367  1.0000
  S   S27       1.0  0.29130  0.04870  0.02163  1.0000
  S   S28       1.0  0.35687  0.20762  0.96604  1.0000
  H   H103      1.0  0.26916  0.24600  0.99501  1.0000
  H   H104      1.0  0.46338  0.03830  0.72390  1.0000
  H   H105      1.0  0.26015  0.21302  0.55830  1.0000
  C   C79       1.0  0.39016  0.11674  0.88979  1.0000
  H   H106      1.0  0.43682  0.13463  0.86837  1.0000
  H   H107      1.0  0.46984  0.04363  0.56059  1.0000
  Fe  Fe14      1.0  0.34256  0.09664  0.02880  1.0000
  H   H108      1.0  0.28576  0.02130  0.94775  1.0000
  H   H109      1.0  0.43902  0.03462  0.56732  1.0000
  C   C80       1.0  0.36712  0.14806  0.01717  1.0000
  C   C81       1.0  0.43531  0.99872  0.60921  1.0000
  H   H110      1.0  0.42732  0.14489  0.95382  1.0000
  H   H111      1.0  0.44596  0.12546  0.91599  1.0000
  N   N6        1.0  0.45491  0.01161  0.58039  1.0000
  C   C82       1.0  0.30720  0.05648  0.56826  1.0000
  C   C83       1.0  0.36103  0.18494  0.98642  1.0000
  C   C84       1.0  0.35086  0.16722  0.96779  1.0000
  C   C85       1.0  0.35361  0.14881  0.98347  1.0000
  H   H112      1.0  0.34063  0.16773  0.94134  1.0000
  H   H113      1.0  0.34546  0.13534  0.96895  1.0000
  C   C86       1.0  0.37126  0.05693  0.81990  1.0000
  C   C87       1.0  0.34898  0.04988  0.80705  1.0000
  C   C88       1.0  0.33036  0.05032  0.83340  1.0000
  C   C89       1.0  0.33387  0.05738  0.87298  1.0000
  C   C90       1.0  0.35603  0.06353  0.88649  1.0000
  C   C91       1.0  0.37469  0.06354  0.85982  1.0000
  H   H114      1.0  0.34625  0.04493  0.77616  1.0000
  H   H115      1.0  0.31326  0.04559  0.82282  1.0000
  H   H116      1.0  0.35894  0.06907  0.91672  1.0000
  H   H117      1.0  0.39189  0.06905  0.86978  1.0000
  H   H118      1.0  0.39739  0.14071  0.95365  1.0000
  H   H119      1.0  0.33206  0.10836  0.89613  1.0000
  H   H120      1.0  0.28024  0.00871  0.54717  1.0000
  C   C92       1.0  0.27194  0.00692  0.94491  1.0000
  C   C93       1.0  0.30759  0.01622  0.58969  1.0000
  H   H121      1.0  0.41549  0.15331  0.90784  1.0000
  C   C94       1.0  0.36781  0.11459  0.90686  1.0000
  H   H122      1.0  0.36465  0.11578  0.93972  1.0000
  H   H123      1.0  0.40080  0.08970  0.94142  1.0000
  C   C95       1.0  0.45495  0.03284  0.58000  1.0000
  H   H124      1.0  0.34999  0.01815  0.87684  1.0000
  H   H125      1.0  0.39025  0.10484  0.97428  1.0000
  C   C96       1.0  0.41262  0.14083  0.93368  1.0000
  H   H126      1.0  0.45575  0.03769  0.61228  1.0000
  C   C97       1.0  0.31732  0.00535  0.91234  1.0000
  H   H127      1.0  0.26648  0.18977  0.56563  1.0000
  H   H128      1.0  0.33483  0.06539  0.60855  1.0000
  C   C98       1.0  0.30585  0.23404  0.88541  1.0000
  C   C99       1.0  0.38011  0.00559  0.55817  1.0000
  N   N7        1.0  0.40962  0.12111  0.91693  1.0000
  C   C100      1.0  0.40488  0.10498  0.95267  1.0000
  H   H129      1.0  0.41969  0.10709  0.97249  1.0000
  H   H130      1.0  0.26607  0.00785  0.91270  1.0000
  C   C101      1.0  0.37368  0.11013  0.82198  1.0000
  Fe  Fe15      1.0  0.41893  0.00547  0.72184  1.0000
  C   C102      1.0  0.34908  0.11043  0.88215  1.0000
  C   C103      1.0  0.43170  0.12224  0.89473  1.0000
  C   C104      1.0  0.32313  0.03302  0.60625  1.0000
  C   C105      1.0  0.39258  0.11444  0.84636  1.0000
  H   H131      1.0  0.33730  0.10428  0.82114  1.0000
  H   H132      1.0  0.37579  0.10772  0.78932  1.0000
  C   C106      1.0  0.25676  0.24575  0.97059  1.0000
  H   H133      1.0  0.40873  0.11534  0.83055  1.0000
  C   C107      1.0  0.32277  0.05281  0.59568  1.0000
  H   H134      1.0  0.27554  0.03529  0.64849  1.0000
  H   H135      1.0  0.28332  0.02043  0.78809  1.0000
  C   C108      1.0  0.33452  0.00520  0.88275  1.0000
  H   H136      1.0  0.32020  0.01870  0.92879  1.0000
  C   C109      1.0  0.35200  0.10815  0.83982  1.0000
  C   C110      1.0  0.27434  0.01526  0.70451  1.0000
  C   C111      1.0  0.26581  0.02144  0.66769  1.0000
  H   H137      1.0  0.25060  0.23003  0.96177  1.0000
  H   H138      1.0  0.30465  0.00393  0.99566  1.0000
  C   C112      1.0  0.28646  0.23833  0.90063  1.0000
  H   H139      1.0  0.27007  0.22679  0.89999  1.0000
  H   H140      1.0  0.22436  0.21555  0.54999  1.0000
  H   H141      1.0  0.30704  0.07183  0.55986  1.0000
  H   H142      1.0  0.28002  0.00031  0.82885  1.0000
  H   H143      1.0  0.35422  0.00287  0.97442  1.0000
  H   H144      1.0  0.25513  0.00520  0.80873  1.0000
  C   C113      1.0  0.27260  0.00470  0.79982  1.0000
  H   H145      1.0  0.24481  0.24367  0.89107  1.0000
  C   C114      1.0  0.29211  0.02060  0.56176  1.0000
  H   H146      1.0  0.41882  0.00060  0.60024  1.0000
  H   H147      1.0  0.30775  0.00560  0.74834  1.0000
  H   H148      1.0  0.33196  0.99874  0.54567  1.0000
  H   H149      1.0  0.34187  0.00185  0.62044  1.0000
  H   H150      1.0  0.43710  0.00290  0.64183  1.0000
  H   H151      1.0  0.23822  0.01435  0.62649  1.0000
  C   C115      1.0  0.47653  0.01322  0.72145  1.0000
  H   H152      1.0  0.34262  0.24456  0.87537  1.0000
  C   C116      1.0  0.47612  0.00988  0.59854  1.0000
  C   C117      1.0  0.24473  0.00983  0.65542  1.0000
  C   C118      1.0  0.45375  0.00591  0.53690  1.0000
  H   H153      1.0  0.31930  0.99762  0.66123  1.0000
  H   H154      1.0  0.47642  0.01252  0.63236  1.0000
  C   C119      1.0  0.26203  0.99705  0.72997  1.0000
  H   H155      1.0  0.38241  0.19794  0.03474  1.0000
  C   C120      1.0  0.37766  0.16588  0.03538  1.0000
  S   S29       1.0  0.37134  0.12515  0.03640  1.0000
  Fe  Fe16      1.0  0.42064  0.42535  0.31560  1.0000
  S   S30       1.0  0.39028  0.43260  0.34269  1.0000
  S   S31       1.0  0.45675  0.44742  0.30477  1.0000
  Fe  Fe17      1.0  0.39423  0.37996  0.32149  1.0000
  S   S32       1.0  0.36286  0.38402  0.35200  1.0000
  S   S33       1.0  0.39382  0.34886  0.30676  1.0000
  Fe  Fe18      1.0  0.36959  0.40996  0.30175  1.0000
  S   S34       1.0  0.33903  0.41163  0.26662  1.0000
  Fe  Fe19      1.0  0.38668  0.40571  0.38949  1.0000
  S   S35       1.0  0.37794  0.40758  0.45779  1.0000
  S   S36       1.0  0.40040  0.40528  0.26997  1.0000
  S   S37       1.0  0.41768  0.39915  0.36410  1.0000
  Fe  Fe20      1.0  0.30001  0.26232  0.34661  1.0000
  S   S38       1.0  0.29405  0.28955  0.31334  1.0000
  S   S39       1.0  0.33125  0.26977  0.38289  1.0000
  N   N8        1.0  0.03559  0.33256  0.46955  1.0000
  H   H156      1.0  0.38457  0.36540  0.14878  1.0000
  H   H157      1.0  0.04836  0.33182  0.40650  1.0000
  S   S40       1.0  0.06571  0.36981  0.12794  1.0000
  C   C121      1.0  0.31531  0.39445  0.43010  1.0000
  S   S41       1.0  0.24661  0.33225  0.10733  1.0000
  S   S42       1.0  0.31172  0.35185  0.12486  1.0000
  S   S43       1.0  0.22991  0.28246  0.05018  1.0000
  C   C122      1.0  0.03066  0.44635  0.47886  1.0000
  S   S44       1.0  0.02309  0.41201  0.32299  1.0000
  S   S45       1.0  0.31338  0.25447  0.49976  1.0000
  C   C123      1.0  0.40006  0.30682  0.44130  1.0000
  Fe  Fe21      1.0  0.01577  0.43900  0.34641  1.0000
  S   S46       1.0  0.04031  0.46777  0.36514  1.0000
  Fe  Fe22      1.0  0.99490  0.39368  0.37087  1.0000
  C   C124      1.0  0.34566  0.32185  0.41533  1.0000
  H   H158      1.0  0.35467  0.31390  0.06911  1.0000
  S   S47       1.0  0.35222  0.27128  0.08142  1.0000
  S   S48       1.0  0.05866  0.31840  0.09774  1.0000
  H   H159      1.0  0.02012  0.31447  0.42072  1.0000
  H   H160      1.0  0.02924  0.47407  0.27918  1.0000
  C   C125      1.0  0.07965  0.31089  0.51904  1.0000
  C   C126      1.0  0.40622  0.32467  0.46232  1.0000
  H   H161      1.0  0.43387  0.37513  0.50663  1.0000
  H   H162      1.0  0.02417  0.34089  0.40990  1.0000
  C   C127      1.0  0.04457  0.37817  0.15191  1.0000
  C   C128      1.0  0.02583  0.38000  0.13072  1.0000
  C   C129      1.0  0.01031  0.38823  0.14982  1.0000
  C   C130      1.0  0.01295  0.39402  0.19062  1.0000
  C   C131      1.0  0.03143  0.39175  0.21207  1.0000
  C   C132      1.0  0.04731  0.38407  0.19258  1.0000
  H   H163      1.0  0.02384  0.37586  0.09907  1.0000
  H   H164      1.0  0.35149  0.30995  0.43223  1.0000
  H   H165      1.0  0.03369  0.39623  0.24339  1.0000
  H   H166      1.0  0.06184  0.38279  0.20905  1.0000
  H   H167      1.0  0.31292  0.32106  0.20513  1.0000
  H   H168      1.0  0.99850  0.47704  0.41264  1.0000
  H   H169      1.0  0.36157  0.35183  0.46833  1.0000
  C   C133      1.0  0.28492  0.26395  0.07134  1.0000
  C   C134      1.0  0.98260  0.25065  0.51167  1.0000
  C   C135      1.0  0.29999  0.38554  0.46605  1.0000
  H   H170      1.0  0.23787  0.27668  0.23214  1.0000
  H   H171      1.0  0.98897  0.42314  0.50275  1.0000
  C   C136      1.0  0.36632  0.33344  0.29679  1.0000
  C   C137      1.0  0.36253  0.31293  0.29247  1.0000
  C   C138      1.0  0.34012  0.29954  0.29435  1.0000
  C   C139      1.0  0.32149  0.30671  0.29973  1.0000
  C   C140      1.0  0.32526  0.32752  0.29884  1.0000
  C   C141      1.0  0.34771  0.34086  0.29723  1.0000
  H   H172      1.0  0.37681  0.30719  0.28937  1.0000
  H   H173      1.0  0.33730  0.28356  0.29262  1.0000
  H   H174      1.0  0.31092  0.33326  0.30143  1.0000
  H   H175      1.0  0.35046  0.35679  0.29718  1.0000
  C   C142      1.0  0.39330  0.39864  0.49585  1.0000
  H   H176      1.0  0.40871  0.35583  0.04294  1.0000
  C   C143      1.0  0.00587  0.31854  0.17494  1.0000
  C   C144      1.0  0.27834  0.37174  0.45883  1.0000
  C   C145      1.0  0.40923  0.38914  0.48462  1.0000
  C   C146      1.0  0.43962  0.44352  0.41395  1.0000
  H   H177      1.0  0.41228  0.38709  0.45225  1.0000
  C   C147      1.0  0.31848  0.36843  0.16443  1.0000
  C   C148      1.0  0.33656  0.36795  0.18923  1.0000
  C   C149      1.0  0.34304  0.38125  0.22019  1.0000
  C   C150      1.0  0.33121  0.39492  0.22733  1.0000
  C   C151      1.0  0.31284  0.39518  0.20298  1.0000
  C   C152      1.0  0.30652  0.38202  0.17149  1.0000
  H   H178      1.0  0.34567  0.35729  0.18448  1.0000
  H   H179      1.0  0.35727  0.38096  0.23842  1.0000
  H   H180      1.0  0.30362  0.40574  0.20819  1.0000
  H   H181      1.0  0.29255  0.38253  0.15254  1.0000
  C   C153      1.0  0.17807  0.33033  0.06604  1.0000
  H   H182      1.0  0.33732  0.41596  0.49357  1.0000
  H   H183      1.0  0.01505  0.32896  0.52739  1.0000
  Fe  Fe23      1.0  0.99439  0.41116  0.28129  1.0000
  H   H184      1.0  0.03779  0.26711  0.50740  1.0000
  H   H185      1.0  0.00530  0.29419  0.24649  1.0000
  C   C154      1.0  0.32933  0.32696  0.48238  1.0000
  H   H186      1.0  0.41642  0.25641  0.28290  1.0000
  C   C155      1.0  0.31960  0.34137  0.41747  1.0000
  C   C156      1.0  0.30569  0.30517  0.43319  1.0000
  H   H187      1.0  0.34222  0.31764  0.38299  1.0000
  H   H188      1.0  0.36486  0.36827  0.04433  1.0000
  C   C157      1.0  0.15648  0.31728  0.05836  1.0000
  H   H189      1.0  0.33696  0.38051  0.49806  1.0000
  C   C158      1.0  0.27002  0.25782  0.50880  1.0000
  Fe  Fe24      1.0  0.24655  0.31597  0.05014  1.0000
  H   H190      1.0  0.30378  0.34293  0.43270  1.0000
  H   H191      1.0  0.00431  0.33950  0.48257  1.0000
  H   H192      1.0  0.37765  0.27530  0.44880  1.0000
  H   H193      1.0  0.16832  0.37537  0.04678  1.0000
  H   H194      1.0  0.30337  0.27040  0.06810  1.0000
  H   H195      1.0  0.24297  0.29293  0.15617  1.0000
  C   C159      1.0  0.03640  0.29707  0.48840  1.0000
  H   H196      1.0  0.02623  0.44996  0.44655  1.0000
  H   H197      1.0  0.12713  0.40157  0.09806  1.0000
  C   C160      1.0  0.39317  0.25532  0.18831  1.0000
  Fe  Fe25      1.0  0.05921  0.34982  0.07497  1.0000
  C   C161      1.0  0.16483  0.35914  0.05051  1.0000
  H   H198      1.0  0.42753  0.26077  0.20690  1.0000
  H   H199      1.0  0.34494  0.33302  0.04368  1.0000
  C   C162      1.0  0.44538  0.48235  0.31228  1.0000
  H   H200      1.0  0.26778  0.25367  0.47734  1.0000
  H   H201      1.0  0.00100  0.31320  0.48909  1.0000
  H   H202      1.0  0.05164  0.35735  0.50507  1.0000
  H   H203      1.0  0.28900  0.30616  0.44562  1.0000
  H   H204      1.0  0.99638  0.39046  0.13273  1.0000
  H   H205      1.0  0.32020  0.25619  0.16608  1.0000
  H   H206      1.0  0.39340  0.32994  0.03664  1.0000
  H   H207      1.0  0.26277  0.27451  0.25664  1.0000
  H   H208      1.0  0.38799  0.31056  0.09784  1.0000
  H   H209      1.0  0.28218  0.25948  0.17341  1.0000
  H   H210      1.0  0.25215  0.26008  0.21429  1.0000
  C   C163      1.0  0.99170  0.28887  0.22454  1.0000
  C   C164      1.0  0.04671  0.28326  0.50554  1.0000
  H   H211      1.0  0.35448  0.28461  0.17835  1.0000
  C   C165      1.0  0.01307  0.32837  0.49312  1.0000
  H   H212      1.0  0.97935  0.34249  0.05507  1.0000
  C   C166      1.0  0.46725  0.44104  0.48675  1.0000
  C   C167      1.0  0.24739  0.26776  0.06399  1.0000
  N   N9        1.0  0.32503  0.32374  0.43801  1.0000
  C   C168      1.0  0.46276  0.47344  0.31069  1.0000
  C   C169      1.0  0.27128  0.27607  0.06022  1.0000
  C   C170      1.0  0.43594  0.44800  0.52377  1.0000
  H   H213      1.0  0.25537  0.35772  0.41327  1.0000
  H   H214      1.0  0.40290  0.30096  0.16284  1.0000
  H   H215      1.0  0.26587  0.36366  0.48421  1.0000
  S   S49       1.0  0.99273  0.40379  0.21379  1.0000
  N   N10       1.0  0.01547  0.45096  0.51095  1.0000
  C   C171      1.0  0.39875  0.31502  0.15929  1.0000
  H   H216      1.0  0.02895  0.42991  0.48156  1.0000
  N   N11       1.0  0.30706  0.38963  0.50886  1.0000
  C   C172      1.0  0.03349  0.48836  0.29241  1.0000
  H   H217      1.0  0.01073  0.30944  0.15156  1.0000
  H   H218      1.0  0.35908  0.36505  0.09964  1.0000
  Fe  Fe26      1.0  0.02993  0.30845  0.05619  1.0000
  H   H219      1.0  0.41799  0.33703  0.37620  1.0000
  H   H220      1.0  0.42782  0.47330  0.30943  1.0000
  H   H221      1.0  0.35015  0.31680  0.19748  1.0000
  S   S50       1.0  0.99706  0.28528  0.08255  1.0000
  H   H222      1.0  0.31692  0.33995  0.38357  1.0000
  C   C173      1.0  0.38825  0.35124  0.15004  1.0000
  H   H223      1.0  0.28238  0.37499  0.35190  1.0000
  C   C174      1.0  0.99151  0.43961  0.50362  1.0000
  H   H224      1.0  0.43397  0.44931  0.38431  1.0000
  H   H225      1.0  0.44187  0.33126  0.39946  1.0000
  C   C175      1.0  0.04031  0.48959  0.33337  1.0000
  H   H226      1.0  0.46833  0.48765  0.45178  1.0000
  H   H227      1.0  0.16945  0.32874  0.16385  1.0000
  H   H228      1.0  0.00229  0.33137  0.15652  1.0000
  H   H229      1.0  0.12849  0.38106  0.20825  1.0000
  C   C176      1.0  0.13882  0.32511  0.04800  1.0000
  C   C177      1.0  0.28727  0.37767  0.38352  1.0000
  H   H230      1.0  0.31048  0.42131  0.49642  1.0000
  C   C178      1.0  0.31832  0.27022  0.17506  1.0000
  H   H231      1.0  0.32060  0.39822  0.36241  1.0000
  C   C179      1.0  0.03191  0.32979  0.42478  1.0000
  H   H232      1.0  0.25770  0.27580  0.14357  1.0000
  C   C180      1.0  0.44895  0.44933  0.48529  1.0000
  H   H233      1.0  0.33355  0.35582  0.41933  1.0000
  H   H234      1.0  0.00428  0.34741  0.21664  1.0000
  H   H235      1.0  0.43734  0.29582  0.42823  1.0000
  Fe  Fe27      1.0  0.08194  0.32081  0.04065  1.0000
  N   N12       1.0  0.13688  0.38108  0.14247  1.0000
  C   C181      1.0  0.12777  0.38576  0.10200  1.0000
  C   C182      1.0  0.12262  0.38489  0.17717  1.0000
  C   C183      1.0  0.16039  0.39558  0.14256  1.0000
  C   C184      1.0  0.13599  0.35954  0.14787  1.0000
  C   C185      1.0  0.11486  0.34383  0.14676  1.0000
  C   C186      1.0  0.15561  0.35345  0.15518  1.0000
  C   C187      1.0  0.11362  0.32342  0.15117  1.0000
  C   C188      1.0  0.15410  0.33297  0.15999  1.0000
  C   C189      1.0  0.13321  0.31800  0.15761  1.0000
  H   H236      1.0  0.13837  0.38384  0.07494  1.0000
  C   C190      1.0  0.04728  0.31832  0.48676  1.0000
  H   H237      1.0  0.04009  0.48357  0.45102  1.0000
  S   S51       1.0  0.99592  0.36612  0.41171  1.0000
  H   H238      1.0  0.10428  0.37572  0.17702  1.0000
  H   H239      1.0  0.12306  0.40101  0.17486  1.0000
  H   H240      1.0  0.17202  0.39344  0.11704  1.0000
  H   H241      1.0  0.16056  0.41161  0.13734  1.0000
  H   H242      1.0  0.16791  0.39387  0.17308  1.0000
  H   H243      1.0  0.09914  0.34721  0.14192  1.0000
  H   H244      1.0  0.17255  0.36415  0.15588  1.0000
  H   H245      1.0  0.09748  0.31172  0.14853  1.0000
  C   C191      1.0  0.04863  0.35423  0.47196  1.0000
  H   H246      1.0  0.19131  0.32412  0.07578  1.0000
  H   H247      1.0  0.27716  0.31317  0.24274  1.0000
  H   H248      1.0  0.27906  0.32469  0.18923  1.0000
  H   H249      1.0  0.36018  0.33625  0.41103  1.0000
  C   C192      1.0  0.18207  0.35126  0.06301  1.0000
  H   H250      1.0  0.29774  0.30437  0.51220  1.0000
  N   N13       1.0  0.44392  0.45856  0.44495  1.0000
  C   C193      1.0  0.31346  0.30655  0.19684  1.0000
  C   C194      1.0  0.46380  0.47636  0.42857  1.0000
  Fe  Fe28      1.0  0.23651  0.35482  0.06489  1.0000
  C   C195      1.0  0.38479  0.33903  0.11613  1.0000
  H   H251      1.0  0.01962  0.29093  0.47700  1.0000
  C   C196      1.0  0.37257  0.29018  0.50150  1.0000
  H   H252      1.0  0.33247  0.40435  0.43279  1.0000
  S   S52       1.0  0.27257  0.37448  0.04490  1.0000
  H   H253      1.0  0.25184  0.31198  0.21607  1.0000
  H   H254      1.0  0.27931  0.29177  0.04861  1.0000
  H   H255      1.0  0.42578  0.47748  0.46965  1.0000
  H   H256      1.0  0.30847  0.29143  0.44941  1.0000
  C   C197      1.0  0.98315  0.47314  0.39412  1.0000
  N   N14       1.0  0.98573  0.30611  0.20327  1.0000
  C   C198      1.0  0.39027  0.32071  0.12202  1.0000
  H   H257      1.0  0.40811  0.32275  0.22103  1.0000
  C   C199      1.0  0.06820  0.29017  0.52120  1.0000
  C   C200      1.0  0.42347  0.46545  0.44820  1.0000
  C   C201      1.0  0.03113  0.48751  0.47691  1.0000
  N   N15       1.0  0.41103  0.30565  0.40002  1.0000
  C   C202      1.0  0.42693  0.32544  0.38054  1.0000
  C   C203      1.0  0.42420  0.29120  0.40508  1.0000
  C   C204      1.0  0.39331  0.29829  0.37014  1.0000
  C   C205      1.0  0.33760  0.28623  0.18160  1.0000
  H   H258      1.0  0.38810  0.37699  0.07696  1.0000
  C   C206      1.0  0.37183  0.36460  0.07444  1.0000
  H   H259      1.0  0.27153  0.30251  0.13081  1.0000
  H   H260      1.0  0.39884  0.35476  0.21297  1.0000
  H   H261      1.0  0.46023  0.48422  0.39913  1.0000
  H   H262      1.0  0.07919  0.34067  0.50209  1.0000
  H   H263      1.0  0.43405  0.32430  0.34868  1.0000
  C   C207      1.0  0.35304  0.32909  0.07221  1.0000
  C   C208      1.0  0.38302  0.28953  0.46234  1.0000
  H   H264      1.0  0.43312  0.29020  0.37478  1.0000
  C   C209      1.0  0.30884  0.39078  0.38953  1.0000
  H   H265      1.0  0.38226  0.28242  0.37926  1.0000
  H   H266      1.0  0.38213  0.30806  0.36733  1.0000
  H   H267      1.0  0.40104  0.29821  0.33816  1.0000
  H   H268      1.0  0.02124  0.32473  0.19264  1.0000
  C   C210      1.0  0.33517  0.30438  0.19213  1.0000
  S   S53       1.0  0.98910  0.43959  0.30138  1.0000
  C   C211      1.0  0.40176  0.32725  0.19198  1.0000
  S   S54       1.0  0.40225  0.25854  0.13459  1.0000
  C   C212      1.0  0.39654  0.34531  0.18734  1.0000
  H   H269      1.0  0.40775  0.45253  0.45920  1.0000
  N   N16       1.0  0.37546  0.34449  0.07657  1.0000
  H   H270      1.0  0.30357  0.30257  0.39957  1.0000
  Fe  Fe29      1.0  0.28262  0.35027  0.08299  1.0000
  H   H271      1.0  0.42003  0.47204  0.41716  1.0000
  S   S55       1.0  0.20801  0.36766  0.07696  1.0000
  H   H272      1.0  0.34086  0.32764  0.09987  1.0000
  C   C213      1.0  0.23716  0.24738  0.07943  1.0000
  H   H273      1.0  0.11011  0.37582  0.09895  1.0000
  N   N17       1.0  0.27004  0.29203  0.19619  1.0000
  C   C214      1.0  0.26958  0.31131  0.21180  1.0000
  C   C215      1.0  0.26013  0.29081  0.15491  1.0000
  C   C216      1.0  0.25510  0.27510  0.22602  1.0000
  C   C217      1.0  0.29336  0.29033  0.19147  1.0000
  C   C218      1.0  0.29653  0.27222  0.17964  1.0000
  H   H274      1.0  0.15325  0.30106  0.06177  1.0000
  H   H275      1.0  0.13227  0.30219  0.15970  1.0000
  H   H276      1.0  0.41298  0.27553  0.41615  1.0000
  C   C219      1.0  0.98982  0.33850  0.23768  1.0000
  H   H277      1.0  0.45511  0.43957  0.40452  1.0000
  H   H278      1.0  0.99119  0.36476  0.26956  1.0000
  C   C220      1.0  0.39137  0.34499  0.04013  1.0000
  H   H279      1.0  0.99789  0.28034  0.20150  1.0000
  C   C221      1.0  0.97971  0.27380  0.04392  1.0000
  C   C222      1.0  0.14315  0.34610  0.04335  1.0000
  C   C223      1.0  0.29070  0.25958  0.52695  1.0000
  H   H280      1.0  0.06534  0.35889  0.45309  1.0000
  C   C224      1.0  0.27212  0.36804  0.41809  1.0000
  C   C225      1.0  0.06952  0.32487  0.50188  1.0000
  H   H281      1.0  0.03910  0.36442  0.45927  1.0000
  H   H282      1.0  0.42604  0.42926  0.42668  1.0000
  C   C226      1.0  0.34921  0.34223  0.49248  1.0000
  H   H283      1.0  0.98894  0.47066  0.36225  1.0000
  H   H284      1.0  0.41917  0.33853  0.44928  1.0000
  S   S56       1.0  0.99073  0.42060  0.39881  1.0000
  H   H285      1.0  0.04900  0.45484  0.48182  1.0000
  C   C227      1.0  0.40971  0.25739  0.21761  1.0000
  C   C228      1.0  0.36382  0.24877  0.24584  1.0000
  Fe  Fe30      1.0  0.37685  0.25363  0.08500  1.0000
  H   H286      1.0  0.98654  0.44539  0.47331  1.0000
  C   C229      1.0  0.01799  0.47282  0.50963  1.0000
  S   S57       1.0  0.11158  0.30831  0.04132  1.0000
  C   C230      1.0  0.40341  0.25497  0.26069  1.0000
  H   H287      1.0  0.98248  0.32233  0.42081  1.0000
  H   H288      1.0  0.23583  0.25953  0.51775  1.0000
  C   C231      1.0  0.37014  0.25093  0.20244  1.0000
  C   C232      1.0  0.39584  0.32503  0.50176  1.0000
  C   C233      1.0  0.98247  0.34875  0.26807  1.0000
  H   H289      1.0  0.07590  0.27946  0.53568  1.0000
  H   H290      1.0  0.40104  0.33866  0.51768  1.0000
  C   C234      1.0  0.37898  0.30787  0.52117  1.0000
  C   C235      1.0  0.31357  0.31598  0.51649  1.0000
  C   C236      1.0  0.42136  0.38226  0.51551  1.0000
  H   H291      1.0  0.35952  0.27681  0.51689  1.0000
  C   C237      1.0  0.32001  0.41143  0.51026  1.0000
  C   C238      1.0  0.97856  0.31754  0.23498  1.0000
  H   H292      1.0  0.31256  0.36096  0.52397  1.0000
  C   C239      1.0  0.38051  0.25071  0.27509  1.0000
  C   C240      1.0  0.47178  0.43148  0.52404  1.0000
  H   H293      1.0  0.97915  0.44078  0.52865  1.0000
  H   H294      1.0  0.35730  0.24921  0.17990  1.0000
  C   C241      1.0  0.32205  0.37750  0.52116  1.0000
  C   C242      1.0  0.35342  0.34571  0.53413  1.0000
  H   H295      1.0  0.42153  0.45359  0.52588  1.0000
  C   C243      1.0  0.25187  0.26111  0.53177  1.0000
  H   H296      1.0  0.09620  0.31608  0.53214  1.0000
  H   H297      1.0  0.97672  0.27755  0.24287  1.0000
  Fe  Fe31      1.0  0.30942  0.24692  0.43301  1.0000
  S   S58       1.0  0.37373  0.24723  0.32988  1.0000
  S   S59       1.0  0.02871  0.33970  0.03691  1.0000
  H   H298      1.0  0.27447  0.39171  0.53162  1.0000
  Fe  Fe32      1.0  0.40357  0.39592  0.73090  1.0000
  S   S60       1.0  0.39921  0.36565  0.70798  1.0000
  S   S61       1.0  0.37095  0.40242  0.74661  1.0000
  S   S62       1.0  0.42687  0.39259  0.78118  1.0000
  S   S63       1.0  0.43172  0.41305  0.68176  1.0000
  S   S64       1.0  0.97834  0.39429  0.57591  1.0000
  C   C244      1.0  0.98873  0.27440  0.00287  1.0000
  H   H299      1.0  0.09224  0.27909  0.78610  1.0000
  C   C245      1.0  0.28826  0.25690  0.91730  1.0000
  Fe  Fe33      1.0  0.42397  0.36308  0.75573  1.0000
  S   S65       1.0  0.36521  0.30626  0.97634  1.0000
  C   C246      1.0  0.27225  0.28137  0.94840  1.0000
  C   C247      1.0  0.10808  0.33043  0.76828  1.0000
  C   C248      1.0  0.97771  0.27831  0.54798  1.0000
  Fe  Fe34      1.0  0.23697  0.29272  0.64615  1.0000
  H   H300      1.0  0.00703  0.34505  0.74451  1.0000
  S   S66       1.0  0.23039  0.26831  0.60213  1.0000
  C   C249      1.0  0.09161  0.29422  0.77339  1.0000
  H   H301      1.0  0.00181  0.26270  0.56384  1.0000
  Fe  Fe35      1.0  0.05394  0.33933  0.98422  1.0000
  S   S67       1.0  0.05264  0.35056  0.91624  1.0000
  C   C250      1.0  0.38933  0.40095  0.53820  1.0000
  H   H302      1.0  0.40771  0.29637  0.85090  1.0000
  Fe  Fe36      1.0  0.03029  0.29751  0.71654  1.0000
  S   S68       1.0  0.06556  0.31836  0.69786  1.0000
  S   S69       1.0  0.02204  0.28591  0.78505  1.0000
  Fe  Fe37      1.0  0.04811  0.33673  0.66012  1.0000
  S   S70       1.0  0.05591  0.36976  0.66555  1.0000
  Fe  Fe38      1.0  0.06341  0.30109  0.64193  1.0000
  S   S71       1.0  0.09250  0.29021  0.62136  1.0000
  S   S72       1.0  0.01275  0.31712  0.68260  1.0000
  Fe  Fe39      1.0  0.26886  0.33433  0.65533  1.0000
  S   S73       1.0  0.26861  0.30336  0.68100  1.0000
  S   S74       1.0  0.30157  0.35555  0.62297  1.0000
  Fe  Fe40      1.0  0.21760  0.32497  0.67461  1.0000
  S   S75       1.0  0.18977  0.33962  0.67691  1.0000
  Fe  Fe41      1.0  0.24518  0.30695  0.73333  1.0000
  S   S76       1.0  0.24714  0.29727  0.80206  1.0000
  Fe  Fe42      1.0  0.42930  0.38228  0.66317  1.0000
  S   S77       1.0  0.24813  0.33895  0.71026  1.0000
  S   S78       1.0  0.23874  0.32363  0.61701  1.0000
  S   S79       1.0  0.21310  0.29305  0.70113  1.0000
  Fe  Fe43      1.0  0.26914  0.35453  0.99265  1.0000
  H   H303      1.0  0.47250  0.45075  0.65784  1.0000
  S   S80       1.0  0.27746  0.36587  0.92428  1.0000
  C   C251      1.0  0.31781  0.31985  0.55794  1.0000
  H   H304      1.0  0.47457  0.45946  0.85063  1.0000
  H   H305      1.0  0.31399  0.28477  0.93220  1.0000
  H   H306      1.0  0.23520  0.26227  0.91300  1.0000
  C   C252      1.0  0.32989  0.26644  0.90224  1.0000
  C   C253      1.0  0.25442  0.31682  0.83522  1.0000
  C   C254      1.0  0.24943  0.31194  0.87862  1.0000
  C   C255      1.0  0.25651  0.32688  0.90612  1.0000
  C   C256      1.0  0.26826  0.34695  0.89026  1.0000
  C   C257      1.0  0.27276  0.35197  0.84679  1.0000
  C   C258      1.0  0.26597  0.33693  0.81935  1.0000
  H   H307      1.0  0.23998  0.29660  0.89101  1.0000
  H   H308      1.0  0.25298  0.32284  0.93956  1.0000
  H   H309      1.0  0.28187  0.36747  0.83434  1.0000
  H   H310      1.0  0.27022  0.34090  0.78608  1.0000
  C   C259      1.0  0.03514  0.37741  0.63983  1.0000
  C   C260      1.0  0.02715  0.36914  0.60311  1.0000
  C   C261      1.0  0.01017  0.37492  0.58281  1.0000
  H   H311      1.0  0.03431  0.35849  0.59009  1.0000
  H   H312      1.0  0.24169  0.24877  0.98562  1.0000
  C   C262      1.0  0.11958  0.30413  0.63628  1.0000
  C   C263      1.0  0.12357  0.32357  0.64858  1.0000
  C   C264      1.0  0.14528  0.33444  0.66049  1.0000
  C   C265      1.0  0.16306  0.32589  0.66031  1.0000
  C   C266      1.0  0.15913  0.30649  0.64787  1.0000
  C   C267      1.0  0.13743  0.29567  0.63570  1.0000
  H   H313      1.0  0.11008  0.33040  0.64811  1.0000
  H   H314      1.0  0.14834  0.34953  0.66969  1.0000
  H   H315      1.0  0.17279  0.29983  0.64748  1.0000
  H   H316      1.0  0.13445  0.28067  0.62601  1.0000
  C   C268      1.0  0.45852  0.43018  0.56101  1.0000
  H   H317      1.0  0.37096  0.30824  0.55171  1.0000
  H   H318      1.0  0.00781  0.44264  0.57815  1.0000
  H   H319      1.0  0.43033  0.43722  0.58978  1.0000
  H   H320      1.0  0.47301  0.48992  0.76134  1.0000
  C   C269      1.0  0.40460  0.32635  0.84657  1.0000
  C   C270      1.0  0.04464  0.33241  0.87992  1.0000
  C   C271      1.0  0.03532  0.31170  0.89335  1.0000
  C   C272      1.0  0.02911  0.29755  0.86397  1.0000
  C   C273      1.0  0.03188  0.30396  0.82087  1.0000
  C   C274      1.0  0.04122  0.32467  0.80726  1.0000
  C   C275      1.0  0.04753  0.33883  0.83673  1.0000
  H   H321      1.0  0.03233  0.30653  0.92634  1.0000
  H   H322      1.0  0.02168  0.28158  0.87479  1.0000
  H   H323      1.0  0.04307  0.32985  0.77413  1.0000
  H   H324      1.0  0.05449  0.35484  0.82603  1.0000
  H   H325      1.0  0.03783  0.45291  0.56142  1.0000
  H   H326      1.0  0.99242  0.31320  0.78905  1.0000
  H   H327      1.0  0.46243  0.45324  0.75200  1.0000
  H   H328      1.0  0.25631  0.28396  0.96067  1.0000
  C   C276      1.0  0.40152  0.30689  0.86678  1.0000
  C   C277      1.0  0.38185  0.31416  0.92772  1.0000
  H   H329      1.0  0.00101  0.40697  0.65042  1.0000
  H   H330      1.0  0.27715  0.27269  0.62241  1.0000
  C   C278      1.0  0.98439  0.35882  0.77313  1.0000
  C   C279      1.0  0.35120  0.39078  0.71158  1.0000
  C   C280      1.0  0.32773  0.38349  0.72362  1.0000
  C   C281      1.0  0.31233  0.37247  0.69666  1.0000
  C   C282      1.0  0.32036  0.36927  0.65726  1.0000
  C   C283      1.0  0.34374  0.37716  0.64481  1.0000
  C   C284      1.0  0.35912  0.38768  0.67217  1.0000
  H   H331      1.0  0.32151  0.38608  0.75395  1.0000
  H   H332      1.0  0.29427  0.36672  0.70620  1.0000
  H   H333      1.0  0.35011  0.37481  0.61442  1.0000
  H   H334      1.0  0.37721  0.39347  0.66293  1.0000
  H   H335      1.0  0.09685  0.30283  0.95831  1.0000
  C   C285      1.0  0.32753  0.24809  0.88619  1.0000
  C   C286      1.0  0.98870  0.26381  0.54322  1.0000
  C   C287      1.0  0.25086  0.25908  0.90142  1.0000
  H   H336      1.0  0.12091  0.34375  0.77930  1.0000
  S   S81       1.0  0.02900  0.27833  0.66322  1.0000
  H   H337      1.0  0.39857  0.39601  0.60158  1.0000
  S   S82       1.0  0.23270  0.33662  0.01048  1.0000
  H   H338      1.0  0.09336  0.29482  0.73850  1.0000
  H   H339      1.0  0.10870  0.27754  0.92238  1.0000
  S   S83       1.0  0.33289  0.24724  0.00110  1.0000
  S   S84       1.0  0.43311  0.37591  0.59561  1.0000
  S   S85       1.0  0.98484  0.29569  0.58593  1.0000
  H   H340      1.0  0.33049  0.32764  0.95068  1.0000
  H   H341      1.0  0.38804  0.28578  0.92225  1.0000
  C   C288      1.0  0.02591  0.39123  0.65664  1.0000
  H   H342      1.0  0.99576  0.46960  0.56645  1.0000
  H   H343      1.0  0.03209  0.39757  0.68512  1.0000
  C   C289      1.0  0.38552  0.33384  0.90808  1.0000
  C   C290      1.0  0.33775  0.33454  0.56676  1.0000
  C   C291      1.0  0.28735  0.38428  0.54091  1.0000
  C   C292      1.0  0.13239  0.30971  0.77567  1.0000
  S   S86       1.0  0.05296  0.30728  0.00138  1.0000
  C   C293      1.0  0.00830  0.39645  0.63716  1.0000
  H   H344      1.0  0.25851  0.26994  0.87300  1.0000
  H   H345      1.0  0.39923  0.35502  0.85267  1.0000
  N   N18       1.0  0.18704  0.33692  0.91694  1.0000
  C   C294      1.0  0.18603  0.31976  0.94870  1.0000
  C   C295      1.0  0.20652  0.35460  0.92552  1.0000
  C   C296      1.0  0.16541  0.34177  0.92328  1.0000
  C   C297      1.0  0.19000  0.33248  0.87312  1.0000
  C   C298      1.0  0.19247  0.31382  0.86287  1.0000
  C   C299      1.0  0.19090  0.34724  0.83903  1.0000
  C   C300      1.0  0.19566  0.31033  0.82115  1.0000
  C   C301      1.0  0.19418  0.34358  0.79743  1.0000
  C   C302      1.0  0.19655  0.32517  0.78859  1.0000
  H   H346      1.0  0.18383  0.32359  0.98122  1.0000
  H   H347      1.0  0.17126  0.30610  0.94508  1.0000
  H   H348      1.0  0.20215  0.31576  0.94703  1.0000
  H   H349      1.0  0.20529  0.35811  0.95862  1.0000
  H   H350      1.0  0.20751  0.36865  0.90532  1.0000
  H   H351      1.0  0.22320  0.35178  0.91998  1.0000
  H   H352      1.0  0.15045  0.32919  0.91536  1.0000
  H   H353      1.0  0.16215  0.34424  0.95654  1.0000
  H   H354      1.0  0.16559  0.35581  0.90388  1.0000
  H   H355      1.0  0.19250  0.30179  0.88640  1.0000
  H   H356      1.0  0.18949  0.36188  0.84433  1.0000
  H   H357      1.0  0.19814  0.29623  0.81393  1.0000
  H   H358      1.0  0.38505  0.34946  0.00989  1.0000
  H   H359      1.0  0.19936  0.32247  0.75639  1.0000
  C   C303      1.0  0.39678  0.33991  0.86765  1.0000
  N   N19       1.0  0.33598  0.32845  0.80383  1.0000
  C   C304      1.0  0.35615  0.34196  0.77738  1.0000
  C   C305      1.0  0.33913  0.30818  0.81047  1.0000
  C   C306      1.0  0.31524  0.32627  0.78037  1.0000
  C   C307      1.0  0.33356  0.33737  0.84325  1.0000
  C   C308      1.0  0.33105  0.35692  0.84199  1.0000
  C   C309      1.0  0.33345  0.32711  0.88360  1.0000
  C   C310      1.0  0.32828  0.36548  0.87874  1.0000
  C   C311      1.0  0.33035  0.33569  0.92024  1.0000
  C   C312      1.0  0.32770  0.35482  0.91778  1.0000
  H   H360      1.0  0.37205  0.34465  0.79438  1.0000
  H   H361      1.0  0.35892  0.33538  0.74806  1.0000
  H   H362      1.0  0.35443  0.35703  0.76745  1.0000
  H   H363      1.0  0.35500  0.30897  0.82671  1.0000
  H   H364      1.0  0.34108  0.30204  0.78017  1.0000
  H   H365      1.0  0.32414  0.29693  0.82888  1.0000
  H   H366      1.0  0.31622  0.31939  0.75064  1.0000
  H   H367      1.0  0.29955  0.31654  0.79953  1.0000
  H   H368      1.0  0.31266  0.34111  0.77130  1.0000
  H   H369      1.0  0.33113  0.36577  0.81253  1.0000
  H   H370      1.0  0.33648  0.31273  0.88769  1.0000
  H   H371      1.0  0.32593  0.38029  0.87695  1.0000
  H   H372      1.0  0.32501  0.36142  0.94610  1.0000
  N   N20       1.0  0.10958  0.31105  0.78906  1.0000
  N   N21       1.0  0.26752  0.26087  0.93415  1.0000
  C   C313      1.0  0.25429  0.26640  0.57285  1.0000
  H   H373      1.0  0.30929  0.26673  0.58200  1.0000
  C   C314      1.0  0.10649  0.30935  0.83546  1.0000
  C   C315      1.0  0.10972  0.29268  0.86023  1.0000
  C   C316      1.0  0.09942  0.32351  0.85734  1.0000
  C   C317      1.0  0.10650  0.29054  0.90404  1.0000
  C   C318      1.0  0.29331  0.26525  0.56778  1.0000
  C   C319      1.0  0.09978  0.30476  0.92442  1.0000
  H   H374      1.0  0.13558  0.31194  0.74084  1.0000
  H   H375      1.0  0.97884  0.33266  0.63292  1.0000
  H   H376      1.0  0.98453  0.28906  0.84261  1.0000
  S   S87       1.0  0.04926  0.32173  0.60167  1.0000
  H   H377      1.0  0.07414  0.29475  0.78245  1.0000
  H   H378      1.0  0.11420  0.28090  0.84583  1.0000
  C   C320      1.0  0.00049  0.38827  0.60028  1.0000
  H   H379      1.0  0.36876  0.35731  0.54125  1.0000
  H   H380      1.0  0.13423  0.29467  0.78536  1.0000
  S   S88       1.0  0.28303  0.33238  0.02796  1.0000
  H   H381      1.0  0.30539  0.31156  0.58349  1.0000
  H   H382      1.0  0.98877  0.31324  0.89362  1.0000
  H   H383      1.0  0.11138  0.33166  0.73358  1.0000
  S   S89       1.0  0.08469  0.35303  0.02019  1.0000
  C   C321      1.0  0.44085  0.43864  0.56099  1.0000
  H   H384      1.0  0.28373  0.28348  0.97460  1.0000
  H   H385      1.0  0.09567  0.33628  0.84147  1.0000
  H   H386      1.0  0.00422  0.36868  0.55412  1.0000
  C   C322      1.0  0.31068  0.27076  0.91818  1.0000
  H   H387      1.0  0.37931  0.34437  0.92381  1.0000
  H   H388      1.0  0.09067  0.33179  0.77376  1.0000
  H   H389      1.0  0.02147  0.42750  0.55323  1.0000
  Fe  Fe44      1.0  0.01490  0.30026  0.62674  1.0000
  H   H390      1.0  0.29286  0.38895  0.57217  1.0000
  Fe  Fe45      1.0  0.45492  0.40687  0.72985  1.0000
  H   H391      1.0  0.32333  0.41509  0.54299  1.0000
  C   C323      1.0  0.99319  0.34300  0.76823  1.0000
  H   H392      1.0  0.09039  0.33194  0.91714  1.0000
  C   C324      1.0  0.02089  0.44330  0.55267  1.0000
  H   H393      1.0  0.98127  0.26620  0.94049  1.0000
  C   C325      1.0  0.41752  0.38468  0.55782  1.0000
  H   H394      1.0  0.37697  0.40821  0.54723  1.0000
  S   S90       1.0  0.41740  0.33262  0.79456  1.0000
  H   H395      1.0  0.19520  0.35512  0.77168  1.0000
  H   H396      1.0  0.34681  0.27705  0.90398  1.0000
  C   C326      1.0  0.40144  0.39399  0.56909  1.0000
  H   H397      1.0  0.14636  0.32147  0.78858  1.0000
  S   S91       1.0  0.45411  0.37689  0.70843  1.0000
  H   H398      1.0  0.99119  0.37298  0.75297  1.0000
  H   H399      1.0  0.28017  0.29356  0.92232  1.0000
  H   H400      1.0  0.32899  0.38095  0.55211  1.0000
  H   H401      1.0  0.34078  0.33756  0.59899  1.0000
  H   H402      1.0  0.27879  0.36760  0.54711  1.0000
  C   C327      1.0  0.39038  0.30087  0.90727  1.0000
  S   S92       1.0  0.38792  0.25992  0.01580  1.0000
  C   C328      1.0  0.09625  0.32119  0.90115  1.0000
  H   H403      1.0  0.00683  0.28137  0.99477  1.0000
  C   C329      1.0  0.27520  0.26877  0.59060  1.0000
  C   C330      1.0  0.98470  0.32474  0.79441  1.0000
  Fe  Fe46      1.0  0.36106  0.27541  0.01159  1.0000
  H   H404      1.0  0.46153  0.42212  0.58956  1.0000
  C   C331      1.0  0.00659  0.47992  0.54125  1.0000
  H   H405      1.0  0.12979  0.35225  0.03451  1.0000
  C   C332      1.0  0.45519  0.60062  0.26412  1.0000
  C   C333      1.0  0.00249  0.72082  0.07937  1.0000
  H   H406      1.0  0.45219  0.59313  0.23480  1.0000
  S   S93       1.0  0.10371  0.67154  0.08431  1.0000
  C   C334      1.0  0.03315  0.50805  0.47686  1.0000
  Fe  Fe47      1.0  0.05492  0.61458  0.30414  1.0000
  S   S94       1.0  0.02985  0.59839  0.26062  1.0000
  S   S95       1.0  0.08162  0.64446  0.28007  1.0000
  Fe  Fe48      1.0  0.03186  0.58366  0.37994  1.0000
  S   S96       1.0  0.00544  0.56518  0.34093  1.0000
  S   S97       1.0  0.02599  0.56913  0.44706  1.0000
  Fe  Fe49      1.0  0.03446  0.57035  0.29293  1.0000
  S   S98       1.0  0.03666  0.54591  0.25401  1.0000
  Fe  Fe50      1.0  0.00357  0.59495  0.31315  1.0000
  H   H407      1.0  0.00487  0.51306  0.38229  1.0000
  S   S99       1.0  0.06151  0.58653  0.33359  1.0000
  S   S100      1.0  0.02815  0.61347  0.35496  1.0000
  C   C335      1.0  0.02320  0.58411  0.48715  1.0000
  C   C336      1.0  0.03222  0.60527  0.48116  1.0000
  H   H408      1.0  0.04065  0.61275  0.45114  1.0000
  C   C337      1.0  0.04550  0.52574  0.32546  1.0000
  C   C338      1.0  0.03854  0.52445  0.28454  1.0000
  C   C339      1.0  0.12015  0.60678  0.15668  1.0000
  H   H409      1.0  0.05007  0.54012  0.33844  1.0000
  H   H410      1.0  0.04617  0.68349  0.34877  1.0000
  C   C340      1.0  0.09655  0.66470  0.13865  1.0000
  C   C341      1.0  0.10429  0.67855  0.16789  1.0000
  C   C342      1.0  0.09974  0.67213  0.21115  1.0000
  C   C343      1.0  0.08669  0.65206  0.22543  1.0000
  C   C344      1.0  0.07834  0.63841  0.19605  1.0000
  C   C345      1.0  0.08364  0.64461  0.15292  1.0000
  H   H411      1.0  0.11450  0.69402  0.15718  1.0000
  H   H412      1.0  0.10641  0.68279  0.23362  1.0000
  H   H413      1.0  0.06839  0.62294  0.20637  1.0000
  H   H414      1.0  0.07791  0.63374  0.13049  1.0000
  H   H415      1.0  0.08346  0.57267  0.25978  1.0000
  C   C346      1.0  0.99301  0.74630  0.51953  1.0000
  C   C347      1.0  0.04667  0.50836  0.34963  1.0000
  H   H416      1.0  0.98362  0.60459  0.38400  1.0000
  C   C348      1.0  0.98730  0.73606  0.48391  1.0000
  C   C349      1.0  0.02577  0.70592  0.26420  1.0000
  H   H417      1.0  0.43734  0.51009  0.31635  1.0000
  H   H418      1.0  0.14653  0.66352  0.17260  1.0000
  H   H419      1.0  0.10692  0.61485  0.27957  1.0000
  C   C350      1.0  0.01445  0.65274  0.28210  1.0000
  C   C351      1.0  0.13203  0.63305  0.20323  1.0000
  C   C352      1.0  0.13723  0.64182  0.12790  1.0000
  H   H420      1.0  0.13535  0.61253  0.28038  1.0000
  C   C353      1.0  0.12791  0.58198  0.23287  1.0000
  H   H421      1.0  0.98728  0.64934  0.18485  1.0000
  H   H422      1.0  0.02758  0.50477  0.23616  1.0000
  H   H423      1.0  0.07907  0.59474  0.23318  1.0000
  H   H424      1.0  0.05608  0.69617  0.12243  1.0000
  H   H425      1.0  0.99816  0.71906  0.43935  1.0000
  H   H426      1.0  0.99955  0.66768  0.08121  1.0000
  H   H427      1.0  0.99952  0.72078  0.11285  1.0000
  C   C354      1.0  0.00196  0.67350  0.32671  1.0000
  C   C355      1.0  0.08984  0.58461  0.23270  1.0000
  Fe  Fe51      1.0  0.10518  0.70265  0.05402  1.0000
  H   H428      1.0  0.07952  0.70555  0.19769  1.0000
  C   C356      1.0  0.00182  0.60738  0.17289  1.0000
  H   H429      1.0  0.98673  0.52537  0.43234  1.0000
  C   C357      1.0  0.03375  0.68899  0.27164  1.0000
  H   H430      1.0  0.14659  0.59020  0.23269  1.0000
  H   H431      1.0  0.98862  0.67477  0.30527  1.0000
  H   H432      1.0  0.08627  0.57652  0.20422  1.0000
  S   S101      1.0  0.11180  0.73181  0.08329  1.0000
  H   H433      1.0  0.00506  0.63934  0.30465  1.0000
  H   H434      1.0  0.13374  0.63877  0.23352  1.0000
  C   C358      1.0  0.02487  0.72851  0.06043  1.0000
  C   C359      1.0  0.03867  0.66915  0.33440  1.0000
  N   N22       1.0  0.11441  0.59619  0.23451  1.0000
  C   C360      1.0  0.99023  0.61996  0.18744  1.0000
  H   H435      1.0  0.99663  0.59153  0.18512  1.0000
  C   C361      1.0  0.03279  0.50580  0.26792  1.0000
  H   H436      1.0  0.03916  0.63301  0.51044  1.0000
  H   H437      1.0  0.44539  0.61158  0.26393  1.0000
  H   H438      1.0  0.12546  0.61718  0.09045  1.0000
  C   C362      1.0  0.47360  0.51526  0.31893  1.0000
  H   H439      1.0  0.12311  0.57012  0.26030  1.0000
  C   C363      1.0  0.13955  0.64757  0.16834  1.0000
  C   C364      1.0  0.02750  0.73657  0.52347  1.0000
  H   H440      1.0  0.06344  0.73359  0.18372  1.0000
  H   H441      1.0  0.02940  0.73410  0.22668  1.0000
  H   H442      1.0  0.02649  0.66539  0.06250  1.0000
  H   H443      1.0  0.11279  0.59120  0.15048  1.0000
  C   C365      1.0  0.12751  0.62148  0.12206  1.0000
  H   H444      1.0  0.03030  0.65698  0.36020  1.0000
  C   C366      1.0  0.01249  0.57454  0.52636  1.0000
  H   H445      1.0  0.12514  0.57377  0.20442  1.0000
  C   C367      1.0  0.05353  0.68938  0.24687  1.0000
  H   H446      1.0  0.01145  0.70747  0.28240  1.0000
  H   H447      1.0  0.03373  0.71972  0.47381  1.0000
  H   H448      1.0  0.05224  0.50941  0.38109  1.0000
  C   C368      1.0  0.03624  0.72162  0.23250  1.0000
  H   H449      1.0  0.44750  0.58840  0.29029  1.0000
  C   C369      1.0  0.00208  0.72649  0.46745  1.0000
  C   C370      1.0  0.02226  0.72696  0.48692  1.0000
  H   H450      1.0  0.05313  0.66499  0.32025  1.0000
  S   S102      1.0  0.04844  0.73602  0.09130  1.0000
  C   C371      1.0  0.05542  0.72137  0.20836  1.0000
  H   H451      1.0  0.11101  0.59206  0.30241  1.0000
  C   C372      1.0  0.11711  0.60434  0.27591  1.0000
  H   H452      1.0  0.06079  0.67721  0.25135  1.0000
  H   H453      1.0  0.02887  0.64897  0.26663  1.0000
  N   N23       1.0  0.02443  0.67101  0.12748  1.0000
  H   H454      1.0  0.14239  0.65327  0.10103  1.0000
  C   C373      1.0  0.04965  0.67932  0.12891  1.0000
  C   C374      1.0  0.99233  0.66913  0.49625  1.0000
  C   C375      1.0  0.01629  0.64920  0.14302  1.0000
  C   C376      1.0  0.99718  0.64053  0.17263  1.0000
  C   C377      1.0  0.02716  0.63580  0.12759  1.0000
  H   H455      1.0  0.00664  0.68700  0.34454  1.0000
  C   C378      1.0  0.02017  0.61525  0.14281  1.0000
  C   C379      1.0  0.01842  0.67347  0.08353  1.0000
  H   H456      1.0  0.00244  0.65413  0.25791  1.0000
  H   H457      1.0  0.99584  0.68019  0.14795  1.0000
  C   C380      1.0  0.12211  0.61211  0.19841  1.0000
  H   H458      1.0  0.05508  0.67513  0.16009  1.0000
  C   C381      1.0  0.06430  0.70546  0.21605  1.0000
  H   H459      1.0  0.05896  0.67378  0.10489  1.0000
  C   C382      1.0  0.45082  0.50321  0.31610  1.0000
  H   H460      1.0  0.00162  0.68494  0.48274  1.0000
  H   H461      1.0  0.02435  0.68967  0.07043  1.0000
  C   C383      1.0  0.01429  0.68345  0.15239  1.0000
  H   H462      1.0  0.04134  0.64118  0.10392  1.0000
  N   N24       1.0  0.02231  0.67151  0.30324  1.0000
  H   H463      1.0  0.02921  0.60544  0.13154  1.0000
  H   H464      1.0  0.01671  0.68109  0.18635  1.0000
  H   H465      1.0  0.02218  0.69996  0.14252  1.0000
  H   H466      1.0  0.04337  0.51909  0.45189  1.0000
  Fe  Fe52      1.0  0.07934  0.73334  0.05561  1.0000
  H   H467      1.0  0.99353  0.66003  0.34984  1.0000
  C   C384      1.0  0.98845  0.50750  0.36719  1.0000
  H   H468      1.0  0.99296  0.50415  0.33521  1.0000
  H   H469      1.0  0.97798  0.55988  0.43755  1.0000
  C   C385      1.0  0.02229  0.51456  0.50906  1.0000
  H   H470      1.0  0.02411  0.53054  0.50892  1.0000
  H   H471      1.0  0.47279  0.62877  0.31585  1.0000
  H   H472      1.0  0.47470  0.60467  0.33621  1.0000
  H   H473      1.0  0.98097  0.52004  0.36263  1.0000
  H   H474      1.0  0.00240  0.65930  0.48673  1.0000
  C   C386      1.0  0.98395  0.71278  0.05508  1.0000
  C   C387      1.0  0.03139  0.61672  0.51479  1.0000
  H   H475      1.0  0.00560  0.55820  0.53134  1.0000
  H   H476      1.0  0.98166  0.60258  0.07752  1.0000
  C   C388      1.0  0.08149  0.68384  0.63498  1.0000
  C   C389      1.0  0.04511  0.63248  0.75890  1.0000
  C   C390      1.0  0.05142  0.65841  0.67884  1.0000
  H   H477      1.0  0.06010  0.62803  0.74826  1.0000
  C   C391      1.0  0.06614  0.66105  0.79266  1.0000
  S   S103      1.0  0.12414  0.71724  0.99188  1.0000
  Fe  Fe53      1.0  0.09094  0.72043  0.97163  1.0000
  S   S104      1.0  0.07009  0.70996  0.91713  1.0000
  H   H478      1.0  0.00996  0.66925  0.59487  1.0000
  H   H479      1.0  0.05284  0.66230  0.61127  1.0000
  C   C392      1.0  0.98132  0.67553  0.91045  1.0000
  Fe  Fe54      1.0  0.02916  0.73445  0.69949  1.0000
  S   S105      1.0  0.99473  0.71841  0.73385  1.0000
  S   S106      1.0  0.04987  0.71816  0.66695  1.0000
  Fe  Fe55      1.0  0.99497  0.60578  0.64959  1.0000
  S   S107      1.0  0.02135  0.62157  0.59660  1.0000
  C   C393      1.0  0.09223  0.69065  0.67067  1.0000
  H   H480      1.0  0.01056  0.68413  0.84293  1.0000
  Fe  Fe56      1.0  0.05513  0.74345  0.61524  1.0000
  S   S108      1.0  0.98737  0.62430  0.69795  1.0000
  H   H481      1.0  0.99496  0.62546  0.88083  1.0000
  C   C394      1.0  0.02104  0.60710  0.55419  1.0000
  C   C395      1.0  0.01108  0.58601  0.55960  1.0000
  H   H482      1.0  0.09186  0.68771  0.73676  1.0000
  C   C396      1.0  0.98765  0.71323  0.01157  1.0000
  H   H483      1.0  0.00311  0.57847  0.58992  1.0000
  H   H484      1.0  0.98221  0.65871  0.65704  1.0000
  C   C397      1.0  0.06200  0.66481  0.71594  1.0000
  S   S109      1.0  0.98993  0.57863  0.69677  1.0000
  H   H485      1.0  0.02077  0.65229  0.79664  1.0000
  H   H486      1.0  0.01779  0.65568  0.74158  1.0000
  C   C398      1.0  0.98793  0.68511  0.68993  1.0000
  H   H487      1.0  0.10793  0.70341  0.66748  1.0000
  C   C399      1.0  0.03002  0.66014  0.76617  1.0000
  Fe  Fe57      1.0  0.07992  0.73932  0.69422  1.0000
  H   H488      1.0  0.00620  0.68996  0.68324  1.0000
  C   C400      1.0  0.08195  0.71676  0.86530  1.0000
  C   C401      1.0  0.06693  0.71335  0.83330  1.0000
  C   C402      1.0  0.07523  0.71817  0.79127  1.0000
  C   C403      1.0  0.09874  0.72618  0.78086  1.0000
  C   C404      1.0  0.11400  0.72932  0.81270  1.0000
  C   C405      1.0  0.10557  0.72486  0.85513  1.0000
  H   H489      1.0  0.04877  0.70705  0.84114  1.0000
  S   S110      1.0  0.98983  0.60313  0.80824  1.0000
  H   H490      1.0  0.11727  0.72741  0.87984  1.0000
  H   H491      1.0  0.99286  0.68739  0.92769  1.0000
  H   H492      1.0  0.13224  0.73539  0.80463  1.0000
  H   H493      1.0  0.08269  0.65803  0.78752  1.0000
  S   S111      1.0  0.05259  0.73633  0.54791  1.0000
  N   N25       1.0  0.98869  0.66790  0.54261  1.0000
  C   C406      1.0  0.00991  0.72140  0.99261  1.0000
  S   S112      1.0  0.07184  0.70337  0.03090  1.0000
  H   H494      1.0  0.01292  0.72183  0.95902  1.0000
  H   H495      1.0  0.98920  0.66331  0.90818  1.0000
  S   S113      1.0  0.10852  0.73284  0.72791  1.0000
  C   C407      1.0  0.06114  0.66771  0.63907  1.0000
  H   H496      1.0  0.06985  0.67739  0.79657  1.0000
  H   H497      1.0  0.99907  0.70214  0.81511  1.0000
  H   H498      1.0  0.97850  0.71889  0.62002  1.0000
  C   C408      1.0  0.98471  0.69618  0.58431  1.0000
  H   H499      1.0  0.03552  0.64614  0.68007  1.0000
  N   N26       1.0  0.05118  0.65487  0.75778  1.0000
  H   H500      1.0  0.03893  0.62467  0.79103  1.0000
  C   C409      1.0  0.00049  0.69466  0.84653  1.0000
  H   H501      1.0  0.03089  0.62589  0.73904  1.0000
  C   C410      1.0  0.02848  0.72866  0.01705  1.0000
  H   H502      1.0  0.03396  0.67680  0.76688  1.0000
  H   H503      1.0  0.06339  0.71535  0.76687  1.0000
  H   H504      1.0  0.99834  0.52109  0.80457  1.0000
  H   H505      1.0  0.04563  0.73447  0.00211  1.0000
  H   H506      1.0  0.05793  0.65277  0.82347  1.0000
  H   H507      1.0  0.01075  0.70693  0.86446  1.0000
  C   C411      1.0  0.08270  0.68139  0.71063  1.0000
  H   H508      1.0  0.02041  0.66114  0.54956  1.0000
  H   H509      1.0  0.02289  0.68746  0.54980  1.0000
  H   H510      1.0  0.98317  0.63570  0.55258  1.0000
  H   H511      1.0  0.08888  0.69118  0.60414  1.0000
  H   H512      1.0  0.00038  0.50558  0.56606  1.0000
  H   H513      1.0  0.99483  0.55555  0.80247  1.0000
  C   C412      1.0  0.98159  0.52305  0.80342  1.0000
  H   H514      1.0  0.00057  0.69786  0.59888  1.0000
  C   C413      1.0  0.01148  0.67171  0.55998  1.0000
  H   H515      1.0  0.98185  0.50302  0.72126  1.0000
  C   C414      1.0  0.00898  0.50051  0.54114  1.0000
  C   C415      1.0  0.97970  0.54245  0.80205  1.0000
  H   H516      1.0  0.98724  0.67070  0.79093  1.0000
  C   C416      1.0  0.97788  0.69645  0.71343  1.0000
  Fe  Fe58      1.0  0.97794  0.59641  0.74348  1.0000
  C   C417      1.0  0.97671  0.68224  0.55431  1.0000
  Fe  Fe59      1.0  0.12835  0.74684  0.01935  1.0000
  C   C418      1.0  0.97702  0.61693  0.88040  1.0000
  N   N27       1.0  0.97759  0.68396  0.86823  1.0000
  C   C419      1.0  0.01287  0.74634  0.53953  1.0000
  H   H517      1.0  0.44802  0.96551  0.23037  1.0000
  H   H518      1.0  0.35064  0.98685  0.24845  1.0000
  H   H519      1.0  0.33663  0.93723  0.06272  1.0000
  H   H520      1.0  0.27393  0.95328  0.10475  1.0000
  C   C420      1.0  0.28519  0.91949  0.45473  1.0000
  H   H521      1.0  0.31699  0.98909  0.28221  1.0000
  S   S114      1.0  0.30196  0.90582  0.11141  1.0000
  S   S115      1.0  0.23585  0.90276  0.11037  1.0000
  Fe  Fe60      1.0  0.35245  0.95834  0.31287  1.0000
  S   S116      1.0  0.38828  0.97451  0.28461  1.0000
  S   S117      1.0  0.31957  0.94929  0.27890  1.0000
  Fe  Fe61      1.0  0.36655  0.96386  0.40275  1.0000
  C   C421      1.0  0.47569  0.95277  0.23022  1.0000
  S   S118      1.0  0.35475  0.95592  0.47153  1.0000
  C   C422      1.0  0.25644  0.97425  0.25979  1.0000
  C   C423      1.0  0.45573  0.96182  0.33412  1.0000
  Fe  Fe62      1.0  0.39960  0.95727  0.33724  1.0000
  S   S119      1.0  0.42850  0.94417  0.33008  1.0000
  C   C424      1.0  0.15869  0.81908  0.06440  1.0000
  S   S120      1.0  0.36363  0.93886  0.36171  1.0000
  H   H522      1.0  0.30760  0.94807  0.49906  1.0000
  C   C425      1.0  0.26303  0.98054  0.48523  1.0000
  C   C426      1.0  0.45877  0.98261  0.33128  1.0000
  C   C427      1.0  0.13089  0.85610  0.52131  1.0000
  N   N28       1.0  0.08315  0.80538  0.53294  1.0000
  C   C428      1.0  0.11720  0.83669  0.51427  1.0000
  H   H523      1.0  0.34314  0.96818  0.09500  1.0000
  C   C429      1.0  0.36556  0.97498  0.50445  1.0000
  C   C430      1.0  0.30551  0.90810  0.51241  1.0000
  C   C431      1.0  0.26536  0.97938  0.33164  1.0000
  C   C432      1.0  0.26722  0.92605  0.43879  1.0000
  H   H524      1.0  0.41794  0.97643  0.47143  1.0000
  H   H525      1.0  0.27783  0.94294  0.51476  1.0000
  H   H526      1.0  0.27827  0.92639  0.33381  1.0000
  C   C433      1.0  0.25532  0.97455  0.09427  1.0000
  H   H527      1.0  0.98174  0.75383  0.53227  1.0000
  C   C434      1.0  0.37618  0.99506  0.48769  1.0000
  S   S121      1.0  0.23035  0.95665  0.08086  1.0000
  H   H528      1.0  0.21895  0.98137  0.16495  1.0000
  Fe  Fe63      1.0  0.23765  0.92876  0.06283  1.0000
  H   H529      1.0  0.27578  0.95869  0.29611  1.0000
  N   N29       1.0  0.23415  0.99422  0.22014  1.0000
  H   H530      1.0  0.32279  0.91841  0.50055  1.0000
  C   C435      1.0  0.30726  0.91877  0.15690  1.0000
  C   C436      1.0  0.32816  0.92154  0.17543  1.0000
  C   C437      1.0  0.33246  0.93120  0.21243  1.0000
  C   C438      1.0  0.31574  0.93796  0.23135  1.0000
  C   C439      1.0  0.29505  0.93552  0.21237  1.0000
  C   C440      1.0  0.29087  0.92610  0.17522  1.0000
  H   H531      1.0  0.34094  0.91591  0.16152  1.0000
  H   H532      1.0  0.34845  0.93297  0.22677  1.0000
  H   H533      1.0  0.28200  0.94066  0.22673  1.0000
  H   H534      1.0  0.27474  0.92407  0.16134  1.0000
  C   C441      1.0  0.45232  0.99568  0.45301  1.0000
  C   C442      1.0  0.25633  0.99487  0.09389  1.0000
  S   S122      1.0  0.40314  0.98067  0.38197  1.0000
  C   C443      1.0  0.25409  0.99382  0.33118  1.0000
  Fe  Fe64      1.0  0.22001  0.88310  0.06035  1.0000
  C   C444      1.0  0.24436  0.98864  0.25858  1.0000
  Fe  Fe65      1.0  0.26964  0.90442  0.07869  1.0000
  S   S123      1.0  0.18645  0.85743  0.07320  1.0000
  C   C445      1.0  0.30112  0.91644  0.42475  1.0000
  H   H535      1.0  0.47242  0.93901  0.34130  1.0000
  H   H536      1.0  0.20075  0.98681  0.25265  1.0000
  C   C446      1.0  0.18092  0.83294  0.05687  1.0000
  C   C447      1.0  0.29846  0.91890  0.38170  1.0000
  C   C448      1.0  0.26659  0.96965  0.29597  1.0000
  C   C449      1.0  0.47477  0.95508  0.33875  1.0000
  H   H537      1.0  0.14696  0.86341  0.50279  1.0000
  C   C450      1.0  0.43383  0.99213  0.52269  1.0000
  H   H538      1.0  0.25501  0.92949  0.45959  1.0000
  H   H539      1.0  0.27413  0.97273  0.47295  1.0000
  H   H540      1.0  0.44433  0.98801  0.32682  1.0000
  C   C451      1.0  0.22820  0.97774  0.19216  1.0000
  H   H541      1.0  0.25843  0.96641  0.23312  1.0000
  H   H542      1.0  0.27346  0.97602  0.35957  1.0000
  C   C452      1.0  0.34857  0.98745  0.03679  1.0000
  H   H543      1.0  0.11082  0.79621  0.50612  1.0000
  C   C453      1.0  0.24767  0.97154  0.52053  1.0000
  S   S124      1.0  0.35261  0.98206  0.35631  1.0000
  C   C454      1.0  0.07323  0.80542  0.49164  1.0000
  H   H544      1.0  0.31594  0.91235  0.43364  1.0000
  C   C455      1.0  0.29583  0.98404  0.10524  1.0000
  H   H545      1.0  0.31103  0.97976  0.10942  1.0000
  C   C456      1.0  0.28020  0.92467  0.36724  1.0000
  H   H546      1.0  0.21707  0.96320  0.20938  1.0000
  H   H547      1.0  0.12303  0.82970  0.48927  1.0000
  C   C457      1.0  0.43329  0.98711  0.48142  1.0000
  H   H548      1.0  0.31806  0.98063  0.20724  1.0000
  C   C458      1.0  0.46645  0.96871  0.22930  1.0000
  H   H549      1.0  0.25098  0.90932  0.51932  1.0000
  H   H550      1.0  0.46352  0.93774  0.23151  1.0000
  C   C459      1.0  0.26532  0.90294  0.52176  1.0000
  N   N30       1.0  0.28721  0.91681  0.50057  1.0000
  C   C460      1.0  0.27483  0.96904  0.10221  1.0000
  H   H551      1.0  0.31076  0.91651  0.35918  1.0000
  H   H552      1.0  0.24357  0.97514  0.17775  1.0000
  C   C461      1.0  0.34387  0.96886  0.06102  1.0000
  C   C462      1.0  0.34009  0.95102  0.04187  1.0000
  C   C463      1.0  0.26473  0.92844  0.39568  1.0000
  H   H553      1.0  0.26014  0.88817  0.50827  1.0000
  H   H554      1.0  0.25075  0.93327  0.38426  1.0000
  C   C464      1.0  0.29237  0.93681  0.51691  1.0000
  H   H555      1.0  0.14571  0.82320  0.08181  1.0000
  H   H556      1.0  0.08666  0.81114  0.46527  1.0000
  C   C465      1.0  0.09807  0.79227  0.53353  1.0000
  H   H557      1.0  0.30284  0.89314  0.50037  1.0000
  H   H558      1.0  0.08803  0.77599  0.53265  1.0000
  H   H559      1.0  0.45185  0.99156  0.42112  1.0000
  Fe  Fe66      1.0  0.38917  0.99667  0.33149  1.0000
  H   H560      1.0  0.06203  0.81523  0.48980  1.0000
  C   C466      1.0  0.15304  0.79997  0.04918  1.0000
  H   H561      1.0  0.06261  0.78985  0.48586  1.0000
  H   H562      1.0  0.13584  0.78946  0.05504  1.0000
  H   H563      1.0  0.30266  0.98766  0.53501  1.0000
  H   H564      1.0  0.24688  0.95683  0.53549  1.0000
  Fe  Fe67      1.0  0.06520  0.77627  0.67471  1.0000
  S   S125      1.0  0.07590  0.80930  0.68681  1.0000
  C   C467      1.0  0.10414  0.82484  0.67057  1.0000
  C   C468      1.0  0.11255  0.84433  0.68358  1.0000
  C   C469      1.0  0.13447  0.85739  0.66852  1.0000
  C   C470      1.0  0.11800  0.81832  0.64344  1.0000
  H   H565      1.0  0.10189  0.84953  0.70452  1.0000
  H   H566      1.0  0.11182  0.80350  0.63311  1.0000
  N   N31       1.0  0.11207  0.79175  0.80047  1.0000
  H   H567      1.0  0.11239  0.79606  0.88492  1.0000
  C   C471      1.0  0.18196  0.87034  0.81344  1.0000
  C   C472      1.0  0.12566  0.79039  0.87334  1.0000
  H   H568      1.0  0.14063  0.87258  0.67772  1.0000
  C   C473      1.0  0.08830  0.77891  0.81433  1.0000
  H   H569      1.0  0.07577  0.78191  0.79269  1.0000
  C   C474      1.0  0.13987  0.78555  0.90256  1.0000
  C   C475      1.0  0.12802  0.78733  0.83038  1.0000
  H   H570      1.0  0.10447  0.79109  0.73527  1.0000
  C   C476      1.0  0.11687  0.78781  0.75682  1.0000
  H   H571      1.0  0.11531  0.77161  0.75506  1.0000
  H   H572      1.0  0.13420  0.79746  0.74352  1.0000
  H   H573      1.0  0.18383  0.84956  0.76893  1.0000
  H   H574      1.0  0.10231  0.81736  0.77532  1.0000
  C   C477      1.0  0.18285  0.85184  0.80190  1.0000
  C   C478      1.0  0.11340  0.81339  0.79908  1.0000
  H   H575      1.0  0.13123  0.82353  0.79045  1.0000
  C   C479      1.0  0.18295  0.83648  0.83271  1.0000
  H   H576      1.0  0.18400  0.82218  0.82368  1.0000
  C   C480      1.0  0.33195  0.98846  0.86070  1.0000
  C   C481      1.0  0.15693  0.77769  0.88990  1.0000
  H   H577      1.0  0.29576  0.98072  0.73158  1.0000
  H   H578      1.0  0.08660  0.76249  0.81558  1.0000
  C   C482      1.0  0.23352  0.98177  0.53674  1.0000
  H   H579      1.0  0.18232  0.88244  0.78935  1.0000
  H   H580      1.0  0.43397  0.98240  0.61063  1.0000
  C   C483      1.0  0.18224  0.83961  0.87516  1.0000
  C   C484      1.0  0.13962  0.83142  0.62780  1.0000
  C   C485      1.0  0.18105  0.87358  0.85580  1.0000
  Fe  Fe68      1.0  0.24488  0.91746  0.64604  1.0000
  S   S126      1.0  0.08777  0.76280  0.63887  1.0000
  C   C486      1.0  0.14785  0.85104  0.63986  1.0000
  H   H581      1.0  0.05482  0.77986  0.56080  1.0000
  H   H582      1.0  0.26732  0.92271  0.71497  1.0000
  S   S127      1.0  0.03296  0.75883  0.64672  1.0000
  H   H583      1.0  0.32364  0.97691  0.63697  1.0000
  H   H584      1.0  0.30667  0.93609  0.95174  1.0000
  H   H585      1.0  0.29568  0.97671  0.00327  1.0000
  H   H586      1.0  0.18305  0.82746  0.89782  1.0000
  H   H587      1.0  0.08268  0.78159  0.84600  1.0000
  C   C487      1.0  0.14581  0.77951  0.81844  1.0000
  C   C488      1.0  0.15996  0.77477  0.84795  1.0000
  H   H588      1.0  0.07029  0.79593  0.59748  1.0000
  H   H589      1.0  0.14985  0.82647  0.60551  1.0000
  H   H590      1.0  0.28490  0.96544  0.62170  1.0000
  H   H591      1.0  0.28952  0.94130  0.76971  1.0000
  C   C489      1.0  0.18102  0.85821  0.88808  1.0000
  C   C490      1.0  0.35977  0.93213  0.95906  1.0000
  H   H592      1.0  0.18067  0.88838  0.86225  1.0000
  C   C491      1.0  0.09013  0.83714  0.57082  1.0000
  H   H593      1.0  0.25652  0.95831  0.76439  1.0000
  H   H594      1.0  0.20434  0.86525  0.98200  1.0000
  S   S128      1.0  0.39056  0.98764  0.68574  1.0000
  H   H595      1.0  0.10762  0.81722  0.82957  1.0000
  H   H596      1.0  0.32903  0.93621  0.63516  1.0000
  H   H597      1.0  0.16758  0.77355  0.91289  1.0000
  C   C492      1.0  0.34087  0.95126  0.99748  1.0000
  C   C493      1.0  0.25213  0.91312  0.84131  1.0000
  H   H598      1.0  0.05085  0.80382  0.56457  1.0000
  H   H599      1.0  0.26660  0.96452  0.81445  1.0000
  H   H600      1.0  0.27182  0.98060  0.59107  1.0000
  S   S129      1.0  0.25378  0.88228  0.03262  1.0000
  H   H601      1.0  0.21535  0.98341  0.67090  1.0000
  C   C494      1.0  0.23846  0.91625  0.80904  1.0000
  H   H602      1.0  0.24088  0.96888  0.79968  1.0000
  C   C495      1.0  0.28485  0.98134  0.61423  1.0000
  C   C496      1.0  0.33289  0.94821  0.69506  1.0000
  S   S130      1.0  0.21876  0.90933  0.01541  1.0000
  H   H603      1.0  0.34546  0.98844  0.83795  1.0000
  C   C497      1.0  0.23184  0.99234  0.68050  1.0000
  H   H604      1.0  0.13736  0.78737  0.93552  1.0000
  H   H605      1.0  0.33778  0.91130  0.02958  1.0000
  C   C498      1.0  0.16299  0.84413  0.95792  1.0000
  H   H606      1.0  0.20764  0.84820  0.94575  1.0000
  H   H607      1.0  0.16739  0.82983  0.96012  1.0000
  C   C499      1.0  0.21593  0.92788  0.85839  1.0000
  H   H608      1.0  0.22582  0.92769  0.92224  1.0000
  C   C500      1.0  0.25835  0.96971  0.78735  1.0000
  S   S131      1.0  0.21826  0.89517  0.69120  1.0000
  C   C501      1.0  0.32651  0.91366  0.00473  1.0000
  H   H609      1.0  0.09897  0.86426  0.60231  1.0000
  H   H610      1.0  0.34845  0.97209  0.93981  1.0000
  H   H611      1.0  0.20200  0.93375  0.86500  1.0000
  H   H612      1.0  0.18990  0.89396  0.92793  1.0000
  H   H613      1.0  0.35469  0.95452  0.56128  1.0000
  H   H614      1.0  0.31629  0.91749  0.92866  1.0000
  H   H615      1.0  0.27853  0.98617  0.64314  1.0000
  C   C502      1.0  0.32225  0.93250  0.94119  1.0000
  H   H616      1.0  0.14879  0.77638  0.78671  1.0000
  Fe  Fe69      1.0  0.36729  0.99005  0.73890  1.0000
  H   H617      1.0  0.07490  0.83067  0.59181  1.0000
  H   H618      1.0  0.36843  0.94557  0.93610  1.0000
  S   S132      1.0  0.17400  0.86743  0.61548  1.0000
  H   H619      1.0  0.16063  0.84715  0.99106  1.0000
  S   S133      1.0  0.28064  0.91771  0.63108  1.0000
  H   H620      1.0  0.31020  0.95875  0.85072  1.0000
  C   C503      1.0  0.32040  0.93738  0.66444  1.0000
  H   H621      1.0  0.35115  0.95498  0.68962  1.0000
  C   C504      1.0  0.29669  0.92865  0.67128  1.0000
  H   H622      1.0  0.26292  0.95652  0.96592  1.0000
  H   H623      1.0  0.21747  0.87500  0.93007  1.0000
  H   H624      1.0  0.36775  0.98141  0.60856  1.0000
  C   C505      1.0  0.31210  0.97181  0.86801  1.0000
  S   S134      1.0  0.22232  0.91677  0.59331  1.0000
  S   S135      1.0  0.26519  0.91309  0.92183  1.0000
  H   H625      1.0  0.15943  0.88058  0.93006  1.0000
  S   S136      1.0  0.18466  0.92228  0.66267  1.0000
  H   H626      1.0  0.20483  0.80426  0.00143  1.0000
  H   H627      1.0  0.35795  0.91839  0.94257  1.0000
  H   H628      1.0  0.37153  0.93204  0.98451  1.0000
  S   S137      1.0  0.33652  0.96535  0.76904  1.0000
  H   H629      1.0  0.33093  0.94346  0.91374  1.0000
  Fe  Fe70      1.0  0.21051  0.92260  0.71067  1.0000
  H   H630      1.0  0.31003  0.91366  0.02027  1.0000
  C   C506      1.0  0.28559  0.92989  0.70935  1.0000
  Fe  Fe71      1.0  0.25329  0.90965  0.99053  1.0000
  C   C507      1.0  0.17602  0.88020  0.94194  1.0000
  H   H631      1.0  0.24620  0.97122  0.98350  1.0000
  C   C508      1.0  0.35003  0.98831  0.99317  1.0000
  C   C509      1.0  0.16961  0.79460  0.02626  1.0000
  C   C510      1.0  0.09670  0.82637  0.53958  1.0000
  H   H632      1.0  0.32259  0.89990  0.98771  1.0000
  H   H633      1.0  0.14609  0.84120  0.94432  1.0000
  C   C511      1.0  0.34648  0.97055  0.97368  1.0000
  Fe  Fe72      1.0  0.19467  0.89640  0.64008  1.0000
  N   N32       1.0  0.33731  0.93262  0.97625  1.0000
  S   S138      1.0  0.21532  0.97187  0.58291  1.0000
  N   N33       1.0  0.18081  0.86132  0.93317  1.0000
  C   C512      1.0  0.20353  0.86248  0.94834  1.0000
  H   H634      1.0  0.17498  0.88160  0.97632  1.0000
  C   C513      1.0  0.29695  0.98861  0.92088  1.0000
  C   C514      1.0  0.24748  0.91698  0.88235  1.0000
  S   S139      1.0  0.20351  0.92870  0.77741  1.0000
  Fe  Fe73      1.0  0.21468  0.94255  0.62025  1.0000
  H   H635      1.0  0.17304  0.76833  0.83844  1.0000
  H   H636      1.0  0.22912  0.97230  0.73517  1.0000
  H   H637      1.0  0.27998  0.95829  0.90184  1.0000
  H   H638      1.0  0.24195  0.91291  0.77768  1.0000
  C   C515      1.0  0.29477  0.97178  0.89760  1.0000
  S   S140      1.0  0.23947  0.94481  0.67000  1.0000
  H   H639      1.0  0.26622  0.90746  0.83446  1.0000
  C   C516      1.0  0.06398  0.79592  0.56544  1.0000
  C   C517      1.0  0.25873  0.97070  0.95780  1.0000
  S   S141      1.0  0.05872  0.75356  0.73120  1.0000
  C   C518      1.0  0.22036  0.92370  0.81745  1.0000
  C   C519      1.0  0.29814  0.94034  0.74029  1.0000
  H   H640      1.0  0.24969  0.96931  0.92835  1.0000
  C   C520      1.0  0.32171  0.94999  0.73263  1.0000
  C   C521      1.0  0.37026  0.98535  0.57500  1.0000
  C   C522      1.0  0.22937  0.92443  0.89083  1.0000
  C   C523      1.0  0.24014  0.98605  0.71744  1.0000
  S   S142      1.0  0.16296  0.77117  0.00490  1.0000
  C   C524      1.0  0.19759  0.82746  0.03438  1.0000
  C   C525      1.0  0.19189  0.80840  0.01892  1.0000
  C   C526      1.0  0.10383  0.85664  0.57722  1.0000
  H   H641      1.0  0.26667  0.89969  0.55603  1.0000
  H   H642      1.0  0.21482  0.83791  0.02880  1.0000
  N   N34       1.0  0.27953  0.98887  0.95380  1.0000
  C   C527      1.0  0.36279  0.97011  0.54816  1.0000
  H   H643      1.0  0.01667  0.75394  0.56734  1.0000
  S   S143      1.0  0.09624  0.75089  0.99446  1.0000
  H   H644      1.0  0.30604  0.90572  0.54718  1.0000
  C   C528      1.0  0.28979  0.98999  0.99482  1.0000
  C   C529      1.0  0.32388  0.99290  0.63079  1.0000
  H   H645      1.0  0.27724  0.99038  0.02011  1.0000
  C   C530      1.0  0.31508  0.98829  0.55942  1.0000
  N   N35       1.0  0.27177  0.99041  0.76799  1.0000
  H   H646      1.0  0.29618  0.93593  0.55044  1.0000
  H   H647      1.0  0.31674  0.97286  0.56501  1.0000
  C   C531      1.0  0.29539  0.99024  0.75748  1.0000
  H   H648      1.0  0.30251  0.98390  0.78474  1.0000
  N   N36       1.0  0.30795  0.99515  0.59864  1.0000
  S   S144      1.0  0.44962  0.99458  0.72249  1.0000
  H   H649      1.0  0.41837  0.98496  0.54273  1.0000
  H   H650      1.0  0.10762  0.79340  0.56237  1.0000
  C   C532      1.0  0.12429  0.86598  0.55293  1.0000
  H   H651      1.0  0.13533  0.88074  0.55928  1.0000
  S   S145      1.0  0.27228  0.93156  0.03360  1.0000
  S   S146      1.0  0.78302  0.02843  0.46330  1.0000
  H   H652      1.0  0.82311  0.11729  0.07483  1.0000
  S   S147      1.0  0.71071  0.08194  0.11722  1.0000
  Fe  Fe74      1.0  0.76679  0.05312  0.31116  1.0000
  S   S148      1.0  0.76574  0.08443  0.31847  1.0000
  S   S149      1.0  0.76254  0.04127  0.24742  1.0000
  Fe  Fe75      1.0  0.77610  0.04501  0.40380  1.0000
  S   S150      1.0  0.77613  0.07608  0.41702  1.0000
  H   H653      1.0  0.79853  0.14854  0.04838  1.0000
  Fe  Fe76      1.0  0.74548  0.06976  0.37918  1.0000
  S   S151      1.0  0.71197  0.07197  0.40376  1.0000
  Fe  Fe77      1.0  0.79661  0.08746  0.35533  1.0000
  S   S152      1.0  0.83022  0.11285  0.34150  1.0000
  S   S153      1.0  0.74405  0.03807  0.36941  1.0000
  S   S154      1.0  0.79905  0.05685  0.34452  1.0000
  H   H654      1.0  0.54198  0.02232  0.48352  1.0000
  H   H655      1.0  0.86941  0.12134  0.53531  1.0000
  H   H656      1.0  0.83841  0.22361  0.29558  1.0000
  H   H657      1.0  0.66230  0.06875  0.51178  1.0000
  H   H658      1.0  0.82437  0.22212  0.24773  1.0000
  Fe  Fe78      1.0  0.88174  0.22485  0.38063  1.0000
  S   S155      1.0  0.84653  0.20146  0.39261  1.0000
  C   C533      1.0  0.64062  0.09384  0.48364  1.0000
  S   S156      1.0  0.91385  0.21932  0.35725  1.0000
  C   C534      1.0  0.67120  0.04752  0.38044  1.0000
  C   C535      1.0  0.59957  0.03310  0.49666  1.0000
  H   H659      1.0  0.59343  0.04565  0.48750  1.0000
  C   C536      1.0  0.65978  0.04781  0.30903  1.0000
  H   H660      1.0  0.69582  0.10126  0.45023  1.0000
  S   S157      1.0  0.63982  0.03860  0.27248  1.0000
  C   C537      1.0  0.76872  0.99873  0.52904  1.0000
  S   S158      1.0  0.95803  0.23545  0.44526  1.0000
  C   C538      1.0  0.69199  0.06258  0.36725  1.0000
  C   C539      1.0  0.69683  0.07000  0.32479  1.0000
  C   C540      1.0  0.68054  0.06288  0.29581  1.0000
  H   H661      1.0  0.71288  0.08161  0.31444  1.0000
  H   H662      1.0  0.68408  0.06894  0.26310  1.0000
  C   C541      1.0  0.83395  0.13749  0.35475  1.0000
  C   C542      1.0  0.81623  0.14261  0.37453  1.0000
  C   C543      1.0  0.82033  0.16227  0.38642  1.0000
  C   C544      1.0  0.84217  0.17674  0.37896  1.0000
  C   C545      1.0  0.85987  0.17148  0.35950  1.0000
  C   C546      1.0  0.85571  0.15201  0.34701  1.0000
  H   H663      1.0  0.79943  0.13144  0.38081  1.0000
  H   H664      1.0  0.80655  0.16627  0.40147  1.0000
  H   H665      1.0  0.87682  0.18236  0.35416  1.0000
  H   H666      1.0  0.86954  0.14804  0.33205  1.0000
  H   H667      1.0  0.61121  0.06338  0.35429  1.0000
  H   H668      1.0  0.63937  0.02817  0.36165  1.0000
  H   H669      1.0  0.66741  0.04149  0.41301  1.0000
  C   C547      1.0  0.72546  0.07055  0.15241  1.0000
  C   C548      1.0  0.73738  0.05776  0.13951  1.0000
  C   C549      1.0  0.74869  0.04879  0.16884  1.0000
  C   C550      1.0  0.74851  0.05287  0.21093  1.0000
  C   C551      1.0  0.73676  0.06581  0.22349  1.0000
  C   C552      1.0  0.72513  0.07444  0.19447  1.0000
  H   H670      1.0  0.73775  0.05467  0.10711  1.0000
  H   H671      1.0  0.75776  0.03880  0.15885  1.0000
  H   H672      1.0  0.73607  0.06881  0.25584  1.0000
  H   H673      1.0  0.71590  0.08427  0.20467  1.0000
  N   N37       1.0  0.79424  0.12501  0.09938  1.0000
  H   H674      1.0  0.83712  0.17345  0.27092  1.0000
  C   C553      1.0  0.70683  0.00291  0.22960  1.0000
  C   C554      1.0  0.76904  0.11815  0.09686  1.0000
  C   C555      1.0  0.79978  0.12160  0.14335  1.0000
  C   C556      1.0  0.81288  0.13748  0.16574  1.0000
  C   C557      1.0  0.68486  0.00853  0.47745  1.0000
  C   C558      1.0  0.61501  0.00045  0.52022  1.0000
  H   H675      1.0  0.68432  0.10485  0.49972  1.0000
  H   H676      1.0  0.85157  0.10141  0.43278  1.0000
  C   C559      1.0  0.69970  0.02411  0.28059  1.0000
  H   H677      1.0  0.76052  0.12552  0.11883  1.0000
  H   H678      1.0  0.63824  0.10817  0.46981  1.0000
  H   H679      1.0  0.72937  0.01743  0.45993  1.0000
  C   C560      1.0  0.86574  0.18821  0.14984  1.0000
  C   C561      1.0  0.72453  0.02455  0.48700  1.0000
  H   H680      1.0  0.69743  0.03573  0.25659  1.0000
  H   H681      1.0  0.88213  0.09590  0.46924  1.0000
  H   H682      1.0  0.76127  0.10153  0.10475  1.0000
  H   H683      1.0  0.91108  0.20527  0.46032  1.0000
  H   H684      1.0  0.48808  0.02584  0.51481  1.0000
  H   H685      1.0  0.81531  0.18379  0.25318  1.0000
  H   H686      1.0  0.62044  0.06477  0.42740  1.0000
  C   C562      1.0  0.62824  0.99783  0.17069  1.0000
  H   H687      1.0  0.86906  0.18947  0.46304  1.0000
  C   C563      1.0  0.85302  0.20472  0.20632  1.0000
  C   C564      1.0  0.87050  0.15894  0.46450  1.0000
  N   N38       1.0  0.67501  0.99819  0.08907  1.0000
  C   C565      1.0  0.79779  0.09798  0.20602  1.0000
  H   H688      1.0  0.87264  0.17667  0.14009  1.0000
  C   C566      1.0  0.59653  0.01730  0.47108  1.0000
  C   C567      1.0  0.79232  0.10176  0.16491  1.0000
  C   C568      1.0  0.65526  0.03994  0.35127  1.0000
  H   H689      1.0  0.82820  0.14564  0.22367  1.0000
  N   N39       1.0  0.65898  0.08905  0.45946  1.0000
  C   C569      1.0  0.66020  0.06914  0.47744  1.0000
  H   H690      1.0  0.85392  0.23787  0.24875  1.0000
  H   H691      1.0  0.68127  0.12003  0.45364  1.0000
  C   C570      1.0  0.65374  0.08824  0.41483  1.0000
  C   C571      1.0  0.66902  0.10046  0.38125  1.0000
  C   C572      1.0  0.63267  0.07490  0.40383  1.0000
  C   C573      1.0  0.66327  0.09949  0.33957  1.0000
  C   C574      1.0  0.62714  0.07403  0.36206  1.0000
  C   C575      1.0  0.64240  0.08631  0.33001  1.0000
  H   H692      1.0  0.51515  0.00805  0.23270  1.0000
  H   H693      1.0  0.62386  0.08165  0.48484  1.0000
  H   H694      1.0  0.81484  0.11072  0.25888  1.0000
  H   H695      1.0  0.66826  0.01190  0.22662  1.0000
  H   H696      1.0  0.68991  0.02468  0.31012  1.0000
  Fe  Fe79      1.0  0.60986  0.01317  0.30305  1.0000
  C   C576      1.0  0.85926  0.11673  0.50786  1.0000
  H   H697      1.0  0.71806  0.02903  0.28686  1.0000
  H   H698      1.0  0.67540  0.10849  0.31433  1.0000
  N   N40       1.0  0.84887  0.20577  0.25176  1.0000
  H   H699      1.0  0.86468  0.17826  0.21478  1.0000
  H   H700      1.0  0.72510  0.00658  0.23653  1.0000
  H   H701      1.0  0.85145  0.09991  0.51209  1.0000
  C   C577      1.0  0.86195  0.20222  0.11968  1.0000
  H   H702      1.0  0.63837  0.08506  0.29755  1.0000
  C   C578      1.0  0.84102  0.22312  0.26108  1.0000
  Fe  Fe80      1.0  0.71874  0.08459  0.04724  1.0000
  C   C579      1.0  0.66850  0.00025  0.25251  1.0000
  H   H703      1.0  0.81927  0.15307  0.15213  1.0000
  H   H704      1.0  0.79567  0.15632  0.09909  1.0000
  H   H705      1.0  0.78224  0.08894  0.15007  1.0000
  C   C580      1.0  0.83110  0.18690  0.27053  1.0000
  H   H706      1.0  0.62269  0.02332  0.19701  1.0000
  H   H707      1.0  0.68578  0.11050  0.38613  1.0000
  H   H708      1.0  0.68137  0.03790  0.11098  1.0000
  H   H709      1.0  0.66614  0.02785  0.52275  1.0000
  C   C581      1.0  0.80426  0.11317  0.07264  1.0000
  C   C582      1.0  0.63354  0.01831  0.17601  1.0000
  C   C583      1.0  0.89070  0.11261  0.46713  1.0000
  H   H710      1.0  0.48304  0.01265  0.32891  1.0000
  C   C584      1.0  0.84915  0.21867  0.17468  1.0000
  C   C585      1.0  0.65296  0.03236  0.15467  1.0000
  H   H711      1.0  0.73890  0.02694  0.50786  1.0000
  C   C586      1.0  0.69363  0.01479  0.06456  1.0000
  S   S159      1.0  0.58911  0.01600  0.35939  1.0000
  C   C587      1.0  0.86124  0.18932  0.19252  1.0000
  H   H712      1.0  0.67489  0.06568  0.46246  1.0000
  H   H713      1.0  0.82611  0.18789  0.30386  1.0000
  H   H714      1.0  0.65728  0.04827  0.15958  1.0000
  C   C588      1.0  0.90370  0.18895  0.46137  1.0000
  H   H715      1.0  0.88435  0.22139  0.25840  1.0000
  C   C589      1.0  0.87031  0.20789  0.27291  1.0000
  H   H716      1.0  0.86586  0.20165  0.08662  1.0000
  H   H717      1.0  0.86811  0.20968  0.30676  1.0000
  C   C590      1.0  0.80311  0.14659  0.08133  1.0000
  H   H718      1.0  0.87638  0.19456  0.27152  1.0000
  N   N41       1.0  0.69192  0.00356  0.26658  1.0000
  C   C591      1.0  0.76868  0.00329  0.48554  1.0000
  C   C592      1.0  0.88444  0.14614  0.46466  1.0000
  C   C593      1.0  0.68106  0.10455  0.46585  1.0000
  H   H719      1.0  0.64439  0.09543  0.51708  1.0000
  H   H720      1.0  0.86922  0.12398  0.40179  1.0000
  C   C594      1.0  0.60447  0.00101  0.48241  1.0000
  H   H721      1.0  0.84451  0.12414  0.43313  1.0000
  N   N42       1.0  0.87380  0.12381  0.46795  1.0000
  C   C595      1.0  0.88005  0.17999  0.46309  1.0000
  H   H722      1.0  0.82213  0.15258  0.08020  1.0000
  H   H723      1.0  0.92068  0.14752  0.46210  1.0000
  C   C596      1.0  0.81817  0.13349  0.20699  1.0000
  H   H724      1.0  0.90181  0.11687  0.43727  1.0000
  Fe  Fe81      1.0  0.93141  0.24076  0.40308  1.0000
  C   C597      1.0  0.90858  0.15582  0.46251  1.0000
  C   C598      1.0  0.81066  0.11380  0.22701  1.0000
  C   C599      1.0  0.85352  0.21731  0.13209  1.0000
  S   S160      1.0  0.52735  0.00794  0.33289  1.0000
  H   H725      1.0  0.64458  0.05649  0.47315  1.0000
  H   H726      1.0  0.85204  0.15282  0.46533  1.0000
  H   H727      1.0  0.72391  0.03981  0.47478  1.0000
  C   C600      1.0  0.66680  0.02610  0.12683  1.0000
  H   H728      1.0  0.84478  0.12302  0.50921  1.0000
  S   S161      1.0  0.89872  0.24388  0.43037  1.0000
  H   H729      1.0  0.58748  0.01754  0.44324  1.0000
  C   C601      1.0  0.85921  0.11815  0.43254  1.0000
  H   H730      1.0  0.90169  0.11541  0.49408  1.0000
  C   C602      1.0  0.61025  0.03256  0.53419  1.0000
  H   H731      1.0  0.84325  0.23112  0.18179  1.0000
  H   H732      1.0  0.79207  0.08267  0.22178  1.0000
  H   H733      1.0  0.93636  0.18419  0.45910  1.0000
  H   H734      1.0  0.85096  0.22844  0.10855  1.0000
  C   C603      1.0  0.91793  0.17693  0.46081  1.0000
  H   H735      1.0  0.68373  0.02314  0.46241  1.0000
  H   H736      1.0  0.73014  0.00198  0.30594  1.0000
  N   N43       1.0  0.70235  0.01188  0.50890  1.0000
  H   H737      1.0  0.79675  0.09655  0.08135  1.0000
  H   H738      1.0  0.70634  0.01421  0.20313  1.0000
  C   C604      1.0  0.66147  0.00537  0.11966  1.0000
  C   C605      1.0  0.53962  0.00621  0.48770  1.0000
  H   H739      1.0  0.76419  0.12159  0.06463  1.0000
  H   H740      1.0  0.65664  0.00172  0.27814  1.0000
  H   H741      1.0  0.92864  0.24219  0.15637  1.0000
  H   H742      1.0  0.48663  0.01622  0.44315  1.0000
  H   H743      1.0  0.70646  0.02343  0.08506  1.0000
  H   H744      1.0  0.68662  0.02543  0.04602  1.0000
  S   S162      1.0  0.57915  0.99827  0.26895  1.0000
  C   C606      1.0  0.54485  0.99739  0.52530  1.0000
  Fe  Fe82      1.0  0.55858  0.99767  0.32878  1.0000
  H   H745      1.0  0.52868  0.00152  0.42542  1.0000
  H   H746      1.0  0.70331  0.00890  0.04146  1.0000
  H   H747      1.0  0.80120  0.11587  0.03899  1.0000
  H   H748      1.0  0.66764  0.99908  0.49187  1.0000
  H   H749      1.0  0.68914  0.00049  0.45141  1.0000
  Fe  Fe83      1.0  0.70317  0.09470  0.96074  1.0000
  S   S163      1.0  0.73440  0.09174  0.92714  1.0000
  S   S164      1.0  0.67578  0.10124  0.92234  1.0000
  Fe  Fe84      1.0  0.75378  0.10873  0.97739  1.0000
  S   S165      1.0  0.78906  0.13195  0.96369  1.0000
  Fe  Fe85      1.0  0.72759  0.06387  0.97247  1.0000
  S   S166      1.0  0.72880  0.03439  0.95097  1.0000
  S   S167      1.0  0.72310  0.11408  0.00789  1.0000
  S   S168      1.0  0.69541  0.06597  0.00381  1.0000
  S   S169      1.0  0.81346  0.22757  0.95551  1.0000
  Fe  Fe86      1.0  0.57610  0.04863  0.70276  1.0000
  S   S170      1.0  0.61110  0.06918  0.67770  1.0000
  S   S171      1.0  0.54718  0.06108  0.71448  1.0000
  C   C607      1.0  0.73693  0.00109  0.80344  1.0000
  C   C608      1.0  0.69258  0.01762  0.76087  1.0000
  C   C609      1.0  0.62723  0.00393  0.79130  1.0000
  Fe  Fe87      1.0  0.62417  0.04954  0.72315  1.0000
  S   S172      1.0  0.65633  0.05561  0.75854  1.0000
  Fe  Fe88      1.0  0.60873  0.04567  0.63312  1.0000
  C   C610      1.0  0.68845  0.04234  0.61350  1.0000
  S   S173      1.0  0.58921  0.03092  0.75187  1.0000
  S   S174      1.0  0.61640  0.05358  0.56321  1.0000
  H   H750      1.0  0.62185  0.01253  0.86735  1.0000
  C   C611      1.0  0.67808  0.02954  0.54688  1.0000
  C   C612      1.0  0.50029  0.04836  0.71962  1.0000
  C   C613      1.0  0.52008  0.04255  0.71740  1.0000
  H   H751      1.0  0.69741  0.14137  0.86520  1.0000
  H   H752      1.0  0.80858  0.21900  0.85595  1.0000
  H   H753      1.0  0.67033  0.00206  0.66948  1.0000
  H   H754      1.0  0.50182  0.06420  0.72003  1.0000
  C   C614      1.0  0.62622  0.99826  0.86601  1.0000
  C   C615      1.0  0.75442  0.17056  0.86198  1.0000
  H   H755      1.0  0.55109  0.00747  0.54889  1.0000
  H   H756      1.0  0.71256  0.16251  0.82779  1.0000
  H   H757      1.0  0.53320  0.01740  0.71647  1.0000
  C   C616      1.0  0.51805  0.02204  0.71732  1.0000
  C   C617      1.0  0.77679  0.16913  0.86524  1.0000
  C   C618      1.0  0.61758  0.01603  0.54631  1.0000
  C   C619      1.0  0.68171  0.02081  0.94934  1.0000
  C   C620      1.0  0.47853  0.03371  0.72163  1.0000
  H   H758      1.0  0.68222  0.03639  0.94916  1.0000
  Fe  Fe89      1.0  0.58952  0.01078  0.70150  1.0000
  C   C621      1.0  0.79565  0.15841  0.96495  1.0000
  C   C622      1.0  0.81849  0.17085  0.95653  1.0000
  C   C623      1.0  0.82433  0.19206  0.95550  1.0000
  C   C624      1.0  0.80725  0.20098  0.96201  1.0000
  C   C625      1.0  0.78450  0.18849  0.97157  1.0000
  C   C626      1.0  0.77878  0.16725  0.97395  1.0000
  H   H759      1.0  0.83170  0.16412  0.95005  1.0000
  H   H760      1.0  0.84191  0.20154  0.94808  1.0000
  H   H761      1.0  0.76134  0.15781  0.98227  1.0000
  C   C627      1.0  0.66907  0.08742  0.87844  1.0000
  C   C628      1.0  0.68124  0.07449  0.86773  1.0000
  C   C629      1.0  0.67688  0.06468  0.83119  1.0000
  C   C630      1.0  0.65991  0.06726  0.80551  1.0000
  C   C631      1.0  0.64712  0.07963  0.81687  1.0000
  C   C632      1.0  0.65186  0.08984  0.85308  1.0000
  H   H762      1.0  0.69415  0.07211  0.88737  1.0000
  H   H763      1.0  0.68681  0.05513  0.82276  1.0000
  H   H764      1.0  0.63401  0.08174  0.79724  1.0000
  H   H765      1.0  0.64226  0.09972  0.86129  1.0000
  H   H766      1.0  0.72636  0.02018  0.57901  1.0000
  H   H767      1.0  0.72398  0.03297  0.82009  1.0000
  H   H768      1.0  0.75072  0.13057  0.85124  1.0000
  H   H769      1.0  0.73113  0.15545  0.93511  1.0000
  C   C633      1.0  0.70205  0.01590  0.94851  1.0000
  C   C634      1.0  0.67917  0.00215  0.69808  1.0000
  H   H770      1.0  0.81289  0.18496  0.86609  1.0000
  H   H771      1.0  0.73636  0.19309  0.85319  1.0000
  S   S175      1.0  0.57301  0.02653  0.65507  1.0000
  H   H772      1.0  0.62582  0.01558  0.57524  1.0000
  H   H773      1.0  0.72077  0.12275  0.84663  1.0000
  H   H774      1.0  0.77124  0.19531  0.97696  1.0000
  H   H775      1.0  0.68508  0.05003  0.63975  1.0000
  S   S176      1.0  0.87161  0.23862  0.00954  1.0000
  C   C635      1.0  0.71434  0.01813  0.83804  1.0000
  C   C636      1.0  0.75261  0.19040  0.85531  1.0000
  H   H776      1.0  0.74631  0.00088  0.83237  1.0000
  C   C637      1.0  0.68159  0.01770  0.72353  1.0000
  C   C638      1.0  0.73245  0.14398  0.91399  1.0000
  S   S177      1.0  0.75053  0.08025  0.01946  1.0000
  C   C639      1.0  0.71149  0.02525  0.57861  1.0000
  H   H777      1.0  0.70791  0.16575  0.88265  1.0000
  C   C640      1.0  0.70717  0.03521  0.61241  1.0000
  S   S178      1.0  0.62525  0.02811  0.67554  1.0000
  H   H778      1.0  0.77031  0.22264  0.84900  1.0000
  H   H779      1.0  0.49192  0.02123  0.58305  1.0000
  N   N44       1.0  0.71311  0.00091  0.81314  1.0000
  H   H780      1.0  0.74675  0.01477  0.78203  1.0000
  H   H781      1.0  0.62178  0.01750  0.79460  1.0000
  H   H782      1.0  0.74756  0.13931  0.92212  1.0000
  H   H783      1.0  0.67463  0.02981  0.71454  1.0000
  H   H784      1.0  0.77955  0.15468  0.87242  1.0000
  H   H785      1.0  0.64511  0.00216  0.86714  1.0000
  H   H786      1.0  0.71713  0.13046  0.92169  1.0000
  H   H787      1.0  0.69356  0.03007  0.77917  1.0000
  C   C641      1.0  0.71216  0.15576  0.86069  1.0000
  C   C642      1.0  0.67398  0.03952  0.58084  1.0000
  H   H788      1.0  0.73935  0.14237  0.80906  1.0000
  H   H789      1.0  0.72352  0.01719  0.86698  1.0000
  C   C643      1.0  0.77203  0.20761  0.85267  1.0000
  C   C644      1.0  0.73644  0.13637  0.84285  1.0000
  C   C645      1.0  0.79607  0.18642  0.86206  1.0000
  C   C646      1.0  0.79368  0.20562  0.85628  1.0000
  N   N45       1.0  0.73413  0.15211  0.86940  1.0000
  C   C647      1.0  0.49631  0.00742  0.71924  1.0000
  H   H790      1.0  0.65939  0.04506  0.58204  1.0000
  C   C648      1.0  0.70163  0.00179  0.77365  1.0000
  H   H791      1.0  0.64621  0.00965  0.78839  1.0000
  H   H792      1.0  0.71839  0.03735  0.63795  1.0000
  C   C649      1.0  0.66049  0.00544  0.95085  1.0000
  H   H793      1.0  0.69700  0.01837  0.84867  1.0000
  H   H794      1.0  0.64479  0.00922  0.95377  1.0000
  C   C650      1.0  0.69702  0.02202  0.54481  1.0000
  H   H795      1.0  0.77683  0.01065  0.54805  1.0000
  H   H796      1.0  0.62082  0.99807  0.76145  1.0000
  S   S179      1.0  0.90121  0.29957  0.39454  1.0000
  C   C651      1.0  0.94477  0.30795  0.06514  1.0000
  C   C652      1.0  0.96914  0.34737  0.41196  1.0000
  S   S180      1.0  0.87353  0.27448  0.10158  1.0000
  Fe  Fe90      1.0  0.90592  0.27009  0.38061  1.0000
  C   C653      1.0  0.92311  0.31935  0.50875  1.0000
  S   S181      1.0  0.93201  0.42596  0.37018  1.0000
  H   H797      1.0  0.95826  0.34652  0.31998  1.0000
  H   H798      1.0  0.97132  0.35908  0.10947  1.0000
  C   C654      1.0  0.96658  0.29795  0.17669  1.0000
  C   C655      1.0  0.89263  0.42718  0.47265  1.0000
  C   C656      1.0  0.90131  0.42797  0.43130  1.0000
  C   C657      1.0  0.92221  0.42466  0.42302  1.0000
  C   C658      1.0  0.93465  0.42076  0.45663  1.0000
  H   H799      1.0  0.92909  0.29583  0.07925  1.0000
  H   H800      1.0  0.87631  0.42959  0.47858  1.0000
  H   H801      1.0  0.89163  0.43103  0.40556  1.0000
  H   H802      1.0  0.95063  0.41790  0.45060  1.0000
  C   C659      1.0  0.91344  0.25439  0.20496  1.0000
  C   C660      1.0  0.88550  0.27031  0.18212  1.0000
  C   C661      1.0  0.92715  0.31767  0.40341  1.0000
  C   C662      1.0  0.94945  0.35290  0.40611  1.0000
  H   H803      1.0  0.95948  0.30639  0.08255  1.0000
  C   C663      1.0  0.92858  0.33811  0.40114  1.0000
  C   C664      1.0  0.92597  0.42007  0.49832  1.0000
  H   H804      1.0  0.90652  0.25225  0.10004  1.0000
  H   H805      1.0  0.91365  0.34248  0.39464  1.0000
  C   C665      1.0  0.88868  0.26604  0.14082  1.0000
  H   H806      1.0  0.94936  0.26377  0.08605  1.0000
  N   N46       1.0  0.97229  0.48937  0.39226  1.0000
  H   H807      1.0  0.49904  0.47864  0.31271  1.0000
  S   S182      1.0  0.96666  0.39107  0.32767  1.0000
  H   H808      1.0  0.89483  0.36167  0.42779  1.0000
  H   H809      1.0  0.97116  0.45825  0.40793  1.0000
  C   C666      1.0  0.94019  0.33285  0.10969  1.0000
  C   C667      1.0  0.92117  0.32057  0.13665  1.0000
  H   H810      1.0  0.86066  0.32953  0.52013  1.0000
  C   C668      1.0  0.91852  0.32389  0.17860  1.0000
  C   C669      1.0  0.90415  0.25576  0.13170  1.0000
  C   C670      1.0  0.96386  0.33855  0.29644  1.0000
  C   C671      1.0  0.90735  0.34768  0.50240  1.0000
  H   H811      1.0  0.88871  0.31559  0.49687  1.0000
  C   C672      1.0  0.95108  0.47718  0.46325  1.0000
  H   H812      1.0  0.93884  0.46830  0.38420  1.0000
  C   C673      1.0  0.96060  0.27947  0.52131  1.0000
  C   C674      1.0  0.48551  0.48545  0.31394  1.0000
  H   H813      1.0  0.95518  0.47989  0.33660  1.0000
  H   H814      1.0  0.96174  0.31036  0.15978  1.0000
  C   C675      1.0  0.92958  0.36071  0.50859  1.0000
  H   H815      1.0  0.90817  0.30826  0.12534  1.0000
  H   H816      1.0  0.95030  0.36860  0.40524  1.0000
  H   H817      1.0  0.90384  0.31420  0.19851  1.0000
  C   C676      1.0  0.95629  0.26445  0.05426  1.0000
  C   C677      1.0  0.93454  0.33974  0.19487  1.0000
  H   H818      1.0  0.47928  0.47209  0.42060  1.0000
  H   H819      1.0  0.95105  0.28779  0.19519  1.0000
  H   H820      1.0  0.93782  0.31025  0.31659  1.0000
  H   H821      1.0  0.86668  0.33182  0.46378  1.0000
  H   H822      1.0  0.89574  0.26850  0.24543  1.0000
  H   H823      1.0  0.91894  0.34402  0.04653  1.0000
  C   C678      1.0  0.96751  0.32684  0.41589  1.0000
  H   H824      1.0  0.87361  0.27834  0.18932  1.0000
  S   S183      1.0  0.93966  0.26816  0.35576  1.0000
  H   H825      1.0  0.94534  0.29622  0.41515  1.0000
  H   H826      1.0  0.91070  0.38191  0.45509  1.0000
  N   N47       1.0  0.88839  0.35611  0.49500  1.0000
  N   N48       1.0  0.94273  0.32854  0.06567  1.0000
  Fe  Fe91      1.0  0.96452  0.41944  0.35251  1.0000
  C   C679      1.0  0.95237  0.31809  0.29447  1.0000
  C   C680      1.0  0.94649  0.31201  0.41190  1.0000
  H   H827      1.0  0.48531  0.42461  0.52422  1.0000
  H   H828      1.0  0.95012  0.29176  0.26422  1.0000
  H   H829      1.0  0.96555  0.36468  0.18225  1.0000
  C   C681      1.0  0.95632  0.34887  0.12735  1.0000
  H   H830      1.0  0.94368  0.46227  0.45357  1.0000
  C   C682      1.0  0.94471  0.33260  0.51429  1.0000
  C   C683      1.0  0.89391  0.36997  0.45546  1.0000
  C   C684      1.0  0.86603  0.34043  0.49122  1.0000
  H   H831      1.0  0.88095  0.37788  0.45024  1.0000
  H   H832      1.0  0.95189  0.29048  0.52504  1.0000
  C   C685      1.0  0.95463  0.26649  0.48974  1.0000
  H   H833      1.0  0.96491  0.36361  0.51717  1.0000
  H   H834      1.0  0.85215  0.34730  0.48626  1.0000
  C   C686      1.0  0.90481  0.42318  0.50630  1.0000
  C   C687      1.0  0.95127  0.48276  0.36927  1.0000
  C   C688      1.0  0.90466  0.32667  0.50267  1.0000
  C   C689      1.0  0.89790  0.26461  0.21404  1.0000
  H   H835      1.0  0.94143  0.26761  0.46943  1.0000
  H   H836      1.0  0.97100  0.28871  0.15321  1.0000
  C   C690      1.0  0.96627  0.49309  0.43536  1.0000
  H   H837      1.0  0.93237  0.34245  0.22731  1.0000
  C   C691      1.0  0.95958  0.30767  0.26433  1.0000
  C   C692      1.0  0.95332  0.35223  0.16930  1.0000
  H   H838      1.0  0.93537  0.41673  0.52420  1.0000
  C   C693      1.0  0.96555  0.25197  0.48477  1.0000
  C   C694      1.0  0.94793  0.35323  0.51415  1.0000
  H   H839      1.0  0.93315  0.37690  0.50813  1.0000
  H   H840      1.0  0.93308  0.46773  0.52451  1.0000
  C   C695      1.0  0.94485  0.48020  0.50395  1.0000
  C   C696      1.0  0.96323  0.34303  0.04131  1.0000
  C   C697      1.0  0.92226  0.32941  0.04365  1.0000
  H   H841      1.0  0.95913  0.32696  0.51745  1.0000
  H   H842      1.0  0.87085  0.37390  0.52637  1.0000
  H   H843      1.0  0.92079  0.30338  0.50724  1.0000
  S   S184      1.0  0.92998  0.24784  0.24410  1.0000
  Fe  Fe92      1.0  0.91882  0.24732  0.31250  1.0000
  H   H844      1.0  0.90645  0.31698  0.05618  1.0000
  H   H845      1.0  0.47790  0.44154  0.45878  1.0000
  H   H846      1.0  0.94228  0.49433  0.36768  1.0000
  S   S185      1.0  0.88568  0.25160  0.33328  1.0000
  H   H847      1.0  0.96259  0.35884  0.03952  1.0000
  C   C698      1.0  0.91656  0.25002  0.16368  1.0000
  C   C699      1.0  0.88531  0.36766  0.53024  1.0000
  H   H848      1.0  0.90054  0.38098  0.53288  1.0000
  C   C700      1.0  0.52486  0.46394  0.60579  1.0000
  H   H849      1.0  0.52701  0.43257  0.82959  1.0000
  C   C701      1.0  0.48019  0.46266  0.74816  1.0000
  S   S186      1.0  0.90669  0.28523  0.98882  1.0000
  C   C702      1.0  0.51498  0.49449  0.61871  1.0000
  Fe  Fe93      1.0  0.88239  0.29178  0.94391  1.0000
  S   S187      1.0  0.89634  0.32481  0.91565  1.0000
  S   S188      1.0  0.85221  0.27758  0.99099  1.0000
  S   S189      1.0  0.93198  0.24916  0.94294  1.0000
  S   S190      1.0  0.87739  0.26320  0.91292  1.0000
  C   C703      1.0  0.96728  0.32197  0.82699  1.0000
  H   H850      1.0  0.93434  0.47083  0.77207  1.0000
  Fe  Fe94      1.0  0.89993  0.25597  0.96098  1.0000
  H   H851      1.0  0.87611  0.31851  0.76917  1.0000
  H   H852      1.0  0.87582  0.30508  0.84366  1.0000
  Fe  Fe95      1.0  0.91695  0.38838  0.68860  1.0000
  S   S191      1.0  0.95465  0.40456  0.69004  1.0000
  S   S192      1.0  0.89723  0.35750  0.72319  1.0000
  Fe  Fe96      1.0  0.91351  0.41586  0.60998  1.0000
  S   S193      1.0  0.95043  0.43421  0.60625  1.0000
  H   H853      1.0  0.95913  0.36516  0.65282  1.0000
  Fe  Fe97      1.0  0.95617  0.40436  0.62007  1.0000
  H   H854      1.0  0.95223  0.27117  0.71493  1.0000
  Fe  Fe98      1.0  0.94507  0.43312  0.67597  1.0000
  H   H855      1.0  0.88195  0.35799  0.56083  1.0000
  S   S194      1.0  0.91953  0.38607  0.61929  1.0000
  S   S195      1.0  0.90707  0.41696  0.67922  1.0000
  C   C704      1.0  0.95593  0.48389  0.68685  1.0000
  C   C705      1.0  0.96711  0.35651  0.80435  1.0000
  H   H856      1.0  0.55640  0.46379  0.84272  1.0000
  C   C706      1.0  0.50902  0.47867  0.85716  1.0000
  C   C707      1.0  0.95497  0.35129  0.67552  1.0000
  C   C708      1.0  0.93834  0.48321  0.66024  1.0000
  C   C709      1.0  0.96212  0.33245  0.62071  1.0000
  S   S196      1.0  0.96198  0.46172  0.70564  1.0000
  H   H857      1.0  0.94298  0.35303  0.70072  1.0000
  H   H858      1.0  0.92892  0.46902  0.64897  1.0000
  H   H859      1.0  0.95840  0.27215  0.86586  1.0000
  H   H860      1.0  0.53704  0.45705  0.59392  1.0000
  C   C710      1.0  0.95002  0.29947  0.68593  1.0000
  H   H861      1.0  0.91339  0.32317  0.72198  1.0000
  H   H862      1.0  0.57391  0.48501  0.88975  1.0000
  C   C711      1.0  0.53024  0.48505  0.60196  1.0000
  C   C712      1.0  0.94172  0.25651  0.02331  1.0000
  C   C713      1.0  0.48842  0.46041  0.64139  1.0000
  H   H863      1.0  0.97107  0.35120  0.68982  1.0000
  H   H864      1.0  0.50274  0.49107  0.86279  1.0000
  H   H865      1.0  0.91180  0.33700  0.65682  1.0000
  S   S197      1.0  0.89259  0.42157  0.55761  1.0000
  H   H866      1.0  0.96457  0.33940  0.00835  1.0000
  C   C714      1.0  0.52025  0.46635  0.73434  1.0000
  H   H867      1.0  0.89070  0.48033  0.76080  1.0000
  H   H868      1.0  0.92546  0.29553  0.83560  1.0000
  C   C715      1.0  0.96577  0.28619  0.84369  1.0000
  C   C716      1.0  0.49902  0.44391  0.84080  1.0000
  H   H869      1.0  0.53348  0.45974  0.72715  1.0000
  C   C717      1.0  0.93403  0.29667  0.86542  1.0000
  H   H870      1.0  0.88780  0.47614  0.83983  1.0000
  C   C718      1.0  0.90654  0.49336  0.76227  1.0000
  H   H871      1.0  0.90217  0.29327  0.77320  1.0000
  H   H872      1.0  0.55321  0.48883  0.92641  1.0000
  H   H873      1.0  0.96490  0.49164  0.80323  1.0000
  C   C719      1.0  0.89655  0.33359  0.86197  1.0000
  C   C720      1.0  0.90847  0.35401  0.84792  1.0000
  C   C721      1.0  0.90909  0.36158  0.80547  1.0000
  C   C722      1.0  0.89742  0.34883  0.77685  1.0000
  C   C723      1.0  0.88544  0.32843  0.79097  1.0000
  C   C724      1.0  0.88521  0.32077  0.83319  1.0000
  H   H874      1.0  0.91725  0.36405  0.87002  1.0000
  H   H875      1.0  0.91827  0.37731  0.79508  1.0000
  H   H876      1.0  0.92423  0.32790  0.00951  1.0000
  H   H877      1.0  0.48623  0.43012  0.83379  1.0000
  C   C725      1.0  0.91567  0.29503  0.74897  1.0000
  H   H878      1.0  0.92847  0.34640  0.60849  1.0000
  C   C726      1.0  0.90353  0.48957  0.83795  1.0000
  C   C727      1.0  0.52624  0.48711  0.73901  1.0000
  C   C728      1.0  0.92431  0.33390  0.63458  1.0000
  C   C729      1.0  0.48624  0.48341  0.75344  1.0000
  H   H879      1.0  0.91549  0.31951  0.62136  1.0000
  N   N49       1.0  0.94517  0.33268  0.65475  1.0000
  H   H880      1.0  0.92753  0.28158  0.88427  1.0000
  C   C730      1.0  0.49372  0.48148  0.63831  1.0000
  C   C731      1.0  0.92646  0.28029  0.74741  1.0000
  C   C732      1.0  0.93923  0.31471  0.68642  1.0000
  C   C733      1.0  0.92208  0.31207  0.71926  1.0000
  N   N50       1.0  0.95935  0.30357  0.85758  1.0000
  H   H881      1.0  0.96328  0.30010  0.66238  1.0000
  H   H882      1.0  0.95987  0.28267  0.81217  1.0000
  C   C734      1.0  0.49727  0.45402  0.73926  1.0000
  H   H883      1.0  0.92788  0.30687  0.88393  1.0000
  C   C735      1.0  0.95888  0.33851  0.83130  1.0000
  C   C736      1.0  0.95066  0.25720  0.98223  1.0000
  H   H884      1.0  0.93128  0.46740  0.82882  1.0000
  S   S198      1.0  0.49086  0.42787  0.73527  1.0000
  H   H885      1.0  0.48111  0.48712  0.65266  1.0000
  C   C737      1.0  0.94373  0.28260  0.71614  1.0000
  H   H886      1.0  0.95567  0.31890  0.60344  1.0000
  H   H887      1.0  0.94621  0.33786  0.85615  1.0000
  H   H888      1.0  0.96594  0.34600  0.59724  1.0000
  H   H889      1.0  0.96506  0.32108  0.91049  1.0000
  H   H890      1.0  0.96034  0.36887  0.80831  1.0000
  H   H891      1.0  0.92353  0.24974  0.03121  1.0000
  C   C738      1.0  0.49251  0.46050  0.85023  1.0000
  C   C739      1.0  0.97426  0.26572  0.97220  1.0000
  C   C740      1.0  0.52208  0.44537  0.83833  1.0000
  H   H892      1.0  0.90705  0.45820  0.79894  1.0000
  C   C741      1.0  0.50406  0.45166  0.62582  1.0000
  H   H893      1.0  0.54665  0.49396  0.58644  1.0000
  C   C742      1.0  0.53274  0.48061  0.85534  1.0000
  H   H894      1.0  0.50019  0.43532  0.63023  1.0000
  H   H895      1.0  0.92142  0.26704  0.77039  1.0000
  C   C743      1.0  0.96972  0.30849  0.89771  1.0000
  H   H896      1.0  0.91246  0.48841  0.86711  1.0000
  H   H897      1.0  0.96387  0.29522  0.92205  1.0000
  C   C744      1.0  0.92314  0.47101  0.80013  1.0000
  C   C745      1.0  0.53874  0.46337  0.84561  1.0000
  Fe  Fe99      1.0  0.84923  0.24821  0.96400  1.0000
  H   H898      1.0  0.91757  0.49443  0.73340  1.0000
  N   N51       1.0  0.91880  0.49079  0.80016  1.0000
  H   H899      1.0  0.94767  0.30439  0.03263  1.0000
  Fe  Fe100     1.0  0.87643  0.26881  0.03337  1.0000
  C   C746      1.0  0.50929  0.49565  0.74936  1.0000
  H   H900      1.0  0.54400  0.49631  0.73513  1.0000
  C   C747      1.0  0.56442  0.49558  0.89722  1.0000
  H   H901      1.0  0.57491  0.49648  0.81435  1.0000
  H   H902      1.0  0.51748  0.67893  0.21587  1.0000
  H   H903      1.0  0.77307  0.63579  0.05579  1.0000
  Fe  Fe101     1.0  0.92784  0.64308  0.08345  1.0000
  S   S199      1.0  0.93627  0.63286  0.14737  1.0000
  Fe  Fe102     1.0  0.94721  0.71222  0.41678  1.0000
  Fe  Fe103     1.0  0.94990  0.69603  0.33182  1.0000
  S   S200      1.0  0.91776  0.67008  0.34723  1.0000
  S   S201      1.0  0.96696  0.70227  0.26655  1.0000
  C   C748      1.0  0.96167  0.56268  0.43961  1.0000
  S   S202      1.0  0.91393  0.68793  0.43811  1.0000
  Fe  Fe104     1.0  0.93117  0.66748  0.41074  1.0000
  Fe  Fe105     1.0  0.90387  0.69309  0.37236  1.0000
  S   S203      1.0  0.87259  0.69775  0.34515  1.0000
  Fe  Fe106     1.0  0.72265  0.68736  0.42139  1.0000
  S   S204      1.0  0.72133  0.65794  0.45654  1.0000
  S   S205      1.0  0.72805  0.71453  0.45707  1.0000
  Fe  Fe107     1.0  0.72008  0.67021  0.33729  1.0000
  S   S206      1.0  0.71861  0.63917  0.36548  1.0000
  S   S207      1.0  0.71966  0.68026  0.26884  1.0000
  Fe  Fe108     1.0  0.69425  0.64409  0.41405  1.0000
  S   S208      1.0  0.66173  0.62157  0.44359  1.0000
  Fe  Fe109     1.0  0.74594  0.65593  0.40511  1.0000
  S   S209      1.0  0.77482  0.64496  0.42575  1.0000
  S   S210      1.0  0.69337  0.67381  0.38287  1.0000
  S   S211      1.0  0.74959  0.68673  0.37294  1.0000
  C   C749      1.0  0.92349  0.58525  0.08102  1.0000
  H   H904      1.0  0.59100  0.54917  0.17945  1.0000
  S   S212      1.0  0.68693  0.61357  0.14388  1.0000
  H   H905      1.0  0.64031  0.59912  0.11635  1.0000
  S   S213      1.0  0.93411  0.63897  0.44456  1.0000
  Fe  Fe110     1.0  0.58866  0.70289  0.08211  1.0000
  S   S214      1.0  0.56429  0.67142  0.10367  1.0000
  S   S215      1.0  0.60723  0.72683  0.12157  1.0000
  Fe  Fe111     1.0  0.56616  0.57339  0.33645  1.0000
  S   S216      1.0  0.56897  0.60133  0.36800  1.0000
  S   S217      1.0  0.59992  0.56991  0.31653  1.0000
  Fe  Fe112     1.0  0.51480  0.56115  0.33704  1.0000
  S   S218      1.0  0.51387  0.58850  0.36822  1.0000
  Fe  Fe113     1.0  0.54379  0.60597  0.32334  1.0000
  S   S219      1.0  0.55023  0.63852  0.29684  1.0000
  Fe  Fe114     1.0  0.53920  0.58136  0.40996  1.0000
  S   S220      1.0  0.53508  0.58529  0.47862  1.0000
  S   S221      1.0  0.54293  0.57939  0.28844  1.0000
  S   S222      1.0  0.53815  0.55269  0.38220  1.0000
  C   C750      1.0  0.94692  0.57114  0.20039  1.0000
  C   C751      1.0  0.49228  0.59596  0.26597  1.0000
  C   C752      1.0  0.56888  0.56902  0.50164  1.0000
  C   C753      1.0  0.93213  0.62425  0.36830  1.0000
  H   H906      1.0  0.59455  0.58373  0.22993  1.0000
  H   H907      1.0  0.56930  0.56473  0.47013  1.0000
  H   H908      1.0  0.97516  0.53002  0.50268  1.0000
  H   H909      1.0  0.64540  0.69579  0.49594  1.0000
  C   C754      1.0  0.56229  0.66230  0.15723  1.0000
  C   C755      1.0  0.55391  0.64133  0.16935  1.0000
  C   C756      1.0  0.55077  0.63373  0.21206  1.0000
  C   C757      1.0  0.55563  0.64711  0.24286  1.0000
  C   C758      1.0  0.56412  0.66805  0.23070  1.0000
  C   C759      1.0  0.56768  0.67563  0.18803  1.0000
  H   H910      1.0  0.54946  0.63095  0.14565  1.0000
  H   H911      1.0  0.54403  0.61758  0.22101  1.0000
  H   H912      1.0  0.56761  0.67851  0.25437  1.0000
  H   H913      1.0  0.57373  0.69181  0.17906  1.0000
  H   H914      1.0  0.96377  0.55039  0.10028  1.0000
  C   C760      1.0  0.83632  0.73082  0.50821  1.0000
  H   H915      1.0  0.69779  0.69772  0.12781  1.0000
  C   C761      1.0  0.64590  0.60540  0.40921  1.0000
  C   C762      1.0  0.62354  0.59324  0.42226  1.0000
  C   C763      1.0  0.60991  0.58137  0.39427  1.0000
  C   C764      1.0  0.61862  0.58146  0.35331  1.0000
  C   C765      1.0  0.64137  0.59291  0.34076  1.0000
  C   C766      1.0  0.65493  0.60504  0.36862  1.0000
  H   H916      1.0  0.61651  0.59335  0.45369  1.0000
  H   H917      1.0  0.59243  0.57240  0.40417  1.0000
  H   H918      1.0  0.64825  0.59311  0.30915  1.0000
  H   H919      1.0  0.67224  0.61427  0.35849  1.0000
  C   C767      1.0  0.69759  0.63202  0.17820  1.0000
  C   C768      1.0  0.69584  0.62624  0.22153  1.0000
  C   C769      1.0  0.70304  0.64092  0.24956  1.0000
  C   C770      1.0  0.71180  0.66144  0.23440  1.0000
  C   C771      1.0  0.71372  0.66720  0.19106  1.0000
  C   C772      1.0  0.70684  0.65250  0.16298  1.0000
  H   H920      1.0  0.68910  0.61041  0.23354  1.0000
  H   H921      1.0  0.70161  0.63631  0.28284  1.0000
  H   H922      1.0  0.72059  0.68306  0.17914  1.0000
  H   H923      1.0  0.70820  0.65701  0.12963  1.0000
  C   C773      1.0  0.70358  0.71625  0.48479  1.0000
  C   C774      1.0  0.94380  0.57999  0.16119  1.0000
  C   C775      1.0  0.94019  0.61545  0.33598  1.0000
  H   H924      1.0  0.57784  0.62142  0.49460  1.0000
  C   C776      1.0  0.87249  0.72783  0.48205  1.0000
  C   C777      1.0  0.84565  0.68166  0.36566  1.0000
  C   C778      1.0  0.84339  0.66684  0.39930  1.0000
  C   C779      1.0  0.82148  0.65517  0.41689  1.0000
  C   C780      1.0  0.80190  0.65829  0.40079  1.0000
  C   C781      1.0  0.80423  0.67272  0.36640  1.0000
  C   C782      1.0  0.82608  0.68442  0.34893  1.0000
  H   H925      1.0  0.85848  0.66465  0.41228  1.0000
  H   H926      1.0  0.81971  0.64396  0.44347  1.0000
  H   H927      1.0  0.78923  0.67491  0.35328  1.0000
  H   H928      1.0  0.82781  0.69583  0.32276  1.0000
  C   C783      1.0  0.94348  0.65217  0.18064  1.0000
  C   C784      1.0  0.95160  0.67250  0.16400  1.0000
  C   C785      1.0  0.95904  0.68775  0.19067  1.0000
  C   C786      1.0  0.95764  0.68277  0.23416  1.0000
  C   C787      1.0  0.94914  0.66243  0.25094  1.0000
  C   C788      1.0  0.94237  0.64714  0.22410  1.0000
  H   H929      1.0  0.95313  0.67649  0.13045  1.0000
  S   S223      1.0  0.96498  0.69143  0.39296  1.0000
  H   H930      1.0  0.93629  0.63139  0.23698  1.0000
  S   S224      1.0  0.93552  0.71938  0.35372  1.0000
  H   H931      1.0  0.58280  0.61324  0.21057  1.0000
  S   S225      1.0  0.66958  0.72355  0.11805  1.0000
  C   C789      1.0  0.71611  0.72710  0.30163  1.0000
  C   C790      1.0  0.49660  0.63936  0.15911  1.0000
  H   H932      1.0  0.96481  0.56950  0.50277  1.0000
  H   H933      1.0  0.79499  0.68048  0.46775  1.0000
  N   N52       1.0  0.63005  0.64770  0.28742  1.0000
  C   C791      1.0  0.61644  0.62598  0.28965  1.0000
  C   C792      1.0  0.65234  0.64945  0.30549  1.0000
  C   C793      1.0  0.61755  0.65756  0.31460  1.0000
  C   C794      1.0  0.63375  0.65654  0.24294  1.0000
  C   C795      1.0  0.64818  0.65084  0.21425  1.0000
  C   C796      1.0  0.62273  0.67039  0.22644  1.0000
  C   C797      1.0  0.65213  0.65913  0.17226  1.0000
  C   C798      1.0  0.62667  0.67845  0.18424  1.0000
  C   C799      1.0  0.64144  0.67293  0.15731  1.0000
  H   H934      1.0  0.62498  0.61731  0.27107  1.0000
  H   H935      1.0  0.61376  0.61864  0.32251  1.0000
  H   H936      1.0  0.59921  0.62397  0.27788  1.0000
  H   H937      1.0  0.66110  0.63946  0.29209  1.0000
  H   H938      1.0  0.65023  0.64475  0.33995  1.0000
  H   H939      1.0  0.66427  0.66527  0.30012  1.0000
  H   H940      1.0  0.59970  0.65518  0.30560  1.0000
  H   H941      1.0  0.61571  0.65101  0.34805  1.0000
  H   H942      1.0  0.62664  0.67411  0.31356  1.0000
  H   H943      1.0  0.65643  0.63979  0.22393  1.0000
  H   H944      1.0  0.61098  0.67523  0.24539  1.0000
  H   H945      1.0  0.66337  0.65465  0.15102  1.0000
  H   H946      1.0  0.61829  0.68913  0.17221  1.0000
  H   H947      1.0  0.64460  0.67939  0.12474  1.0000
  C   C800      1.0  0.71844  0.72961  0.21179  1.0000
  C   C801      1.0  0.92829  0.56571  0.40668  1.0000
  Fe  Fe115     1.0  0.69767  0.62365  0.07535  1.0000
  H   H948      1.0  0.67928  0.70605  0.19181  1.0000
  C   C802      1.0  0.70981  0.69520  0.06515  1.0000
  H   H949      1.0  0.82918  0.69888  0.43167  1.0000
  C   C803      1.0  0.48199  0.61762  0.31137  1.0000
  H   H950      1.0  0.51087  0.60319  0.26921  1.0000
  H   H951      1.0  0.79834  0.70741  0.41181  1.0000
  H   H952      1.0  0.94502  0.61027  0.50155  1.0000
  C   C804      1.0  0.63672  0.56350  0.15059  1.0000
  C   C805      1.0  0.69753  0.72984  0.36783  1.0000
  H   H953      1.0  0.67938  0.69256  0.45624  1.0000
  S   S226      1.0  0.85608  0.65683  0.05758  1.0000
  H   H954      1.0  0.50853  0.51540  0.32046  1.0000
  C   C806      1.0  0.78852  0.68940  0.48928  1.0000
  H   H955      1.0  0.59722  0.55327  0.23300  1.0000
  H   H956      1.0  0.71893  0.68487  0.07533  1.0000
  C   C807      1.0  0.50872  0.66355  0.20930  1.0000
  C   C808      1.0  0.69685  0.72819  0.27978  1.0000
  H   H957      1.0  0.62626  0.56131  0.12289  1.0000
  H   H958      1.0  0.94270  0.57700  0.22885  1.0000
  C   C809      1.0  0.49092  0.50626  0.31837  1.0000
  H   H959      1.0  0.69794  0.73076  0.40134  1.0000
  H   H960      1.0  0.49580  0.63602  0.12673  1.0000
  H   H961      1.0  0.48584  0.58309  0.29122  1.0000
  C   C810      1.0  0.94936  0.57290  0.12331  1.0000
  H   H962      1.0  0.80281  0.73301  0.42346  1.0000
  H   H963      1.0  0.50028  0.62453  0.31783  1.0000
  C   C811      1.0  0.92046  0.57143  0.44365  1.0000
  S   S227      1.0  0.62094  0.70104  0.05143  1.0000
  N   N53       1.0  0.79897  0.71157  0.47800  1.0000
  C   C812      1.0  0.78856  0.63476  0.04101  1.0000
  C   C813      1.0  0.95398  0.56828  0.47681  1.0000
  C   C814      1.0  0.61385  0.63767  0.48848  1.0000
  H   H964      1.0  0.94827  0.67142  0.51465  1.0000
  C   C815      1.0  0.67809  0.73025  0.34763  1.0000
  H   H965      1.0  0.59458  0.55583  0.52172  1.0000
  H   H966      1.0  0.65376  0.57488  0.14077  1.0000
  H   H967      1.0  0.62872  0.62876  0.09995  1.0000
  H   H968      1.0  0.50273  0.65256  0.27359  1.0000
  N   N54       1.0  0.88525  0.68344  0.21454  1.0000
  C   C816      1.0  0.90045  0.68599  0.17587  1.0000
  C   C817      1.0  0.88437  0.70380  0.22246  1.0000
  C   C818      1.0  0.89604  0.67556  0.24973  1.0000
  C   C819      1.0  0.86175  0.66955  0.21186  1.0000
  C   C820      1.0  0.84512  0.66577  0.24620  1.0000
  C   C821      1.0  0.85460  0.65947  0.17574  1.0000
  C   C822      1.0  0.82276  0.65287  0.24441  1.0000
  C   C823      1.0  0.83218  0.64660  0.17427  1.0000
  C   C824      1.0  0.81629  0.64333  0.20847  1.0000
  H   H969      1.0  0.89363  0.69225  0.14806  1.0000
  H   H970      1.0  0.91788  0.69668  0.17882  1.0000
  H   H971      1.0  0.90280  0.67135  0.16917  1.0000
  H   H972      1.0  0.87551  0.70995  0.19764  1.0000
  H   H973      1.0  0.90184  0.71481  0.22352  1.0000
  H   H974      1.0  0.87522  0.70359  0.25322  1.0000
  H   H975      1.0  0.89708  0.66024  0.24521  1.0000
  H   H976      1.0  0.91372  0.68574  0.25286  1.0000
  H   H977      1.0  0.88646  0.67439  0.28048  1.0000
  H   H978      1.0  0.84932  0.67277  0.27484  1.0000
  H   H979      1.0  0.86592  0.66123  0.14801  1.0000
  H   H980      1.0  0.81041  0.65026  0.27115  1.0000
  H   H981      1.0  0.82719  0.63914  0.14626  1.0000
  H   H982      1.0  0.79893  0.63334  0.20711  1.0000
  S   S228      1.0  0.91876  0.67144  0.07014  1.0000
  H   H983      1.0  0.91878  0.56539  0.37889  1.0000
  S   S229      1.0  0.89712  0.62337  0.05560  1.0000
  H   H984      1.0  0.76957  0.68445  0.48766  1.0000
  H   H985      1.0  0.73109  0.72525  0.28604  1.0000
  C   C825      1.0  0.68581  0.71558  0.08146  1.0000
  C   C826      1.0  0.95920  0.60887  0.34104  1.0000
  C   C827      1.0  0.78776  0.72186  0.50657  1.0000
  C   C828      1.0  0.96189  0.54798  0.16661  1.0000
  H   H986      1.0  0.94816  0.65842  0.28447  1.0000
  C   C829      1.0  0.64069  0.57420  0.21974  1.0000
  H   H987      1.0  0.79229  0.68472  0.52152  1.0000
  C   C830      1.0  0.96973  0.61058  0.37896  1.0000
  N   N55       1.0  0.62481  0.56953  0.18598  1.0000
  H   H988      1.0  0.96158  0.61327  0.09983  1.0000
  C   C831      1.0  0.61767  0.58755  0.17399  1.0000
  C   C832      1.0  0.60177  0.59269  0.20049  1.0000
  C   C833      1.0  0.62726  0.60117  0.13739  1.0000
  C   C834      1.0  0.59508  0.60977  0.18995  1.0000
  C   C835      1.0  0.62068  0.61837  0.12746  1.0000
  C   C836      1.0  0.60441  0.62254  0.15341  1.0000
  H   H989      1.0  0.96582  0.70347  0.17754  1.0000
  H   H990      1.0  0.97574  0.61381  0.21051  1.0000
  H   H991      1.0  0.64652  0.56112  0.23032  1.0000
  C   C837      1.0  0.67956  0.70789  0.22581  1.0000
  Fe  Fe116     1.0  0.63910  0.72660  0.08650  1.0000
  C   C838      1.0  0.71637  0.72805  0.34500  1.0000
  H   H992      1.0  0.65616  0.58730  0.20902  1.0000
  H   H993      1.0  0.97032  0.62108  0.44005  1.0000
  H   H994      1.0  0.93171  0.61383  0.30704  1.0000
  C   C839      1.0  0.96174  0.61943  0.41125  1.0000
  C   C840      1.0  0.68160  0.70360  0.47856  1.0000
  H   H995      1.0  0.91730  0.62915  0.36434  1.0000
  C   C841      1.0  0.60470  0.55170  0.20181  1.0000
  C   C842      1.0  0.63213  0.65056  0.50670  1.0000
  C   C843      1.0  0.94303  0.62643  0.40577  1.0000
  H   H996      1.0  0.68424  0.69497  0.24122  1.0000
  H   H997      1.0  0.66209  0.72946  0.29008  1.0000
  S   S230      1.0  0.73277  0.64400  0.05190  1.0000
  C   C844      1.0  0.50704  0.65918  0.16783  1.0000
  H   H998      1.0  0.59942  0.63597  0.14583  1.0000
  H   H999      1.0  0.66337  0.73137  0.36577  1.0000
  C   C845      1.0  0.55382  0.57927  0.51350  1.0000
  C   C846      1.0  0.93307  0.57277  0.48007  1.0000
  H   H1000     1.0  0.66178  0.70623  0.23739  1.0000
  H   H1001     1.0  0.64047  0.54913  0.15939  1.0000
  H   H1002     1.0  0.96675  0.70674  0.06982  1.0000
  H   H1003     1.0  0.66977  0.74184  0.22247  1.0000
  H   H1004     1.0  0.60935  0.53754  0.20687  1.0000
  S   S231      1.0  0.96982  0.59879  0.29966  1.0000
  N   N56       1.0  0.92559  0.57912  0.51957  1.0000
  C   C847      1.0  0.95345  0.49923  0.51806  1.0000
  H   H1005     1.0  0.63255  0.57823  0.24771  1.0000
  H   H1006     1.0  0.86920  0.74631  0.53034  1.0000
  H   H1007     1.0  0.79429  0.73863  0.49893  1.0000
  C   C848      1.0  0.86016  0.73594  0.50892  1.0000
  H   H1008     1.0  0.61647  0.63292  0.45788  1.0000
  C   C849      1.0  0.69799  0.70256  0.09480  1.0000
  C   C850      1.0  0.66239  0.70538  0.50113  1.0000
  H   H1009     1.0  0.93739  0.59272  0.16094  1.0000
  H   H1010     1.0  0.92037  0.59132  0.04926  1.0000
  C   C851      1.0  0.83726  0.70927  0.45358  1.0000
  H   H1011     1.0  0.64888  0.65604  0.48974  1.0000
  N   N57       1.0  0.94669  0.58306  0.08213  1.0000
  C   C852      1.0  0.97486  0.51232  0.45084  1.0000
  H   H1012     1.0  0.78552  0.67470  0.03870  1.0000
  H   H1013     1.0  0.68023  0.64117  0.51972  1.0000
  H   H1014     1.0  0.77496  0.71435  0.43249  1.0000
  H   H1015     1.0  0.49048  0.58911  0.23585  1.0000
  H   H1016     1.0  0.71732  0.72987  0.17713  1.0000
  S   S232      1.0  0.96179  0.73580  0.46062  1.0000
  C   C853      1.0  0.94881  0.56133  0.40467  1.0000
  C   C854      1.0  0.82413  0.71729  0.48023  1.0000
  S   S233      1.0  0.47971  0.54152  0.32227  1.0000
  H   H1017     1.0  0.90478  0.57520  0.44245  1.0000
  C   C855      1.0  0.96836  0.51525  0.49153  1.0000
  C   C856      1.0  0.79361  0.71681  0.43460  1.0000
  C   C857      1.0  0.95869  0.55664  0.12719  1.0000
  C   C858      1.0  0.48916  0.62772  0.23454  1.0000
  C   C859      1.0  0.90302  0.58262  0.51832  1.0000
  H   H1018     1.0  0.90989  0.57042  0.08962  1.0000
  H   H1019     1.0  0.87066  0.70827  0.43338  1.0000
  H   H1020     1.0  0.95511  0.55759  0.37546  1.0000
  C   C860      1.0  0.95598  0.55519  0.20310  1.0000
  C   C861      1.0  0.48775  0.62382  0.19184  1.0000
  C   C862      1.0  0.80965  0.64462  0.05650  1.0000
  C   C863      1.0  0.96401  0.60348  0.07569  1.0000
  H   H1021     1.0  0.92078  0.59602  0.10260  1.0000
  H   H1022     1.0  0.81019  0.65364  0.08238  1.0000
  H   H1023     1.0  0.76887  0.71726  0.50385  1.0000
  H   H1024     1.0  0.90360  0.59532  0.49409  1.0000
  C   C864      1.0  0.68827  0.74434  0.21500  1.0000
  H   H1025     1.0  0.51447  0.67110  0.14240  1.0000
  H   H1026     1.0  0.73123  0.72725  0.36121  1.0000
  C   C865      1.0  0.50007  0.64813  0.24233  1.0000
  C   C866      1.0  0.59217  0.63105  0.50943  1.0000
  H   H1027     1.0  0.48010  0.60865  0.18343  1.0000
  H   H1028     1.0  0.88926  0.56871  0.51200  1.0000
  C   C867      1.0  0.86104  0.71451  0.45445  1.0000
  H   H1029     1.0  0.96315  0.61147  0.04449  1.0000
  C   C868      1.0  0.67762  0.72930  0.30431  1.0000
  C   C869      1.0  0.70620  0.73075  0.51319  1.0000
  H   H1030     1.0  0.89098  0.73189  0.48246  1.0000
  H   H1031     1.0  0.69047  0.74616  0.18011  1.0000
  H   H1032     1.0  0.58890  0.65675  0.04339  1.0000
  H   H1033     1.0  0.72447  0.71654  0.22114  1.0000
  N   N58       1.0  0.69599  0.72755  0.23384  1.0000
  H   H1034     1.0  0.68152  0.60990  0.51986  1.0000
  H   H1035     1.0  0.95868  0.54859  0.23357  1.0000
  H   H1036     1.0  0.97602  0.66410  0.48069  1.0000
  H   H1037     1.0  0.96912  0.53564  0.16894  1.0000
  H   H1038     1.0  0.73177  0.74384  0.21783  1.0000
  H   H1039     1.0  0.60205  0.62896  0.04274  1.0000
  C   C870      1.0  0.68581  0.72152  0.03864  1.0000
  H   H1040     1.0  0.72309  0.74083  0.51759  1.0000
  C   C871      1.0  0.94263  0.59835  0.52824  1.0000
  H   H1041     1.0  0.64392  0.61520  0.52607  1.0000
  N   N59       1.0  0.47986  0.61092  0.26859  1.0000
  H   H1042     1.0  0.92791  0.69434  0.53474  1.0000
  H   H1043     1.0  0.95969  0.59667  0.53361  1.0000
  H   H1044     1.0  0.69715  0.67673  0.53067  1.0000
  C   C872      1.0  0.58314  0.56399  0.53091  1.0000
  H   H1045     1.0  0.82789  0.73770  0.52976  1.0000
  C   C873      1.0  0.66512  0.71944  0.53067  1.0000
  C   C874      1.0  0.94975  0.57199  0.04597  1.0000
  H   H1046     1.0  0.93766  0.55621  0.04975  1.0000
  H   H1047     1.0  0.96761  0.57160  0.04157  1.0000
  Fe  Fe117     1.0  0.88944  0.65215  0.03783  1.0000
  C   C875      1.0  0.83001  0.64292  0.03869  1.0000
  C   C876      1.0  0.68705  0.73233  0.53606  1.0000
  H   H1048     1.0  0.79344  0.70173  0.03666  1.0000
  H   H1049     1.0  0.96312  0.64249  0.75824  1.0000
  H   H1050     1.0  0.64949  0.57810  0.61136  1.0000
  Fe  Fe118     1.0  0.93914  0.67485  0.00921  1.0000
  Fe  Fe119     1.0  0.91958  0.63086  0.99524  1.0000
  S   S234      1.0  0.91804  0.60539  0.95510  1.0000
  S   S235      1.0  0.90911  0.65821  0.97477  1.0000
  Fe  Fe120     1.0  0.68082  0.61869  0.98741  1.0000
  S   S236      1.0  0.71490  0.63789  0.95655  1.0000
  S   S237      1.0  0.64846  0.61155  0.95263  1.0000
  S   S238      1.0  0.66557  0.74423  0.73619  1.0000
  C   C877      1.0  0.77566  0.67292  0.95729  1.0000
  Fe  Fe121     1.0  0.71464  0.65831  0.00602  1.0000
  S   S239      1.0  0.72381  0.69139  0.98542  1.0000
  H   H1051     1.0  0.94636  0.57946  0.01575  1.0000
  H   H1052     1.0  0.67248  0.58574  0.54895  1.0000
  C   C878      1.0  0.93513  0.63530  0.80483  1.0000
  C   C879      1.0  0.94043  0.67191  0.70744  1.0000
  C   C880      1.0  0.50398  0.52438  0.63567  1.0000
  C   C881      1.0  0.70500  0.65399  0.85264  1.0000
  Fe  Fe122     1.0  0.66704  0.71784  0.70258  1.0000
  S   S240      1.0  0.67571  0.69022  0.72837  1.0000
  S   S241      1.0  0.63190  0.71137  0.67994  1.0000
  Fe  Fe123     1.0  0.73054  0.62178  0.00460  1.0000
  C   C882      1.0  0.58940  0.63804  0.64059  1.0000
  H   H1053     1.0  0.94065  0.56145  0.56163  1.0000
  H   H1054     1.0  0.84476  0.62948  0.99187  1.0000
  H   H1055     1.0  0.94035  0.58456  0.82265  1.0000
  Fe  Fe124     1.0  0.61818  0.72468  0.00200  1.0000
  S   S242      1.0  0.96475  0.70386  0.98021  1.0000
  C   C883      1.0  0.96329  0.66743  0.84580  1.0000
  Fe  Fe125     1.0  0.60192  0.55572  0.76804  1.0000
  S   S243      1.0  0.57086  0.56191  0.79441  1.0000
  S   S244      1.0  0.62708  0.55035  0.81316  1.0000
  Fe  Fe126     1.0  0.58972  0.56251  0.67735  1.0000
  S   S245      1.0  0.55854  0.57010  0.69818  1.0000
  S   S246      1.0  0.59938  0.56174  0.60901  1.0000
  Fe  Fe127     1.0  0.58102  0.58796  0.74379  1.0000
  S   S247      1.0  0.58155  0.61918  0.75709  1.0000
  Fe  Fe128     1.0  0.55231  0.54308  0.74585  1.0000
  S   S248      1.0  0.51625  0.52139  0.75841  1.0000
  S   S249      1.0  0.61278  0.58246  0.71913  1.0000
  S   S250      1.0  0.58264  0.53461  0.72313  1.0000
  H   H1056     1.0  0.62777  0.67618  0.97137  1.0000
  S   S251      1.0  0.94104  0.58585  0.72879  1.0000
  Fe  Fe129     1.0  0.95338  0.56990  0.67908  1.0000
  S   S252      1.0  0.93344  0.53990  0.65704  1.0000
  C   C884      1.0  0.62896  0.65646  0.54648  1.0000
  S   S253      1.0  0.93362  0.63654  0.67133  1.0000
  H   H1057     1.0  0.57162  0.63141  0.63161  1.0000
  C   C885      1.0  0.58238  0.56921  0.57206  1.0000
  C   C886      1.0  0.56779  0.57999  0.58339  1.0000
  H   H1058     1.0  0.56766  0.58479  0.61432  1.0000
  C   C887      1.0  0.65024  0.67005  0.74198  1.0000
  C   C888      1.0  0.62987  0.67400  0.75154  1.0000
  C   C889      1.0  0.60897  0.65830  0.75628  1.0000
  C   C890      1.0  0.60836  0.63827  0.75376  1.0000
  C   C891      1.0  0.62899  0.63408  0.74778  1.0000
  C   C892      1.0  0.64989  0.64995  0.74141  1.0000
  H   H1059     1.0  0.63011  0.68925  0.75477  1.0000
  H   H1060     1.0  0.59323  0.66184  0.76118  1.0000
  H   H1061     1.0  0.62900  0.61871  0.74819  1.0000
  H   H1062     1.0  0.66571  0.64666  0.73569  1.0000
  H   H1063     1.0  0.54090  0.51874  0.67007  1.0000
  H   H1064     1.0  0.57611  0.64399  0.82657  1.0000
  N   N60       1.0  0.52150  0.51688  0.61563  1.0000
  C   C893      1.0  0.62026  0.72265  0.89040  1.0000
  C   C894      1.0  0.62983  0.71677  0.85542  1.0000
  C   C895      1.0  0.62373  0.72127  0.81513  1.0000
  H   H1065     1.0  0.64230  0.70894  0.85932  1.0000
  H   H1066     1.0  0.63119  0.71654  0.78863  1.0000
  H   H1067     1.0  0.58016  0.52163  0.82787  1.0000
  H   H1068     1.0  0.50958  0.54126  0.63331  1.0000
  H   H1069     1.0  0.75777  0.67331  0.96028  1.0000
  C   C896      1.0  0.95829  0.54505  0.79999  1.0000
  C   C897      1.0  0.69823  0.71467  0.00912  1.0000
  C   C898      1.0  0.96180  0.51984  0.69101  1.0000
  H   H1070     1.0  0.69816  0.71928  0.97602  1.0000
  C   C899      1.0  0.64385  0.59490  0.91323  1.0000
  C   C900      1.0  0.65603  0.58118  0.90955  1.0000
  C   C901      1.0  0.65088  0.56754  0.87874  1.0000
  C   C902      1.0  0.63390  0.56785  0.85102  1.0000
  C   C903      1.0  0.62233  0.58205  0.85405  1.0000
  C   C904      1.0  0.62702  0.59524  0.88539  1.0000
  H   H1071     1.0  0.66910  0.58082  0.93084  1.0000
  H   H1072     1.0  0.66007  0.55672  0.87643  1.0000
  H   H1073     1.0  0.60980  0.58299  0.83222  1.0000
  H   H1074     1.0  0.61783  0.60602  0.88750  1.0000
  C   C905      1.0  0.60393  0.73264  0.88497  1.0000
  C   C906      1.0  0.67863  0.60226  0.55248  1.0000
  C   C907      1.0  0.62477  0.66056  0.98678  1.0000
  C   C908      1.0  0.69011  0.66553  0.55747  1.0000
  H   H1075     1.0  0.63552  0.65527  0.63349  1.0000
  C   C909      1.0  0.78762  0.62361  0.00670  1.0000
  H   H1076     1.0  0.64374  0.66684  0.55831  1.0000
  C   C910      1.0  0.94363  0.51902  0.66581  1.0000
  C   C911      1.0  0.93225  0.50076  0.64969  1.0000
  H   H1077     1.0  0.62735  0.60907  0.57539  1.0000
  H   H1078     1.0  0.53006  0.51138  0.90230  1.0000
  C   C912      1.0  0.93817  0.60634  0.91326  1.0000
  C   C913      1.0  0.93087  0.59427  0.88061  1.0000
  C   C914      1.0  0.94638  0.59384  0.84756  1.0000
  H   H1079     1.0  0.59754  0.62585  0.64287  1.0000
  N   N61       1.0  0.55078  0.49959  0.86239  1.0000
  H   H1080     1.0  0.64193  0.59658  0.63758  1.0000
  H   H1081     1.0  0.91303  0.58528  0.88072  1.0000
  H   H1082     1.0  0.63485  0.68028  0.61398  1.0000
  C   C915      1.0  0.96960  0.60495  0.84751  1.0000
  C   C916      1.0  0.58961  0.62819  0.92251  1.0000
  H   H1083     1.0  0.57367  0.66415  0.59378  1.0000
  H   H1084     1.0  0.58761  0.67620  0.63703  1.0000
  C   C917      1.0  0.59062  0.67066  0.60647  1.0000
  H   H1085     1.0  0.53218  0.52055  0.84711  1.0000
  C   C918      1.0  0.65600  0.59424  0.61798  1.0000
  H   H1086     1.0  0.59064  0.61423  0.93836  1.0000
  H   H1087     1.0  0.70401  0.61117  0.80869  1.0000
  H   H1088     1.0  0.94857  0.50153  0.54967  1.0000
  C   C919      1.0  0.59442  0.64642  0.94210  1.0000
  C   C920      1.0  0.67166  0.62995  0.58600  1.0000
  H   H1089     1.0  0.93412  0.65859  0.89236  1.0000
  H   H1090     1.0  0.69753  0.68759  0.60200  1.0000
  H   H1091     1.0  0.87991  0.69123  0.96614  1.0000
  S   S254      1.0  0.68495  0.73769  0.64461  1.0000
  C   C921      1.0  0.92710  0.64001  0.84251  1.0000
  H   H1092     1.0  0.97019  0.64566  0.59307  1.0000
  H   H1093     1.0  0.79997  0.72267  0.96900  1.0000
  S   S255      1.0  0.76151  0.61317  0.98363  1.0000
  N   N62       1.0  0.66196  0.60835  0.57871  1.0000
  H   H1094     1.0  0.58559  0.74533  0.83976  1.0000
  H   H1095     1.0  0.63004  0.66221  0.01941  1.0000
  H   H1096     1.0  0.79020  0.71790  0.54004  1.0000
  S   S256      1.0  0.67964  0.64045  0.03429  1.0000
  H   H1097     1.0  0.91024  0.63112  0.85654  1.0000
  H   H1098     1.0  0.92446  0.62301  0.78912  1.0000
  C   C922      1.0  0.97087  0.66234  0.80709  1.0000
  N   N63       1.0  0.67337  0.66816  0.87110  1.0000
  C   C923      1.0  0.64814  0.66365  0.87166  1.0000
  C   C924      1.0  0.67977  0.66958  0.91510  1.0000
  C   C925      1.0  0.68422  0.68821  0.84673  1.0000
  C   C926      1.0  0.68155  0.65272  0.85259  1.0000
  C   C927      1.0  0.66681  0.63615  0.83418  1.0000
  H   H1099     1.0  0.63901  0.64860  0.88936  1.0000
  H   H1100     1.0  0.64243  0.67514  0.88686  1.0000
  H   H1101     1.0  0.67334  0.65448  0.93388  1.0000
  H   H1102     1.0  0.67295  0.68032  0.93082  1.0000
  H   H1103     1.0  0.69857  0.67528  0.91724  1.0000
  H   H1104     1.0  0.67991  0.68778  0.81348  1.0000
  H   H1105     1.0  0.67843  0.70024  0.85955  1.0000
  H   H1106     1.0  0.70319  0.69321  0.84664  1.0000
  H   H1107     1.0  0.64878  0.63396  0.83203  1.0000
  H   H1108     1.0  0.71732  0.66635  0.86534  1.0000
  H   H1109     1.0  0.54811  0.54184  0.63552  1.0000
  H   H1110     1.0  0.81086  0.66287  0.93974  1.0000
  H   H1111     1.0  0.94945  0.69304  0.89272  1.0000
  N   N64       1.0  0.79172  0.69001  0.97608  1.0000
  H   H1112     1.0  0.89771  0.58701  0.54873  1.0000
  H   H1113     1.0  0.60048  0.68420  0.58451  1.0000
  C   C928      1.0  0.54297  0.52508  0.63654  1.0000
  C   C929      1.0  0.96207  0.50615  0.80278  1.0000
  C   C930      1.0  0.94097  0.65574  0.86289  1.0000
  H   H1114     1.0  0.68925  0.74391  0.55709  1.0000
  H   H1115     1.0  0.62127  0.66857  0.66369  1.0000
  H   H1116     1.0  0.94619  0.69846  0.74043  1.0000
  H   H1117     1.0  0.67112  0.59580  0.63679  1.0000
  S   S257      1.0  0.64105  0.72056  0.56082  1.0000
  H   H1118     1.0  0.93700  0.60422  0.55648  1.0000
  H   H1119     1.0  0.79663  0.71113  0.92081  1.0000
  C   C931      1.0  0.95055  0.66028  0.68488  1.0000
  C   C932      1.0  0.58707  0.66308  0.87582  1.0000
  C   C933      1.0  0.68064  0.64507  0.55160  1.0000
  C   C934      1.0  0.80796  0.62149  0.98942  1.0000
  H   H1120     1.0  0.61045  0.62053  0.99581  1.0000
  S   S258      1.0  0.62991  0.71726  0.93959  1.0000
  C   C935      1.0  0.93993  0.50831  0.80035  1.0000
  C   C936      1.0  0.83319  0.70539  0.98959  1.0000
  C   C937      1.0  0.59782  0.73721  0.84418  1.0000
  H   H1121     1.0  0.91720  0.56717  0.58500  1.0000
  C   C938      1.0  0.84577  0.67616  0.94970  1.0000
  C   C939      1.0  0.92383  0.56336  0.55503  1.0000
  C   C940      1.0  0.71002  0.70136  0.02239  1.0000
  C   C941      1.0  0.58568  0.65676  0.00949  1.0000
  H   H1122     1.0  0.95698  0.56020  0.79899  1.0000
  C   C942      1.0  0.82281  0.67544  0.95255  1.0000
  C   C943      1.0  0.58164  0.64482  0.85817  1.0000
  N   N65       1.0  0.60321  0.65575  0.61117  1.0000
  H   H1123     1.0  0.91214  0.54834  0.54874  1.0000
  H   H1124     1.0  0.64224  0.66379  0.83929  1.0000
  H   H1125     1.0  0.85064  0.66449  0.93532  1.0000
  C   C944      1.0  0.82913  0.63097  0.00562  1.0000
  C   C945      1.0  0.54165  0.51602  0.87312  1.0000
  H   H1126     1.0  0.86895  0.71729  0.00103  1.0000
  H   H1127     1.0  0.96196  0.70535  0.84166  1.0000
  H   H1128     1.0  0.59628  0.73708  0.91192  1.0000
  C   C946      1.0  0.96799  0.50235  0.70126  1.0000
  C   C947      1.0  0.67499  0.62150  0.81828  1.0000
  H   H1129     1.0  0.78015  0.67335  0.92322  1.0000
  C   C948      1.0  0.59343  0.66393  0.91711  1.0000
  C   C949      1.0  0.94362  0.69460  0.54902  1.0000
  C   C950      1.0  0.71295  0.63915  0.83703  1.0000
  H   H1130     1.0  0.66333  0.60877  0.80514  1.0000
  C   C951      1.0  0.69045  0.67165  0.59762  1.0000
  C   C952      1.0  0.62472  0.66534  0.63116  1.0000
  H   H1131     1.0  0.94240  0.71780  0.58796  1.0000
  H   H1132     1.0  0.97642  0.71234  0.88836  1.0000
  Fe  Fe130     1.0  0.95140  0.61308  0.68070  1.0000
  H   H1133     1.0  0.68190  0.66225  0.66330  1.0000
  H   H1134     1.0  0.57764  0.50973  0.90425  1.0000
  H   H1135     1.0  0.55565  0.53002  0.87835  1.0000
  C   C953      1.0  0.69793  0.62285  0.82017  1.0000
  H   H1136     1.0  0.73081  0.64014  0.83846  1.0000
  H   H1137     1.0  0.58622  0.67665  0.85751  1.0000
  H   H1138     1.0  0.54034  0.52271  0.55479  1.0000
  H   H1139     1.0  0.96719  0.62694  0.93823  1.0000
  C   C954      1.0  0.59824  0.62762  0.00934  1.0000
  C   C955      1.0  0.52534  0.52533  0.57083  1.0000
  S   S259      1.0  0.95939  0.59615  0.62965  1.0000
  S   S260      1.0  0.95105  0.64803  0.02506  1.0000
  C   C956      1.0  0.60818  0.73191  0.80905  1.0000
  C   C957      1.0  0.85604  0.70581  0.98697  1.0000
  C   C958      1.0  0.68157  0.65729  0.63212  1.0000
  H   H1140     1.0  0.51009  0.51855  0.55328  1.0000
  C   C959      1.0  0.96132  0.61784  0.91290  1.0000
  H   H1141     1.0  0.76539  0.68765  0.02469  1.0000
  H   H1142     1.0  0.54187  0.59286  0.56359  1.0000
  H   H1143     1.0  0.63348  0.58960  0.54865  1.0000
  C   C960      1.0  0.81581  0.69012  0.97265  1.0000
  H   H1144     1.0  0.59749  0.67848  0.92931  1.0000
  H   H1145     1.0  0.91811  0.49998  0.63028  1.0000
  H   H1146     1.0  0.63652  0.65392  0.97041  1.0000
  C   C961      1.0  0.79008  0.70911  0.95432  1.0000
  C   C962      1.0  0.58877  0.63694  0.54910  1.0000
  H   H1147     1.0  0.77531  0.65801  0.97328  1.0000
  H   H1148     1.0  0.77203  0.70928  0.95514  1.0000
  H   H1149     1.0  0.67634  0.73150  0.02820  1.0000
  H   H1150     1.0  0.90133  0.50724  0.76043  1.0000
  H   H1151     1.0  0.69552  0.60578  0.56632  1.0000
  C   C963      1.0  0.96580  0.69928  0.87285  1.0000
  H   H1152     1.0  0.92210  0.66671  0.71489  1.0000
  H   H1153     1.0  0.80739  0.61269  0.96314  1.0000
  N   N66       1.0  0.60062  0.64765  0.98615  1.0000
  C   C964      1.0  0.95177  0.70786  0.57892  1.0000
  C   C965      1.0  0.56627  0.50736  0.82385  1.0000
  H   H1154     1.0  0.82919  0.71699  0.00550  1.0000
  H   H1155     1.0  0.92250  0.53124  0.79741  1.0000
  C   C966      1.0  0.55337  0.58477  0.55440  1.0000
  C   C967      1.0  0.95408  0.68982  0.72211  1.0000
  H   H1156     1.0  0.50079  0.51905  0.66988  1.0000
  C   C968      1.0  0.95702  0.64629  0.78748  1.0000
  H   H1157     1.0  0.48751  0.51951  0.62050  1.0000
  C   C969      1.0  0.67218  0.63671  0.62666  1.0000
  H   H1158     1.0  0.58746  0.64226  0.67292  1.0000
  C   C970      1.0  0.86230  0.69120  0.96711  1.0000
  Fe  Fe131     1.0  0.63114  0.73870  0.71058  1.0000
  C   C971      1.0  0.97430  0.66713  0.67562  1.0000
  H   H1159     1.0  0.57944  0.61348  0.86662  1.0000
  C   C972      1.0  0.93867  0.52832  0.79912  1.0000
  C   C973      1.0  0.58324  0.62752  0.88115  1.0000
  C   C974      1.0  0.97217  0.70853  0.59675  1.0000
  H   H1160     1.0  0.66546  0.62645  0.65478  1.0000
  H   H1161     1.0  0.52887  0.54205  0.56718  1.0000
  C   C975      1.0  0.60720  0.64946  0.56937  1.0000
  H   H1162     1.0  0.97064  0.53375  0.70375  1.0000
  H   H1163     1.0  0.95774  0.64254  0.54386  1.0000
  H   H1164     1.0  0.57146  0.63179  0.56333  1.0000
  Fe  Fe132     1.0  0.64955  0.73238  0.62343  1.0000
  S   S261      1.0  0.58418  0.72503  0.02997  1.0000
  H   H1165     1.0  0.55651  0.51060  0.79727  1.0000
  S   S262      1.0  0.69618  0.60016  0.03096  1.0000
  H   H1166     1.0  0.89771  0.50311  0.83826  1.0000
  H   H1167     1.0  0.58049  0.61702  0.00930  1.0000
  H   H1168     1.0  0.55778  0.52179  0.62144  1.0000
  C   C976      1.0  0.64080  0.60549  0.55635  1.0000
  S   S263      1.0  0.60322  0.73980  0.75751  1.0000
  C   C977      1.0  0.78374  0.68849  0.02092  1.0000
  H   H1169     1.0  0.56723  0.64836  0.00736  1.0000
  C   C978      1.0  0.97436  0.64701  0.55860  1.0000
  H   H1170     1.0  0.96515  0.66913  0.93075  1.0000
  H   H1171     1.0  0.58851  0.67290  0.99787  1.0000
  C   C979      1.0  0.95568  0.68178  0.53718  1.0000
  N   N67       1.0  0.51012  0.93992  0.23307  1.0000
  Fe  Fe133     1.0  0.64962  0.91901  0.07248  1.0000
  H   H1172     1.0  0.64967  0.99626  0.04390  1.0000
  S   S264      1.0  0.65460  0.92794  0.13889  1.0000
  H   H1173     1.0  0.73274  0.97836  0.36482  1.0000
  H   H1174     1.0  0.52258  0.94686  0.16792  1.0000
  C   C980      1.0  0.48076  0.99657  0.33222  1.0000
  Fe  Fe134     1.0  0.60589  0.74926  0.06716  1.0000
  C   C981      1.0  0.71627  0.97676  0.35224  1.0000
  S   S265      1.0  0.60235  0.77819  0.08897  1.0000
  C   C982      1.0  0.53489  0.96497  0.49706  1.0000
  S   S266      1.0  0.56019  0.96753  0.35622  1.0000
  C   C983      1.0  0.52882  0.94433  0.19935  1.0000
  H   H1175     1.0  0.70154  0.98758  0.21852  1.0000
  H   H1176     1.0  0.64744  0.97238  0.07304  1.0000
  H   H1177     1.0  0.75848  0.99107  0.42757  1.0000
  Fe  Fe135     1.0  0.58324  0.96932  0.29823  1.0000
  S   S267      1.0  0.57723  0.94488  0.25392  1.0000
  Fe  Fe136     1.0  0.59212  0.98599  0.38378  1.0000
  S   S268      1.0  0.60082  0.98085  0.45099  1.0000
  H   H1178     1.0  0.52419  0.96503  0.43377  1.0000
  C   C984      1.0  0.71459  0.99018  0.31842  1.0000
  H   H1179     1.0  0.69544  0.97811  0.08911  1.0000
  C   C985      1.0  0.64200  0.99140  0.14308  1.0000
  C   C986      1.0  0.49681  0.96908  0.33952  1.0000
  C   C987      1.0  0.51985  0.93845  0.27426  1.0000
  H   H1180     1.0  0.51144  0.96385  0.34271  1.0000
  H   H1181     1.0  0.50217  0.90781  0.22839  1.0000
  C   C988      1.0  0.74944  0.96304  0.52368  1.0000
  H   H1182     1.0  0.54351  0.95790  0.20371  1.0000
  H   H1183     1.0  0.63706  0.97537  0.13968  1.0000
  C   C989      1.0  0.69138  0.88391  0.53577  1.0000
  C   C990      1.0  0.61476  0.81957  0.07521  1.0000
  C   C991      1.0  0.60583  0.80124  0.05764  1.0000
  H   H1184     1.0  0.62017  0.81932  0.10687  1.0000
  S   S269      1.0  0.66045  0.89498  0.04223  1.0000
  C   C992      1.0  0.63314  0.93357  0.16929  1.0000
  C   C993      1.0  0.63892  0.94335  0.20568  1.0000
  C   C994      1.0  0.62212  0.94758  0.23111  1.0000
  C   C995      1.0  0.59931  0.94168  0.22080  1.0000
  C   C996      1.0  0.59360  0.93211  0.18423  1.0000
  C   C997      1.0  0.61046  0.92829  0.15831  1.0000
  H   H1185     1.0  0.65638  0.94734  0.21457  1.0000
  H   H1186     1.0  0.62658  0.95462  0.25956  1.0000
  H   H1187     1.0  0.57601  0.92736  0.17609  1.0000
  H   H1188     1.0  0.60576  0.92067  0.13057  1.0000
  H   H1189     1.0  0.70756  0.98345  0.49777  1.0000
  H   H1190     1.0  0.66149  0.98524  0.24055  1.0000
  C   C998      1.0  0.75834  0.98773  0.46116  1.0000
  C   C999      1.0  0.54277  0.97642  0.53100  1.0000
  H   H1191     1.0  0.52810  0.92634  0.27700  1.0000
  C   C1000     1.0  0.67382  0.97267  0.31983  1.0000
  H   H1192     1.0  0.62119  0.98790  0.52931  1.0000
  H   H1193     1.0  0.69821  0.95099  0.39612  1.0000
  H   H1194     1.0  0.53288  0.94899  0.49900  1.0000
  C   C1001     1.0  0.67570  0.95930  0.35366  1.0000
  H   H1195     1.0  0.48540  0.91987  0.19791  1.0000
  C   C1002     1.0  0.61637  0.83820  0.05246  1.0000
  H   H1196     1.0  0.50638  0.93504  0.30047  1.0000
  C   C1003     1.0  0.74907  0.96759  0.48014  1.0000
  H   H1197     1.0  0.48002  0.91462  0.25445  1.0000
  H   H1198     1.0  0.66058  0.94730  0.36744  1.0000
  H   H1199     1.0  0.69821  0.75910  0.22562  1.0000
  H   H1200     1.0  0.69964  0.90069  0.53039  1.0000
  C   C1004     1.0  0.49361  0.91971  0.22815  1.0000
  C   C1005     1.0  0.48067  0.98860  0.22938  1.0000
  H   H1201     1.0  0.53632  0.93174  0.19884  1.0000
  H   H1202     1.0  0.68445  0.87883  0.50574  1.0000
  C   C1006     1.0  0.69685  0.96136  0.36987  1.0000
  C   C1007     1.0  0.49970  0.95641  0.23109  1.0000
  H   H1203     1.0  0.74194  0.95547  0.46099  1.0000
  S   S270      1.0  0.61529  0.98432  0.32900  1.0000
  H   H1204     1.0  0.62305  0.85216  0.06657  1.0000
  C   C1008     1.0  0.51364  0.97685  0.23166  1.0000
  C   C1009     1.0  0.70415  0.99174  0.52407  1.0000
  H   H1205     1.0  0.53188  0.98075  0.23426  1.0000
  C   C1010     1.0  0.52978  0.97398  0.45960  1.0000
  H   H1206     1.0  0.69761  0.99216  0.13404  1.0000
  H   H1207     1.0  0.67271  0.97094  0.12914  1.0000
  H   H1208     1.0  0.53330  0.95276  0.27939  1.0000
  C   C1011     1.0  0.50422  0.99266  0.23064  1.0000
  C   C1012     1.0  0.68566  0.98430  0.11138  1.0000
  H   H1209     1.0  0.72260  0.87308  0.48844  1.0000
  H   H1210     1.0  0.65693  0.97025  0.30900  1.0000
  C   C1013     1.0  0.69329  0.98861  0.30127  1.0000
  C   C1014     1.0  0.65972  0.98705  0.05863  1.0000
  H   H1211     1.0  0.73455  0.89647  0.51118  1.0000
  C   C1015     1.0  0.49988  0.98987  0.33551  1.0000
  H   H1212     1.0  0.74222  0.87489  0.52909  1.0000
  C   C1016     1.0  0.72760  0.87964  0.51833  1.0000
  H   H1213     1.0  0.61328  0.98688  0.18783  1.0000
  C   C1017     1.0  0.53223  0.99456  0.45487  1.0000
  S   S271      1.0  0.61726  0.91410  0.03897  1.0000
  Fe  Fe137     1.0  0.67802  0.91936  0.99009  1.0000
  S   S272      1.0  0.64786  0.91484  0.95213  1.0000
  S   S273      1.0  0.71248  0.92415  0.95677  1.0000
  S   S274      1.0  0.63331  0.96564  0.96002  1.0000
  Fe  Fe138     1.0  0.72225  0.93248  0.61253  1.0000
  S   S275      1.0  0.68460  0.91743  0.61091  1.0000
  C   C1018     1.0  0.59943  0.82027  0.99474  1.0000
  Fe  Fe139     1.0  0.71664  0.93701  0.70651  1.0000
  S   S276      1.0  0.67842  0.92352  0.71026  1.0000
  S   S277      1.0  0.73627  0.95002  0.76088  1.0000
  Fe  Fe140     1.0  0.68615  0.90040  0.67254  1.0000
  S   S278      1.0  0.66454  0.86751  0.68448  1.0000
  Fe  Fe141     1.0  0.68098  0.94182  0.64793  1.0000
  S   S279      1.0  0.66212  0.96116  0.61734  1.0000
  S   S280      1.0  0.72443  0.91301  0.67154  1.0000
  S   S281      1.0  0.71858  0.95766  0.64744  1.0000
  Fe  Fe142     1.0  0.67868  0.76349  0.67523  1.0000
  S   S282      1.0  0.70470  0.79458  0.67618  1.0000
  S   S283      1.0  0.64407  0.75928  0.65055  1.0000
  H   H1214     1.0  0.70483  0.88386  0.99629  1.0000
  H   H1215     1.0  0.51352  0.95871  0.59767  1.0000
  H   H1216     1.0  0.60907  0.95504  0.88601  1.0000
  H   H1217     1.0  0.67264  0.79178  0.57635  1.0000
  C   C1019     1.0  0.63816  0.96349  0.64451  1.0000
  C   C1020     1.0  0.62882  0.97795  0.62745  1.0000
  C   C1021     1.0  0.61049  0.98140  0.64885  1.0000
  C   C1022     1.0  0.62876  0.95196  0.68272  1.0000
  C   C1023     1.0  0.52670  0.95138  0.59062  1.0000
  H   H1218     1.0  0.49483  0.99156  0.71942  1.0000
  H   H1219     1.0  0.63589  0.94062  0.69573  1.0000
  C   C1024     1.0  0.67653  0.84787  0.68109  1.0000
  C   C1025     1.0  0.66186  0.82846  0.67679  1.0000
  C   C1026     1.0  0.67045  0.81218  0.67503  1.0000
  C   C1027     1.0  0.69383  0.81513  0.67719  1.0000
  C   C1028     1.0  0.70863  0.83462  0.68145  1.0000
  C   C1029     1.0  0.69998  0.85096  0.68371  1.0000
  H   H1220     1.0  0.64371  0.82596  0.67483  1.0000
  H   H1221     1.0  0.65883  0.79738  0.67216  1.0000
  H   H1222     1.0  0.72675  0.83702  0.68354  1.0000
  H   H1223     1.0  0.71139  0.86584  0.68788  1.0000
  H   H1224     1.0  0.65622  0.83304  0.00782  1.0000
  C   C1030     1.0  0.55774  0.98083  0.60137  1.0000
  H   H1225     1.0  0.58650  0.97320  0.80281  1.0000
  C   C1031     1.0  0.60136  0.97040  0.68746  1.0000
  C   C1032     1.0  0.71722  0.93164  0.90206  1.0000
  C   C1033     1.0  0.73924  0.94365  0.88651  1.0000
  C   C1034     1.0  0.74451  0.94907  0.84334  1.0000
  C   C1035     1.0  0.72806  0.94208  0.81473  1.0000
  C   C1036     1.0  0.70586  0.92993  0.82989  1.0000
  C   C1037     1.0  0.70037  0.92489  0.87365  1.0000
  H   H1226     1.0  0.75239  0.94881  0.90804  1.0000
  H   H1227     1.0  0.76165  0.95849  0.83201  1.0000
  H   H1228     1.0  0.69300  0.92455  0.80802  1.0000
  H   H1229     1.0  0.68336  0.91539  0.88519  1.0000
  H   H1230     1.0  0.57393  0.99257  0.58814  1.0000
  Fe  Fe143     1.0  0.63963  0.93754  0.98932  1.0000
  C   C1038     1.0  0.66850  0.79601  0.96027  1.0000
  C   C1039     1.0  0.65962  0.98518  0.95051  1.0000
  C   C1040     1.0  0.68001  0.98052  0.94622  1.0000
  C   C1041     1.0  0.71188  0.83890  0.56661  1.0000
  N   N68       1.0  0.65402  0.79609  0.80335  1.0000
  C   C1042     1.0  0.67706  0.80790  0.78348  1.0000
  C   C1043     1.0  0.65611  0.77739  0.82636  1.0000
  C   C1044     1.0  0.63810  0.78986  0.77003  1.0000
  C   C1045     1.0  0.64536  0.80864  0.83036  1.0000
  C   C1046     1.0  0.63715  0.80207  0.87301  1.0000
  C   C1047     1.0  0.64413  0.82780  0.81372  1.0000
  C   C1048     1.0  0.62870  0.81414  0.89740  1.0000
  C   C1049     1.0  0.63558  0.83973  0.83844  1.0000
  C   C1050     1.0  0.62786  0.83290  0.88023  1.0000
  H   H1231     1.0  0.67681  0.82113  0.76180  1.0000
  H   H1232     1.0  0.68928  0.81370  0.80746  1.0000
  H   H1233     1.0  0.68435  0.79857  0.76409  1.0000
  H   H1234     1.0  0.66775  0.78092  0.85215  1.0000
  H   H1235     1.0  0.66299  0.76849  0.80533  1.0000
  H   H1236     1.0  0.63919  0.76700  0.83966  1.0000
  H   H1237     1.0  0.64368  0.78010  0.74915  1.0000
  H   H1238     1.0  0.62052  0.78103  0.78376  1.0000
  H   H1239     1.0  0.63664  0.80304  0.74959  1.0000
  H   H1240     1.0  0.63676  0.78754  0.88827  1.0000
  H   H1241     1.0  0.64933  0.83357  0.78113  1.0000
  H   H1242     1.0  0.62249  0.80875  0.92977  1.0000
  H   H1243     1.0  0.63459  0.85420  0.82483  1.0000
  H   H1244     1.0  0.62091  0.84203  0.89927  1.0000
  H   H1245     1.0  0.71384  0.80878  0.58176  1.0000
  H   H1246     1.0  0.66335  0.77961  0.96223  1.0000
  H   H1247     1.0  0.70916  0.98044  0.86960  1.0000
  H   H1248     1.0  0.70131  0.87786  0.61422  1.0000
  H   H1249     1.0  0.70218  0.86915  0.88982  1.0000
  H   H1250     1.0  0.72830  0.87395  0.60355  1.0000
  H   H1251     1.0  0.64505  0.97899  0.76369  1.0000
  C   C1051     1.0  0.64005  0.96809  0.79116  1.0000
  H   H1252     1.0  0.71683  0.99188  0.94469  1.0000
  C   C1052     1.0  0.70287  0.81777  0.57307  1.0000
  C   C1053     1.0  0.65813  0.80539  0.98787  1.0000
  H   H1253     1.0  0.66208  0.86418  0.91808  1.0000
  H   H1254     1.0  0.52991  0.94380  0.62078  1.0000
  H   H1255     1.0  0.72990  0.84561  0.57059  1.0000
  H   H1256     1.0  0.59276  0.82045  0.96411  1.0000
  H   H1257     1.0  0.65601  0.86291  0.97357  1.0000
  C   C1054     1.0  0.66477  0.82653  0.98557  1.0000
  S   S284      1.0  0.60940  0.86162  0.98333  1.0000
  H   H1258     1.0  0.71253  0.86107  0.00358  1.0000
  H   H1259     1.0  0.61820  0.98846  0.89537  1.0000
  H   H1260     1.0  0.75957  0.97544  0.58152  1.0000
  C   C1055     1.0  0.68218  0.83898  0.95555  1.0000
  H   H1261     1.0  0.66961  0.98317  0.03285  1.0000
  C   C1056     1.0  0.59847  0.80167  0.01700  1.0000
  H   H1262     1.0  0.59108  0.78761  0.00354  1.0000
  H   H1263     1.0  0.67953  0.96504  0.94406  1.0000
  C   C1057     1.0  0.71590  0.88102  0.59028  1.0000
  C   C1058     1.0  0.64106  0.93584  0.82423  1.0000
  C   C1059     1.0  0.68551  0.80774  0.93018  1.0000
  C   C1060     1.0  0.70115  0.99578  0.94600  1.0000
  C   C1061     1.0  0.61013  0.95533  0.70415  1.0000
  C   C1062     1.0  0.62627  0.97045  0.82577  1.0000
  H   H1264     1.0  0.68476  0.86137  0.02229  1.0000
  C   C1063     1.0  0.75887  0.97877  0.54811  1.0000
  H   H1265     1.0  0.71835  0.99276  0.54483  1.0000
  C   C1064     1.0  0.62718  0.93751  0.85815  1.0000
  S   S285      1.0  0.58050  0.97708  0.71584  1.0000
  N   N69       1.0  0.70781  0.87348  0.55018  1.0000
  H   H1266     1.0  0.64669  0.92263  0.82369  1.0000
  H   H1267     1.0  0.69972  0.96817  0.82459  1.0000
  C   C1065     1.0  0.66978  0.86875  0.94783  1.0000
  H   H1268     1.0  0.60302  0.94676  0.73408  1.0000
  C   C1066     1.0  0.61985  0.95449  0.85897  1.0000
  C   C1067     1.0  0.64735  0.95104  0.79069  1.0000
  H   H1269     1.0  0.65765  0.94944  0.76382  1.0000
  H   H1270     1.0  0.51912  0.93920  0.57043  1.0000
  H   H1271     1.0  0.58006  0.96612  0.54187  1.0000
  H   H1272     1.0  0.64492  0.79624  0.01144  1.0000
  H   H1273     1.0  0.67490  0.88558  0.94608  1.0000
  H   H1274     1.0  0.70558  0.83704  0.90360  1.0000
  H   H1275     1.0  0.62192  0.92556  0.88402  1.0000
  C   C1068     1.0  0.70790  0.87214  0.92174  1.0000
  C   C1069     1.0  0.60843  0.83859  0.01232  1.0000
  H   H1276     1.0  0.69366  0.80036  0.90905  1.0000
  H   H1277     1.0  0.71301  0.88887  0.92217  1.0000
  C   C1070     1.0  0.69227  0.82892  0.92756  1.0000
  H   H1278     1.0  0.68269  0.98126  0.84899  1.0000
  S   S286      1.0  0.67115  0.94348  0.02448  1.0000
  H   H1279     1.0  0.72377  0.86805  0.92619  1.0000
  C   C1071     1.0  0.69827  0.86709  0.99602  1.0000
  C   C1072     1.0  0.70060  0.98193  0.84014  1.0000
  N   N70       1.0  0.54800  0.96646  0.57038  1.0000
  N   N71       1.0  0.68953  0.86133  0.95497  1.0000
  S   S287      1.0  0.73938  0.93757  0.54670  1.0000
  Fe  Fe144     1.0  0.62938  0.89162  0.00561  1.0000
  H   H1280     1.0  0.58648  0.99506  0.82828  1.0000
  H   H1281     1.0  0.70579  0.97393  0.75378  1.0000
  H   H1282     1.0  0.56190  0.97301  0.63033  1.0000
  H   H1283     1.0  0.58507  0.97198  0.85892  1.0000
  C   C1073     1.0  0.69781  0.85110  0.55660  1.0000
  H   H1284     1.0  0.72463  0.89767  0.58640  1.0000
  H   H1285     1.0  0.54549  0.98847  0.61214  1.0000
  H   H1286     1.0  0.57103  0.95000  0.59024  1.0000
  C   C1074     1.0  0.67959  0.80815  0.57037  1.0000
  H   H1287     1.0  0.66181  0.84872  0.54861  1.0000
  H   H1288     1.0  0.68611  0.97451  0.68962  1.0000
  H   H1289     1.0  0.73761  0.98764  0.78810  1.0000
  H   H1290     1.0  0.47753  0.99448  0.59662  1.0000
  H   H1291     1.0  0.63628  0.98684  0.59807  1.0000
  C   C1075     1.0  0.66519  0.81963  0.56136  1.0000
  S   S288      1.0  0.63943  0.75040  0.03504  1.0000
  H   H1292     1.0  0.67687  0.88137  0.55975  1.0000
  C   C1076     1.0  0.59305  0.98187  0.82965  1.0000
  C   C1077     1.0  0.56481  0.95582  0.56112  1.0000
  C   C1078     1.0  0.67403  0.84080  0.55464  1.0000
  H   H1293     1.0  0.64698  0.81206  0.56032  1.0000
  N   N72       1.0  0.61843  0.98836  0.82782  1.0000
  H   H1294     1.0  0.60366  0.99288  0.63573  1.0000
  C   C1079     1.0  0.69920  0.98638  0.74649  1.0000
  C   C1080     1.0  0.68805  0.98659  0.70949  1.0000
  H   H1295     1.0  0.55768  0.94259  0.54338  1.0000
  H   H1296     1.0  0.68805  0.98203  0.54207  1.0000
