data_image0
_chemical_formula_structural       H4CHC2HCHSFeCFeCFeCSHSFeS2FeSHFeSFeCS2CSHC9H5CHCHC2H3CHCHCNCSHC2H7FeHC2H2C2H3SHSCH2NH2CHSC2SH2CS2H5CHCH2FeH2CHC2HC2HSNHCSCHCFeS2FeS2FeCFeS3CH2C8H5CNSC2HSC3HC2FeCHC3H2CFeC2H7CH4C2H7CH2CHCH3NH3C2HC2HC3HCH3CHCH3CH4FeSCFeS2FeSFeHS2CH2CH2C2HC3H3C7HNHCHC2NH2C2H3C2H2SH2SCH3CHCHCHC2HC2HCH6CH4CHNC3H3C2HSHCNFeSHFeS2FeSFeS3C2HCH2CH3C2HC6H6CNC8H10C2HCSH2CSNHC2HCH3CHCHC2SCH4CH4C3H3FeH2CHC3H2C2H2CHFeSHFeS2FeSFeHSHCHC5H5NH4C3HSCSC2H2CH8C4HC2SCH2C2H6C2H2NH2C4H2C5HCHC3H2FeS2FeS2FeSFeS3HC4HCH2C3H2C6H3CNCH3C3H2CH4CNH10C2HC2HCHCHC2HC3HC2H2CH3NHCH2C4H3CH2CSCFeSFeSFeSFeCSFeS2FeSHFeSFeHS2H4CHSCHCHCHS2HCHC6H6CNCNHCHCHCHCNCH5CH2CHCHC5H3C3H4CSCHC5H3SH2CHC2HC2H4SH4NSC2HCHCHCNHSC4FeSHFeS2FeS2FeS2FeSFeHS2C3H3C2HCH2C6H4C2H5CHCH2C2HCH6CSN2HC4H3C2H3C2H4CH2SHCH3C3HCFeH3C4HCH4SHCHC2H4NCHC2HC4FeH2CSH2CHC3H4C2H2CH2
_chemical_formula_sum              "H432 C360 S96 Fe48 N24"
_cell_length_a       44.4166
_cell_length_b       44.3706
_cell_length_c       31.0381
_cell_angle_alpha    90.0268
_cell_angle_beta     89.6498
_cell_angle_gamma    120.009

_space_group_name_H-M_alt    "P 1"
_space_group_IT_number       1

loop_
  _space_group_symop_operation_xyz
  'x, y, z'

loop_
  _atom_site_type_symbol
  _atom_site_label
  _atom_site_symmetry_multiplicity
  _atom_site_fract_x
  _atom_site_fract_y
  _atom_site_fract_z
  _atom_site_occupancy
  H   H1        1.0  0.46679  0.99594  0.28015  1.0000
  H   H2        1.0  0.44132  0.20093  0.72834  1.0000
  H   H3        1.0  0.44389  0.25556  0.70577  1.0000
  H   H4        1.0  0.43493  0.99202  0.81161  1.0000
  C   C1        1.0  0.45755  0.99233  0.79794  1.0000
  H   H5        1.0  0.44188  0.22532  0.59071  1.0000
  C   C2        1.0  0.46776  0.25491  0.70971  1.0000
  C   C3        1.0  0.46630  0.22395  0.72242  1.0000
  H   H6        1.0  0.45547  0.19739  0.53716  1.0000
  C   C4        1.0  0.46719  0.24968  0.58561  1.0000
  H   H7        1.0  0.46305  0.26582  0.56154  1.0000
  S   S1        1.0  0.23837  0.59712  0.51803  1.0000
  Fe  Fe1       1.0  0.15990  0.60992  0.08270  1.0000
  C   C5        1.0  0.27931  0.54322  0.04234  1.0000
  Fe  Fe2       1.0  0.41619  0.55328  0.10215  1.0000
  C   C6        1.0  0.08143  0.50668  0.23293  1.0000
  Fe  Fe3       1.0  0.35410  0.56527  0.10918  1.0000
  C   C7        1.0  0.06390  0.52928  0.29315  1.0000
  S   S2        1.0  0.29774  0.54134  0.12616  1.0000
  H   H8        1.0  0.23162  0.52839  0.50614  1.0000
  S   S3        1.0  0.38781  0.56006  0.15815  1.0000
  Fe  Fe4       1.0  0.12087  0.54243  0.43668  1.0000
  S   S4        1.0  0.16338  0.52878  0.42988  1.0000
  S   S5        1.0  0.06615  0.49852  0.45300  1.0000
  Fe  Fe5       1.0  0.17106  0.61868  0.41357  1.0000
  S   S6        1.0  0.21626  0.61049  0.40381  1.0000
  H   H9        1.0  0.09922  0.46037  0.27144  1.0000
  Fe  Fe6       1.0  0.17790  0.56178  0.36991  1.0000
  S   S7        1.0  0.18906  0.54559  0.30545  1.0000
  Fe  Fe7       1.0  0.19776  0.57897  0.46497  1.0000
  C   C8        1.0  0.43689  0.46832  0.19906  1.0000
  S   S8        1.0  0.13374  0.57245  0.37489  1.0000
  S   S9        1.0  0.15404  0.59004  0.47652  1.0000
  C   C9        1.0  0.07145  0.44787  0.28192  1.0000
  S   S10       1.0  0.37888  0.55362  0.05377  1.0000
  H   H10       1.0  0.06682  0.42588  0.30353  1.0000
  C   C10       1.0  0.08626  0.53496  0.20784  1.0000
  C   C11       1.0  0.27165  0.54395  0.08598  1.0000
  C   C12       1.0  0.31638  0.62047  0.44520  1.0000
  C   C13       1.0  0.16800  0.60000  0.19418  1.0000
  C   C14       1.0  0.17429  0.57266  0.18553  1.0000
  C   C15       1.0  0.18046  0.55566  0.21979  1.0000
  C   C16       1.0  0.18115  0.56655  0.26245  1.0000
  C   C17       1.0  0.17591  0.59453  0.27065  1.0000
  C   C18       1.0  0.16875  0.61073  0.23679  1.0000
  H   H11       1.0  0.17362  0.56416  0.15267  1.0000
  H   H12       1.0  0.18454  0.53401  0.21320  1.0000
  H   H13       1.0  0.17730  0.60377  0.30313  1.0000
  H   H14       1.0  0.40948  0.45712  0.19183  1.0000
  H   H15       1.0  0.43402  0.41915  0.20228  1.0000
  C   C19       1.0  0.24230  0.54598  0.09801  1.0000
  H   H16       1.0  0.08752  0.48856  0.21750  1.0000
  C   C20       1.0  0.46159  0.50404  0.09374  1.0000
  H   H17       1.0  0.30328  0.62546  0.41788  1.0000
  C   C21       1.0  0.02759  0.52270  0.41042  1.0000
  C   C22       1.0  0.02728  0.49568  0.43394  1.0000
  H   H18       1.0  0.25526  0.60594  0.27883  1.0000
  H   H19       1.0  0.05202  0.54612  0.40369  1.0000
  H   H20       1.0  0.97270  0.48418  0.13910  1.0000
  C   C23       1.0  0.27414  0.57683  0.22323  1.0000
  H   H21       1.0  0.11499  0.50245  0.33219  1.0000
  C   C24       1.0  0.99612  0.51976  0.39642  1.0000
  H   H22       1.0  0.20870  0.64375  0.53456  1.0000
  C   C25       1.0  0.22048  0.54715  0.06649  1.0000
  N   N1        1.0  0.30612  0.61145  0.21908  1.0000
  C   C26       1.0  0.30717  0.62461  0.17486  1.0000
  S   S11       1.0  0.45418  0.61076  0.09704  1.0000
  H   H23       1.0  0.35316  0.37491  0.50828  1.0000
  C   C27       1.0  0.30757  0.63723  0.25055  1.0000
  C   C28       1.0  0.45132  0.44690  0.20469  1.0000
  H   H24       1.0  0.99662  0.54102  0.37871  1.0000
  H   H25       1.0  0.09570  0.53783  0.17487  1.0000
  H   H26       1.0  0.28512  0.62938  0.16953  1.0000
  H   H27       1.0  0.02202  0.43116  0.33954  1.0000
  H   H28       1.0  0.45678  0.39629  0.24949  1.0000
  H   H29       1.0  0.30539  0.60569  0.15005  1.0000
  H   H30       1.0  0.32733  0.60450  0.43246  1.0000
  Fe  Fe8       1.0  0.42209  0.61781  0.14901  1.0000
  H   H31       1.0  0.33486  0.58540  0.20298  1.0000
  C   C29       1.0  0.27927  0.63056  0.27836  1.0000
  C   C30       1.0  0.45780  0.50433  0.20122  1.0000
  H   H32       1.0  0.27427  0.55747  0.20060  1.0000
  H   H33       1.0  0.05443  0.43624  0.25340  1.0000
  C   C31       1.0  0.99520  0.46571  0.44311  1.0000
  C   C32       1.0  0.08033  0.56045  0.22530  1.0000
  H   H34       1.0  0.08071  0.50239  0.36332  1.0000
  H   H35       1.0  0.02090  0.47056  0.34022  1.0000
  H   H36       1.0  0.33164  0.59061  0.50410  1.0000
  S   S12       1.0  0.38646  0.62317  0.10283  1.0000
  H   H37       1.0  0.23615  0.54632  0.13172  1.0000
  S   S13       1.0  0.12653  0.55969  0.04770  1.0000
  C   C33       1.0  0.06920  0.55764  0.26790  1.0000
  H   H38       1.0  0.46768  0.39985  0.17095  1.0000
  H   H39       1.0  0.99472  0.44471  0.46143  1.0000
  N   N2        1.0  0.06416  0.47321  0.30417  1.0000
  H   H40       1.0  0.19761  0.54835  0.07595  1.0000
  H   H41       1.0  0.43463  0.44897  0.08069  1.0000
  C   C34       1.0  0.08721  0.48630  0.34216  1.0000
  H   H42       1.0  0.25045  0.57817  0.21549  1.0000
  S   S14       1.0  0.14810  0.64264  0.03850  1.0000
  C   C35       1.0  0.33640  0.60619  0.22461  1.0000
  C   C36       1.0  0.35238  0.61428  0.51768  1.0000
  S   S15       1.0  0.42266  0.50573  0.09431  1.0000
  H   H43       1.0  0.29544  0.60458  0.46883  1.0000
  H   H44       1.0  0.05555  0.52844  0.32609  1.0000
  C   C37       1.0  0.02749  0.45418  0.31945  1.0000
  S   S16       1.0  0.15818  0.62115  0.15340  1.0000
  S   S17       1.0  0.20866  0.62223  0.04718  1.0000
  H   H45       1.0  0.28425  0.62614  0.05200  1.0000
  H   H46       1.0  0.00766  0.52809  0.50053  1.0000
  H   H47       1.0  0.08488  0.46481  0.36305  1.0000
  H   H48       1.0  0.08518  0.58280  0.20589  1.0000
  H   H49       1.0  0.06510  0.57780  0.28163  1.0000
  C   C38       1.0  0.06988  0.50289  0.27652  1.0000
  H   H50       1.0  0.00912  0.44501  0.29190  1.0000
  C   C39       1.0  0.24877  0.54121  0.53296  1.0000
  H   H51       1.0  0.36158  0.62978  0.21654  1.0000
  H   H52       1.0  0.16332  0.63143  0.24377  1.0000
  Fe  Fe9       1.0  0.41498  0.61123  0.05157  1.0000
  H   H53       1.0  0.33807  0.59865  0.25830  1.0000
  H   H54       1.0  0.27127  0.56577  0.25618  1.0000
  C   C40       1.0  0.45964  0.47182  0.08660  1.0000
  H   H55       1.0  0.44663  0.52085  0.19562  1.0000
  C   C41       1.0  0.99307  0.53796  0.51777  1.0000
  C   C42       1.0  0.36011  0.39317  0.53470  1.0000
  H   H56       1.0  0.29221  0.63278  0.93182  1.0000
  C   C43       1.0  0.99327  0.53538  0.97508  1.0000
  C   C44       1.0  0.22736  0.54515  0.02291  1.0000
  H   H57       1.0  0.37043  0.52044  0.90365  1.0000
  S   S18       1.0  0.06410  0.58038  0.97633  1.0000
  N   N3        1.0  0.40997  0.51642  0.93980  1.0000
  H   H58       1.0  0.24696  0.60812  0.94519  1.0000
  C   C45       1.0  0.22333  0.59739  0.86420  1.0000
  S   S19       1.0  0.16303  0.60474  0.95762  1.0000
  C   C46       1.0  0.28494  0.63139  0.84596  1.0000
  H   H59       1.0  0.21863  0.61976  0.86390  1.0000
  C   C47       1.0  0.26580  0.62522  0.92012  1.0000
  Fe  Fe10      1.0  0.34636  0.54613  0.66903  1.0000
  S   S20       1.0  0.40224  0.56566  0.65200  1.0000
  S   S21       1.0  0.30706  0.52037  0.61535  1.0000
  Fe  Fe11      1.0  0.36329  0.56028  0.76544  1.0000
  S   S22       1.0  0.42042  0.58040  0.75576  1.0000
  S   S23       1.0  0.33744  0.55294  0.83043  1.0000
  Fe  Fe12      1.0  0.41324  0.60817  0.69945  1.0000
  C   C48       1.0  0.02723  0.51274  0.00760  1.0000
  Fe  Fe13      1.0  0.40411  0.53586  0.70944  1.0000
  S   S24       1.0  0.41911  0.49386  0.70361  1.0000
  S   S25       1.0  0.35721  0.59106  0.71211  1.0000
  S   S26       1.0  0.34722  0.51350  0.72378  1.0000
  C   C49       1.0  0.28683  0.54125  0.58975  1.0000
  H   H60       1.0  0.35081  0.48194  0.63143  1.0000
  H   H61       1.0  0.43729  0.44155  0.68726  1.0000
  C   C50       1.0  0.99188  0.57988  0.56612  1.0000
  C   C51       1.0  0.99652  0.48083  0.01494  1.0000
  C   C52       1.0  0.40484  0.61602  0.94350  1.0000
  C   C53       1.0  0.37059  0.58935  0.95032  1.0000
  C   C54       1.0  0.34978  0.57090  0.91521  1.0000
  C   C55       1.0  0.36327  0.57862  0.87318  1.0000
  C   C56       1.0  0.39721  0.60589  0.86620  1.0000
  C   C57       1.0  0.41787  0.62475  0.90132  1.0000
  H   H62       1.0  0.35997  0.58308  0.98261  1.0000
  H   H63       1.0  0.32340  0.55002  0.92075  1.0000
  H   H64       1.0  0.40757  0.61244  0.83381  1.0000
  H   H65       1.0  0.32474  0.46998  0.55913  1.0000
  H   H66       1.0  0.31058  0.58713  0.62933  1.0000
  C   C58       1.0  0.28731  0.39766  0.62254  1.0000
  N   N4        1.0  0.25911  0.60742  0.87792  1.0000
  S   S27       1.0  0.43181  0.63859  0.98714  1.0000
  C   C59       1.0  0.37822  0.44012  0.60279  1.0000
  C   C60       1.0  0.25686  0.54333  0.01077  1.0000
  H   H67       1.0  0.43773  0.50759  0.99088  1.0000
  S   S28       1.0  0.19911  0.54496  0.98367  1.0000
  C   C61       1.0  0.30344  0.44489  0.57225  1.0000
  C   C62       1.0  0.29336  0.57416  0.60263  1.0000
  C   C63       1.0  0.26023  0.57477  0.88431  1.0000
  H   H68       1.0  0.25922  0.49936  0.54471  1.0000
  C   C64       1.0  0.41075  0.49986  0.98109  1.0000
  C   C65       1.0  0.27794  0.59063  0.58053  1.0000
  Fe  Fe14      1.0  0.17461  0.57548  0.00744  1.0000
  C   C66       1.0  0.44912  0.47322  0.86984  1.0000
  H   H69       1.0  0.28550  0.57993  0.89791  1.0000
  C   C67       1.0  0.40269  0.43247  0.58523  1.0000
  C   C68       1.0  0.46109  0.46533  0.69471  1.0000
  C   C69       1.0  0.42314  0.51858  0.86050  1.0000
  H   H70       1.0  0.99805  0.45964  0.02992  1.0000
  H   H71       1.0  0.39486  0.47098  0.97959  1.0000
  C   C70       1.0  0.02583  0.54015  0.98737  1.0000
  Fe  Fe15      1.0  0.11730  0.59298  0.00101  1.0000
  C   C71       1.0  0.42336  0.50578  0.90240  1.0000
  C   C72       1.0  0.39367  0.40904  0.55127  1.0000
  H   H72       1.0  0.39973  0.50786  0.00818  1.0000
  H   H73       1.0  0.00564  0.60264  0.58640  1.0000
  H   H74       1.0  0.41330  0.53619  0.85508  1.0000
  H   H75       1.0  0.36225  0.51430  0.95997  1.0000
  H   H76       1.0  0.42981  0.56917  0.91716  1.0000
  H   H77       1.0  0.46874  0.56818  0.62436  1.0000
  H   H78       1.0  0.20333  0.57787  0.88665  1.0000
  C   C73       1.0  0.37332  0.50701  0.93218  1.0000
  H   H79       1.0  0.45703  0.47807  0.80100  1.0000
  H   H80       1.0  0.99194  0.55643  0.95932  1.0000
  H   H81       1.0  0.42248  0.56377  0.97378  1.0000
  H   H82       1.0  0.29122  0.42680  0.54486  1.0000
  C   C74       1.0  0.34362  0.42412  0.58702  1.0000
  C   C75       1.0  0.31062  0.62528  0.82684  1.0000
  H   H83       1.0  0.30862  0.46031  0.65524  1.0000
  H   H84       1.0  0.42875  0.44461  0.59840  1.0000
  H   H85       1.0  0.31218  0.60221  0.83350  1.0000
  H   H86       1.0  0.40743  0.63615  0.60275  1.0000
  H   H87       1.0  0.28327  0.45038  0.58551  1.0000
  H   H88       1.0  0.23984  0.55682  0.90747  1.0000
  H   H89       1.0  0.35656  0.47853  0.92682  1.0000
  C   C76       1.0  0.25550  0.57422  0.54575  1.0000
  H   H90       1.0  0.25561  0.56013  0.85361  1.0000
  H   H91       1.0  0.26222  0.54176  0.97708  1.0000
  C   C77       1.0  0.30449  0.64384  0.02998  1.0000
  H   H92       1.0  0.43834  0.47191  0.93657  1.0000
  C   C78       1.0  0.26445  0.52484  0.55487  1.0000
  H   H93       1.0  0.27378  0.37828  0.59667  1.0000
  H   H94       1.0  0.28348  0.61625  0.59050  1.0000
  H   H95       1.0  0.29652  0.38559  0.64674  1.0000
  N   N5        1.0  0.31668  0.43071  0.60578  1.0000
  H   H96       1.0  0.26719  0.40192  0.63855  1.0000
  H   H97       1.0  0.30183  0.54137  0.03300  1.0000
  H   H98       1.0  0.38705  0.45847  0.62895  1.0000
  C   C79       1.0  0.43125  0.55465  0.94545  1.0000
  C   C80       1.0  0.33537  0.40049  0.55225  1.0000
  H   H99       1.0  0.44422  0.64569  0.89584  1.0000
  C   C81       1.0  0.32949  0.45590  0.64198  1.0000
  C   C82       1.0  0.43526  0.50868  0.82458  1.0000
  H   H100      1.0  0.45911  0.56299  0.95051  1.0000
  C   C83       1.0  0.43704  0.48293  0.90611  1.0000
  C   C84       1.0  0.44812  0.48598  0.82917  1.0000
  C   C85       1.0  0.45986  0.49559  0.70484  1.0000
  H   H101      1.0  0.33896  0.44665  0.66931  1.0000
  C   C86       1.0  0.01052  0.56715  0.54386  1.0000
  H   H102      1.0  0.45896  0.45535  0.87310  1.0000
  H   H103      1.0  0.03857  0.57989  0.54677  1.0000
  H   H104      1.0  0.21789  0.58580  0.83137  1.0000
  C   C87       1.0  0.36923  0.61031  0.55336  1.0000
  H   H105      1.0  0.05205  0.51589  0.01687  1.0000
  C   C88       1.0  0.39520  0.63936  0.57437  1.0000
  H   H106      1.0  0.43428  0.51834  0.79281  1.0000
  H   H107      1.0  0.36131  0.58449  0.56564  1.0000
  H   H108      1.0  0.33155  0.61509  0.03064  1.0000
  C   C89       1.0  0.33098  0.63749  0.01764  1.0000
  H   H109      1.0  0.35470  0.64392  0.78374  1.0000
  H   H110      1.0  0.41272  0.40310  0.53791  1.0000
  H   H111      1.0  0.30962  0.38732  0.53854  1.0000
  H   H112      1.0  0.36235  0.72147  0.28219  1.0000
  Fe  Fe16      1.0  0.42301  0.80473  0.31483  1.0000
  S   S29       1.0  0.40984  0.84781  0.31267  1.0000
  C   C90       1.0  0.31097  0.68863  0.30801  1.0000
  Fe  Fe17      1.0  0.41496  0.79832  0.41224  1.0000
  S   S30       1.0  0.40031  0.83971  0.41697  1.0000
  S   S31       1.0  0.41285  0.76754  0.47132  1.0000
  Fe  Fe18      1.0  0.36752  0.81415  0.35954  1.0000
  S   S32       1.0  0.31414  0.80775  0.35555  1.0000
  Fe  Fe19      1.0  0.44424  0.87002  0.37060  1.0000
  H   H113      1.0  0.35662  0.67755  0.40179  1.0000
  S   S33       1.0  0.37823  0.77009  0.35813  1.0000
  S   S34       1.0  0.46122  0.82966  0.36916  1.0000
  C   C91       1.0  0.41578  0.79051  0.51870  1.0000
  H   H114      1.0  0.38930  0.69980  0.44099  1.0000
  H   H115      1.0  0.31618  0.82833  0.48921  1.0000
  C   C92       1.0  0.31789  0.73103  0.17095  1.0000
  H   H116      1.0  0.44010  0.84050  0.48732  1.0000
  H   H117      1.0  0.45696  0.94037  0.31220  1.0000
  C   C93       1.0  0.27663  0.76892  0.37057  1.0000
  C   C94       1.0  0.27754  0.73935  0.38461  1.0000
  H   H118      1.0  0.39732  0.70316  0.51286  1.0000
  C   C95       1.0  0.21428  0.70750  0.39059  1.0000
  C   C96       1.0  0.21380  0.73735  0.37746  1.0000
  C   C97       1.0  0.24476  0.76785  0.36756  1.0000
  H   H119      1.0  0.30218  0.74023  0.38768  1.0000
  H   H120      1.0  0.18926  0.73686  0.37473  1.0000
  H   H121      1.0  0.24392  0.79072  0.35716  1.0000
  C   C98       1.0  0.43400  0.68513  0.22212  1.0000
  C   C99       1.0  0.43660  0.69712  0.26466  1.0000
  C   C100      1.0  0.43441  0.72711  0.27381  1.0000
  C   C101      1.0  0.42706  0.73343  0.19787  1.0000
  C   C102      1.0  0.42808  0.82621  0.51656  1.0000
  C   C103      1.0  0.34566  0.75360  0.19672  1.0000
  C   C104      1.0  0.29499  0.80068  0.49199  1.0000
  H   H122      1.0  0.37218  0.76196  0.18687  1.0000
  N   N6        1.0  0.30656  0.77919  0.51566  1.0000
  H   H123      1.0  0.23285  0.67475  0.26739  1.0000
  C   C105      1.0  0.43016  0.74570  0.24032  1.0000
  H   H124      1.0  0.34629  0.76521  0.50653  1.0000
  C   C106      1.0  0.36929  0.67344  0.43027  1.0000
  C   C107      1.0  0.30536  0.75463  0.24865  1.0000
  N   N7        1.0  0.24060  0.72173  0.23727  1.0000
  H   H125      1.0  0.23855  0.74333  0.48145  1.0000
  H   H126      1.0  0.20531  0.69039  0.28814  1.0000
  C   C108      1.0  0.24592  0.72805  0.50119  1.0000
  C   C109      1.0  0.33915  0.69596  0.28134  1.0000
  H   H127      1.0  0.32295  0.72187  0.14087  1.0000
  H   H128      1.0  0.21084  0.74551  0.25848  1.0000
  H   H129      1.0  0.24688  0.68577  0.40563  1.0000
  C   C110      1.0  0.42865  0.70312  0.18881  1.0000
  C   C111      1.0  0.33938  0.76538  0.23544  1.0000
  H   H130      1.0  0.31155  0.67643  0.45369  1.0000
  H   H131      1.0  0.25020  0.71183  0.30230  1.0000
  S   S35       1.0  0.17412  0.67002  0.40157  1.0000
  H   H132      1.0  0.30202  0.76393  0.27949  1.0000
  H   H133      1.0  0.42394  0.74773  0.17173  1.0000
  S   S36       1.0  0.42884  0.78446  0.24967  1.0000
  C   C112      1.0  0.28370  0.72048  0.18351  1.0000
  H   H134      1.0  0.34615  0.69983  0.49073  1.0000
  H   H135      1.0  0.35865  0.80836  0.49055  1.0000
  H   H136      1.0  0.28748  0.79152  0.45825  1.0000
  C   C113      1.0  0.38877  0.67685  0.52326  1.0000
  H   H137      1.0  0.43695  0.73634  0.30659  1.0000
  C   C114      1.0  0.27642  0.73240  0.22270  1.0000
  H   H138      1.0  0.26351  0.70309  0.16184  1.0000
  C   C115      1.0  0.23793  0.75272  0.24936  1.0000
  H   H139      1.0  0.21904  0.71824  0.17401  1.0000
  C   C116      1.0  0.22814  0.67099  0.53067  1.0000
  C   C117      1.0  0.24626  0.70850  0.39453  1.0000
  H   H140      1.0  0.36112  0.78284  0.25547  1.0000
  C   C118      1.0  0.33751  0.67081  0.25286  1.0000
  C   C119      1.0  0.23189  0.69871  0.27541  1.0000
  H   H141      1.0  0.27261  0.80056  0.50848  1.0000
  C   C120      1.0  0.33641  0.78123  0.49161  1.0000
  H   H142      1.0  0.21259  0.67761  0.19543  1.0000
  H   H143      1.0  0.31213  0.70838  0.32950  1.0000
  H   H144      1.0  0.44082  0.68340  0.29060  1.0000
  H   H145      1.0  0.42684  0.69433  0.15593  1.0000
  H   H146      1.0  0.18723  0.69527  0.21527  1.0000
  H   H147      1.0  0.32931  0.77205  0.45784  1.0000
  C   C121      1.0  0.21388  0.70255  0.20395  1.0000
  H   H148      1.0  0.38331  0.65988  0.41922  1.0000
  H   H149      1.0  0.25406  0.76663  0.27771  1.0000
  H   H150      1.0  0.24637  0.77172  0.22226  1.0000
  H   H151      1.0  0.35984  0.67804  0.23230  1.0000
  C   C122      1.0  0.32690  0.67321  0.47967  1.0000
  H   H152      1.0  0.19562  0.68254  0.49134  1.0000
  N   N8        1.0  0.34373  0.65335  0.46478  1.0000
  C   C123      1.0  0.27924  0.74221  0.52049  1.0000
  C   C124      1.0  0.41575  0.92434  0.53062  1.0000
  C   C125      1.0  0.28114  0.65598  0.30662  1.0000
  H   H153      1.0  0.30868  0.65955  0.50701  1.0000
  H   H154      1.0  0.25914  0.65032  0.32727  1.0000
  H   H155      1.0  0.43698  0.92775  0.46693  1.0000
  C   C126      1.0  0.44255  0.93269  0.50107  1.0000
  C   C127      1.0  0.22085  0.69294  0.50647  1.0000
  H   H156      1.0  0.38925  0.91281  0.51927  1.0000
  S   S37       1.0  0.43806  0.64796  0.21200  1.0000
  H   H157      1.0  0.33179  0.64929  0.16818  1.0000
  C   C128      1.0  0.36164  0.64788  0.50156  1.0000
  N   N9        1.0  0.38232  0.71212  0.93781  1.0000
  Fe  Fe20      1.0  0.40864  0.86858  0.78342  1.0000
  S   S38       1.0  0.36313  0.84646  0.73880  1.0000
  H   H158      1.0  0.34601  0.72193  0.90244  1.0000
  Fe  Fe21      1.0  0.41344  0.80199  0.77665  1.0000
  S   S39       1.0  0.36926  0.77653  0.73004  1.0000
  S   S40       1.0  0.43243  0.76807  0.80613  1.0000
  Fe  Fe22      1.0  0.39401  0.82938  0.69911  1.0000
  S   S41       1.0  0.39884  0.84688  0.63024  1.0000
  Fe  Fe23      1.0  0.34312  0.79620  0.77476  1.0000
  S   S42       1.0  0.28626  0.76168  0.79205  1.0000
  S   S43       1.0  0.44092  0.85386  0.74196  1.0000
  S   S44       1.0  0.38604  0.81935  0.82295  1.0000
  C   C129      1.0  0.43505  0.73854  0.77041  1.0000
  C   C130      1.0  0.31064  0.68641  0.80529  1.0000
  H   H159      1.0  0.24727  0.81307  0.84485  1.0000
  C   C131      1.0  0.44239  0.69209  0.71526  1.0000
  H   H160      1.0  0.32761  0.71696  0.97245  1.0000
  H   H161      1.0  0.44637  0.77101  0.71421  1.0000
  C   C132      1.0  0.31866  0.79517  0.55877  1.0000
  H   H162      1.0  0.33179  0.78346  0.57689  1.0000
  H   H163      1.0  0.34334  0.89045  0.92838  1.0000
  H   H164      1.0  0.26340  0.64900  0.91884  1.0000
  C   C133      1.0  0.40880  0.82544  0.59006  1.0000
  C   C134      1.0  0.39872  0.79018  0.59354  1.0000
  H   H165      1.0  0.38691  0.77614  0.62307  1.0000
  C   C135      1.0  0.25455  0.71549  0.92789  1.0000
  C   C136      1.0  0.23083  0.70176  0.89405  1.0000
  C   C137      1.0  0.24088  0.71589  0.85231  1.0000
  C   C138      1.0  0.27488  0.74305  0.84405  1.0000
  C   C139      1.0  0.29888  0.75566  0.87763  1.0000
  C   C140      1.0  0.28860  0.74231  0.91945  1.0000
  H   H166      1.0  0.20438  0.68137  0.90038  1.0000
  H   H167      1.0  0.22213  0.70604  0.82648  1.0000
  H   H168      1.0  0.32499  0.77660  0.87189  1.0000
  H   H169      1.0  0.30677  0.75367  0.94566  1.0000
  H   H170      1.0  0.42722  0.71948  0.90126  1.0000
  H   H171      1.0  0.41486  0.74939  0.98516  1.0000
  C   C141      1.0  0.32952  0.69514  0.98444  1.0000
  N   N10       1.0  0.31252  0.86058  0.87410  1.0000
  C   C142      1.0  0.30125  0.88627  0.86532  1.0000
  C   C143      1.0  0.34591  0.87871  0.89790  1.0000
  C   C144      1.0  0.31979  0.84902  0.83244  1.0000
  C   C145      1.0  0.28453  0.83047  0.89774  1.0000
  C   C146      1.0  0.28815  0.82229  0.94106  1.0000
  C   C147      1.0  0.25203  0.80868  0.87772  1.0000
  C   C148      1.0  0.26093  0.79387  0.96247  1.0000
  C   C149      1.0  0.22511  0.78028  0.89940  1.0000
  H   H172      1.0  0.42517  0.69516  0.57589  1.0000
  H   H173      1.0  0.29492  0.89520  0.89582  1.0000
  H   H174      1.0  0.32190  0.90963  0.84813  1.0000
  H   H175      1.0  0.27770  0.87522  0.84474  1.0000
  H   H176      1.0  0.36670  0.90055  0.87868  1.0000
  H   H177      1.0  0.35588  0.86069  0.90515  1.0000
  H   H178      1.0  0.29764  0.83891  0.80971  1.0000
  H   H179      1.0  0.34236  0.87067  0.81529  1.0000
  H   H180      1.0  0.32574  0.82779  0.83754  1.0000
  H   H181      1.0  0.31182  0.83706  0.95900  1.0000
  C   C150      1.0  0.30402  0.67287  0.01379  1.0000
  C   C151      1.0  0.40162  0.74826  0.95433  1.0000
  H   H182      1.0  0.42434  0.70040  0.81999  1.0000
  C   C152      1.0  0.35649  0.68902  0.97040  1.0000
  S   S45       1.0  0.42097  0.92128  0.81020  1.0000
  H   H183      1.0  0.31075  0.72762  0.55972  1.0000
  H   H184      1.0  0.38282  0.72825  0.87198  1.0000
  C   C153      1.0  0.43339  0.68342  0.75862  1.0000
  S   S46       1.0  0.24221  0.70233  0.98172  1.0000
  N   N11       1.0  0.46619  0.95248  0.63672  1.0000
  H   H185      1.0  0.43255  0.87084  0.54936  1.0000
  C   C154      1.0  0.36418  0.71182  0.89770  1.0000
  C   C155      1.0  0.42286  0.93027  0.57470  1.0000
  H   H186      1.0  0.31062  0.71011  0.79665  1.0000
  C   C156      1.0  0.35674  0.65975  0.98856  1.0000
  H   H187      1.0  0.20091  0.76335  0.88304  1.0000
  H   H188      1.0  0.28346  0.67791  0.02359  1.0000
  H   H189      1.0  0.42189  0.76609  0.93089  1.0000
  C   C157      1.0  0.40205  0.77263  0.55768  1.0000
  H   H190      1.0  0.34907  0.68500  0.88471  1.0000
  C   C158      1.0  0.22954  0.77293  0.94170  1.0000
  H   H191      1.0  0.38437  0.75930  0.96025  1.0000
  C   C159      1.0  0.43546  0.94237  0.66507  1.0000
  C   C160      1.0  0.45759  0.96084  0.79287  1.0000
  S   S47       1.0  0.44882  0.66397  0.68112  1.0000
  C   C161      1.0  0.40833  0.70170  0.92597  1.0000
  H   H192      1.0  0.26745  0.66946  0.84784  1.0000
  H   H193      1.0  0.26439  0.78724  0.99500  1.0000
  H   H194      1.0  0.35483  0.69815  0.76496  1.0000
  H   H195      1.0  0.45379  0.73051  0.66581  1.0000
  C   C162      1.0  0.43035  0.70686  0.78628  1.0000
  H   H196      1.0  0.42395  0.70228  0.95427  1.0000
  H   H197      1.0  0.33828  0.82343  0.55647  1.0000
  H   H198      1.0  0.29660  0.79234  0.57897  1.0000
  H   H199      1.0  0.41670  0.91390  0.66342  1.0000
  C   C163      1.0  0.33548  0.67968  0.78728  1.0000
  C   C164      1.0  0.26060  0.68391  0.54960  1.0000
  C   C165      1.0  0.42412  0.84348  0.55190  1.0000
  H   H200      1.0  0.39566  0.67512  0.91180  1.0000
  H   H201      1.0  0.26607  0.66644  0.56805  1.0000
  H   H202      1.0  0.42182  0.95682  0.65663  1.0000
  Fe  Fe24      1.0  0.19451  0.65099  0.99966  1.0000
  H   H203      1.0  0.37658  0.65344  0.98088  1.0000
  H   H204      1.0  0.39259  0.74500  0.55971  1.0000
  C   C166      1.0  0.40505  0.67257  0.55926  1.0000
  H   H205      1.0  0.42978  0.65909  0.77116  1.0000
  C   C167      1.0  0.28588  0.71894  0.54461  1.0000
  C   C168      1.0  0.45745  0.94526  0.59041  1.0000
  C   C169      1.0  0.28583  0.66280  0.83433  1.0000
  H   H206      1.0  0.20898  0.75027  0.95804  1.0000
  H   H207      1.0  0.40077  0.92236  0.59583  1.0000
  C   C170      1.0  0.44271  0.74662  0.72668  1.0000
  C   C171      1.0  0.44699  0.72371  0.69934  1.0000
  H   H208      1.0  0.44290  0.94810  0.69959  1.0000
  H   H209      1.0  0.46661  0.90463  0.64560  1.0000
  C   C172      1.0  0.33542  0.64917  0.79801  1.0000
  H   H210      1.0  0.56787  0.26525  0.16509  1.0000
  Fe  Fe25      1.0  0.55767  0.19803  0.30313  1.0000
  S   S48       1.0  0.57644  0.16070  0.28794  1.0000
  H   H211      1.0  0.52428  0.25683  0.29126  1.0000
  Fe  Fe26      1.0  0.55219  0.17953  0.39835  1.0000
  S   S49       1.0  0.57111  0.14143  0.39019  1.0000
  S   S50       1.0  0.53647  0.18864  0.46419  1.0000
  Fe  Fe27      1.0  0.61019  0.18242  0.34565  1.0000
  S   S51       1.0  0.66486  0.19255  0.33837  1.0000
  Fe  Fe28      1.0  0.53553  0.12253  0.33312  1.0000
  H   H212      1.0  0.64258  0.08537  0.27440  1.0000
  S   S52       1.0  0.59455  0.22229  0.35847  1.0000
  H   H213      1.0  0.60446  0.08582  0.40118  1.0000
  C   C173      1.0  0.49651  0.02775  0.33358  1.0000
  H   H214      1.0  0.62301  0.21682  0.21701  1.0000
  C   C174      1.0  0.69811  0.22899  0.36491  1.0000
  C   C175      1.0  0.69617  0.25914  0.37268  1.0000
  C   C176      1.0  0.72427  0.28832  0.39209  1.0000
  C   C177      1.0  0.75358  0.28670  0.40538  1.0000
  C   C178      1.0  0.72778  0.22794  0.37724  1.0000
  H   H215      1.0  0.67329  0.26012  0.36351  1.0000
  H   H216      1.0  0.72068  0.26131  0.21144  1.0000
  H   H217      1.0  0.72954  0.20484  0.37126  1.0000
  H   H218      1.0  0.66472  0.12162  0.30987  1.0000
  H   H219      1.0  0.58606  0.03761  0.26537  1.0000
  N   N12       1.0  0.61674  0.07970  0.33556  1.0000
  H   H220      1.0  0.50894  0.30190  0.27110  1.0000
  H   H221      1.0  0.61720  0.25660  0.18023  1.0000
  H   H222      1.0  0.60957  0.12283  0.31915  1.0000
  H   H223      1.0  0.60822  0.20359  0.47036  1.0000
  C   C179      1.0  0.58266  0.02348  0.29500  1.0000
  C   C180      1.0  0.54769  0.25832  0.22976  1.0000
  C   C181      1.0  0.53079  0.26860  0.25956  1.0000
  H   H224      1.0  0.72677  0.29788  0.24381  1.0000
  S   S53       1.0  0.51352  0.15807  0.34387  1.0000
  C   C182      1.0  0.75500  0.25633  0.39824  1.0000
  S   S54       1.0  0.50383  0.06684  0.30833  1.0000
  C   C183      1.0  0.59669  0.19793  0.50225  1.0000
  C   C184      1.0  0.59677  0.04115  0.33440  1.0000
  H   H225      1.0  0.51493  0.99609  0.42356  1.0000
  H   H226      1.0  0.65842  0.21483  0.19128  1.0000
  C   C185      1.0  0.67365  0.28062  0.18358  1.0000
  H   H227      1.0  0.77747  0.25488  0.40861  1.0000
  H   H228      1.0  0.73706  0.29425  0.50762  1.0000
  H   H229      1.0  0.69134  0.27062  0.51664  1.0000
  H   H230      1.0  0.65888  0.26197  0.29054  1.0000
  H   H231      1.0  0.60859  0.29907  0.51726  1.0000
  H   H232      1.0  0.64163  0.12325  0.37940  1.0000
  H   H233      1.0  0.55334  0.24714  0.53304  1.0000
  H   H234      1.0  0.65251  0.21066  0.24883  1.0000
  C   C186      1.0  0.59545  0.09394  0.31797  1.0000
  C   C187      1.0  0.70879  0.26980  0.23692  1.0000
  C   C188      1.0  0.62747  0.09420  0.37961  1.0000
  C   C189      1.0  0.64184  0.27450  0.16531  1.0000
  H   H235      1.0  0.55351  0.31045  0.14551  1.0000
  C   C190      1.0  0.65098  0.22477  0.21996  1.0000
  C   C191      1.0  0.59089  0.02010  0.37158  1.0000
  S   S55       1.0  0.56115  0.22792  0.24201  1.0000
  C   C192      1.0  0.55567  0.27364  0.18867  1.0000
  H   H236      1.0  0.73002  0.31092  0.17276  1.0000
  H   H237      1.0  0.60018  0.03096  0.40306  1.0000
  C   C193      1.0  0.50424  0.99595  0.39233  1.0000
  C   C194      1.0  0.50976  0.02751  0.37430  1.0000
  H   H238      1.0  0.63715  0.30310  0.37458  1.0000
  H   H239      1.0  0.57096  0.08432  0.33674  1.0000
  H   H240      1.0  0.66502  0.08182  0.32034  1.0000
  H   H241      1.0  0.58796  0.08682  0.28385  1.0000
  H   H242      1.0  0.63348  0.27020  0.25334  1.0000
  H   H243      1.0  0.52422  0.05157  0.39191  1.0000
  C   C195      1.0  0.71626  0.29120  0.53057  1.0000
  C   C196      1.0  0.64864  0.09263  0.30884  1.0000
  H   H244      1.0  0.59054  0.28741  0.32094  1.0000
  H   H245      1.0  0.72293  0.31165  0.39755  1.0000
  N   N13       1.0  0.67372  0.26304  0.22416  1.0000
  H   H246      1.0  0.64542  0.08647  0.39422  1.0000
  H   H247      1.0  0.67703  0.30386  0.26469  1.0000
  C   C197      1.0  0.52219  0.29419  0.24807  1.0000
  C   C198      1.0  0.54751  0.29936  0.17745  1.0000
  C   C199      1.0  0.47726  0.99605  0.31157  1.0000
  C   C200      1.0  0.61583  0.31047  0.31613  1.0000
  H   H248      1.0  0.48100  0.23532  0.50411  1.0000
  H   H249      1.0  0.70774  0.25553  0.26703  1.0000
  C   C201      1.0  0.56177  0.18855  0.50769  1.0000
  C   C202      1.0  0.57154  0.98377  0.36924  1.0000
  C   C203      1.0  0.56309  0.98717  0.29319  1.0000
  C   C204      1.0  0.66022  0.27535  0.25968  1.0000
  C   C205      1.0  0.64116  0.29148  0.12763  1.0000
  H   H250      1.0  0.61652  0.28626  0.11422  1.0000
  C   C206      1.0  0.53065  0.30975  0.20696  1.0000
  H   H251      1.0  0.49841  0.20898  0.52262  1.0000
  C   C207      1.0  0.70464  0.30483  0.16176  1.0000
  C   C208      1.0  0.48195  0.22022  0.53218  1.0000
  C   C209      1.0  0.58805  0.30161  0.53276  1.0000
  H   H252      1.0  0.64386  0.20772  0.53409  1.0000
  H   H253      1.0  0.51577  0.99953  0.62639  1.0000
  Fe  Fe29      1.0  0.56197  0.11937  0.74893  1.0000
  S   S56       1.0  0.61836  0.16121  0.74277  1.0000
  S   S57       1.0  0.55442  0.06462  0.75473  1.0000
  Fe  Fe30      1.0  0.53877  0.17373  0.73957  1.0000
  S   S58       1.0  0.59287  0.21854  0.73247  1.0000
  S   S59       1.0  0.49279  0.18207  0.74098  1.0000
  Fe  Fe31      1.0  0.60013  0.18208  0.68899  1.0000
  S   S60       1.0  0.62860  0.19955  0.62520  1.0000
  Fe  Fe32      1.0  0.60539  0.19336  0.78681  1.0000
  S   S61       1.0  0.62828  0.22186  0.84950  1.0000
  S   S62       1.0  0.54485  0.13856  0.69237  1.0000
  S   S63       1.0  0.55023  0.15023  0.79671  1.0000
  H   H254      1.0  0.58064  0.24572  0.83403  1.0000
  C   C210      1.0  0.51632  0.02513  0.76877  1.0000
  C   C211      1.0  0.62143  0.30202  0.94368  1.0000
  C   C212      1.0  0.56737  0.18430  0.58517  1.0000
  C   C213      1.0  0.60237  0.19406  0.58001  1.0000
  H   H255      1.0  0.55590  0.17942  0.61695  1.0000
  C   C214      1.0  0.49975  0.28488  0.70177  1.0000
  H   H256      1.0  0.66419  0.26559  0.58111  1.0000
  H   H257      1.0  0.48627  0.04836  0.78970  1.0000
  C   C215      1.0  0.49677  0.22235  0.72675  1.0000
  C   C216      1.0  0.52902  0.25239  0.71914  1.0000
  C   C217      1.0  0.52928  0.28187  0.83976  1.0000
  H   H258      1.0  0.71976  0.29685  0.94982  1.0000
  H   H259      1.0  0.55269  0.25141  0.72197  1.0000
  C   C218      1.0  0.74168  0.28921  0.89172  1.0000
  C   C219      1.0  0.71430  0.28481  0.91838  1.0000
  C   C220      1.0  0.67974  0.26369  0.90496  1.0000
  C   C221      1.0  0.67225  0.24751  0.86447  1.0000
  C   C222      1.0  0.69959  0.25214  0.83754  1.0000
  C   C223      1.0  0.73419  0.27271  0.85134  1.0000
  H   H260      1.0  0.62560  0.10122  0.78802  1.0000
  H   H261      1.0  0.65866  0.25940  0.92633  1.0000
  H   H262      1.0  0.69414  0.23968  0.80633  1.0000
  C   C224      1.0  0.60186  0.12275  0.85466  1.0000
  N   N14       1.0  0.56258  0.28223  0.84635  1.0000
  C   C225      1.0  0.68511  0.13260  0.95601  1.0000
  H   H263      1.0  0.50902  0.23814  0.63580  1.0000
  H   H264      1.0  0.67323  0.28546  0.77956  1.0000
  H   H265      1.0  0.54300  0.23709  0.80483  1.0000
  C   C226      1.0  0.48663  0.02432  0.78556  1.0000
  C   C227      1.0  0.53052  0.28373  0.70687  1.0000
  C   C228      1.0  0.57566  0.31360  0.96334  1.0000
  H   H266      1.0  0.49631  0.99708  0.67754  1.0000
  H   H267      1.0  0.52021  0.21572  0.59733  1.0000
  C   C229      1.0  0.64455  0.11576  0.81410  1.0000
  H   H268      1.0  0.71455  0.21377  0.91568  1.0000
  H   H269      1.0  0.68962  0.11961  0.98269  1.0000
  H   H270      1.0  0.51910  0.27353  0.80652  1.0000
  H   H271      1.0  0.72097  0.28145  0.56141  1.0000
  C   C230      1.0  0.60679  0.07190  0.86432  1.0000
  N   N15       1.0  0.49491  0.24239  0.57124  1.0000
  H   H272      1.0  0.53929  0.99401  0.75111  1.0000
  H   H273      1.0  0.58708  0.05829  0.83857  1.0000
  H   H274      1.0  0.62006  0.26294  0.62927  1.0000
  H   H275      1.0  0.53800  0.30494  0.91645  1.0000
  H   H276      1.0  0.62380  0.06013  0.86414  1.0000
  H   H277      1.0  0.53952  0.22767  0.86137  1.0000
  H   H278      1.0  0.58986  0.12116  0.88679  1.0000
  H   H279      1.0  0.47341  0.26337  0.61714  1.0000
  H   H280      1.0  0.61407  0.15022  0.84372  1.0000
  H   H281      1.0  0.72445  0.18378  0.97626  1.0000
  C   C231      1.0  0.67395  0.16643  0.88753  1.0000
  C   C232      1.0  0.50007  0.22253  0.60589  1.0000
  H   H282      1.0  0.65839  0.14360  0.80431  1.0000
  C   C233      1.0  0.55625  0.24679  0.83631  1.0000
  C   C234      1.0  0.54708  0.18107  0.54909  1.0000
  H   H283      1.0  0.51982  0.17261  0.55323  1.0000
  C   C235      1.0  0.56114  0.30341  0.92234  1.0000
  H   H284      1.0  0.61316  0.30710  0.81579  1.0000
  C   C236      1.0  0.66458  0.28970  0.58726  1.0000
  H   H285      1.0  0.59213  0.06563  0.89533  1.0000
  C   C237      1.0  0.53556  0.30807  0.57429  1.0000
  C   C238      1.0  0.65974  0.11313  0.92532  1.0000
  H   H286      1.0  0.57858  0.30151  0.78153  1.0000
  C   C239      1.0  0.69919  0.18561  0.91835  1.0000
  C   C240      1.0  0.65340  0.12960  0.89002  1.0000
  C   C241      1.0  0.70477  0.16873  0.95251  1.0000
  H   H287      1.0  0.64550  0.08529  0.92998  1.0000
  C   C242      1.0  0.49035  0.99030  0.64286  1.0000
  C   C243      1.0  0.63895  0.28784  0.61540  1.0000
  H   H288      1.0  0.66409  0.10704  0.81446  1.0000
  H   H289      1.0  0.53246  0.30820  0.84392  1.0000
  C   C244      1.0  0.57658  0.29224  0.89052  1.0000
  H   H290      1.0  0.55529  0.30652  0.69998  1.0000
  H   H291      1.0  0.50869  0.26339  0.86228  1.0000
  H   H292      1.0  0.58043  0.10728  0.83167  1.0000
  N   N16       1.0  0.62705  0.11008  0.85662  1.0000
  H   H293      1.0  0.67064  0.18075  0.86163  1.0000
  C   C245      1.0  0.51636  0.99364  0.76379  1.0000
  H   H294      1.0  0.75532  0.27588  0.83070  1.0000
  H   H295      1.0  0.51688  0.31256  0.59127  1.0000
  C   C246      1.0  0.52854  0.27426  0.56203  1.0000
  C   C247      1.0  0.60723  0.29184  0.90250  1.0000
  C   C248      1.0  0.55612  0.27194  0.54185  1.0000
  C   C249      1.0  0.58831  0.30735  0.81517  1.0000
  H   H296      1.0  0.62046  0.28368  0.88003  1.0000
  H   H297      1.0  0.64474  0.30146  0.95225  1.0000
  H   H298      1.0  0.47570  0.19789  0.61382  1.0000
  C   C250      1.0  0.60579  0.31309  0.97393  1.0000
  H   H299      1.0  0.65214  0.30892  0.72228  1.0000
  H   H300      1.0  0.47901  0.00591  0.63014  1.0000
  C   C251      1.0  0.61691  0.20056  0.53838  1.0000
  S   S64       1.0  0.78534  0.31375  0.90843  1.0000
  C   C252      1.0  0.67736  0.31166  0.78226  1.0000
  Fe  Fe33      1.0  0.80591  0.37186  0.05935  1.0000
  S   S65       1.0  0.79596  0.34995  0.12713  1.0000
  Fe  Fe34      1.0  0.54443  0.37425  0.13266  1.0000
  S   S66       1.0  0.58546  0.42888  0.14781  1.0000
  Fe  Fe35      1.0  0.61638  0.42096  0.09666  1.0000
  S   S67       1.0  0.66929  0.43234  0.11677  1.0000
  Fe  Fe36      1.0  0.56326  0.44580  0.09454  1.0000
  C   C253      1.0  0.62207  0.33111  0.27946  1.0000
  S   S68       1.0  0.57660  0.36542  0.08374  1.0000
  Fe  Fe37      1.0  0.79990  0.42429  0.35133  1.0000
  S   S69       1.0  0.83652  0.40341  0.35511  1.0000
  S   S70       1.0  0.77937  0.43009  0.28697  1.0000
  Fe  Fe38      1.0  0.80220  0.43768  0.44904  1.0000
  S   S71       1.0  0.83974  0.41832  0.45894  1.0000
  H   H301      1.0  0.95288  0.43836  0.15349  1.0000
  Fe  Fe39      1.0  0.86798  0.44828  0.39959  1.0000
  S   S72       1.0  0.92532  0.48860  0.38888  1.0000
  Fe  Fe40      1.0  0.80478  0.37567  0.41388  1.0000
  H   H302      1.0  0.69503  0.35533  0.36296  1.0000
  S   S73       1.0  0.83286  0.47104  0.39257  1.0000
  S   S74       1.0  0.76573  0.39314  0.40716  1.0000
  H   H303      1.0  0.85994  0.45709  0.17599  1.0000
  H   H304      1.0  0.60109  0.32317  0.25685  1.0000
  H   H305      1.0  0.93503  0.50874  0.11977  1.0000
  H   H306      1.0  0.96182  0.47421  0.21246  1.0000
  C   C254      1.0  0.91489  0.48158  0.11171  1.0000
  H   H307      1.0  0.93918  0.43970  0.43673  1.0000
  S   S75       1.0  0.51913  0.39176  0.08327  1.0000
  C   C255      1.0  0.54020  0.45656  0.22525  1.0000
  H   H308      1.0  0.49581  0.55839  0.10670  1.0000
  C   C256      1.0  0.65772  0.36030  0.19414  1.0000
  H   H309      1.0  0.86106  0.50292  0.48108  1.0000
  C   C257      1.0  0.88849  0.42060  0.13007  1.0000
  H   H310      1.0  0.95095  0.48627  0.28575  1.0000
  S   S76       1.0  0.56026  0.49527  0.10050  1.0000
  S   S77       1.0  0.51988  0.34196  0.19303  1.0000
  H   H311      1.0  0.72878  0.33632  0.46968  1.0000
  C   C258      1.0  0.50811  0.49798  0.21390  1.0000
  H   H312      1.0  0.48770  0.44381  0.08226  1.0000
  C   C259      1.0  0.79278  0.37370  0.17081  1.0000
  C   C260      1.0  0.78717  0.40173  0.16458  1.0000
  C   C261      1.0  0.78303  0.41887  0.20038  1.0000
  C   C262      1.0  0.78478  0.40828  0.24252  1.0000
  C   C263      1.0  0.79036  0.38025  0.24859  1.0000
  C   C264      1.0  0.79427  0.36301  0.21288  1.0000
  H   H313      1.0  0.78563  0.40996  0.13226  1.0000
  H   H314      1.0  0.77877  0.44059  0.19537  1.0000
  H   H315      1.0  0.79127  0.37152  0.28079  1.0000
  H   H316      1.0  0.66523  0.41577  0.49681  1.0000
  H   H317      1.0  0.54701  0.47249  0.25509  1.0000
  H   H318      1.0  0.88773  0.40080  0.15272  1.0000
  C   C265      1.0  0.69647  0.43364  0.07485  1.0000
  N   N17       1.0  0.50209  0.43772  0.21757  1.0000
  C   C266      1.0  0.90051  0.47888  0.27211  1.0000
  N   N18       1.0  0.66076  0.38201  0.23199  1.0000
  H   H319      1.0  0.67688  0.35115  0.19592  1.0000
  C   C267      1.0  0.63430  0.39302  0.22855  1.0000
  H   H320      1.0  0.69980  0.43160  0.25747  1.0000
  C   C268      1.0  0.65479  0.36128  0.27177  1.0000
  H   H321      1.0  0.55030  0.43823  0.22917  1.0000
  C   C269      1.0  0.68100  0.36944  0.30309  1.0000
  H   H322      1.0  0.72915  0.42434  0.11745  1.0000
  C   C270      1.0  0.52189  0.49792  0.09700  1.0000
  N   N19       1.0  0.91654  0.45619  0.14131  1.0000
  C   C271      1.0  0.49574  0.41659  0.17815  1.0000
  H   H323      1.0  0.54890  0.55308  0.10965  1.0000
  H   H324      1.0  0.91926  0.47696  0.07753  1.0000
  H   H325      1.0  0.63957  0.41072  0.20056  1.0000
  H   H326      1.0  0.63391  0.40710  0.25803  1.0000
  H   H327      1.0  0.60757  0.37077  0.22352  1.0000
  C   C272      1.0  0.72475  0.42922  0.08458  1.0000
  H   H328      1.0  0.72272  0.42693  0.46988  1.0000
  H   H329      1.0  0.89608  0.48437  0.30484  1.0000
  C   C273      1.0  0.74774  0.43159  0.05192  1.0000
  H   H330      1.0  0.70674  0.39183  0.30018  1.0000
  C   C274      1.0  0.88961  0.51461  0.48551  1.0000
  H   H331      1.0  0.63132  0.33709  0.19136  1.0000
  C   C275      1.0  0.95028  0.45764  0.13334  1.0000
  C   C276      1.0  0.93145  0.47990  0.26111  1.0000
  C   C277      1.0  0.74836  0.44632  0.53055  1.0000
  C   C278      1.0  0.64204  0.31919  0.34621  1.0000
  C   C279      1.0  0.67456  0.34857  0.33964  1.0000
  H   H332      1.0  0.71682  0.40749  0.22958  1.0000
  H   H333      1.0  0.50824  0.43368  0.14976  1.0000
  H   H334      1.0  0.66280  0.37507  0.16343  1.0000
  C   C280      1.0  0.52400  0.53032  0.10297  1.0000
  C   C281      1.0  0.69560  0.41390  0.22990  1.0000
  C   C282      1.0  0.48508  0.41386  0.25457  1.0000
  H   H335      1.0  0.71266  0.36160  0.49515  1.0000
  H   H336      1.0  0.90251  0.54134  0.47159  1.0000
  H   H337      1.0  0.89183  0.41307  0.09686  1.0000
  H   H338      1.0  0.69913  0.42918  0.19989  1.0000
  C   C283      1.0  0.91171  0.46415  0.18633  1.0000
  S   S78       1.0  0.83757  0.42913  0.04665  1.0000
  C   C284      1.0  0.87520  0.47082  0.24102  1.0000
  H   H339      1.0  0.55478  0.47380  0.19746  1.0000
  C   C285      1.0  0.68712  0.42604  0.51850  1.0000
  C   C286      1.0  0.49399  0.53345  0.10120  1.0000
  C   C287      1.0  0.96368  0.46280  0.42920  1.0000
  C   C288      1.0  0.88055  0.46345  0.19881  1.0000
  C   C289      1.0  0.48966  0.46877  0.08789  1.0000
  H   H340      1.0  0.89747  0.49899  0.46540  1.0000
  H   H341      1.0  0.50652  0.39878  0.18092  1.0000
  H   H342      1.0  0.86233  0.41805  0.13097  1.0000
  S   S79       1.0  0.79004  0.45528  0.51260  1.0000
  H   H343      1.0  0.88919  0.48013  0.11266  1.0000
  H   H344      1.0  0.79844  0.34124  0.21790  1.0000
  C   C290      1.0  0.70371  0.32197  0.12438  1.0000
  H   H345      1.0  0.85120  0.47015  0.24981  1.0000
  C   C291      1.0  0.93723  0.47278  0.21883  1.0000
  C   C292      1.0  0.71968  0.43230  0.50313  1.0000
  H   H346      1.0  0.76973  0.42852  0.05969  1.0000
  C   C293      1.0  0.70987  0.33525  0.49423  1.0000
  C   C294      1.0  0.96401  0.48995  0.40594  1.0000
  H   H347      1.0  0.49620  0.39650  0.25997  1.0000
  H   H348      1.0  0.77214  0.35216  0.52958  1.0000
  H   H349      1.0  0.48829  0.42872  0.28475  1.0000
  H   H350      1.0  0.72779  0.34044  0.10837  1.0000
  S   S80       1.0  0.59882  0.44345  0.04443  1.0000
  H   H351      1.0  0.95279  0.45131  0.09919  1.0000
  H   H352      1.0  0.94468  0.49896  0.49289  1.0000
  H   H353      1.0  0.67167  0.32888  0.07845  1.0000
  H   H354      1.0  0.53592  0.51131  0.21821  1.0000
  N   N20       1.0  0.89875  0.51512  0.53150  1.0000
  S   S81       1.0  0.78776  0.32084  0.43389  1.0000
  C   C295      1.0  0.95695  0.52142  0.51373  1.0000
  C   C296      1.0  0.67208  0.31537  0.10736  1.0000
  H   H355      1.0  0.89295  0.46374  0.52755  1.0000
  C   C297      1.0  0.48743  0.46104  0.21225  1.0000
  H   H356      1.0  0.50956  0.54722  0.20910  1.0000
  C   C298      1.0  0.49328  0.51911  0.20870  1.0000
  H   H357      1.0  0.68326  0.31663  0.48253  1.0000
  C   C299      1.0  0.93707  0.53356  0.53600  1.0000
  N   N21       1.0  0.71620  0.32442  0.53680  1.0000
  H   H358      1.0  0.75291  0.36537  0.86994  1.0000
  S   S82       1.0  0.76693  0.36088  0.00698  1.0000
  C   C300      1.0  0.68776  0.37896  0.78934  1.0000
  C   C301      1.0  0.57153  0.46930  0.88963  1.0000
  C   C302      1.0  0.74399  0.45349  0.57358  1.0000
  C   C303      1.0  0.74304  0.43933  0.00970  1.0000
  Fe  Fe41      1.0  0.80263  0.35303  0.96302  1.0000
  S   S83       1.0  0.83593  0.40913  0.94383  1.0000
  H   H359      1.0  0.67293  0.36706  0.89920  1.0000
  Fe  Fe42      1.0  0.86895  0.41545  0.00182  1.0000
  S   S84       1.0  0.49955  0.32200  0.68209  1.0000
  S   S85       1.0  0.53508  0.36722  0.96981  1.0000
  Fe  Fe43      1.0  0.60945  0.41954  0.74290  1.0000
  S   S86       1.0  0.55508  0.41053  0.74217  1.0000
  S   S87       1.0  0.63509  0.42023  0.80630  1.0000
  Fe  Fe44      1.0  0.61688  0.42441  0.64413  1.0000
  S   S88       1.0  0.56250  0.41572  0.63711  1.0000
  S   S89       1.0  0.64095  0.42464  0.57865  1.0000
  Fe  Fe45      1.0  0.57468  0.45284  0.69226  1.0000
  S   S90       1.0  0.56502  0.49889  0.69685  1.0000
  Fe  Fe46      1.0  0.54804  0.37441  0.68757  1.0000
  H   H360      1.0  0.66902  0.44337  0.02472  1.0000
  S   S91       1.0  0.63040  0.46466  0.69617  1.0000
  S   S92       1.0  0.60102  0.38045  0.69135  1.0000
  C   C304      1.0  0.52398  0.49626  0.70224  1.0000
  C   C305      1.0  0.49487  0.54044  0.60943  1.0000
  C   C306      1.0  0.50382  0.62360  0.69042  1.0000
  H   H361      1.0  0.58104  0.62265  0.64082  1.0000
  H   H362      1.0  0.71251  0.38593  0.92963  1.0000
  H   H363      1.0  0.55753  0.53819  0.96381  1.0000
  C   C307      1.0  0.52264  0.52627  0.71374  1.0000
  C   C308      1.0  0.68273  0.43334  0.56147  1.0000
  H   H364      1.0  0.70504  0.37673  0.56535  1.0000
  C   C309      1.0  0.49394  0.57018  0.62223  1.0000
  H   H365      1.0  0.56355  0.32228  0.98696  1.0000
  H   H366      1.0  0.54519  0.51293  0.01196  1.0000
  C   C310      1.0  0.56366  0.38232  0.92521  1.0000
  C   C311      1.0  0.54970  0.37343  0.88375  1.0000
  C   C312      1.0  0.57150  0.38457  0.84734  1.0000
  C   C313      1.0  0.60750  0.40513  0.85198  1.0000
  C   C314      1.0  0.62162  0.41365  0.89356  1.0000
  C   C315      1.0  0.59974  0.40235  0.93015  1.0000
  H   H367      1.0  0.52183  0.35777  0.87975  1.0000
  H   H368      1.0  0.56035  0.37690  0.81570  1.0000
  H   H369      1.0  0.64947  0.42936  0.89751  1.0000
  H   H370      1.0  0.61083  0.40895  0.96205  1.0000
  C   C316      1.0  0.54206  0.50270  0.88474  1.0000
  C   C317      1.0  0.53795  0.45452  0.97760  1.0000
  H   H371      1.0  0.60671  0.49016  0.96614  1.0000
  H   H372      1.0  0.89083  0.55835  0.54516  1.0000
  H   H373      1.0  0.61725  0.31606  0.64668  1.0000
  H   H374      1.0  0.66033  0.37268  0.61508  1.0000
  H   H375      1.0  0.47091  0.51668  0.60218  1.0000
  C   C318      1.0  0.50370  0.64124  0.61690  1.0000
  H   H376      1.0  0.76947  0.40158  0.83322  1.0000
  C   C319      1.0  0.49295  0.46561  0.69343  1.0000
  H   H377      1.0  0.54655  0.55010  0.72060  1.0000
  H   H378      1.0  0.71067  0.44906  0.96708  1.0000
  C   C320      1.0  0.71443  0.44321  0.99976  1.0000
  C   C321      1.0  0.71129  0.44685  0.58910  1.0000
  H   H379      1.0  0.51074  0.44065  0.96567  1.0000
  C   C322      1.0  0.49073  0.52597  0.71514  1.0000
  H   H380      1.0  0.76990  0.40814  0.89035  1.0000
  H   H381      1.0  0.57238  0.36314  0.57444  1.0000
  H   H382      1.0  0.55664  0.48020  0.78508  1.0000
  H   H383      1.0  0.49359  0.44231  0.68473  1.0000
  H   H384      1.0  0.53697  0.45528  0.01345  1.0000
  H   H385      1.0  0.69946  0.42316  0.85966  1.0000
  C   C323      1.0  0.88166  0.53123  0.55617  1.0000
  S   S93       1.0  0.77298  0.44419  0.96944  1.0000
  N   N22       1.0  0.55805  0.48994  0.95874  1.0000
  N   N23       1.0  0.71945  0.38761  0.86065  1.0000
  H   H386      1.0  0.53063  0.51184  0.81994  1.0000
  C   C324      1.0  0.69084  0.43992  0.03230  1.0000
  C   C325      1.0  0.75429  0.39072  0.86350  1.0000
  C   C326      1.0  0.54192  0.49994  0.83977  1.0000
  C   C327      1.0  0.70072  0.36651  0.82256  1.0000
  H   H387      1.0  0.74033  0.43831  0.83119  1.0000
  H   H388      1.0  0.54949  0.43803  0.96939  1.0000
  H   H389      1.0  0.69065  0.40462  0.79000  1.0000
  C   C328      1.0  0.55661  0.48217  0.81988  1.0000
  C   C329      1.0  0.88387  0.47875  0.54700  1.0000
  H   H390      1.0  0.51537  0.64496  0.58412  1.0000
  H   H391      1.0  0.58115  0.57013  0.61953  1.0000
  H   H392      1.0  0.61100  0.53223  0.95870  1.0000
  C   C330      1.0  0.59455  0.50619  0.97378  1.0000
  C   C331      1.0  0.52631  0.54064  0.60811  1.0000
  H   H393      1.0  0.59452  0.33448  0.82244  1.0000
  H   H394      1.0  0.75656  0.34484  0.58445  1.0000
  H   H395      1.0  0.66093  0.36854  0.72880  1.0000
  H   H396      1.0  0.76602  0.46438  0.59506  1.0000
  C   C332      1.0  0.54322  0.51098  0.97619  1.0000
  H   H397      1.0  0.70830  0.45265  0.62218  1.0000
  H   H398      1.0  0.73901  0.43868  0.88865  1.0000
  S   S94       1.0  0.83838  0.35821  0.01697  1.0000
  H   H399      1.0  0.69692  0.34440  0.90541  1.0000
  C   C333      1.0  0.68725  0.35157  0.57901  1.0000
  H   H400      1.0  0.51511  0.49911  0.96863  1.0000
  H   H401      1.0  0.53038  0.51697  0.89793  1.0000
  H   H402      1.0  0.93761  0.50006  0.97284  1.0000
  C   C334      1.0  0.72469  0.42343  0.85974  1.0000
  C   C335      1.0  0.57146  0.46698  0.84473  1.0000
  C   C336      1.0  0.96244  0.50348  0.98272  1.0000
  H   H403      1.0  0.85286  0.51663  0.55177  1.0000
  C   C337      1.0  0.67043  0.35831  0.75369  1.0000
  Fe  Fe47      1.0  0.80169  0.41719  0.99033  1.0000
  H   H404      1.0  0.61700  0.32134  0.00566  1.0000
  H   H405      1.0  0.58312  0.45341  0.82899  1.0000
  H   H406      1.0  0.52687  0.51715  0.59986  1.0000
  C   C338      1.0  0.69948  0.37037  0.90034  1.0000
  C   C339      1.0  0.55713  0.48750  0.91110  1.0000
  C   C340      1.0  0.66173  0.34952  0.60749  1.0000
  C   C341      1.0  0.55694  0.57062  0.61936  1.0000
  H   H407      1.0  0.89115  0.47803  0.58108  1.0000
  C   C342      1.0  0.69478  0.33213  0.81796  1.0000
  H   H408      1.0  0.59634  0.50971  0.00948  1.0000
  H   H409      1.0  0.58307  0.45669  0.90736  1.0000
  H   H410      1.0  0.49012  0.54931  0.72336  1.0000
  H   H411      1.0  0.88614  0.53119  0.59140  1.0000
  S   S95       1.0  0.92652  0.43500  0.01260  1.0000
  H   H412      1.0  0.47678  0.60157  0.68756  1.0000
  C   C343      1.0  0.96403  0.47596  0.00240  1.0000
  H   H413      1.0  0.70387  0.32096  0.84192  1.0000
  C   C344      1.0  0.68952  0.32171  0.56799  1.0000
  C   C345      1.0  0.66540  0.32480  0.75003  1.0000
  H   H414      1.0  0.85495  0.46421  0.54517  1.0000
  H   H415      1.0  0.47573  0.62124  0.61479  1.0000
  H   H416      1.0  0.75530  0.37767  0.55175  1.0000
  H   H417      1.0  0.50186  0.64608  0.70317  1.0000
  N   N24       1.0  0.52272  0.63203  0.64867  1.0000
  C   C346      1.0  0.59366  0.33440  0.54397  1.0000
  H   H418      1.0  0.51701  0.61618  0.71513  1.0000
  C   C347      1.0  0.75146  0.35089  0.55141  1.0000
  C   C348      1.0  0.55637  0.60063  0.63193  1.0000
  H   H419      1.0  0.94291  0.57467  0.58059  1.0000
  C   C349      1.0  0.56761  0.33757  0.56504  1.0000
  C   C350      1.0  0.52468  0.60132  0.63368  1.0000
  C   C351      1.0  0.95566  0.56345  0.56243  1.0000
  C   C352      1.0  0.63747  0.31767  0.62542  1.0000
  Fe  Fe48      1.0  0.55589  0.38838  0.03577  1.0000
  H   H420      1.0  0.61841  0.35744  0.53695  1.0000
  H   H421      1.0  0.54135  0.93925  0.32911  1.0000
  C   C353      1.0  0.55751  0.96737  0.33024  1.0000
  S   S96       1.0  0.48111  0.92568  0.39292  1.0000
  H   H422      1.0  0.56604  0.96806  0.39813  1.0000
  H   H423      1.0  0.49719  0.95306  0.49208  1.0000
  C   C354      1.0  0.47661  0.94707  0.51539  1.0000
  H   H424      1.0  0.55148  0.97425  0.26311  1.0000
  C   C355      1.0  0.48524  0.96429  0.37008  1.0000
  C   C356      1.0  0.47154  0.96447  0.32972  1.0000
  C   C357      1.0  0.48706  0.96163  0.77536  1.0000
  H   H425      1.0  0.57208  0.65968  0.68130  1.0000
  H   H426      1.0  0.55485  0.68640  0.66493  1.0000
  H   H427      1.0  0.57310  0.67097  0.62490  1.0000
  H   H428      1.0  0.48764  0.93766  0.77188  1.0000
  C   C358      1.0  0.55731  0.66353  0.65510  1.0000
  C   C359      1.0  0.48409  0.95345  0.55931  1.0000
  H   H429      1.0  0.50391  0.66571  0.62586  1.0000
  H   H430      1.0  0.51095  0.96469  0.56875  1.0000
  C   C360      1.0  0.48335  0.93304  0.65169  1.0000
  H   H431      1.0  0.48873  0.93641  0.68688  1.0000
  H   H432      1.0  0.50864  0.94159  0.63528  1.0000
