data_image0
_chemical_formula_structural       S2FeSFeSHSH2CH2FeH2SCHC5HCHCHFeHCHCHC3HCHCHNSC2FeHSCFeHSH2CH2CHCHCHSCHSCHCHC3H2FeCH3CHCFeSCFeS2FeSFeSCS2H3C5H3CH2CH3C6H3CHNSHSHC2HC3H3SHCHCH2CHCH2CH4NH2CSFeSFeCH5CFeCSFeCSH2FeHS2H2CHC4H4C5H2SHCNH2CHCHCH4C3H7C2HCH2CHSHCFeSFeS2FeS2FeSFeS2C6H4C6H3CH3C6H7SNC7H7NH5CHCH2C2H3CH3CHCH2CFeH2C2H6C5H2CNHSCFeC2H2SCH3CSHSC3H3NH3CHSCH4FeSHSHFeS2FeSFeSH2C7H2CHC6H7C2NC2NCH2C2SC2H3CH3CHSCSH3CHSH6CH4NFeS2FeS2FeSFeS3HC6H2CHC6H2CHC4H3C5H3C2NC7HCH12C2H2CH2NC9SH3CH2CH3CH4CHSCHFeH2SHC2NH2C2H5C2H2C2HC2H2C2HCH3CH3C2HC4HC2HC2H4CH2CH5C2FeSFeSFeS2FeSFeS3H3SHC2HC6HCH2C4H2C6H3CHCHNC9H14CHC2H2SCHC2H2C2H2CHSCHCH2NS2H3CH7SC4H2FeCHNHCHNH2CH2SH2SFeHFeS2HSHFeSFeSH2CHCHC4SCH2C6H5CH2C2H3CHC4HCH2CHC2SHCNH2CH4SHNH4CHCFeS2FeS2FeSFeS3C6H3C2HC3HCH3C5H4C5H3C2NC6HCNCHSCH7C2H2CH5CSH2C2H2NH2NC2HC5HC2H4CH3C3HCHCH7CH2CH3FeHCHCHSHCHNH3C2H3C2HCHC4HCH2S2FeSCHNSFeSFeHSC5H2SCSFeH5C3FeCHFe2HC3HCH2CH3SCHSCHC2FeHNH2CH2SH5C4H2C2H2C2HC3H3FeSHFeS2CSFeSFeS2HC7H4C5NH3C2HC2SC2H8CSHCH2CNHCFeH5FeH2SCH2CH5CSC3HCH2C2HSNFeSHCSHFeSFeSH3C4H2C6H6C4HC2H2C2H2CHCH2CSH2CHCHNCH3CHNSH2
_chemical_formula_sum              "S128 Fe64 H576 C480 N32"
_cell_length_a       39.2988
_cell_length_b       30.5268
_cell_length_c       46.8841
_cell_angle_alpha    89.2118
_cell_angle_beta     81.0841
_cell_angle_gamma    89.9841

_space_group_name_H-M_alt    "P 1"
_space_group_IT_number       1

loop_
  _space_group_symop_operation_xyz
  'x, y, z'

loop_
  _atom_site_type_symbol
  _atom_site_label
  _atom_site_symmetry_multiplicity
  _atom_site_fract_x
  _atom_site_fract_y
  _atom_site_fract_z
  _atom_site_occupancy
  S   S1        1.0  0.38335  0.12484  0.29855  1.0000
  S   S2        1.0  0.43237  0.23701  0.30425  1.0000
  Fe  Fe1       1.0  0.41644  0.07842  0.13675  1.0000
  S   S3        1.0  0.38959  0.13408  0.16262  1.0000
  Fe  Fe2       1.0  0.44608  0.04769  0.07595  1.0000
  S   S4        1.0  0.44224  0.02467  0.15859  1.0000
  H   H1        1.0  0.31107  0.21920  0.29844  1.0000
  S   S5        1.0  0.46368  0.09716  0.10551  1.0000
  H   H2        1.0  0.39212  0.19816  0.25774  1.0000
  H   H3        1.0  0.30125  0.10740  0.24681  1.0000
  C   C1        1.0  0.33187  0.41086  0.31943  1.0000
  H   H4        1.0  0.38285  0.05820  0.25637  1.0000
  H   H5        1.0  0.29118  0.33697  0.27859  1.0000
  Fe  Fe3       1.0  0.48837  0.04113  0.12561  1.0000
  H   H6        1.0  0.32239  0.34297  0.23088  1.0000
  H   H7        1.0  0.38506  0.06102  0.20323  1.0000
  S   S6        1.0  0.22753  0.41419  0.34055  1.0000
  C   C2        1.0  0.30893  0.20658  0.27736  1.0000
  H   H8        1.0  0.34095  0.29638  0.21179  1.0000
  C   C3        1.0  0.38727  0.12806  0.26061  1.0000
  C   C4        1.0  0.38683  0.09098  0.21495  1.0000
  C   C5        1.0  0.38916  0.13128  0.20027  1.0000
  C   C6        1.0  0.39138  0.16996  0.21577  1.0000
  C   C7        1.0  0.39084  0.16832  0.24585  1.0000
  H   H9        1.0  0.39335  0.20121  0.20447  1.0000
  C   C8        1.0  0.31873  0.30721  0.22785  1.0000
  H   H10       1.0  0.26287  0.29531  0.26870  1.0000
  C   C9        1.0  0.31147  0.23465  0.25270  1.0000
  H   H11       1.0  0.31868  0.30677  0.34543  1.0000
  Fe  Fe4       1.0  0.39718  0.18300  0.32359  1.0000
  H   H12       1.0  0.44819  0.07234  0.29867  1.0000
  C   C10       1.0  0.30948  0.21453  0.22579  1.0000
  H   H13       1.0  0.30429  0.14039  0.29418  1.0000
  C   C11       1.0  0.46684  0.02462  0.26676  1.0000
  H   H14       1.0  0.34913  0.27647  0.28892  1.0000
  C   C12       1.0  0.38548  0.08945  0.24506  1.0000
  C   C13       1.0  0.30541  0.16918  0.22391  1.0000
  C   C14       1.0  0.30475  0.16134  0.27522  1.0000
  H   H15       1.0  0.29458  0.30366  0.21842  1.0000
  C   C15       1.0  0.28811  0.30097  0.27604  1.0000
  H   H16       1.0  0.45806  0.99694  0.28068  1.0000
  C   C16       1.0  0.27100  0.39776  0.33583  1.0000
  H   H17       1.0  0.46361  0.18202  0.22896  1.0000
  N   N1        1.0  0.31685  0.28233  0.25552  1.0000
  S   S7        1.0  0.47419  0.99276  0.09405  1.0000
  C   C17       1.0  0.29766  0.42605  0.32414  1.0000
  C   C18       1.0  0.34963  0.28990  0.26669  1.0000
  Fe  Fe5       1.0  0.45877  0.22542  0.34280  1.0000
  H   H18       1.0  0.35547  0.32549  0.26789  1.0000
  S   S8        1.0  0.39575  0.03431  0.10491  1.0000
  C   C19       1.0  0.46151  0.06709  0.27693  1.0000
  Fe  Fe6       1.0  0.39682  0.28114  0.33341  1.0000
  H   H19       1.0  0.35238  0.43259  0.30983  1.0000
  S   S9        1.0  0.38256  0.34909  0.31932  1.0000
  H   H20       1.0  0.37173  0.27452  0.25267  1.0000
  H   H21       1.0  0.28639  0.28643  0.29806  1.0000
  C   C20       1.0  0.31302  0.33987  0.33930  1.0000
  H   H22       1.0  0.46647  0.13493  0.26824  1.0000
  H   H23       1.0  0.31186  0.23276  0.20570  1.0000
  C   C21       1.0  0.27882  0.35478  0.34357  1.0000
  H   H24       1.0  0.45695  0.13009  0.18856  1.0000
  C   C22       1.0  0.33962  0.36766  0.32682  1.0000
  H   H25       1.0  0.29187  0.45925  0.31811  1.0000
  C   C23       1.0  0.30312  0.14266  0.24854  1.0000
  H   H26       1.0  0.30536  0.15424  0.20303  1.0000
  S   S10       1.0  0.35916  0.22779  0.34945  1.0000
  C   C24       1.0  0.47222  0.10307  0.25900  1.0000
  H   H27       1.0  0.48709  0.98478  0.23062  1.0000
  S   S11       1.0  0.46186  0.05222  0.02746  1.0000
  C   C25       1.0  0.49405  0.05354  0.22052  1.0000
  H   H28       1.0  0.25830  0.33281  0.35280  1.0000
  C   C26       1.0  0.48543  0.13177  0.18363  1.0000
  H   H29       1.0  0.38690  0.05240  0.03124  1.0000
  C   C27       1.0  0.48311  0.01785  0.23861  1.0000
  C   C28       1.0  0.48877  0.09733  0.23009  1.0000
  C   C29       1.0  0.49201  0.17811  0.22322  1.0000
  H   H30       1.0  0.49227  0.16054  0.16903  1.0000
  H   H31       1.0  0.49398  0.10238  0.17083  1.0000
  Fe  Fe7       1.0  0.42523  0.98178  0.12470  1.0000
  C   C30       1.0  0.24592  0.43376  0.45879  1.0000
  H   H32       1.0  0.45275  0.12718  0.44514  1.0000
  H   H33       1.0  0.31477  0.43976  0.62160  1.0000
  H   H34       1.0  0.48004  0.08639  0.45807  1.0000
  C   C31       1.0  0.34277  0.37018  0.40091  1.0000
  H   H35       1.0  0.26280  0.34191  0.45729  1.0000
  C   C32       1.0  0.22423  0.39464  0.42092  1.0000
  Fe  Fe8       1.0  0.39150  0.21869  0.38470  1.0000
  S   S12       1.0  0.36530  0.21120  0.43099  1.0000
  C   C33       1.0  0.30508  0.41747  0.52127  1.0000
  Fe  Fe9       1.0  0.44815  0.20258  0.57393  1.0000
  S   S13       1.0  0.47350  0.25777  0.59356  1.0000
  S   S14       1.0  0.46405  0.20230  0.52539  1.0000
  Fe  Fe10      1.0  0.41865  0.16585  0.63372  1.0000
  S   S15       1.0  0.44094  0.21972  0.65717  1.0000
  Fe  Fe11      1.0  0.42342  0.26370  0.62338  1.0000
  S   S16       1.0  0.40649  0.33418  0.62913  1.0000
  C   C34       1.0  0.31293  0.32252  0.43793  1.0000
  S   S17       1.0  0.39678  0.21073  0.60217  1.0000
  S   S18       1.0  0.46720  0.15247  0.60308  1.0000
  H   H36       1.0  0.39817  0.26618  0.54879  1.0000
  H   H37       1.0  0.22292  0.45553  0.46196  1.0000
  H   H38       1.0  0.46929  0.10535  0.39606  1.0000
  C   C35       1.0  0.36314  0.34884  0.62948  1.0000
  C   C36       1.0  0.33672  0.31775  0.63441  1.0000
  C   C37       1.0  0.30223  0.33110  0.63597  1.0000
  C   C38       1.0  0.32069  0.40596  0.62559  1.0000
  C   C39       1.0  0.35506  0.39292  0.62497  1.0000
  H   H39       1.0  0.34275  0.28370  0.63792  1.0000
  H   H40       1.0  0.28174  0.30716  0.64069  1.0000
  H   H41       1.0  0.37549  0.41701  0.62095  1.0000
  C   C40       1.0  0.31480  0.39906  0.40433  1.0000
  H   H42       1.0  0.31217  0.29218  0.45041  1.0000
  H   H43       1.0  0.48985  0.09140  0.68697  1.0000
  C   C41       1.0  0.35979  0.35898  0.52766  1.0000
  H   H44       1.0  0.23014  0.38127  0.39870  1.0000
  H   H45       1.0  0.43287  0.33340  0.55509  1.0000
  H   H46       1.0  0.43648  0.23593  0.42968  1.0000
  C   C42       1.0  0.39214  0.21061  0.45773  1.0000
  C   C43       1.0  0.37904  0.19664  0.48596  1.0000
  C   C44       1.0  0.40055  0.19461  0.50732  1.0000
  C   C45       1.0  0.43511  0.20703  0.50046  1.0000
  C   C46       1.0  0.44774  0.22259  0.47257  1.0000
  C   C47       1.0  0.42644  0.22412  0.45119  1.0000
  H   H47       1.0  0.35243  0.18631  0.49112  1.0000
  H   H48       1.0  0.39063  0.18248  0.52880  1.0000
  H   H49       1.0  0.47415  0.23362  0.46758  1.0000
  C   C48       1.0  0.29410  0.37529  0.63186  1.0000
  H   H50       1.0  0.28468  0.44069  0.51911  1.0000
  N   N2        1.0  0.25413  0.41921  0.42841  1.0000
  S   S19       1.0  0.25054  0.39126  0.63593  1.0000
  H   H51       1.0  0.28026  0.47990  0.41451  1.0000
  S   S20       1.0  0.39680  0.10590  0.65869  1.0000
  H   H52       1.0  0.31701  0.42729  0.39001  1.0000
  C   C49       1.0  0.41085  0.35396  0.55044  1.0000
  C   C50       1.0  0.33482  0.37090  0.55149  1.0000
  H   H53       1.0  0.39744  0.30017  0.49043  1.0000
  C   C51       1.0  0.41185  0.31894  0.50495  1.0000
  C   C52       1.0  0.28483  0.39038  0.42488  1.0000
  C   C53       1.0  0.25849  0.45927  0.40984  1.0000
  H   H54       1.0  0.26770  0.45264  0.46522  1.0000
  H   H55       1.0  0.47860  0.18035  0.40555  1.0000
  H   H56       1.0  0.21664  0.36662  0.43591  1.0000
  S   S21       1.0  0.42685  0.27487  0.37024  1.0000
  H   H57       1.0  0.48334  0.14270  0.46737  1.0000
  C   C54       1.0  0.32864  0.40568  0.49723  1.0000
  H   H58       1.0  0.35814  0.27232  0.53512  1.0000
  C   C55       1.0  0.34177  0.33194  0.41756  1.0000
  H   H59       1.0  0.36369  0.29443  0.56956  1.0000
  H   H60       1.0  0.36499  0.37678  0.38453  1.0000
  C   C56       1.0  0.37661  0.28928  0.54702  1.0000
  H   H61       1.0  0.23992  0.40609  0.47435  1.0000
  C   C57       1.0  0.35557  0.37673  0.50019  1.0000
  H   H62       1.0  0.42382  0.34834  0.49319  1.0000
  H   H63       1.0  0.39613  0.36260  0.57176  1.0000
  C   C58       1.0  0.28484  0.35120  0.44163  1.0000
  H   H64       1.0  0.43372  0.29789  0.50927  1.0000
  H   H65       1.0  0.37287  0.36913  0.48068  1.0000
  H   H66       1.0  0.36311  0.30906  0.41430  1.0000
  H   H67       1.0  0.33616  0.35845  0.57294  1.0000
  N   N3        1.0  0.38925  0.33076  0.53215  1.0000
  H   H68       1.0  0.42141  0.38504  0.53997  1.0000
  H   H69       1.0  0.28948  0.40865  0.56703  1.0000
  C   C59       1.0  0.30796  0.39970  0.54830  1.0000
  S   S22       1.0  0.42597  0.16847  0.36052  1.0000
  Fe  Fe12      1.0  0.48843  0.20837  0.62502  1.0000
  S   S23       1.0  0.20381  0.46865  0.58864  1.0000
  Fe  Fe13      1.0  0.23516  0.45984  0.62446  1.0000
  C   C60       1.0  0.47937  0.12055  0.44958  1.0000
  H   H70       1.0  0.20107  0.41589  0.42141  1.0000
  H   H71       1.0  0.32636  0.41950  0.47619  1.0000
  H   H72       1.0  0.26276  0.45105  0.38650  1.0000
  H   H73       1.0  0.28033  0.46473  0.66551  1.0000
  H   H74       1.0  0.23504  0.48026  0.41323  1.0000
  C   C61       1.0  0.39837  0.04668  0.00910  1.0000
  Fe  Fe14      1.0  0.39093  0.02549  0.88551  1.0000
  C   C62       1.0  0.43420  0.04545  0.00168  1.0000
  S   S24       1.0  0.36534  0.03152  0.93201  1.0000
  Fe  Fe15      1.0  0.39241  0.05539  0.82273  1.0000
  C   C63       1.0  0.48340  0.16647  0.70991  1.0000
  S   S25       1.0  0.37465  0.10947  0.79518  1.0000
  H   H75       1.0  0.27309  0.05441  0.75370  1.0000
  H   H76       1.0  0.47986  0.11798  0.94121  1.0000
  Fe  Fe16      1.0  0.45585  0.01674  0.84102  1.0000
  H   H77       1.0  0.46851  0.19161  0.76272  1.0000
  S   S26       1.0  0.35621  0.01217  0.85274  1.0000
  S   S27       1.0  0.42340  0.07438  0.85713  1.0000
  H   H78       1.0  0.36290  0.17354  0.75293  1.0000
  H   H79       1.0  0.31954  0.05686  0.78001  1.0000
  C   C64       1.0  0.32177  0.02047  0.78053  1.0000
  H   H80       1.0  0.48573  0.14762  0.78097  1.0000
  C   C65       1.0  0.39215  0.03644  0.95860  1.0000
  C   C66       1.0  0.42794  0.03432  0.95133  1.0000
  C   C67       1.0  0.44885  0.03874  0.97283  1.0000
  C   C68       1.0  0.37738  0.04201  0.98758  1.0000
  H   H81       1.0  0.43956  0.02989  0.92907  1.0000
  H   H82       1.0  0.37733  0.33355  0.70279  1.0000
  H   H83       1.0  0.34967  0.04393  0.99328  1.0000
  H   H84       1.0  0.47657  0.03731  0.96699  1.0000
  C   C69       1.0  0.40490  0.07306  0.71197  1.0000
  C   C70       1.0  0.40024  0.07343  0.74232  1.0000
  C   C71       1.0  0.38434  0.10925  0.75720  1.0000
  C   C72       1.0  0.37497  0.14558  0.74155  1.0000
  C   C73       1.0  0.38035  0.14564  0.71123  1.0000
  H   H85       1.0  0.25541  0.01011  0.77663  1.0000
  H   H86       1.0  0.40814  0.04557  0.75411  1.0000
  S   S28       1.0  0.42665  0.00020  0.80508  1.0000
  H   H87       1.0  0.26102  0.00528  0.73763  1.0000
  C   C74       1.0  0.39454  0.10893  0.69638  1.0000
  N   N4        1.0  0.30784  0.00009  0.75619  1.0000
  H   H88       1.0  0.48965  0.10663  0.83016  1.0000
  H   H89       1.0  0.37219  0.17338  0.69936  1.0000
  C   C75       1.0  0.32928  0.01385  0.72865  1.0000
  H   H90       1.0  0.31450  0.33727  0.70287  1.0000
  C   C76       1.0  0.36488  0.36508  0.70157  1.0000
  H   H91       1.0  0.07228  0.46496  0.73030  1.0000
  C   C77       1.0  0.27269  0.01799  0.75606  1.0000
  H   H92       1.0  0.32954  0.05018  0.72562  1.0000
  H   H93       1.0  0.41619  0.04474  0.70051  1.0000
  H   H94       1.0  0.31971  0.99921  0.70976  1.0000
  H   H95       1.0  0.45777  0.15249  0.70768  1.0000
  C   C78       1.0  0.47451  0.15599  0.76126  1.0000
  C   C79       1.0  0.33290  0.44727  0.69505  1.0000
  C   C80       1.0  0.32951  0.36725  0.70151  1.0000
  H   H96       1.0  0.30788  0.00858  0.80171  1.0000
  H   H97       1.0  0.34960  0.01355  0.78014  1.0000
  H   H98       1.0  0.44958  0.13817  0.76278  1.0000
  H   H99       1.0  0.26302  0.47448  0.70278  1.0000
  H   H100      1.0  0.47977  0.20236  0.71303  1.0000
  H   H101      1.0  0.28616  0.40657  0.69794  1.0000
  H   H102      1.0  0.35661  0.00380  0.72755  1.0000
  C   C81       1.0  0.31354  0.40761  0.69846  1.0000
  C   C82       1.0  0.38436  0.40340  0.69936  1.0000
  H   H103      1.0  0.41192  0.40142  0.69927  1.0000
  C   C83       1.0  0.36863  0.44402  0.69656  1.0000
  H   H104      1.0  0.38484  0.47274  0.69527  1.0000
  H   H105      1.0  0.04749  0.61881  0.07056  1.0000
  C   C84       1.0  0.03054  0.59305  0.22467  1.0000
  H   H106      1.0  0.06929  0.75591  0.22575  1.0000
  S   S29       1.0  0.41032  0.91016  0.12943  1.0000
  H   H107      1.0  0.01079  0.66781  0.26258  1.0000
  C   C85       1.0  0.31951  0.85394  0.05187  1.0000
  Fe  Fe17      1.0  0.21742  0.58223  0.32601  1.0000
  S   S30       1.0  0.24380  0.63932  0.30035  1.0000
  Fe  Fe18      1.0  0.24326  0.77835  0.12034  1.0000
  S   S31       1.0  0.28124  0.72492  0.10676  1.0000
  S   S32       1.0  0.25655  0.84823  0.12968  1.0000
  Fe  Fe19      1.0  0.18147  0.72031  0.11434  1.0000
  S   S33       1.0  0.21468  0.66277  0.09962  1.0000
  S   S34       1.0  0.12350  0.72055  0.11833  1.0000
  Fe  Fe20      1.0  0.24380  0.68138  0.13544  1.0000
  S   S35       1.0  0.25910  0.62672  0.16395  1.0000
  Fe  Fe21      1.0  0.24839  0.71177  0.07251  1.0000
  S   S36       1.0  0.20826  0.73598  0.15194  1.0000
  S   S37       1.0  0.21285  0.76812  0.08429  1.0000
  C   C86       1.0  0.24667  0.63560  0.26256  1.0000
  C   C87       1.0  0.25412  0.59565  0.24876  1.0000
  C   C88       1.0  0.25790  0.59349  0.21853  1.0000
  C   C89       1.0  0.25361  0.63103  0.20188  1.0000
  C   C90       1.0  0.24512  0.67077  0.21568  1.0000
  C   C91       1.0  0.24215  0.67319  0.24594  1.0000
  H   H108      1.0  0.25802  0.56662  0.26134  1.0000
  H   H109      1.0  0.26444  0.56264  0.20797  1.0000
  H   H110      1.0  0.24156  0.69969  0.20299  1.0000
  H   H111      1.0  0.23632  0.70417  0.25651  1.0000
  C   C92       1.0  0.06449  0.59098  0.13134  1.0000
  C   C93       1.0  0.10051  0.59108  0.12893  1.0000
  C   C94       1.0  0.11898  0.63065  0.12481  1.0000
  C   C95       1.0  0.10143  0.67033  0.12353  1.0000
  C   C96       1.0  0.06539  0.67023  0.12663  1.0000
  C   C97       1.0  0.04696  0.63071  0.13060  1.0000
  H   H112      1.0  0.14673  0.63042  0.12271  1.0000
  H   H113      1.0  0.05166  0.70089  0.12596  1.0000
  H   H114      1.0  0.04590  0.60383  0.20378  1.0000
  C   C98       1.0  0.28151  0.79315  0.19126  1.0000
  H   H115      1.0  0.33595  0.84702  0.18661  1.0000
  H   H116      1.0  0.02733  0.58691  0.04660  1.0000
  H   H117      1.0  0.11168  0.53261  0.04244  1.0000
  C   C99       1.0  0.36770  0.89417  0.12779  1.0000
  C   C100      1.0  0.34044  0.92378  0.13322  1.0000
  C   C101      1.0  0.30645  0.90933  0.13339  1.0000
  C   C102      1.0  0.29962  0.86542  0.12784  1.0000
  C   C103      1.0  0.32701  0.83614  0.12151  1.0000
  C   C104      1.0  0.36097  0.85050  0.12157  1.0000
  H   H118      1.0  0.34542  0.95753  0.13805  1.0000
  H   H119      1.0  0.28534  0.93218  0.13821  1.0000
  H   H120      1.0  0.32210  0.80239  0.11685  1.0000
  H   H121      1.0  0.38206  0.82756  0.11710  1.0000
  H   H122      1.0  0.33815  0.91360  0.06580  1.0000
  H   H123      1.0  0.03381  0.55695  0.22673  1.0000
  H   H124      1.0  0.36326  0.81123  0.20387  1.0000
  S   S38       1.0  0.04213  0.54084  0.13473  1.0000
  N   N5        1.0  0.14369  0.60679  0.22357  1.0000
  C   C105      1.0  0.16262  0.60097  0.24844  1.0000
  C   C106      1.0  0.12132  0.56785  0.22291  1.0000
  C   C107      1.0  0.16952  0.60805  0.19683  1.0000
  C   C108      1.0  0.12249  0.64708  0.22514  1.0000
  C   C109      1.0  0.10523  0.65926  0.20182  1.0000
  C   C110      1.0  0.11861  0.67548  0.24923  1.0000
  C   C111      1.0  0.08641  0.69813  0.20203  1.0000
  H   H125      1.0  0.13654  0.53694  0.22195  1.0000
  H   H126      1.0  0.29362  0.85016  0.23020  1.0000
  H   H127      1.0  0.17952  0.62952  0.25051  1.0000
  H   H128      1.0  0.14479  0.59617  0.26915  1.0000
  H   H129      1.0  0.33872  0.61967  0.22578  1.0000
  H   H130      1.0  0.10775  0.56821  0.20379  1.0000
  H   H131      1.0  0.10163  0.56577  0.24276  1.0000
  N   N6        1.0  0.08293  0.59087  0.03570  1.0000
  H   H132      1.0  0.18874  0.58110  0.19628  1.0000
  H   H133      1.0  0.15778  0.60478  0.17688  1.0000
  H   H134      1.0  0.18408  0.63952  0.19484  1.0000
  H   H135      1.0  0.10663  0.63907  0.18302  1.0000
  H   H136      1.0  0.13061  0.66905  0.26804  1.0000
  C   C112      1.0  0.03941  0.59385  0.31544  1.0000
  H   H137      1.0  0.41739  0.97625  0.05287  1.0000
  C   C113      1.0  0.37848  0.88082  0.03569  1.0000
  H   H138      1.0  0.25832  0.77550  0.20238  1.0000
  H   H139      1.0  0.38725  0.94435  0.07664  1.0000
  C   C114      1.0  0.43444  0.89137  0.04997  1.0000
  C   C115      1.0  0.09269  0.63171  0.31859  1.0000
  H   H140      1.0  0.09638  0.73505  0.26813  1.0000
  H   H141      1.0  0.32507  0.66833  0.26763  1.0000
  H   H142      1.0  0.31237  0.74496  0.26108  1.0000
  C   C116      1.0  0.33403  0.65420  0.22237  1.0000
  H   H143      1.0  0.28809  0.77925  0.16933  1.0000
  H   H144      1.0  0.32716  0.72583  0.16802  1.0000
  H   H145      1.0  0.42410  0.87775  0.07177  1.0000
  C   C117      1.0  0.39581  0.95241  0.05343  1.0000
  H   H146      1.0  0.08888  0.70183  0.32281  1.0000
  C   C118      1.0  0.32640  0.68175  0.24592  1.0000
  H   H147      1.0  0.19803  0.70519  0.03284  1.0000
  H   H148      1.0  0.08703  0.55414  0.07474  1.0000
  C   C119      1.0  0.33437  0.67074  0.19451  1.0000
  Fe  Fe22      1.0  0.14742  0.54069  0.33172  1.0000
  H   H149      1.0  0.27671  0.80109  0.24843  1.0000
  H   H150      1.0  0.24322  0.86769  0.03639  1.0000
  C   C120      1.0  0.04899  0.61002  0.04743  1.0000
  C   C121      1.0  0.34501  0.88595  0.05193  1.0000
  H   H151      1.0  0.32120  0.81702  0.24831  1.0000
  H   H152      1.0  0.27382  0.82773  0.18776  1.0000
  H   H153      1.0  0.33926  0.64887  0.17627  1.0000
  H   H154      1.0  0.44687  0.86398  0.03692  1.0000
  H   H155      1.0  0.01919  0.63118  0.13321  1.0000
  H   H156      1.0  0.11420  0.56041  0.12967  1.0000
  C   C122      1.0  0.08705  0.54902  0.05126  1.0000
  C   C123      1.0  0.31876  0.72594  0.24177  1.0000
  C   C124      1.0  0.34109  0.81206  0.19169  1.0000
  C   C125      1.0  0.32689  0.71485  0.19007  1.0000
  C   C126      1.0  0.08360  0.72556  0.22575  1.0000
  H   H157      1.0  0.34974  0.79596  0.17073  1.0000
  H   H158      1.0  0.45526  0.91496  0.05290  1.0000
  C   C127      1.0  0.10995  0.62161  0.04223  1.0000
  N   N7        1.0  0.31035  0.79031  0.20825  1.0000
  H   H159      1.0  0.29464  0.85777  0.06539  1.0000
  S   S39       1.0  0.01791  0.72336  0.32543  1.0000
  C   C128      1.0  0.02150  0.63383  0.31834  1.0000
  Fe  Fe23      1.0  0.21076  0.48519  0.34010  1.0000
  C   C129      1.0  0.30004  0.81555  0.23508  1.0000
  C   C130      1.0  0.31851  0.74380  0.21359  1.0000
  H   H160      1.0  0.07436  0.70736  0.18351  1.0000
  H   H161      1.0  0.02552  0.56366  0.31362  1.0000
  S   S40       1.0  0.19716  0.52607  0.30309  1.0000
  C   C131      1.0  0.07498  0.67171  0.32074  1.0000
  H   H162      1.0  0.10797  0.65413  0.03159  1.0000
  H   H163      1.0  0.10766  0.62783  0.06582  1.0000
  H   H164      1.0  0.12013  0.63135  0.31855  1.0000
  C   C132      1.0  0.07498  0.59265  0.31609  1.0000
  S   S41       1.0  0.09651  0.54198  0.31471  1.0000
  H   H165      1.0  0.06572  0.52558  0.04986  1.0000
  S   S42       1.0  0.16679  0.59852  0.35316  1.0000
  C   C133      1.0  0.03933  0.67285  0.32093  1.0000
  C   C134      1.0  0.09917  0.71393  0.24948  1.0000
  C   C135      1.0  0.00085  0.68098  0.24401  1.0000
  H   H166      1.0  0.04377  0.64011  0.03522  1.0000
  H   H167      1.0  0.04199  0.60828  0.24242  1.0000
  H   H168      1.0  0.17961  0.57160  0.24608  1.0000
  N   N8        1.0  0.40677  0.91267  0.03655  1.0000
  H   H169      1.0  0.30693  0.79061  0.03670  1.0000
  H   H170      1.0  0.13632  0.60829  0.03549  1.0000
  H   H171      1.0  0.37471  0.96999  0.04481  1.0000
  C   C136      1.0  0.32643  0.81601  0.03587  1.0000
  H   H172      1.0  0.00510  0.74679  0.25902  1.0000
  S   S43       1.0  0.27264  0.70380  0.02588  1.0000
  C   C137      1.0  0.99792  0.72648  0.24204  1.0000
  H   H173      1.0  0.18901  0.62152  0.50939  1.0000
  H   H174      1.0  0.04029  0.56756  0.37331  1.0000
  H   H175      1.0  0.08417  0.64768  0.38243  1.0000
  H   H176      1.0  0.07657  0.62665  0.44528  1.0000
  Fe  Fe24      1.0  0.18232  0.55096  0.38574  1.0000
  S   S44       1.0  0.16413  0.55595  0.43395  1.0000
  H   H177      1.0  0.10514  0.60138  0.41696  1.0000
  S   S45       1.0  0.27183  0.51470  0.60947  1.0000
  H   H178      1.0  0.13632  0.56808  0.69043  1.0000
  Fe  Fe25      1.0  0.17238  0.51557  0.61841  1.0000
  S   S46       1.0  0.20418  0.57414  0.60239  1.0000
  S   S47       1.0  0.11468  0.51735  0.62262  1.0000
  Fe  Fe26      1.0  0.23809  0.52620  0.57539  1.0000
  S   S48       1.0  0.26210  0.53685  0.52864  1.0000
  Fe  Fe27      1.0  0.23405  0.55665  0.63816  1.0000
  S   S49       1.0  0.24850  0.61166  0.66586  1.0000
  H   H179      1.0  0.02795  0.59241  0.47031  1.0000
  H   H180      1.0  0.34222  0.49485  0.64655  1.0000
  C   C138      1.0  0.00830  0.59561  0.45672  1.0000
  C   C139      1.0  0.23543  0.53811  0.50167  1.0000
  C   C140      1.0  0.24896  0.55266  0.47366  1.0000
  C   C141      1.0  0.22767  0.55649  0.45223  1.0000
  C   C142      1.0  0.19269  0.54594  0.45880  1.0000
  C   C143      1.0  0.17950  0.52978  0.48647  1.0000
  C   C144      1.0  0.20087  0.52549  0.50778  1.0000
  H   H181      1.0  0.27577  0.56225  0.46877  1.0000
  H   H182      1.0  0.23803  0.56926  0.43101  1.0000
  C   C145      1.0  0.07868  0.59939  0.42960  1.0000
  H   H183      1.0  0.19057  0.51279  0.52901  1.0000
  C   C146      1.0  0.06308  0.65172  0.62632  1.0000
  C   C147      1.0  0.09565  0.64707  0.63476  1.0000
  C   C148      1.0  0.11211  0.60605  0.63335  1.0000
  C   C149      1.0  0.09568  0.56943  0.62402  1.0000
  C   C150      1.0  0.06338  0.57422  0.61536  1.0000
  C   C151      1.0  0.04749  0.61532  0.61601  1.0000
  H   H184      1.0  0.10800  0.67518  0.64260  1.0000
  H   H185      1.0  0.13718  0.60261  0.63991  1.0000
  H   H186      1.0  0.05078  0.54611  0.60775  1.0000
  H   H187      1.0  0.11521  0.58811  0.56696  1.0000
  H   H188      1.0  0.02298  0.61850  0.60877  1.0000
  H   H189      1.0  0.05743  0.74130  0.57001  1.0000
  H   H190      1.0  0.04012  0.64842  0.37780  1.0000
  C   C152      1.0  0.28146  0.48687  0.68397  1.0000
  C   C153      1.0  0.04579  0.70347  0.53450  1.0000
  N   N9        1.0  0.05188  0.60256  0.41052  1.0000
  C   C154      1.0  0.10908  0.65988  0.53700  1.0000
  C   C155      1.0  0.06618  0.71562  0.55483  1.0000
  N   N10       1.0  0.14182  0.63626  0.53797  1.0000
  C   C156      1.0  0.05760  0.56591  0.38990  1.0000
  H   H191      1.0  0.05241  0.67311  0.40896  1.0000
  H   H192      1.0  0.14937  0.65162  0.58140  1.0000
  C   C157      1.0  0.08724  0.64764  0.51695  1.0000
  C   C158      1.0  0.09727  0.69414  0.55632  1.0000
  S   S50       1.0  0.15853  0.49418  0.36644  1.0000
  C   C159      1.0  0.16350  0.63736  0.50903  1.0000
  C   C160      1.0  0.13403  0.59005  0.54670  1.0000
  H   H193      1.0  0.15258  0.52082  0.49151  1.0000
  H   H194      1.0  0.12278  0.57171  0.53009  1.0000
  H   H195      1.0  0.16870  0.69022  0.55381  1.0000
  C   C161      1.0  0.05739  0.64468  0.39428  1.0000
  H   H196      1.0  0.18789  0.63794  0.55790  1.0000
  H   H197      1.0  0.09392  0.62081  0.50236  1.0000
  H   H198      1.0  0.11127  0.49618  0.68833  1.0000
  C   C162      1.0  0.01614  0.60067  0.42620  1.0000
  H   H199      1.0  0.04722  0.60372  0.68043  1.0000
  S   S51       1.0  0.19985  0.50089  0.65587  1.0000
  C   C163      1.0  0.05608  0.66933  0.51577  1.0000
  S   S52       1.0  0.23540  0.54027  0.36101  1.0000
  H   H200      1.0  0.16833  0.67166  0.50107  1.0000
  H   H201      1.0  0.07740  0.56747  0.44151  1.0000
  H   H202      1.0  0.02164  0.72016  0.53358  1.0000
  C   C164      1.0  0.16270  0.65504  0.55871  1.0000
  H   H203      1.0  0.08440  0.56582  0.37787  1.0000
  S   S53       1.0  0.04165  0.70249  0.63044  1.0000
  H   H204      1.0  0.03934  0.65952  0.50064  1.0000
  H   H205      1.0  0.11113  0.70461  0.57319  1.0000
  H   H206      1.0  0.15742  0.57201  0.55079  1.0000
  H   H207      1.0  0.05311  0.53366  0.40122  1.0000
  H   H208      1.0  0.15167  0.61952  0.49252  1.0000
  H   H209      1.0  0.03258  0.54959  0.67524  1.0000
  C   C165      1.0  0.33770  0.51503  0.66635  1.0000
  H   H210      1.0  0.32457  0.54578  0.66088  1.0000
  H   H211      1.0  0.36312  0.52568  0.67129  1.0000
  H   H212      1.0  0.27150  0.51911  0.67772  1.0000
  H   H213      1.0  0.99625  0.63485  0.66264  1.0000
  N   N11       1.0  0.31707  0.49044  0.69069  1.0000
  Fe  Fe28      1.0  0.14463  0.69798  0.83642  1.0000
  S   S54       1.0  0.16866  0.64268  0.85775  1.0000
  S   S55       1.0  0.09213  0.69278  0.82231  1.0000
  Fe  Fe29      1.0  0.20684  0.75843  0.83965  1.0000
  S   S56       1.0  0.23564  0.70628  0.86041  1.0000
  S   S57       1.0  0.22262  0.82988  0.83486  1.0000
  Fe  Fe30      1.0  0.21669  0.66190  0.82776  1.0000
  S   S58       1.0  0.24264  0.60604  0.80184  1.0000
  Fe  Fe31      1.0  0.18447  0.69246  0.88784  1.0000
  S   S59       1.0  0.16844  0.68723  0.93626  1.0000
  S   S60       1.0  0.19191  0.71536  0.80497  1.0000
  S   S61       1.0  0.15663  0.74676  0.86866  1.0000
  H   H214      1.0  0.02406  0.67297  0.69181  1.0000
  C   C166      1.0  0.19793  0.68914  0.96087  1.0000
  C   C167      1.0  0.23339  0.68503  0.95193  1.0000
  C   C168      1.0  0.25606  0.68786  0.97229  1.0000
  C   C169      1.0  0.24348  0.69564  0.00146  1.0000
  C   C170      1.0  0.10495  0.51513  0.70790  1.0000
  C   C171      1.0  0.18528  0.69582  0.99015  1.0000
  H   H215      1.0  0.24327  0.67916  0.92946  1.0000
  H   H216      1.0  0.28342  0.68377  0.96554  1.0000
  C   C172      1.0  0.31576  0.51638  0.71733  1.0000
  H   H217      1.0  0.15788  0.69923  0.99716  1.0000
  C   C173      1.0  0.23552  0.81845  0.00570  1.0000
  C   C174      1.0  0.23301  0.57199  0.72002  1.0000
  C   C175      1.0  0.23296  0.57087  0.75005  1.0000
  C   C176      1.0  0.24125  0.60850  0.76445  1.0000
  C   C177      1.0  0.24966  0.64718  0.74863  1.0000
  C   C178      1.0  0.25144  0.64763  0.71847  1.0000
  H   H218      1.0  0.22594  0.54102  0.76228  1.0000
  H   H219      1.0  0.25625  0.67629  0.75953  1.0000
  C   C179      1.0  0.08455  0.58239  0.00446  1.0000
  H   H220      1.0  0.31358  0.82402  0.76813  1.0000
  C   C180      1.0  0.03620  0.63912  0.82223  1.0000
  C   C181      1.0  0.07017  0.64229  0.82779  1.0000
  C   C182      1.0  0.08612  0.60512  0.83729  1.0000
  C   C183      1.0  0.06823  0.56530  0.84165  1.0000
  H   H221      1.0  0.02375  0.66769  0.81470  1.0000
  H   H222      1.0  0.11239  0.60657  0.84093  1.0000
  H   H223      1.0  0.08083  0.53671  0.84906  1.0000
  C   C184      1.0  0.32606  0.82775  0.83435  1.0000
  C   C185      1.0  0.29174  0.81417  0.83519  1.0000
  C   C186      1.0  0.26552  0.84531  0.83628  1.0000
  C   C187      1.0  0.27363  0.88995  0.83766  1.0000
  C   C188      1.0  0.30792  0.90350  0.83707  1.0000
  H   H224      1.0  0.28579  0.77973  0.83392  1.0000
  H   H225      1.0  0.25344  0.91418  0.83832  1.0000
  H   H226      1.0  0.31403  0.93796  0.83725  1.0000
  C   C189      1.0  0.03409  0.56235  0.83677  1.0000
  C   C190      1.0  0.33431  0.87243  0.83492  1.0000
  N   N12       1.0  0.21395  0.83433  0.92987  1.0000
  C   C191      1.0  0.18003  0.81188  0.93435  1.0000
  C   C192      1.0  0.21097  0.87372  0.91143  1.0000
  C   C193      1.0  0.23986  0.80491  0.91355  1.0000
  C   C194      1.0  0.22380  0.84443  0.95832  1.0000
  C   C195      1.0  0.22768  0.88795  0.96786  1.0000
  C   C196      1.0  0.22818  0.81005  0.97807  1.0000
  C   C197      1.0  0.27877  0.92502  0.76134  1.0000
  H   H227      1.0  0.13097  0.62115  0.98805  1.0000
  C   C198      1.0  0.14677  0.62529  0.76213  1.0000
  H   H228      1.0  0.16003  0.83197  0.94761  1.0000
  H   H229      1.0  0.17093  0.80520  0.91351  1.0000
  H   H230      1.0  0.18084  0.77960  0.94549  1.0000
  H   H231      1.0  0.20343  0.86481  0.89029  1.0000
  H   H232      1.0  0.23592  0.89151  0.90629  1.0000
  H   H233      1.0  0.19063  0.89643  0.92161  1.0000
  H   H234      1.0  0.24144  0.77256  0.92442  1.0000
  H   H235      1.0  0.23342  0.79758  0.89179  1.0000
  H   H236      1.0  0.26598  0.81996  0.91028  1.0000
  H   H237      1.0  0.22465  0.91634  0.95450  1.0000
  H   H238      1.0  0.22525  0.77625  0.97247  1.0000
  H   H239      1.0  0.04175  0.69727  0.99283  1.0000
  C   C199      1.0  0.34049  0.93000  0.76035  1.0000
  C   C200      1.0  0.01531  0.67032  0.96005  1.0000
  H   H240      1.0  0.13159  0.60482  0.93769  1.0000
  H   H241      1.0  0.22514  0.54341  0.70941  1.0000
  C   C201      1.0  0.09925  0.65945  0.74347  1.0000
  H   H242      1.0  0.10222  0.68598  0.90903  1.0000
  H   H243      1.0  0.16230  0.67346  0.71446  1.0000
  N   N13       1.0  0.34497  0.89820  0.93425  1.0000
  C   C202      1.0  0.33054  0.92214  0.91107  1.0000
  C   C203      1.0  0.33091  0.91872  0.96217  1.0000
  C   C204      1.0  0.38287  0.90430  0.92967  1.0000
  C   C205      1.0  0.33693  0.85092  0.93313  1.0000
  C   C206      1.0  0.34733  0.82729  0.90738  1.0000
  C   C207      1.0  0.31936  0.82689  0.95720  1.0000
  C   C208      1.0  0.34038  0.78260  0.90572  1.0000
  C   C209      1.0  0.31302  0.78198  0.95544  1.0000
  C   C210      1.0  0.23853  0.86137  0.01461  1.0000
  S   S62       1.0  0.01209  0.51247  0.84417  1.0000
  H   H244      1.0  0.33719  0.95436  0.96212  1.0000
  H   H245      1.0  0.34385  0.91380  0.88916  1.0000
  H   H246      1.0  0.13007  0.62058  0.78332  1.0000
  C   C211      1.0  0.08290  0.49756  0.73145  1.0000
  H   H247      1.0  0.34195  0.90377  0.98048  1.0000
  H   H248      1.0  0.39516  0.89319  0.90798  1.0000
  C   C212      1.0  0.05970  0.55487  0.99473  1.0000
  H   H249      1.0  0.39490  0.88554  0.94599  1.0000
  H   H250      1.0  0.36122  0.84317  0.88829  1.0000
  H   H251      1.0  0.08704  0.55754  0.92219  1.0000
  C   C213      1.0  0.07461  0.52192  0.75648  1.0000
  H   H252      1.0  0.34640  0.80357  0.83255  1.0000
  H   H253      1.0  0.44247  0.95204  0.00723  1.0000
  H   H254      1.0  0.34855  0.76540  0.88571  1.0000
  H   H255      1.0  0.01921  0.59183  0.89267  1.0000
  C   C214      1.0  0.11067  0.60016  0.98297  1.0000
  H   H256      1.0  0.04192  0.56543  0.71004  1.0000
  S   S63       1.0  0.37792  0.88805  0.83217  1.0000
  C   C215      1.0  0.01725  0.65825  0.93062  1.0000
  H   H257      1.0  0.36421  0.78006  0.00755  1.0000
  Fe  Fe32      1.0  0.39327  0.95836  0.83813  1.0000
  H   H258      1.0  0.34180  0.52147  0.72322  1.0000
  H   H259      1.0  0.10998  0.69276  0.74587  1.0000
  S   S64       1.0  0.42615  0.96928  0.87241  1.0000
  H   H260      1.0  0.17267  0.61788  0.70623  1.0000
  C   C216      1.0  0.00993  0.70090  0.73320  1.0000
  C   C217      1.0  0.15068  0.64087  0.71146  1.0000
  N   N14       1.0  0.12692  0.62620  0.73765  1.0000
  H   H261      1.0  0.31039  0.84185  0.97771  1.0000
  H   H262      1.0  0.13719  0.64402  0.69235  1.0000
  C   C218      1.0  0.28074  0.87945  0.76430  1.0000
  C   C219      1.0  0.08861  0.56374  0.75813  1.0000
  H   H263      1.0  0.43299  0.90063  0.99310  1.0000
  H   H264      1.0  0.16106  0.65642  0.76373  1.0000
  H   H265      1.0  0.23666  0.92947  0.00292  1.0000
  H   H266      1.0  0.08169  0.58111  0.77810  1.0000
  H   H267      1.0  0.30239  0.91620  0.96662  1.0000
  C   C220      1.0  0.30876  0.95175  0.75923  1.0000
  C   C221      1.0  0.06056  0.54622  0.96542  1.0000
  H   H268      1.0  0.08153  0.65270  0.76394  1.0000
  H   H269      1.0  0.31848  0.72514  0.92838  1.0000
  C   C222      1.0  0.04381  0.68805  0.97039  1.0000
  C   C223      1.0  0.24368  0.60991  0.70396  1.0000
  H   H270      1.0  0.09702  0.70743  0.96011  1.0000
  C   C224      1.0  0.08631  0.56436  0.94492  1.0000
  C   C225      1.0  0.11157  0.58245  0.73477  1.0000
  H   H271      1.0  0.36431  0.94807  0.75942  1.0000
  H   H272      1.0  0.36653  0.86872  0.76491  1.0000
  C   C226      1.0  0.32339  0.75994  0.92972  1.0000
  C   C227      1.0  0.01804  0.59929  0.82693  1.0000
  H   H273      1.0  0.40141  0.94392  0.99601  1.0000
  C   C228      1.0  0.42137  0.92765  0.00690  1.0000
  H   H274      1.0  0.30268  0.91495  0.91189  1.0000
  H   H275      1.0  0.23819  0.79138  0.02047  1.0000
  H   H276      1.0  0.30444  0.54946  0.71485  1.0000
  C   C229      1.0  0.31234  0.85923  0.76515  1.0000
  H   H277      1.0  0.25933  0.67725  0.70627  1.0000
  H   H278      1.0  0.05333  0.65490  0.89017  1.0000
  H   H279      1.0  0.29977  0.49973  0.73606  1.0000
  C   C230      1.0  0.11140  0.59100  0.95371  1.0000
  C   C231      1.0  0.04953  0.66419  0.91261  1.0000
  H   H280      1.0  0.30010  0.76406  0.97421  1.0000
  C   C232      1.0  0.01048  0.66699  0.71340  1.0000
  C   C233      1.0  0.07779  0.68191  0.92320  1.0000
  C   C234      1.0  0.99653  0.59339  0.90996  1.0000
  C   C235      1.0  0.20797  0.69922  0.01040  1.0000
  H   H281      1.0  0.16588  0.59823  0.75987  1.0000
  C   C236      1.0  0.11918  0.55690  0.70940  1.0000
  C   C237      1.0  0.23475  0.89605  0.99571  1.0000
  H   H282      1.0  0.04128  0.52499  0.95866  1.0000
  C   C238      1.0  0.07491  0.69394  0.95200  1.0000
  C   C239      1.0  0.34214  0.88445  0.76323  1.0000
  H   H283      1.0  0.39002  0.93948  0.93107  1.0000
  H   H284      1.0  0.08343  0.66087  0.72575  1.0000
  H   H285      1.0  0.40956  0.83507  0.00720  1.0000
  H   H286      1.0  0.02250  0.73183  0.72654  1.0000
  C   C240      1.0  0.38450  0.84192  0.01937  1.0000
  H   H287      1.0  0.00269  0.66384  0.87518  1.0000
  H   H288      1.0  0.25339  0.93836  0.76114  1.0000
  C   C241      1.0  0.35880  0.81012  0.01951  1.0000
  H   H289      1.0  0.25749  0.85965  0.76673  1.0000
  H   H290      1.0  0.05755  0.50822  0.77494  1.0000
  H   H291      1.0  0.00270  0.57335  0.92844  1.0000
  H   H292      1.0  0.03938  0.53965  0.00980  1.0000
  H   H293      1.0  0.33344  0.95825  0.91264  1.0000
  C   C242      1.0  0.03060  0.57686  0.69098  1.0000
  C   C243      1.0  0.87198  0.46121  0.04855  1.0000
  Fe  Fe33      1.0  0.72045  0.07435  0.33052  1.0000
  S   S65       1.0  0.74754  0.13250  0.30667  1.0000
  Fe  Fe34      1.0  0.74589  0.21874  0.08257  1.0000
  S   S66       1.0  0.71044  0.27461  0.09623  1.0000
  Fe  Fe35      1.0  0.74032  0.18262  0.14430  1.0000
  S   S67       1.0  0.70512  0.23644  0.16269  1.0000
  S   S68       1.0  0.75436  0.12487  0.17083  1.0000
  Fe  Fe36      1.0  0.67872  0.22484  0.12433  1.0000
  S   S69       1.0  0.62092  0.22527  0.12808  1.0000
  Fe  Fe37      1.0  0.74047  0.28097  0.13284  1.0000
  S   S70       1.0  0.75436  0.34912  0.14569  1.0000
  S   S71       1.0  0.71158  0.16806  0.10754  1.0000
  S   S72       1.0  0.77823  0.22791  0.11770  1.0000
  H   H294      1.0  0.52303  0.13103  0.12015  1.0000
  H   H295      1.0  0.59085  0.15745  0.28027  1.0000
  H   H296      1.0  0.63225  0.05333  0.24597  1.0000
  S   S73       1.0  0.90878  0.41531  0.11617  1.0000
  H   H297      1.0  0.54916  0.15977  0.18804  1.0000
  C   C244      1.0  0.53818  0.17395  0.33488  1.0000
  C   C245      1.0  0.90638  0.39736  0.03672  1.0000
  H   H298      1.0  0.58343  0.19834  0.35020  1.0000
  C   C246      1.0  0.79697  0.36815  0.13596  1.0000
  C   C247      1.0  0.80525  0.41121  0.14255  1.0000
  C   C248      1.0  0.83937  0.42659  0.13604  1.0000
  C   C249      1.0  0.86540  0.39862  0.12336  1.0000
  C   C250      1.0  0.85702  0.35578  0.11650  1.0000
  C   C251      1.0  0.82288  0.34075  0.12248  1.0000
  H   H299      1.0  0.78525  0.43266  0.15289  1.0000
  C   C252      1.0  0.78859  0.33258  0.04744  1.0000
  H   H300      1.0  0.87703  0.33406  0.10652  1.0000
  H   H301      1.0  0.81677  0.30782  0.11690  1.0000
  C   C253      1.0  0.74898  0.13065  0.26896  1.0000
  C   C254      1.0  0.74531  0.16927  0.25311  1.0000
  C   C255      1.0  0.74619  0.16793  0.22300  1.0000
  C   C256      1.0  0.75176  0.12813  0.20858  1.0000
  H   H302      1.0  0.74154  0.20015  0.26419  1.0000
  H   H303      1.0  0.74325  0.19765  0.21088  1.0000
  C   C257      1.0  0.60048  0.17401  0.12875  1.0000
  C   C258      1.0  0.61686  0.13555  0.13584  1.0000
  C   C259      1.0  0.59903  0.09541  0.13775  1.0000
  C   C260      1.0  0.56502  0.09347  0.13212  1.0000
  C   C261      1.0  0.54907  0.13188  0.12448  1.0000
  C   C262      1.0  0.56656  0.17205  0.12315  1.0000
  H   H304      1.0  0.64306  0.13680  0.14016  1.0000
  H   H305      1.0  0.67802  0.10115  0.26247  1.0000
  H   H306      1.0  0.55380  0.20173  0.11768  1.0000
  C   C263      1.0  0.75402  0.09086  0.25452  1.0000
  H   H307      1.0  0.75756  0.06111  0.26648  1.0000
  C   C264      1.0  0.65889  0.12793  0.26189  1.0000
  H   H308      1.0  0.59926  0.24422  0.18939  1.0000
  N   N15       1.0  0.81514  0.28706  0.21165  1.0000
  C   C265      1.0  0.84190  0.30724  0.18954  1.0000
  C   C266      1.0  0.78117  0.29152  0.20190  1.0000
  C   C267      1.0  0.81390  0.31276  0.23848  1.0000
  C   C268      1.0  0.82277  0.23999  0.21542  1.0000
  C   C269      1.0  0.82602  0.22073  0.24269  1.0000
  C   C270      1.0  0.82591  0.21151  0.19146  1.0000
  C   C271      1.0  0.83205  0.17582  0.24553  1.0000
  C   C272      1.0  0.83214  0.16675  0.19453  1.0000
  C   C273      1.0  0.83511  0.14892  0.22152  1.0000
  H   H309      1.0  0.84283  0.29225  0.16800  1.0000
  H   H310      1.0  0.83704  0.34283  0.18626  1.0000
  H   H311      1.0  0.86800  0.30381  0.19574  1.0000
  H   H312      1.0  0.78093  0.27713  0.18026  1.0000
  H   H313      1.0  0.77367  0.32652  0.19997  1.0000
  H   H314      1.0  0.76051  0.27504  0.21723  1.0000
  H   H315      1.0  0.83880  0.31095  0.24699  1.0000
  H   H316      1.0  0.80886  0.34813  0.23464  1.0000
  H   H317      1.0  0.79275  0.30124  0.25555  1.0000
  H   H318      1.0  0.82318  0.23927  0.26234  1.0000
  H   H319      1.0  0.82258  0.22335  0.17023  1.0000
  H   H320      1.0  0.83311  0.16146  0.26669  1.0000
  H   H321      1.0  0.83313  0.14545  0.17607  1.0000
  H   H322      1.0  0.83862  0.11394  0.22400  1.0000
  C   C274      1.0  0.75562  0.08967  0.22443  1.0000
  H   H323      1.0  0.86924  0.45289  0.07200  1.0000
  C   C275      1.0  0.78823  0.37113  0.06300  1.0000
  C   C276      1.0  0.57291  0.21279  0.25907  1.0000
  H   H324      1.0  0.61471  0.12801  0.34442  1.0000
  H   H325      1.0  0.68094  0.14346  0.20537  1.0000
  S   S74       1.0  0.59615  0.04356  0.32332  1.0000
  C   C277      1.0  0.84499  0.39176  0.03637  1.0000
  H   H326      1.0  0.67330  0.15949  0.25988  1.0000
  C   C278      1.0  0.61814  0.18764  0.21004  1.0000
  C   C279      1.0  0.59749  0.22484  0.20919  1.0000
  H   H327      1.0  0.55564  0.22287  0.27824  1.0000
  H   H328      1.0  0.68050  0.08622  0.21350  1.0000
  C   C280      1.0  0.61663  0.08331  0.24373  1.0000
  C   C281      1.0  0.58920  0.13031  0.33878  1.0000
  H   H329      1.0  0.60125  0.07777  0.22607  1.0000
  H   H330      1.0  0.50408  0.18333  0.24288  1.0000
  C   C282      1.0  0.66352  0.11485  0.21109  1.0000
  H   H331      1.0  0.64249  0.12702  0.28347  1.0000
  S   S75       1.0  0.69549  0.02639  0.30445  1.0000
  C   C283      1.0  0.61692  0.16197  0.23577  1.0000
  H   H332      1.0  0.59834  0.08569  0.26429  1.0000
  C   C284      1.0  0.53885  0.13240  0.20286  1.0000
  H   H333      1.0  0.69887  0.19526  0.04339  1.0000
  H   H334      1.0  0.61159  0.06581  0.14363  1.0000
  N   N16       1.0  0.87531  0.42121  0.03064  1.0000
  S   S76       1.0  0.51651  0.22435  0.34025  1.0000
  S   S77       1.0  0.54217  0.04354  0.13721  1.0000
  H   H335      1.0  0.54749  0.10160  0.19161  1.0000
  H   H336      1.0  0.50124  0.20524  0.20782  1.0000
  H   H337      1.0  0.84562  0.45971  0.14139  1.0000
  C   C285      1.0  0.57144  0.17026  0.34194  1.0000
  H   H338      1.0  0.92940  0.41918  0.03464  1.0000
  H   H339      1.0  0.76006  0.05885  0.21336  1.0000
  H   H340      1.0  0.63497  0.18009  0.19023  1.0000
  H   H341      1.0  0.55955  0.26678  0.23299  1.0000
  H   H342      1.0  0.52342  0.13639  0.02616  1.0000
  H   H343      1.0  0.90233  0.38376  0.05917  1.0000
  H   H344      1.0  0.65019  0.10779  0.19237  1.0000
  S   S78       1.0  0.77153  0.21600  0.03599  1.0000
  C   C286      1.0  0.54102  0.09774  0.32040  1.0000
  C   C287      1.0  0.57506  0.23751  0.23366  1.0000
  C   C288      1.0  0.52295  0.13763  0.32401  1.0000
  C   C289      1.0  0.57409  0.09387  0.32805  1.0000
  H   H345      1.0  0.55128  0.13393  0.22253  1.0000
  H   H346      1.0  0.52924  0.06973  0.31189  1.0000
  Fe  Fe38      1.0  0.64862  0.03689  0.33750  1.0000
  C   C290      1.0  0.59337  0.17550  0.26011  1.0000
  H   H347      1.0  0.76746  0.30949  0.05207  1.0000
  N   N17       1.0  0.63873  0.12280  0.23783  1.0000
  H   H348      1.0  0.81431  0.42895  0.07122  1.0000
  C   C291      1.0  0.81597  0.40040  0.05773  1.0000
  H   H349      1.0  0.76673  0.37769  0.07993  1.0000
  N   N18       1.0  0.50088  0.13450  0.21049  1.0000
  H   H350      1.0  0.55732  0.11087  0.04156  1.0000
  H   H351      1.0  0.50658  0.04652  0.19885  1.0000
  C   C292      1.0  0.81654  0.32315  0.02637  1.0000
  H   H352      1.0  0.49734  0.14025  0.31838  1.0000
  H   H353      1.0  0.84966  0.48160  0.04457  1.0000
  S   S79       1.0  0.54146  0.20667  0.63803  1.0000
  H   H354      1.0  0.63396  0.10132  0.44765  1.0000
  H   H355      1.0  0.75785  0.22030  0.67947  1.0000
  S   S80       1.0  0.70131  0.00423  0.66306  1.0000
  Fe  Fe39      1.0  0.68989  0.03149  0.38814  1.0000
  H   H356      1.0  0.51537  0.11793  0.63521  1.0000
  Fe  Fe40      1.0  0.67290  0.02081  0.62651  1.0000
  S   S81       1.0  0.70441  0.07989  0.61126  1.0000
  S   S82       1.0  0.61486  0.02156  0.63358  1.0000
  H   H357      1.0  0.63378  0.06332  0.57749  1.0000
  S   S83       1.0  0.77290  0.02140  0.61674  1.0000
  H   H358      1.0  0.54025  0.07531  0.51252  1.0000
  Fe  Fe41      1.0  0.73470  0.06156  0.64644  1.0000
  S   S84       1.0  0.74138  0.12068  0.67345  1.0000
  Fe  Fe42      1.0  0.73881  0.03411  0.58317  1.0000
  S   S85       1.0  0.76315  0.05005  0.53721  1.0000
  H   H359      1.0  0.53746  0.16796  0.46385  1.0000
  H   H360      1.0  0.81729  0.99469  0.56083  1.0000
  C   C293      1.0  0.58648  0.13706  0.45796  1.0000
  H   H361      1.0  0.64836  0.14158  0.58365  1.0000
  C   C294      1.0  0.70293  0.02587  0.46268  1.0000
  H   H362      1.0  0.61323  0.05682  0.41037  1.0000
  C   C295      1.0  0.71162  0.01154  0.51238  1.0000
  C   C296      1.0  0.74099  0.03804  0.50827  1.0000
  C   C297      1.0  0.75226  0.05665  0.48086  1.0000
  C   C298      1.0  0.73330  0.05054  0.45806  1.0000
  S   S86       1.0  0.67509  0.02300  0.43671  1.0000
  C   C299      1.0  0.69247  0.00592  0.48977  1.0000
  H   H363      1.0  0.77511  0.07701  0.47747  1.0000
  H   H364      1.0  0.74146  0.06624  0.43728  1.0000
  C   C300      1.0  0.56133  0.15496  0.63781  1.0000
  C   C301      1.0  0.54262  0.11646  0.63589  1.0000
  C   C302      1.0  0.55919  0.07565  0.63498  1.0000
  C   C303      1.0  0.59457  0.07309  0.63590  1.0000
  C   C304      1.0  0.61314  0.11150  0.63854  1.0000
  C   C305      1.0  0.59654  0.15233  0.63959  1.0000
  H   H365      1.0  0.53838  0.18190  0.57126  1.0000
  H   H366      1.0  0.54460  0.04603  0.63317  1.0000
  H   H367      1.0  0.64026  0.10987  0.63979  1.0000
  H   H368      1.0  0.61108  0.18199  0.64139  1.0000
  H   H369      1.0  0.69180  0.10971  0.51292  1.0000
  C   C306      1.0  0.55367  0.09663  0.52539  1.0000
  H   H370      1.0  0.50093  0.16316  0.68899  1.0000
  H   H371      1.0  0.59893  0.17276  0.57328  1.0000
  C   C307      1.0  0.65996  0.14355  0.56045  1.0000
  C   C308      1.0  0.55263  0.15667  0.55838  1.0000
  H   H372      1.0  0.59567  0.15662  0.47433  1.0000
  H   H373      1.0  0.67660  0.06098  0.55755  1.0000
  H   H374      1.0  0.64116  0.04021  0.54220  1.0000
  C   C309      1.0  0.58885  0.09088  0.52593  1.0000
  H   H375      1.0  0.60164  0.06454  0.51330  1.0000
  C   C310      1.0  0.60708  0.11818  0.54269  1.0000
  C   C311      1.0  0.60801  0.10599  0.44305  1.0000
  C   C312      1.0  0.66352  0.11336  0.51323  1.0000
  C   C313      1.0  0.64916  0.06700  0.55555  1.0000
  H   H376      1.0  0.65705  0.17755  0.55230  1.0000
  C   C314      1.0  0.58777  0.15112  0.55920  1.0000
  H   H377      1.0  0.65615  0.08692  0.49931  1.0000
  H   H378      1.0  0.68811  0.13777  0.55970  1.0000
  C   C315      1.0  0.56313  0.08724  0.41527  1.0000
  H   H379      1.0  0.55626  0.06738  0.39812  1.0000
  C   C316      1.0  0.53563  0.12953  0.54152  1.0000
  C   C317      1.0  0.55311  0.14322  0.45180  1.0000
  S   S87       1.0  0.67255  0.08755  0.36222  1.0000
  H   H380      1.0  0.65914  0.14525  0.50262  1.0000
  C   C318      1.0  0.54040  0.11859  0.43018  1.0000
  N   N19       1.0  0.64426  0.11100  0.54309  1.0000
  H   H381      1.0  0.72205  0.28714  0.68681  1.0000
  H   H382      1.0  0.52435  0.17990  0.39447  1.0000
  C   C319      1.0  0.59629  0.08101  0.42191  1.0000
  H   H383      1.0  0.70319  0.99604  0.53311  1.0000
  H   H384      1.0  0.50687  0.19710  0.42976  1.0000
  H   H385      1.0  0.50829  0.13373  0.54125  1.0000
  H   H386      1.0  0.51331  0.10300  0.37986  1.0000
  S   S88       1.0  0.74071  0.02316  0.35900  1.0000
  H   H387      1.0  0.64817  0.20048  0.68467  1.0000
  N   N20       1.0  0.50542  0.12710  0.42334  1.0000
  H   H388      1.0  0.66909  0.98656  0.49341  1.0000
  H   H389      1.0  0.64931  0.12102  0.68950  1.0000
  H   H390      1.0  0.81007  0.98311  0.51248  1.0000
  H   H391      1.0  0.49804  0.01314  0.68363  1.0000
  C   C320      1.0  0.50361  0.17300  0.41294  1.0000
  H   H392      1.0  0.49619  0.06302  0.40712  1.0000
  C   C321      1.0  0.49574  0.09821  0.40064  1.0000
  Fe  Fe43      1.0  0.71456  0.16415  0.83692  1.0000
  S   S89       1.0  0.68803  0.22187  0.81993  1.0000
  S   S90       1.0  0.74686  0.11646  0.80758  1.0000
  Fe  Fe44      1.0  0.68476  0.18304  0.89964  1.0000
  S   S91       1.0  0.65565  0.24129  0.88677  1.0000
  S   S92       1.0  0.67283  0.16472  0.94701  1.0000
  Fe  Fe45      1.0  0.64223  0.19935  0.85120  1.0000
  S   S93       1.0  0.58927  0.19934  0.83792  1.0000
  Fe  Fe46      1.0  0.70451  0.25764  0.85702  1.0000
  S   S94       1.0  0.72118  0.32859  0.85435  1.0000
  S   S95       1.0  0.66767  0.13958  0.86625  1.0000
  S   S96       1.0  0.73478  0.20181  0.87202  1.0000
  C   C322      1.0  0.83326  0.41748  0.92382  1.0000
  C   C323      1.0  0.76470  0.34511  0.84767  1.0000
  C   C324      1.0  0.79156  0.31466  0.84427  1.0000
  C   C325      1.0  0.82591  0.32914  0.83789  1.0000
  C   C326      1.0  0.80676  0.40448  0.83985  1.0000
  C   C327      1.0  0.77242  0.38999  0.84576  1.0000
  H   H393      1.0  0.78592  0.28010  0.84677  1.0000
  H   H394      1.0  0.84667  0.30556  0.83509  1.0000
  H   H395      1.0  0.75176  0.41374  0.84862  1.0000
  C   C328      1.0  0.70079  0.17947  0.97119  1.0000
  C   C329      1.0  0.68771  0.18190  0.00070  1.0000
  H   H396      1.0  0.62468  0.06254  0.78398  1.0000
  C   C330      1.0  0.74415  0.20169  0.01127  1.0000
  C   C331      1.0  0.75738  0.19898  0.98177  1.0000
  C   C332      1.0  0.73571  0.18792  0.96172  1.0000
  H   H397      1.0  0.66086  0.17491  0.00822  1.0000
  C   C333      1.0  0.83442  0.37780  0.90944  1.0000
  H   H398      1.0  0.78449  0.20487  0.97449  1.0000
  H   H399      1.0  0.74613  0.18489  0.93910  1.0000
  H   H400      1.0  0.88613  0.40805  0.98474  1.0000
  C   C334      1.0  0.75705  0.08192  0.72337  1.0000
  C   C335      1.0  0.75847  0.08189  0.75319  1.0000
  C   C336      1.0  0.74156  0.11447  0.77090  1.0000
  C   C337      1.0  0.72245  0.14630  0.75870  1.0000
  C   C338      1.0  0.72177  0.14700  0.72890  1.0000
  H   H401      1.0  0.69381  0.32747  0.93895  1.0000
  H   H402      1.0  0.77329  0.05707  0.76246  1.0000
  H   H403      1.0  0.70895  0.17125  0.77193  1.0000
  H   H404      1.0  0.70803  0.17283  0.71957  1.0000
  C   C339      1.0  0.51650  0.10715  0.83262  1.0000
  C   C340      1.0  0.53371  0.14739  0.83325  1.0000
  C   C341      1.0  0.56852  0.14847  0.83661  1.0000
  C   C342      1.0  0.58625  0.10909  0.83855  1.0000
  C   C343      1.0  0.56919  0.06891  0.83753  1.0000
  H   H405      1.0  0.51987  0.17776  0.83166  1.0000
  H   H406      1.0  0.61318  0.10943  0.84053  1.0000
  H   H407      1.0  0.58307  0.03857  0.83916  1.0000
  C   C344      1.0  0.53422  0.06781  0.83486  1.0000
  C   C345      1.0  0.83359  0.37410  0.83551  1.0000
  N   N21       1.0  0.62778  0.06995  0.73768  1.0000
  C   C346      1.0  0.61054  0.05297  0.76617  1.0000
  C   C347      1.0  0.60984  0.05055  0.71514  1.0000
  C   C348      1.0  0.66390  0.05440  0.73344  1.0000
  C   C349      1.0  0.62769  0.11839  0.73529  1.0000
  C   C350      1.0  0.61763  0.14587  0.75938  1.0000
  C   C351      1.0  0.77885  0.22715  0.71899  1.0000
  H   H408      1.0  0.81169  0.30500  0.77877  1.0000
  C   C352      1.0  0.77748  0.23101  0.79474  1.0000
  N   N22       1.0  0.57035  0.12712  0.99603  1.0000
  C   C353      1.0  0.52834  0.13633  0.91619  1.0000
  H   H409      1.0  0.79192  0.21917  0.81198  1.0000
  S   S97       1.0  0.92083  0.46607  0.87403  1.0000
  C   C354      1.0  0.82065  0.19800  0.76015  1.0000
  H   H410      1.0  0.62891  0.24655  0.72726  1.0000
  H   H411      1.0  0.85612  0.37085  0.89278  1.0000
  H   H412      1.0  0.67823  0.06798  0.75008  1.0000
  H   H413      1.0  0.66546  0.01802  0.73471  1.0000
  H   H414      1.0  0.62080  0.10535  0.97581  1.0000
  H   H415      1.0  0.90327  0.45827  0.99505  1.0000
  H   H416      1.0  0.60335  0.14960  0.94170  1.0000
  C   C355      1.0  0.61799  0.19151  0.75634  1.0000
  C   C356      1.0  0.80733  0.34772  0.91561  1.0000
  H   H417      1.0  0.73627  0.34119  0.98834  1.0000
  H   H418      1.0  0.59022  0.06238  0.98660  1.0000
  C   C357      1.0  0.63921  0.13958  0.70838  1.0000
  H   H419      1.0  0.70956  0.37804  0.95047  1.0000
  H   H420      1.0  0.72109  0.28921  0.97870  1.0000
  H   H421      1.0  0.80975  0.31807  0.90321  1.0000
  H   H422      1.0  0.77408  0.26633  0.92973  1.0000
  H   H423      1.0  0.60982  0.13307  0.78095  1.0000
  C   C358      1.0  0.59909  0.09509  0.99269  1.0000
  S   S98       1.0  0.87685  0.39106  0.82667  1.0000
  H   H424      1.0  0.58354  0.06491  0.77125  1.0000
  H   H425      1.0  0.81237  0.43915  0.83808  1.0000
  C   C359      1.0  0.49699  0.07473  0.70564  1.0000
  C   C360      1.0  0.75841  0.24013  0.69847  1.0000
  H   H426      1.0  0.60703  0.01435  0.71772  1.0000
  H   H427      1.0  0.60946  0.01650  0.76693  1.0000
  N   N23       1.0  0.74798  0.32681  0.94268  1.0000
  H   H428      1.0  0.75798  0.20563  0.79232  1.0000
  H   H429      1.0  0.83921  0.20162  0.73978  1.0000
  N   N24       1.0  0.49776  0.14519  0.73415  1.0000
  C   C361      1.0  0.77798  0.35679  0.93654  1.0000
  C   C362      1.0  0.63915  0.18522  0.70549  1.0000
  H   H430      1.0  0.84168  0.28262  0.74989  1.0000
  C   C363      1.0  0.52001  0.12154  0.96773  1.0000
  C   C364      1.0  0.73810  0.30227  0.72742  1.0000
  C   C365      1.0  0.57634  0.14221  0.94256  1.0000
  C   C366      1.0  0.80523  0.42711  0.94479  1.0000
  C   C367      1.0  0.56296  0.14527  0.91668  1.0000
  H   H431      1.0  0.75662  0.40643  0.96736  1.0000
  C   C368      1.0  0.75176  0.28631  0.92527  1.0000
  C   C369      1.0  0.77802  0.39722  0.95122  1.0000
  H   H432      1.0  0.51811  0.13860  0.89604  1.0000
  H   H433      1.0  0.80437  0.45845  0.95555  1.0000
  H   H434      1.0  0.72044  0.36210  0.91345  1.0000
  H   H435      1.0  0.72852  0.26496  0.93004  1.0000
  C   C370      1.0  0.82497  0.27437  0.77067  1.0000
  H   H436      1.0  0.75474  0.29399  0.90177  1.0000
  H   H437      1.0  0.83591  0.18905  0.77750  1.0000
  H   H438      1.0  0.76612  0.29714  0.97947  1.0000
  C   C371      1.0  0.74265  0.31322  0.97359  1.0000
  C   C372      1.0  0.53213  0.16462  0.73505  1.0000
  C   C373      1.0  0.55537  0.13003  0.96892  1.0000
  H   H439      1.0  0.79322  0.19720  0.71455  1.0000
  C   C374      1.0  0.71664  0.34966  0.93623  1.0000
  H   H440      1.0  0.80346  0.16942  0.75831  1.0000
  C   C375      1.0  0.88082  0.43570  0.99991  1.0000
  H   H441      1.0  0.55045  0.15685  0.71512  1.0000
  H   H442      1.0  0.91325  0.36960  0.02189  1.0000
  H   H443      1.0  0.54355  0.15236  0.75393  1.0000
  H   H444      1.0  0.57959  0.15478  0.89688  1.0000
  H   H445      1.0  0.75745  0.30980  0.76700  1.0000
  H   H446      1.0  0.84202  0.26520  0.78668  1.0000
  H   H447      1.0  0.86560  0.34312  0.00451  1.0000
  C   C376      1.0  0.73936  0.11520  0.71108  1.0000
  H   H448      1.0  0.76329  0.26094  0.80291  1.0000
  H   H449      1.0  0.61050  0.21175  0.77516  1.0000
  C   C377      1.0  0.62847  0.21115  0.72943  1.0000
  H   H450      1.0  0.58362  0.06465  0.71570  1.0000
  H   H451      1.0  0.60544  0.18170  0.98548  1.0000
  H   H452      1.0  0.53080  0.20097  0.73668  1.0000
  Fe  Fe47      1.0  0.89128  0.46036  0.83692  1.0000
  H   H453      1.0  0.85391  0.44113  0.91838  1.0000
  C   C378      1.0  0.75849  0.28967  0.74805  1.0000
  H   H454      1.0  0.85787  0.45345  0.99439  1.0000
  C   C379      1.0  0.50137  0.09707  0.73127  1.0000
  H   H455      1.0  0.67820  0.06465  0.71204  1.0000
  S   S99       1.0  0.51389  0.01685  0.83308  1.0000
  H   H456      1.0  0.77089  0.05737  0.70973  1.0000
  C   C380      1.0  0.77948  0.25163  0.74452  1.0000
  H   H457      1.0  0.72213  0.33129  0.73076  1.0000
  N   N25       1.0  0.80043  0.23872  0.76694  1.0000
  H   H458      1.0  0.59446  0.17024  0.02318  1.0000
  H   H459      1.0  0.62408  0.05574  0.69294  1.0000
  H   H460      1.0  0.52117  0.00669  0.77005  1.0000
  C   C381      1.0  0.50689  0.12467  0.94166  1.0000
  C   C382      1.0  0.51479  0.02581  0.75190  1.0000
  H   H461      1.0  0.51506  0.08575  0.77421  1.0000
  H   H462      1.0  0.50188  0.11238  0.98658  1.0000
  H   H463      1.0  0.61032  0.09102  0.01297  1.0000
  C   C383      1.0  0.58399  0.17063  0.00240  1.0000
  C   C384      1.0  0.51082  0.07119  0.75419  1.0000
  H   H464      1.0  0.53459  0.07987  0.01850  1.0000
  C   C385      1.0  0.73805  0.27752  0.70268  1.0000
  H   H465      1.0  0.56349  0.19605  0.00385  1.0000
  C   C386      1.0  0.50149  0.02939  0.70343  1.0000
  C   C387      1.0  0.51019  0.00495  0.72654  1.0000
  C   C388      1.0  0.70924  0.19332  0.02067  1.0000
  C   C389      1.0  0.54527  0.11299  0.02157  1.0000
  H   H466      1.0  0.81692  0.29251  0.01484  1.0000
  C   C390      1.0  0.84431  0.35226  0.02078  1.0000
  H   H467      1.0  0.97365  0.55348  0.25572  1.0000
  H   H468      1.0  0.76243  0.82372  0.31909  1.0000
  S   S100      1.0  0.87948  0.62723  0.29083  1.0000
  S   S101      1.0  0.93111  0.73724  0.29628  1.0000
  Fe  Fe48      1.0  0.91914  0.58286  0.12961  1.0000
  S   S102      1.0  0.89451  0.64070  0.15431  1.0000
  C   C391      1.0  0.77298  0.89280  0.32138  1.0000
  H   H469      1.0  0.82332  0.80121  0.31623  1.0000
  N   N26       1.0  0.99385  0.60500  0.22561  1.0000
  S   S103      1.0  0.96873  0.60001  0.10090  1.0000
  Fe  Fe49      1.0  0.92507  0.48639  0.11569  1.0000
  S   S104      1.0  0.72954  0.90763  0.32182  1.0000
  Fe  Fe50      1.0  0.98929  0.54121  0.12131  1.0000
  H   H470      1.0  0.83400  0.74469  0.23039  1.0000
  S   S105      1.0  0.88594  0.85188  0.31562  1.0000
  C   C392      1.0  0.88255  0.63206  0.25300  1.0000
  C   C393      1.0  0.88339  0.59658  0.20660  1.0000
  C   C394      1.0  0.88939  0.63696  0.19228  1.0000
  C   C395      1.0  0.89146  0.67499  0.20844  1.0000
  C   C396      1.0  0.88864  0.67245  0.23870  1.0000
  H   H471      1.0  0.89593  0.70633  0.19746  1.0000
  H   H472      1.0  0.89093  0.70166  0.25099  1.0000
  S   S106      1.0  0.94079  0.52588  0.15177  1.0000
  C   C397      1.0  0.87969  0.59422  0.23687  1.0000
  S   S107      1.0  0.89916  0.54217  0.09569  1.0000
  Fe  Fe51      1.0  0.95976  0.72338  0.33318  1.0000
  H   H473      1.0  0.79162  0.93957  0.22821  1.0000
  H   H474      1.0  0.95298  0.58772  0.20212  1.0000
  H   H475      1.0  0.74350  0.84931  0.27361  1.0000
  H   H476      1.0  0.98264  0.78103  0.21747  1.0000
  H   H477      1.0  0.99539  0.58863  0.18072  1.0000
  C   C398      1.0  0.83122  0.86970  0.24453  1.0000
  C   C399      1.0  0.80155  0.84951  0.23651  1.0000
  C   C400      1.0  0.79868  0.92442  0.32156  1.0000
  Fe  Fe52      1.0  0.89825  0.78181  0.32682  1.0000
  C   C401      1.0  0.84236  0.86709  0.31779  1.0000
  H   H478      1.0  0.78786  0.88858  0.18825  1.0000
  Fe  Fe53      1.0  0.95123  0.55383  0.06934  1.0000
  Fe  Fe54      1.0  0.71189  0.97611  0.33501  1.0000
  H   H479      1.0  0.71569  0.87340  0.25108  1.0000
  C   C402      1.0  0.78212  0.84840  0.31934  1.0000
  C   C403      1.0  0.80362  0.80380  0.23109  1.0000
  C   C404      1.0  0.86077  0.84538  0.24716  1.0000
  H   H480      1.0  0.74191  0.89276  0.19868  1.0000
  C   C405      1.0  0.83316  0.77972  0.23419  1.0000
  H   H481      1.0  0.74627  0.93810  0.24020  1.0000
  H   H482      1.0  0.78237  0.78621  0.22447  1.0000
  C   C406      1.0  0.81661  0.83552  0.31788  1.0000
  H   H483      1.0  0.88286  0.86126  0.25389  1.0000
  H   H484      1.0  0.88435  0.78179  0.24515  1.0000
  H   H485      1.0  0.85322  0.93615  0.31930  1.0000
  S   S108      1.0  0.97608  0.49618  0.08744  1.0000
  C   C407      1.0  0.98066  0.58059  0.20240  1.0000
  H   H486      1.0  0.87483  0.56291  0.24784  1.0000
  S   S109      1.0  0.86009  0.72940  0.34377  1.0000
  C   C408      1.0  0.77083  0.92077  0.24193  1.0000
  H   H487      1.0  0.88114  0.56722  0.19437  1.0000
  C   C409      1.0  0.83334  0.91157  0.31947  1.0000
  C   C410      1.0  0.86163  0.80049  0.24233  1.0000
  Fe  Fe55      1.0  0.89581  0.68377  0.31623  1.0000
  H   H488      1.0  0.83219  0.90406  0.24949  1.0000
  N   N27       1.0  0.76992  0.87423  0.23307  1.0000
  H   H489      1.0  0.89272  0.57153  0.02721  1.0000
  H   H490      1.0  0.94697  0.60116  0.25600  1.0000
  C   C411      1.0  0.97839  0.67392  0.19901  1.0000
  H   H491      1.0  0.76192  0.84009  0.19453  1.0000
  H   H492      1.0  0.77455  0.92332  0.26490  1.0000
  S   S110      1.0  0.92656  0.66693  0.35162  1.0000
  H   H493      1.0  0.96549  0.73447  0.17918  1.0000
  H   H494      1.0  0.99393  0.63448  0.31873  1.0000
  H   H495      1.0  0.98497  0.60226  0.27243  1.0000
  H   H496      1.0  0.79196  0.95878  0.32274  1.0000
  H   H497      1.0  0.98284  0.54447  0.20523  1.0000
  C   C412      1.0  0.99085  0.65318  0.22271  1.0000
  C   C413      1.0  0.76516  0.87387  0.20232  1.0000
  C   C414      1.0  0.98528  0.74575  0.21872  1.0000
  C   C415      1.0  0.97569  0.71953  0.19720  1.0000
  H   H498      1.0  0.96980  0.65573  0.18181  1.0000
  H   H499      1.0  0.73353  0.82053  0.24293  1.0000
  C   C416      1.0  0.73944  0.85338  0.25078  1.0000
  C   C417      1.0  0.97415  0.58985  0.25360  1.0000
  H   H500      1.0  0.89527  0.48244  0.04377  1.0000
  H   H501      1.0  0.79526  0.71326  0.67024  1.0000
  C   C418      1.0  0.94704  0.59922  0.45506  1.0000
  C   C419      1.0  0.83480  0.85526  0.52157  1.0000
  H   H502      1.0  0.75790  0.71419  0.39047  1.0000
  C   C420      1.0  0.98084  0.60749  0.67377  1.0000
  C   C421      1.0  0.85451  0.74707  0.67908  1.0000
  C   C422      1.0  0.87060  0.88392  0.55468  1.0000
  H   H503      1.0  0.77320  0.89914  0.53741  1.0000
  H   H504      1.0  0.79405  0.76917  0.66003  1.0000
  H   H505      1.0  0.85663  0.71212  0.67260  1.0000
  Fe  Fe56      1.0  0.89422  0.71761  0.37752  1.0000
  S   S111      1.0  0.86760  0.71221  0.42401  1.0000
  H   H506      1.0  0.81258  0.93043  0.49664  1.0000
  Fe  Fe57      1.0  0.92524  0.76758  0.61767  1.0000
  S   S112      1.0  0.89376  0.71506  0.60090  1.0000
  S   S113      1.0  0.90804  0.83720  0.62764  1.0000
  C   C423      1.0  0.84985  0.82471  0.39183  1.0000
  S   S114      1.0  0.96012  0.65041  0.60285  1.0000
  Fe  Fe58      1.0  0.94309  0.69890  0.57147  1.0000
  S   S115      1.0  0.95762  0.68486  0.52376  1.0000
  Fe  Fe59      1.0  0.91436  0.67224  0.63408  1.0000
  S   S116      1.0  0.97315  0.75452  0.58622  1.0000
  S   S117      1.0  0.94292  0.72579  0.65240  1.0000
  H   H507      1.0  0.83974  0.90491  0.41136  1.0000
  C   C424      1.0  0.84237  0.89015  0.53937  1.0000
  C   C425      1.0  0.89288  0.70844  0.45189  1.0000
  C   C426      1.0  0.87661  0.70436  0.48067  1.0000
  C   C427      1.0  0.89617  0.69908  0.50322  1.0000
  C   C428      1.0  0.93211  0.69762  0.49699  1.0000
  C   C429      1.0  0.94833  0.70291  0.46828  1.0000
  C   C430      1.0  0.92882  0.70847  0.44579  1.0000
  H   H508      1.0  0.84878  0.70406  0.48547  1.0000
  H   H509      1.0  0.88345  0.69445  0.52523  1.0000
  H   H510      1.0  0.97612  0.70149  0.46330  1.0000
  H   H511      1.0  0.94157  0.71159  0.42368  1.0000
  C   C431      1.0  0.82066  0.90953  0.63799  1.0000
  C   C432      1.0  0.85508  0.89604  0.63653  1.0000
  C   C433      1.0  0.86519  0.85386  0.62716  1.0000
  C   C434      1.0  0.84089  0.82571  0.61831  1.0000
  C   C435      1.0  0.80642  0.83902  0.62007  1.0000
  N   N28       1.0  0.81730  0.84062  0.40881  1.0000
  H   H512      1.0  0.84854  0.79359  0.61035  1.0000
  H   H513      1.0  0.78758  0.81684  0.61368  1.0000
  H   H514      1.0  0.84838  0.79056  0.50532  1.0000
  C   C436      1.0  0.89015  0.84547  0.55187  1.0000
  C   C437      1.0  0.79309  0.74688  0.67911  1.0000
  H   H515      1.0  0.81346  0.85739  0.50963  1.0000
  C   C438      1.0  0.81660  0.88902  0.40501  1.0000
  C   C439      1.0  0.79614  0.88069  0.63026  1.0000
  S   S118      1.0  0.88355  0.62183  0.66333  1.0000
  C   C440      1.0  0.78504  0.92077  0.55198  1.0000
  C   C441      1.0  0.81790  0.83058  0.43975  1.0000
  H   H516      1.0  0.82124  0.79484  0.44371  1.0000
  H   H517      1.0  0.87382  0.91806  0.64326  1.0000
  H   H518      1.0  0.89747  0.78235  0.53213  1.0000
  H   H519      1.0  0.84860  0.82622  0.36843  1.0000
  H   H520      1.0  0.81290  0.94168  0.64598  1.0000
  H   H521      1.0  0.95418  0.61990  0.67957  1.0000
  H   H522      1.0  0.85550  0.79024  0.39702  1.0000
  H   H523      1.0  0.87798  0.90789  0.56932  1.0000
  C   C442      1.0  0.75824  0.74972  0.39057  1.0000
  S   S119      1.0  0.75223  0.89460  0.63452  1.0000
  H   H524      1.0  0.83039  0.95193  0.58309  1.0000
  C   C443      1.0  0.88220  0.81209  0.53407  1.0000
  H   H525      1.0  0.91141  0.84128  0.56395  1.0000
  H   H526      1.0  0.83976  0.84727  0.44766  1.0000
  C   C444      1.0  0.85453  0.81690  0.51898  1.0000
  N   N29       1.0  0.82169  0.93094  0.54104  1.0000
  H   H527      1.0  0.78222  0.90414  0.57351  1.0000
  C   C445      1.0  0.83308  0.96426  0.56038  1.0000
  Fe  Fe60      1.0  0.73667  0.96536  0.63031  1.0000
  H   H528      1.0  0.92070  0.60017  0.46618  1.0000
  H   H529      1.0  0.87270  0.84406  0.39559  1.0000
  H   H530      1.0  0.81642  0.89828  0.38193  1.0000
  H   H531      1.0  0.93256  0.60798  0.41305  1.0000
  H   H532      1.0  0.76905  0.95104  0.55442  1.0000
  Fe  Fe61      1.0  0.98758  0.70683  0.61911  1.0000
  H   H533      1.0  0.80597  0.75195  0.40648  1.0000
  H   H534      1.0  0.79374  0.90382  0.41841  1.0000
  S   S120      1.0  0.70453  0.97625  0.59521  1.0000
  C   C446      1.0  0.95381  0.60382  0.42513  1.0000
  H   H535      1.0  0.79342  0.84078  0.45324  1.0000
  H   H536      1.0  0.85937  0.76714  0.65892  1.0000
  C   C447      1.0  0.98778  0.60443  0.41082  1.0000
  H   H537      1.0  0.99162  0.60848  0.38758  1.0000
  H   H538      1.0  0.98030  0.58149  0.65742  1.0000
  H   H539      1.0  0.82115  0.82443  0.68132  1.0000
  H   H540      1.0  0.86025  0.97447  0.55311  1.0000
  H   H541      1.0  0.85141  0.95791  0.50241  1.0000
  C   C448      1.0  0.82409  0.95129  0.51186  1.0000
  S   S121      1.0  0.93022  0.77289  0.36221  1.0000
  C   C449      1.0  0.78580  0.77173  0.39961  1.0000
  C   C450      1.0  0.78753  0.81820  0.39946  1.0000
  C   C451      1.0  0.97419  0.59517  0.47080  1.0000
  H   H542      1.0  0.96865  0.59291  0.49420  1.0000
  C   C452      1.0  0.75953  0.84122  0.39030  1.0000
  H   H543      1.0  0.71145  0.83725  0.37379  1.0000
  H   H544      1.0  0.75849  0.87654  0.38902  1.0000
  C   C453      1.0  0.73143  0.77325  0.38144  1.0000
  C   C454      1.0  0.73202  0.81887  0.38143  1.0000
  H   H545      1.0  0.71026  0.75613  0.37417  1.0000
  S   S122      1.0  0.66222  0.98149  0.36548  1.0000
  N   N30       1.0  0.82067  0.75704  0.69641  1.0000
  Fe  Fe62      1.0  0.95460  0.51335  0.84550  1.0000
  S   S123      1.0  0.92340  0.57185  0.86112  1.0000
  H   H546      1.0  0.93374  0.62270  0.93031  1.0000
  C   C455      1.0  0.81722  0.74774  0.75092  1.0000
  S   S124      1.0  0.85500  0.51567  0.85119  1.0000
  H   H547      1.0  0.81398  0.66731  0.70132  1.0000
  Fe  Fe63      1.0  0.89478  0.55837  0.82417  1.0000
  S   S125      1.0  0.88711  0.61968  0.79829  1.0000
  Fe  Fe64      1.0  0.88719  0.52389  0.88650  1.0000
  S   S126      1.0  0.86291  0.53404  0.93290  1.0000
  H   H548      1.0  0.84161  0.81604  0.71204  1.0000
  H   H549      1.0  0.95817  0.65173  0.88447  1.0000
  H   H550      1.0  0.51326  0.96974  0.72483  1.0000
  C   C456      1.0  0.97392  0.55189  0.71071  1.0000
  C   C457      1.0  0.89141  0.53793  0.95817  1.0000
  C   C458      1.0  0.87925  0.55281  0.98608  1.0000
  C   C459      1.0  0.92610  0.52663  0.95080  1.0000
  H   H551      1.0  0.85239  0.56152  0.99187  1.0000
  H   H552      1.0  0.80997  0.65470  0.79241  1.0000
  C   C460      1.0  0.94871  0.53152  0.97098  1.0000
  C   C461      1.0  0.89718  0.65719  0.71434  1.0000
  C   C462      1.0  0.89750  0.65628  0.74422  1.0000
  C   C463      1.0  0.88804  0.61823  0.76061  1.0000
  C   C464      1.0  0.87806  0.58100  0.74690  1.0000
  C   C465      1.0  0.87657  0.58245  0.71706  1.0000
  H   H553      1.0  0.97557  0.52312  0.96513  1.0000
  H   H554      1.0  0.90504  0.68526  0.75472  1.0000
  H   H555      1.0  0.87041  0.55161  0.75945  1.0000
  H   H556      1.0  0.98394  0.53603  0.72926  1.0000
  H   H557      1.0  0.86797  0.55395  0.70667  1.0000
  H   H558      1.0  0.97499  0.57693  0.90143  1.0000
  C   C466      1.0  0.81092  0.67564  0.77339  1.0000
  C   C467      1.0  0.93689  0.54830  0.99843  1.0000
  C   C468      1.0  0.81945  0.80497  0.70178  1.0000
  C   C469      1.0  0.90198  0.55818  0.00617  1.0000
  H   H559      1.0  0.99200  0.72190  0.77657  1.0000
  C   C470      1.0  0.81295  0.68366  0.72175  1.0000
  C   C471      1.0  0.80984  0.65718  0.74658  1.0000
  H   H560      1.0  0.94687  0.67120  0.94685  1.0000
  H   H561      1.0  0.81596  0.73479  0.79649  1.0000
  C   C472      1.0  0.81638  0.72988  0.72316  1.0000
  C   C473      1.0  0.99357  0.62644  0.72117  1.0000
  H   H562      1.0  0.93554  0.51444  0.92948  1.0000
  H   H563      1.0  0.94638  0.56051  0.71761  1.0000
  C   C474      1.0  0.95529  0.63774  0.93975  1.0000
  H   H564      1.0  0.95797  0.61763  0.95919  1.0000
  C   C475      1.0  0.81457  0.72078  0.77557  1.0000
  H   H565      1.0  0.76713  0.75028  0.69230  1.0000
  H   H566      1.0  0.79491  0.81448  0.71547  1.0000
  C   C476      1.0  0.98089  0.66468  0.89326  1.0000
  S   S127      1.0  0.92866  0.50250  0.80685  1.0000
  H   H567      1.0  0.82043  0.78232  0.75416  1.0000
  H   H568      1.0  0.80808  0.62188  0.74486  1.0000
  C   C477      1.0  0.88611  0.62059  0.70067  1.0000
  H   H569      1.0  0.96296  0.59236  0.75827  1.0000
  C   C478      1.0  0.97677  0.62170  0.75019  1.0000
  H   H570      1.0  0.99216  0.66628  0.97560  1.0000
  N   N31       1.0  0.98783  0.63896  0.91884  1.0000
  C   C479      1.0  0.97626  0.65592  0.76976  1.0000
  H   H571      1.0  0.90465  0.68667  0.70216  1.0000
  H   H572      1.0  0.97583  0.69967  0.89878  1.0000
  H   H573      1.0  0.96221  0.65195  0.79149  1.0000
  C   C480      1.0  0.99277  0.69541  0.76132  1.0000
  H   H574      1.0  0.99173  0.59711  0.82293  1.0000
  N   N32       1.0  0.99450  0.59112  0.69971  1.0000
  S   S128      1.0  0.96702  0.56122  0.02109  1.0000
  H   H575      1.0  0.97436  0.52647  0.69384  1.0000
  H   H576      1.0  0.87586  0.75400  0.69145  1.0000
