data_image0
_chemical_formula_structural       CHCSCFeSFeS2CH2C4HSHC4HSFeCSC3H3SH2CH2CH3C4H4C2H3CH3CHNHC2NSC4H2CHCHSH3CHSH2CHC2H5FeCH3C2SH2FeC2H6C2HFeH2SC3HCSHSH2CFeHCH2FeCH2FeC5H3SHCHSHCSC3SCFeH2FeHSHSCSCHSHFeH3SCSHCSHC2HSCHC2NH2CH2C3H2SH2CHCH3SCH3CHCHC3SCFeCHC2H2FeSHCHFeCH3CH3FeC3FeS2FeSHFeSFeS3FeS2FeSFeS2HC2HCH2CH2C6H4SH4SC2H2C3H2CNSHSCSHFeSFeSFeHCH4C3H2C4H4CNC9H15SH3CSNH2CH4C2HCHCNFeHC2HC3HC4H3SHCH4CFeCNH3C7H2C4HCH2SH2CSH3CH9CH2C2HCH2SHCSHCNHCH2C3SCHCHC4HC3HC2H2C3FeH2C2HCHNS2FeSCFeS2FeS2FeCFeS3CHC4HC2H2CH3N2C2H3CHCH2CHC3HC2H3CH2C2H2SHC6H3FeS2FeSFeS2FeHSFeH3C2S2H2C2H3CHC6H2SCHCHCHNHCHC3H2CH6CH2C2HC5H3SHCH2CHC2HSHCH2CHCH2SHC3H7NC2H4C2H4CH2C2H7SH2CHCH2C4H2CH3CH2C3H2C2HCNCH3CHCH2CHC3H2C2HC2FeC3HCH2SHFeSCFeSFeSH2FeSFeS2FeSFeS3CS2CSHFeSFeSHC7H4C3H2CH2FeHC6H4CSC3H2CH4CHCH2CNHC2HCH3CH3NCNCHC7HCHC2H2C3H4NHC2H2CNH3CHCH4CHC3H3CSHCH2CH6CHCHCHC3HCH5SC4HSCH2CH3C4H2C2H2CHSH4CNH3CS2C2NCHC4H3C2NH2C4HCHFeCH4FeH2FeH3FeHCS2FeSHFeS2FeS2FeSFeS3CSC2SHFeS2CH3C2HC4HC6H4CH6FeCFeSHC3SC4HSCH3CH2C2FeCH2C7H2NC5H2CHCH4CH5CH7CHC2H2CHNH4FeC4H4C2H7C4H5CSC2FeCH4CH3CHC2HCHC2NCH2NC4HCHSH3NHCSHNHC2H2C2NCSCNHCH4C2HCHCHCH2CHCH4CHCH5CH2FeCHSHC5HFeSHSHFeSFeSCH6C2SCH2FeCHNCHCHCH5CH2FeC3H3C3H4CHC2SHC2HC4H2CHCHCH2CNC4SCS2C2HCH2SHFeCSHFeNH5CHSHS2HFeH2FeSCSC3SCSCS2HCHC2H5C4H3CNHCHC2HFeCFeH3SC2H2CH2CH2CHFeSCHCHCH2SHSFeCHC2SHCHFeCH2SC2H2NH4FeS2FeSCFeSFeS3FeS2FeSFeSH4CH3SH2C6H6CHC2HCH2C3H4SCSCS2FeSFeSNSH4C4H5C2H2S2HCH2C2H3CHCHCHCHSH5CH3C4SHNH2CHCH2C2HC2HCHCH3CH2SC2H3CHC2H2CH2NHNHCHC2H2CHCHFeCH2CHCNHC2H3SH3NC3SHFeCH3C3HCH3C2FeCHCHCHC2H2C5HFeC3H3C2H8CHC3HCNHCSH3CHCH3S2FeSCFeS2FeS2FeCFeS3HCSHC2HC2H3C2H2NH3C2H7C4SCH2C3HC2HFeH2C6H3FeS2FeSFeS2FeS2FeH2NH2S2CH2CSCH3C6H9CSHC5H4C2HNCHC4H2CH13CNCHC2HC2SCH2CSC3HC2H2CHC3HC2HCNHCHC2NC9H14C2HCH2CH2C3H2C2HC2HCHNH4CFe2H3CH3C2H3CHC2H4NHCSHFeSHFeSFeSCSFeSFeS2FeSFeS3HSH2SCH2FeSCHC6H4CH4CH4C6HSH2CH2CH3CHSCHCHCH2NH3CH2C3SH3CHC2H2C3H2C2H3C2HSH2CH2CNC9H13C5H2CHCNH2CH4CH3CNC2H2CHNHSCHSCHCH2CS2CH2C3FeH2FeHC3H3SCHCHCH2CHCHCHCHC2HCHC2HSC2HCHC3NH4CHCHC2H3CHC2HC2NHCS2FeSHFeS2FeS2FeSFeS3HSH2SFe2SFeH2CH2C2H2C2HC6H4C2H3CH5CSC2HC3HC3HCH2CHC2HCH2C6H3NSC3H4CH2C2H2CHNC4H2CSC3HCHCHCHNFeC3HCSC2H3NHCH2C3SHCHCHSH2FeCNC2H3CHSH2CH3CHCH2NH2CH2C2SH5FeCSFeC3H2CHCH9C4HCSHC2SCHCH4CHCHC2HCHC3H2C2H2C2HCH2C4H3
_chemical_formula_sum              "C960 H1152 S256 Fe128 N64"
_cell_length_a       48.6049
_cell_length_b       48.6444
_cell_length_c       44.0287
_cell_angle_alpha    85.343
_cell_angle_beta     85.8802
_cell_angle_gamma    91.6273

_space_group_name_H-M_alt    "P 1"
_space_group_IT_number       1

loop_
  _space_group_symop_operation_xyz
  'x, y, z'

loop_
  _atom_site_type_symbol
  _atom_site_label
  _atom_site_symmetry_multiplicity
  _atom_site_fract_x
  _atom_site_fract_y
  _atom_site_fract_z
  _atom_site_occupancy
  C   C1        1.0  0.11734  0.02855  0.28831  1.0000
  H   H1        1.0  0.42591  0.32209  0.28775  1.0000
  C   C2        1.0  0.02731  0.13660  0.07982  1.0000
  S   S1        1.0  0.04798  0.09113  0.18177  1.0000
  C   C3        1.0  0.46054  0.21772  0.19935  1.0000
  Fe  Fe1       1.0  0.03151  0.06090  0.15105  1.0000
  S   S2        1.0  0.04514  0.06329  0.10091  1.0000
  Fe  Fe2       1.0  0.05509  0.05380  0.21343  1.0000
  S   S3        1.0  0.09499  0.04698  0.23551  1.0000
  S   S4        1.0  0.47661  0.06875  0.16418  1.0000
  C   C4        1.0  0.43626  0.22021  0.29321  1.0000
  H   H2        1.0  0.00539  0.01090  0.12749  1.0000
  H   H3        1.0  0.44214  0.27424  0.27644  1.0000
  C   C5        1.0  0.44475  0.16221  0.04276  1.0000
  C   C6        1.0  0.00922  0.13480  0.10595  1.0000
  C   C7        1.0  0.02089  0.05682  0.07446  1.0000
  C   C8        1.0  0.40800  0.24621  0.34193  1.0000
  H   H4        1.0  0.49203  0.28700  0.11498  1.0000
  S   S5        1.0  0.43419  0.29100  0.18876  1.0000
  H   H5        1.0  0.99854  0.00409  0.34330  1.0000
  C   C9        1.0  0.01968  0.16410  0.20083  1.0000
  C   C10       1.0  0.02825  0.19774  0.27619  1.0000
  C   C11       1.0  0.41104  0.00660  0.28225  1.0000
  C   C12       1.0  0.03350  0.16210  0.06372  1.0000
  H   H6        1.0  0.03696  0.11822  0.07236  1.0000
  S   S6        1.0  0.09403  0.02356  0.37881  1.0000
  Fe  Fe3       1.0  0.00505  0.08840  0.20455  1.0000
  C   C13       1.0  0.44269  0.19013  0.04722  1.0000
  S   S7        1.0  0.01341  0.05335  0.23876  1.0000
  C   C14       1.0  0.37197  0.27490  0.36150  1.0000
  C   C15       1.0  0.05390  0.11721  0.25410  1.0000
  C   C16       1.0  0.48610  0.16960  0.22019  1.0000
  H   H7        1.0  0.43321  0.19044  0.17838  1.0000
  H   H8        1.0  0.05223  0.05513  0.03754  1.0000
  H   H9        1.0  0.42350  0.32745  0.34322  1.0000
  S   S8        1.0  0.46746  0.32438  0.23851  1.0000
  H   H10       1.0  0.42832  0.19668  0.06500  1.0000
  H   H11       1.0  0.09960  0.10158  0.28008  1.0000
  C   C17       1.0  0.02964  0.19161  0.19682  1.0000
  H   H12       1.0  0.43778  0.25491  0.24408  1.0000
  H   H13       1.0  0.04494  0.23905  0.26537  1.0000
  C   C18       1.0  0.07036  0.04349  0.29403  1.0000
  H   H14       1.0  0.03268  0.14780  0.19384  1.0000
  H   H15       1.0  0.05048  0.19633  0.18708  1.0000
  H   H16       1.0  0.03106  0.00101  0.07589  1.0000
  C   C19       1.0  0.39433  0.22373  0.26791  1.0000
  C   C20       1.0  0.47944  0.28951  0.02877  1.0000
  C   C21       1.0  0.45067  0.19182  0.19217  1.0000
  C   C22       1.0  0.09387  0.03885  0.27521  1.0000
  H   H17       1.0  0.42853  0.00173  0.26612  1.0000
  H   H18       1.0  0.45459  0.01754  0.12648  1.0000
  H   H19       1.0  0.45321  0.23104  0.30374  1.0000
  H   H20       1.0  0.44635  0.21165  0.27261  1.0000
  C   C23       1.0  0.37628  0.26736  0.30776  1.0000
  C   C24       1.0  0.46647  0.30249  0.07988  1.0000
  H   H21       1.0  0.05856  0.09495  0.25441  1.0000
  H   H22       1.0  0.06153  0.12921  0.32803  1.0000
  H   H23       1.0  0.40515  0.21370  0.24872  1.0000
  C   C25       1.0  0.08268  0.18107  0.26869  1.0000
  H   H24       1.0  0.03413  0.27794  0.07820  1.0000
  H   H25       1.0  0.10737  0.13374  0.29522  1.0000
  H   H26       1.0  0.39259  0.00899  0.26879  1.0000
  C   C26       1.0  0.45878  0.20969  0.02840  1.0000
  H   H27       1.0  0.34580  0.29275  0.32851  1.0000
  N   N1        1.0  0.41398  0.23920  0.28509  1.0000
  H   H28       1.0  0.45600  0.09173  0.06195  1.0000
  C   C27       1.0  0.48615  0.07459  0.03120  1.0000
  C   C28       1.0  0.07066  0.03878  0.32585  1.0000
  N   N2        1.0  0.06662  0.13058  0.27897  1.0000
  S   S9        1.0  0.02540  0.24734  0.19848  1.0000
  C   C29       1.0  0.09642  0.12426  0.27710  1.0000
  C   C30       1.0  0.05420  0.11803  0.30888  1.0000
  C   C31       1.0  0.06132  0.16047  0.27590  1.0000
  C   C32       1.0  0.03388  0.16969  0.27922  1.0000
  H   H29       1.0  0.45698  0.23148  0.03164  1.0000
  H   H30       1.0  0.42813  0.20229  0.30893  1.0000
  C   C33       1.0  0.48286  0.21963  0.21751  1.0000
  H   H31       1.0  0.05272  0.04319  0.34044  1.0000
  C   C34       1.0  0.11726  0.02274  0.32010  1.0000
  H   H32       1.0  0.40171  0.25546  0.38903  1.0000
  S   S10       1.0  0.48231  0.06891  0.23729  1.0000
  H   H33       1.0  0.10676  0.13132  0.25429  1.0000
  H   H34       1.0  0.41647  0.02707  0.29027  1.0000
  H   H35       1.0  0.00490  0.11489  0.11870  1.0000
  C   C35       1.0  0.01643  0.28912  0.07127  1.0000
  H   H36       1.0  0.09314  0.22451  0.25904  1.0000
  S   S11       1.0  0.00772  0.32061  0.17471  1.0000
  H   H37       1.0  0.01642  0.15525  0.28338  1.0000
  H   H38       1.0  0.06189  0.12710  0.23139  1.0000
  C   C36       1.0  0.39929  0.25042  0.31178  1.0000
  H   H39       1.0  0.13548  0.01496  0.33014  1.0000
  C   C37       1.0  0.42678  0.26241  0.26462  1.0000
  C   C38       1.0  0.02170  0.18595  0.07372  1.0000
  H   H40       1.0  0.36915  0.27255  0.28536  1.0000
  H   H41       1.0  0.38277  0.20726  0.28312  1.0000
  H   H42       1.0  0.48009  0.02401  0.07320  1.0000
  H   H43       1.0  0.05964  0.09608  0.31308  1.0000
  H   H44       1.0  0.36209  0.28506  0.38025  1.0000
  Fe  Fe4       1.0  0.47982  0.10066  0.19781  1.0000
  C   C39       1.0  0.04958  0.21739  0.26894  1.0000
  H   H45       1.0  0.39210  0.01507  0.33896  1.0000
  H   H46       1.0  0.43182  0.14698  0.05699  1.0000
  H   H47       1.0  0.04797  0.16348  0.04371  1.0000
  C   C40       1.0  0.03035  0.05322  0.04428  1.0000
  C   C41       1.0  0.36278  0.27919  0.33234  1.0000
  S   S12       1.0  0.44640  0.32305  0.10321  1.0000
  H   H48       1.0  0.05225  0.05152  0.28426  1.0000
  H   H49       1.0  0.49602  0.15108  0.22838  1.0000
  Fe  Fe5       1.0  0.45494  0.32146  0.15285  1.0000
  C   C42       1.0  0.46345  0.16772  0.20252  1.0000
  C   C43       1.0  0.48829  0.28749  0.09105  1.0000
  H   H50       1.0  0.03127  0.11811  0.31050  1.0000
  H   H51       1.0  0.37905  0.23729  0.25722  1.0000
  H   H52       1.0  0.00757  0.24713  0.13016  1.0000
  H   H53       1.0  0.41136  0.27720  0.25637  1.0000
  H   H54       1.0  0.03103  0.11863  0.25549  1.0000
  H   H55       1.0  0.02783  0.20536  0.06090  1.0000
  C   C44       1.0  0.47677  0.08441  0.05903  1.0000
  C   C45       1.0  0.07672  0.20908  0.26519  1.0000
  H   H56       1.0  0.00496  0.30068  0.11639  1.0000
  Fe  Fe6       1.0  0.47574  0.29020  0.20804  1.0000
  H   H57       1.0  0.42550  0.23401  0.34722  1.0000
  H   H58       1.0  0.10412  0.17612  0.26522  1.0000
  S   S13       1.0  0.45050  0.13557  0.19328  1.0000
  C   C46       1.0  0.09405  0.02830  0.33891  1.0000
  C   C47       1.0  0.39446  0.25839  0.36631  1.0000
  C   C48       1.0  0.46168  0.30282  0.04887  1.0000
  H   H59       1.0  0.45083  0.23610  0.19078  1.0000
  C   C49       1.0  0.00987  0.29020  0.04081  1.0000
  S   S14       1.0  0.04278  0.02383  0.18044  1.0000
  H   H60       1.0  0.47258  0.18037  0.12154  1.0000
  S   S15       1.0  0.49499  0.25177  0.22798  1.0000
  H   H61       1.0  0.44452  0.31393  0.04019  1.0000
  H   H62       1.0  0.02032  0.00841  0.29470  1.0000
  C   C50       1.0  0.01263  0.21308  0.20491  1.0000
  Fe  Fe7       1.0  0.42739  0.32724  0.21655  1.0000
  H   H63       1.0  0.03067  0.23378  0.10175  1.0000
  C   C51       1.0  0.01491  0.22779  0.12081  1.0000
  H   H64       1.0  0.13571  0.02525  0.27384  1.0000
  H   H65       1.0  0.02578  0.21637  0.13901  1.0000
  Fe  Fe8       1.0  0.48435  0.03765  0.20264  1.0000
  C   C52       1.0  0.01174  0.04633  0.02299  1.0000
  H   H66       1.0  0.48679  0.09302  0.10421  1.0000
  H   H67       1.0  0.47790  0.15001  0.10139  1.0000
  Fe  Fe9       1.0  0.00047  0.02614  0.20341  1.0000
  C   C53       1.0  0.49558  0.19550  0.22793  1.0000
  C   C54       1.0  0.49411  0.08487  0.08315  1.0000
  C   C55       1.0  0.00306  0.18494  0.10022  1.0000
  C   C56       1.0  0.48567  0.00193  0.07551  1.0000
  C   C57       1.0  0.48689  0.16330  0.11783  1.0000
  H   H68       1.0  0.48694  0.15073  0.14015  1.0000
  H   H69       1.0  0.43825  0.00044  0.33406  1.0000
  H   H70       1.0  0.36520  0.99969  0.31974  1.0000
  S   S16       1.0  0.45902  0.99772  0.20930  1.0000
  H   H71       1.0  0.00709  0.20427  0.27829  1.0000
  C   C58       1.0  0.00011  0.30231  0.09282  1.0000
  H   H72       1.0  0.49790  0.22495  0.12132  1.0000
  S   S17       1.0  0.49715  0.31829  0.17002  1.0000
  H   H73       1.0  0.03668  0.12815  0.81968  1.0000
  C   C59       1.0  0.03988  0.15037  0.81890  1.0000
  S   S18       1.0  0.39236  0.02191  0.74456  1.0000
  C   C60       1.0  0.04762  0.20841  0.81954  1.0000
  C   C61       1.0  0.48407  0.15012  0.95354  1.0000
  C   C62       1.0  0.35171  0.02694  0.84075  1.0000
  S   S19       1.0  0.02847  0.27033  0.01548  1.0000
  C   C63       1.0  0.49308  0.15438  0.87003  1.0000
  Fe  Fe10      1.0  0.46203  0.03544  0.89824  1.0000
  H   H74       1.0  0.06345  0.26712  0.85286  1.0000
  H   H75       1.0  0.33973  0.02473  0.79563  1.0000
  Fe  Fe11      1.0  0.47956  0.06053  0.95589  1.0000
  H   H76       1.0  0.03217  0.27737  0.81256  1.0000
  S   S20       1.0  0.48707  0.28432  0.94061  1.0000
  H   H77       1.0  0.03465  0.20128  0.90704  1.0000
  S   S21       1.0  0.09086  0.31880  0.88354  1.0000
  C   C64       1.0  0.02788  0.25479  0.81262  1.0000
  S   S22       1.0  0.46355  0.07904  0.91229  1.0000
  C   C65       1.0  0.35274  0.01361  0.86981  1.0000
  H   H78       1.0  0.07787  0.23407  0.85860  1.0000
  S   S23       1.0  0.04365  0.25964  0.92926  1.0000
  H   H79       1.0  0.07878  0.27129  0.79685  1.0000
  Fe  Fe12      1.0  0.04955  0.30203  0.90477  1.0000
  H   H80       1.0  0.03539  0.01775  0.73701  1.0000
  H   H81       1.0  0.00979  0.10882  0.94976  1.0000
  H   H82       1.0  0.27838  0.00256  0.80049  1.0000
  S   S24       1.0  0.42882  0.00927  0.87994  1.0000
  C   C66       1.0  0.03537  0.20233  0.98661  1.0000
  S   S25       1.0  0.47378  0.01704  0.94378  1.0000
  H   H83       1.0  0.47004  0.16481  0.94226  1.0000
  C   C67       1.0  0.47714  0.20145  0.00519  1.0000
  S   S26       1.0  0.01077  0.29916  0.88043  1.0000
  H   H84       1.0  0.47892  0.13808  0.86498  1.0000
  C   C68       1.0  0.07561  0.24845  0.79802  1.0000
  C   C69       1.0  0.00368  0.15243  0.98629  1.0000
  H   H85       1.0  0.07189  0.24282  0.77461  1.0000
  S   S27       1.0  0.46397  0.07515  0.00127  1.0000
  C   C70       1.0  0.42121  0.01298  0.84144  1.0000
  H   H86       1.0  0.36425  0.02308  0.88670  1.0000
  C   C71       1.0  0.01799  0.16761  0.81391  1.0000
  C   C72       1.0  0.05923  0.24469  0.85129  1.0000
  N   N3        1.0  0.05230  0.23858  0.82025  1.0000
  H   H87       1.0  0.46321  0.18618  0.86592  1.0000
  H   H88       1.0  0.08957  0.19783  0.82965  1.0000
  C   C73       1.0  0.48352  0.00646  0.78173  1.0000
  H   H89       1.0  0.01933  0.09774  0.98766  1.0000
  H   H90       1.0  0.04187  0.23810  0.86837  1.0000
  C   C74       1.0  0.40441  0.01796  0.78138  1.0000
  C   C75       1.0  0.41510  0.04105  0.79439  1.0000
  C   C76       1.0  0.42393  0.03848  0.82423  1.0000
  H   H91       1.0  0.10656  0.99981  0.56945  1.0000
  H   H92       1.0  0.02141  0.25104  0.78954  1.0000
  S   S28       1.0  0.01889  0.03790  0.93697  1.0000
  H   H93       1.0  0.41645  0.06098  0.78142  1.0000
  H   H94       1.0  0.43187  0.05639  0.83427  1.0000
  C   C77       1.0  0.06944  0.19017  0.82472  1.0000
  H   H95       1.0  0.08218  0.14796  0.82933  1.0000
  C   C78       1.0  0.02158  0.19619  0.81443  1.0000
  H   H96       1.0  0.05367  0.15464  0.90524  1.0000
  H   H97       1.0  0.48867  0.21781  0.99129  1.0000
  H   H98       1.0  0.47583  0.29037  0.00481  1.0000
  S   S29       1.0  0.03118  0.10369  0.88780  1.0000
  C   C79       1.0  0.03274  0.15807  0.89939  1.0000
  H   H99       1.0  0.30499  0.01095  0.77030  1.0000
  H   H100      1.0  0.06951  0.17981  0.96915  1.0000
  H   H101      1.0  0.04743  0.22143  0.98665  1.0000
  C   C80       1.0  0.48013  0.17308  0.00036  1.0000
  H   H102      1.0  0.01935  0.04305  0.00002  1.0000
  C   C81       1.0  0.03233  0.15414  0.97671  1.0000
  H   H103      1.0  0.49361  0.02172  0.79521  1.0000
  C   C82       1.0  0.00179  0.10362  0.97388  1.0000
  C   C83       1.0  0.04780  0.17880  0.97693  1.0000
  C   C84       1.0  0.01655  0.13610  0.89076  1.0000
  S   S30       1.0  0.03038  0.32350  0.94383  1.0000
  C   C85       1.0  0.02207  0.18456  0.90018  1.0000
  Fe  Fe13      1.0  0.00286  0.25855  0.90841  1.0000
  C   C86       1.0  0.07441  0.32352  0.82491  1.0000
  H   H104      1.0  0.46341  0.13197  0.01658  1.0000
  C   C87       1.0  0.06551  0.16160  0.82444  1.0000
  C   C88       1.0  0.33831  0.01420  0.81831  1.0000
  H   H105      1.0  0.36248  0.04675  0.83517  1.0000
  H   H106      1.0  0.47127  0.13191  0.96383  1.0000
  Fe  Fe14      1.0  0.02085  0.28110  0.96621  1.0000
  S   S31       1.0  0.49145  0.23714  0.87427  1.0000
  H   H107      1.0  0.01004  0.24987  0.82979  1.0000
  C   C89       1.0  0.46304  0.15378  0.01962  1.0000
  H   H108      1.0  0.09560  0.23990  0.80417  1.0000
  Fe  Fe15      1.0  0.00822  0.00355  0.90854  1.0000
  C   C90       1.0  0.48426  0.18161  0.87047  1.0000
  H   H109      1.0  0.46100  0.00827  0.78684  1.0000
  H   H110      1.0  0.05548  0.31303  0.83411  1.0000
  H   H111      1.0  0.04322  0.13689  0.96837  1.0000
  C   C91       1.0  0.00737  0.20140  0.99596  1.0000
  H   H112      1.0  0.48813  0.01313  0.75703  1.0000
  H   H113      1.0  0.06387  0.32408  0.77811  1.0000
  H   H114      1.0  0.00340  0.20812  0.81165  1.0000
  Fe  Fe16      1.0  0.00347  0.06573  0.89920  1.0000
  C   C92       1.0  0.09457  0.33008  0.84445  1.0000
  C   C93       1.0  0.07909  0.33010  0.79331  1.0000
  C   C94       1.0  0.47708  0.47373  0.19922  1.0000
  Fe  Fe17      1.0  0.10152  0.49335  0.39298  1.0000
  S   S32       1.0  0.09805  0.45048  0.37809  1.0000
  S   S33       1.0  0.08504  0.52995  0.36608  1.0000
  Fe  Fe18      1.0  0.12629  0.47408  0.45263  1.0000
  S   S34       1.0  0.12432  0.42977  0.44240  1.0000
  H   H115      1.0  0.48063  0.58691  0.10828  1.0000
  Fe  Fe19      1.0  0.14031  0.44569  0.39518  1.0000
  S   S35       1.0  0.17370  0.42159  0.37243  1.0000
  Fe  Fe20      1.0  0.08246  0.43904  0.42674  1.0000
  S   S36       1.0  0.04569  0.41052  0.44054  1.0000
  S   S37       1.0  0.14520  0.48972  0.40611  1.0000
  S   S38       1.0  0.08296  0.48221  0.44078  1.0000
  Fe  Fe21      1.0  0.34826  0.41170  0.46197  1.0000
  S   S39       1.0  0.35058  0.45499  0.44032  1.0000
  S   S40       1.0  0.36817  0.42907  0.37531  1.0000
  Fe  Fe22      1.0  0.38948  0.44285  0.41506  1.0000
  S   S41       1.0  0.42790  0.47026  0.40804  1.0000
  Fe  Fe23      1.0  0.32881  0.43728  0.40267  1.0000
  S   S42       1.0  0.29604  0.46489  0.38476  1.0000
  S   S43       1.0  0.33706  0.40049  0.51213  1.0000
  H   H116      1.0  0.44792  0.45146  0.10963  1.0000
  C   C95       1.0  0.36225  0.35496  0.32683  1.0000
  C   C96       1.0  0.47291  0.49276  0.06816  1.0000
  H   H117      1.0  0.47269  0.51434  0.05769  1.0000
  C   C97       1.0  0.43835  0.45241  0.49530  1.0000
  H   H118      1.0  0.20366  0.46879  0.50827  1.0000
  H   H119      1.0  0.03420  0.45977  0.40256  1.0000
  C   C98       1.0  0.00303  0.45873  0.20658  1.0000
  H   H120      1.0  0.05826  0.40390  0.13206  1.0000
  H   H121      1.0  0.44876  0.45935  0.47252  1.0000
  C   C99       1.0  0.20767  0.43330  0.37657  1.0000
  C   C100      1.0  0.22909  0.41458  0.37731  1.0000
  C   C101      1.0  0.25638  0.42386  0.38027  1.0000
  C   C102      1.0  0.26235  0.45204  0.38141  1.0000
  C   C103      1.0  0.24097  0.47073  0.38024  1.0000
  C   C104      1.0  0.21367  0.46134  0.37837  1.0000
  H   H122      1.0  0.22455  0.39284  0.37583  1.0000
  H   H123      1.0  0.27281  0.40933  0.38106  1.0000
  H   H124      1.0  0.24552  0.49253  0.38123  1.0000
  H   H125      1.0  0.19736  0.47589  0.37784  1.0000
  S   S44       1.0  0.38261  0.34920  0.38368  1.0000
  H   H126      1.0  0.00601  0.37580  0.08425  1.0000
  H   H127      1.0  0.12610  0.43032  0.50433  1.0000
  H   H128      1.0  0.22218  0.48962  0.47838  1.0000
  H   H129      1.0  0.02387  0.65113  0.13939  1.0000
  S   S45       1.0  0.14429  0.48798  0.49501  1.0000
  C   C105      1.0  0.46827  0.44358  0.11211  1.0000
  C   C106      1.0  0.01817  0.38634  0.35703  1.0000
  H   H130      1.0  0.03710  0.43293  0.21654  1.0000
  H   H131      1.0  0.03973  0.62681  0.04074  1.0000
  C   C107      1.0  0.08357  0.52808  0.32647  1.0000
  C   C108      1.0  0.09644  0.50697  0.27961  1.0000
  C   C109      1.0  0.09694  0.50741  0.31144  1.0000
  H   H132      1.0  0.10735  0.49137  0.26792  1.0000
  H   H133      1.0  0.10813  0.49220  0.32430  1.0000
  C   C110      1.0  0.43819  0.43890  0.27413  1.0000
  N   N4        1.0  0.48995  0.49039  0.09491  1.0000
  S   S46       1.0  0.38916  0.40113  0.44024  1.0000
  H   H134      1.0  0.02657  0.63862  0.09174  1.0000
  S   S47       1.0  0.03176  0.52418  0.16133  1.0000
  C   C111      1.0  0.46990  0.41582  0.12258  1.0000
  S   S48       1.0  0.04297  0.58830  0.17770  1.0000
  H   H135      1.0  0.43702  0.47075  0.50879  1.0000
  Fe  Fe24      1.0  0.02351  0.56654  0.14084  1.0000
  S   S49       1.0  0.03337  0.57896  0.09054  1.0000
  Fe  Fe25      1.0  0.04719  0.54556  0.20048  1.0000
  S   S50       1.0  0.08376  0.52733  0.22266  1.0000
  Fe  Fe26      1.0  0.48447  0.35268  0.19855  1.0000
  H   H136      1.0  0.40129  0.40032  0.33117  1.0000
  C   C112      1.0  0.01113  0.47750  0.10111  1.0000
  H   H137      1.0  0.00844  0.37722  0.37842  1.0000
  H   H138      1.0  0.27818  0.41357  0.48916  1.0000
  H   H139      1.0  0.03375  0.63847  0.21613  1.0000
  H   H140      1.0  0.01870  0.35643  0.11604  1.0000
  C   C113      1.0  0.06909  0.54787  0.30966  1.0000
  C   C114      1.0  0.06814  0.54713  0.27791  1.0000
  C   C115      1.0  0.08219  0.52694  0.26276  1.0000
  H   H141      1.0  0.05868  0.56386  0.32121  1.0000
  H   H142      1.0  0.05724  0.56267  0.26503  1.0000
  C   C116      1.0  0.03719  0.40025  0.14360  1.0000
  C   C117      1.0  0.47105  0.42393  0.20103  1.0000
  C   C118      1.0  0.48330  0.46824  0.41349  1.0000
  C   C119      1.0  0.38395  0.34635  0.34411  1.0000
  H   H143      1.0  0.44155  0.41268  0.40480  1.0000
  H   H144      1.0  0.44959  0.57148  0.07037  1.0000
  H   H145      1.0  0.46977  0.39195  0.06551  1.0000
  H   H146      1.0  0.02936  0.50331  0.34914  1.0000
  C   C120      1.0  0.45503  0.38617  0.33819  1.0000
  N   N5        1.0  0.18423  0.49179  0.29151  1.0000
  C   C121      1.0  0.18927  0.48144  0.26083  1.0000
  C   C122      1.0  0.21142  0.49521  0.30433  1.0000
  C   C123      1.0  0.16748  0.47021  0.31093  1.0000
  C   C124      1.0  0.16978  0.51822  0.29105  1.0000
  C   C125      1.0  0.16111  0.53202  0.26378  1.0000
  C   C126      1.0  0.16335  0.53064  0.31869  1.0000
  C   C127      1.0  0.14663  0.55643  0.26446  1.0000
  C   C128      1.0  0.14886  0.55504  0.31908  1.0000
  C   C129      1.0  0.14042  0.56784  0.29203  1.0000
  H   H147      1.0  0.20235  0.49636  0.24510  1.0000
  H   H148      1.0  0.20028  0.46163  0.26206  1.0000
  H   H149      1.0  0.16952  0.47729  0.25036  1.0000
  H   H150      1.0  0.22471  0.51118  0.29028  1.0000
  H   H151      1.0  0.22273  0.47556  0.30555  1.0000
  H   H152      1.0  0.20950  0.50164  0.32798  1.0000
  H   H153      1.0  0.17743  0.44983  0.31147  1.0000
  H   H154      1.0  0.16446  0.47512  0.33512  1.0000
  H   H155      1.0  0.14665  0.46738  0.30245  1.0000
  H   H156      1.0  0.16437  0.52402  0.24171  1.0000
  H   H157      1.0  0.16874  0.52117  0.34043  1.0000
  H   H158      1.0  0.13909  0.56591  0.24362  1.0000
  H   H159      1.0  0.14308  0.56342  0.34065  1.0000
  H   H160      1.0  0.12825  0.58614  0.29258  1.0000
  H   H161      1.0  0.41678  0.44604  0.49148  1.0000
  S   S51       1.0  0.32376  0.39437  0.42608  1.0000
  H   H162      1.0  0.23964  0.47686  0.51117  1.0000
  H   H163      1.0  0.02325  0.50072  0.05838  1.0000
  H   H164      1.0  0.21423  0.42055  0.44804  1.0000
  C   C130      1.0  0.04581  0.39514  0.35731  1.0000
  S   S52       1.0  0.44374  0.35797  0.17844  1.0000
  N   N6        1.0  0.23179  0.44646  0.47966  1.0000
  H   H165      1.0  0.42682  0.39854  0.49405  1.0000
  H   H166      1.0  0.26346  0.43634  0.44578  1.0000
  C   C131      1.0  0.49199  0.37272  0.29067  1.0000
  H   H167      1.0  0.43051  0.43477  0.35152  1.0000
  H   H168      1.0  0.48263  0.49030  0.41506  1.0000
  H   H169      1.0  0.47651  0.56088  0.37766  1.0000
  H   H170      1.0  0.04245  0.37742  0.09112  1.0000
  C   C132      1.0  0.43712  0.44371  0.32802  1.0000
  C   C133      1.0  0.02959  0.48172  0.30856  1.0000
  H   H171      1.0  0.05622  0.39262  0.37832  1.0000
  C   C134      1.0  0.02078  0.56514  0.03386  1.0000
  H   H172      1.0  0.03963  0.57648  0.02542  1.0000
  C   C135      1.0  0.44911  0.40471  0.49392  1.0000
  N   N7        1.0  0.43454  0.42349  0.30476  1.0000
  Fe  Fe27      1.0  0.36527  0.38762  0.40198  1.0000
  H   H173      1.0  0.03695  0.38035  0.15813  1.0000
  C   C136      1.0  0.45456  0.40139  0.30933  1.0000
  C   C137      1.0  0.48124  0.50846  0.31111  1.0000
  H   H174      1.0  0.43779  0.45223  0.19900  1.0000
  C   C138      1.0  0.01913  0.40225  0.30344  1.0000
  C   C139      1.0  0.48226  0.56874  0.03509  1.0000
  C   C140      1.0  0.47157  0.57396  0.06437  1.0000
  H   H175      1.0  0.45746  0.40596  0.20245  1.0000
  C   C141      1.0  0.40686  0.33447  0.32984  1.0000
  C   C142      1.0  0.47348  0.39380  0.28553  1.0000
  C   C143      1.0  0.47653  0.50520  0.11976  1.0000
  C   C144      1.0  0.01502  0.43361  0.21480  1.0000
  H   H176      1.0  0.44038  0.38983  0.35699  1.0000
  H   H177      1.0  0.43389  0.42530  0.25574  1.0000
  H   H178      1.0  0.20652  0.45641  0.44219  1.0000
  S   S53       1.0  0.48261  0.58334  0.17384  1.0000
  H   H179      1.0  0.08167  0.41342  0.33099  1.0000
  C   C145      1.0  0.45988  0.45020  0.19945  1.0000
  H   H180      1.0  0.47412  0.40344  0.26255  1.0000
  H   H181      1.0  0.27479  0.45974  0.47263  1.0000
  H   H182      1.0  0.45966  0.38668  0.50434  1.0000
  H   H183      1.0  0.46555  0.52383  0.31219  1.0000
  C   C146      1.0  0.20950  0.43939  0.45999  1.0000
  Fe  Fe28      1.0  0.49266  0.54218  0.19630  1.0000
  C   C147      1.0  0.01540  0.44723  0.40721  1.0000
  N   N8        1.0  0.45326  0.42965  0.51065  1.0000
  H   H184      1.0  0.03391  0.41668  0.15945  1.0000
  H   H185      1.0  0.05795  0.41989  0.28312  1.0000
  H   H186      1.0  0.42391  0.46178  0.32395  1.0000
  C   C148      1.0  0.01547  0.42213  0.42507  1.0000
  C   C149      1.0  0.01806  0.49867  0.32966  1.0000
  C   C150      1.0  0.49213  0.57235  0.36249  1.0000
  C   C151      1.0  0.23516  0.42310  0.50273  1.0000
  C   C152      1.0  0.40622  0.41108  0.30814  1.0000
  C   C153      1.0  0.48844  0.49734  0.28360  1.0000
  C   C154      1.0  0.02108  0.37662  0.10211  1.0000
  H   H187      1.0  0.03395  0.41404  0.05924  1.0000
  H   H188      1.0  0.04962  0.47321  0.31169  1.0000
  C   C155      1.0  0.06015  0.40706  0.33074  1.0000
  C   C156      1.0  0.04110  0.64828  0.04569  1.0000
  C   C157      1.0  0.48522  0.41122  0.41036  1.0000
  C   C158      1.0  0.25719  0.45373  0.45945  1.0000
  H   H189      1.0  0.47339  0.35378  0.36537  1.0000
  C   C159      1.0  0.46012  0.42455  0.40782  1.0000
  H   H190      1.0  0.36313  0.45513  0.50392  1.0000
  H   H191      1.0  0.46321  0.58787  0.33110  1.0000
  S   S54       1.0  0.46226  0.50620  0.19930  1.0000
  H   H192      1.0  0.45671  0.40848  0.46949  1.0000
  H   H193      1.0  0.42368  0.45615  0.27180  1.0000
  C   C160      1.0  0.47371  0.36524  0.34314  1.0000
  S   S55       1.0  0.01436  0.37782  0.22755  1.0000
  H   H194      1.0  0.45121  0.40300  0.12746  1.0000
  H   H195      1.0  0.40358  0.39553  0.29125  1.0000
  H   H196      1.0  0.49157  0.66282  0.03375  1.0000
  C   C161      1.0  0.02055  0.65600  0.21491  1.0000
  H   H197      1.0  0.45588  0.49603  0.12811  1.0000
  H   H198      1.0  0.45469  0.39321  0.02934  1.0000
  H   H199      1.0  0.45881  0.45150  0.32829  1.0000
  H   H200      1.0  0.45939  0.44811  0.26945  1.0000
  H   H201      1.0  0.47832  0.50417  0.26325  1.0000
  H   H202      1.0  0.18911  0.43566  0.47308  1.0000
  H   H203      1.0  0.47362  0.52730  0.11241  1.0000
  H   H204      1.0  0.25421  0.47155  0.44261  1.0000
  H   H205      1.0  0.34440  0.36395  0.33777  1.0000
  C   C162      1.0  0.48265  0.43824  0.51166  1.0000
  H   H206      1.0  0.39031  0.42685  0.30477  1.0000
  H   H207      1.0  0.04818  0.44158  0.49599  1.0000
  C   C163      1.0  0.04680  0.41070  0.30386  1.0000
  C   C164      1.0  0.45911  0.45308  0.40963  1.0000
  H   H208      1.0  0.03794  0.45979  0.03257  1.0000
  C   C165      1.0  0.01696  0.42733  0.10312  1.0000
  H   H209      1.0  0.48926  0.50465  0.13981  1.0000
  H   H210      1.0  0.06048  0.39267  0.50186  1.0000
  S   S56       1.0  0.47710  0.63280  0.23800  1.0000
  H   H211      1.0  0.34615  0.35713  0.28229  1.0000
  C   C166      1.0  0.36326  0.35105  0.29548  1.0000
  S   S57       1.0  0.00607  0.54451  0.22699  1.0000
  H   H212      1.0  0.01584  0.47735  0.20261  1.0000
  C   C167      1.0  0.03346  0.65545  0.07517  1.0000
  N   N9        1.0  0.01595  0.40015  0.12109  1.0000
  H   H213      1.0  0.45087  0.48676  0.07424  1.0000
  C   C168      1.0  0.02134  0.48041  0.07064  1.0000
  H   H214      1.0  0.00967  0.40551  0.28210  1.0000
  H   H215      1.0  0.48089  0.47979  0.05001  1.0000
  C   C169      1.0  0.01297  0.56265  0.06530  1.0000
  C   C170      1.0  0.48913  0.58260  0.08590  1.0000
  C   C171      1.0  0.00406  0.38938  0.32982  1.0000
  S   S58       1.0  0.38659  0.33400  0.24208  1.0000
  C   C172      1.0  0.02719  0.43102  0.07189  1.0000
  H   H216      1.0  0.48588  0.38910  0.40929  1.0000
  C   C173      1.0  0.02948  0.45726  0.05611  1.0000
  H   H217      1.0  0.46002  0.36085  0.04946  1.0000
  C   C174      1.0  0.00928  0.45149  0.11730  1.0000
  C   C175      1.0  0.46928  0.38196  0.04373  1.0000
  C   C176      1.0  0.22407  0.47143  0.49512  1.0000
  C   C177      1.0  0.05430  0.43282  0.51784  1.0000
  H   H218      1.0  0.00498  0.49560  0.11242  1.0000
  C   C178      1.0  0.49782  0.64458  0.02151  1.0000
  C   C179      1.0  0.38629  0.33933  0.28116  1.0000
  C   C180      1.0  0.49216  0.35852  0.31942  1.0000
  H   H219      1.0  0.02499  0.46352  0.26646  1.0000
  C   C181      1.0  0.49443  0.49996  0.33713  1.0000
  C   C182      1.0  0.01551  0.47606  0.28326  1.0000
  H   H220      1.0  0.48895  0.50874  0.35851  1.0000
  H   H221      1.0  0.48252  0.62755  0.02907  1.0000
  C   C183      1.0  0.26005  0.40849  0.50450  1.0000
  C   C184      1.0  0.48469  0.58747  0.33629  1.0000
  C   C185      1.0  0.49231  0.46100  0.10588  1.0000
  Fe  Fe29      1.0  0.00022  0.58536  0.20122  1.0000
  H   H222      1.0  0.00267  0.62816  0.29513  1.0000
  H   H223      1.0  0.00226  0.45069  0.14122  1.0000
  C   C186      1.0  0.99864  0.40935  0.21994  1.0000
  C   C187      1.0  0.49537  0.40468  0.12773  1.0000
  H   H224      1.0  0.49783  0.61401  0.29692  1.0000
  C   C188      1.0  0.40825  0.33141  0.29837  1.0000
  H   H225      1.0  0.49649  0.38336  0.13683  1.0000
  N   N10       1.0  0.49732  0.38126  0.02821  1.0000
  S   S59       1.0  0.39154  0.41254  0.67054  1.0000
  S   S60       1.0  0.32392  0.40676  0.72101  1.0000
  Fe  Fe30      1.0  0.42526  0.42144  0.70080  1.0000
  S   S61       1.0  0.45783  0.39061  0.70982  1.0000
  C   C189      1.0  0.14524  0.46309  0.52615  1.0000
  Fe  Fe31      1.0  0.17157  0.43741  0.70552  1.0000
  S   S62       1.0  0.17223  0.39408  0.69085  1.0000
  S   S63       1.0  0.20873  0.46340  0.71507  1.0000
  Fe  Fe32      1.0  0.11065  0.44363  0.69614  1.0000
  S   S64       1.0  0.10732  0.40165  0.67957  1.0000
  S   S65       1.0  0.07391  0.47101  0.69986  1.0000
  Fe  Fe33      1.0  0.13156  0.38810  0.71901  1.0000
  C   C190      1.0  0.48994  0.46125  0.52769  1.0000
  Fe  Fe34      1.0  0.14758  0.41155  0.65314  1.0000
  S   S66       1.0  0.15156  0.39773  0.60554  1.0000
  S   S67       1.0  0.13302  0.42995  0.73719  1.0000
  S   S68       1.0  0.14907  0.45510  0.66590  1.0000
  C   C191      1.0  0.05576  0.44925  0.54235  1.0000
  H   H226      1.0  0.29493  0.38570  0.66383  1.0000
  C   C192      1.0  0.44052  0.42336  0.54219  1.0000
  C   C193      1.0  0.01111  0.45018  0.79973  1.0000
  C   C194      1.0  0.14895  0.42332  0.57558  1.0000
  C   C195      1.0  0.13788  0.41608  0.54877  1.0000
  H   H227      1.0  0.39980  0.47651  0.84196  1.0000
  C   C196      1.0  0.15666  0.47030  0.55290  1.0000
  C   C197      1.0  0.15818  0.45052  0.57777  1.0000
  H   H228      1.0  0.48857  0.34601  0.00299  1.0000
  H   H229      1.0  0.16705  0.45618  0.59831  1.0000
  C   C198      1.0  0.00711  0.38502  0.89793  1.0000
  H   H230      1.0  0.08541  0.40069  0.77363  1.0000
  H   H231      1.0  0.03364  0.56452  0.80516  1.0000
  H   H232      1.0  0.01059  0.55488  0.98909  1.0000
  N   N11       1.0  0.46345  0.40945  0.81634  1.0000
  N   N12       1.0  0.28457  0.42800  0.61841  1.0000
  C   C199      1.0  0.35292  0.52963  0.83676  1.0000
  C   C200      1.0  0.06122  0.40522  0.52108  1.0000
  H   H233      1.0  0.08776  0.49548  0.60384  1.0000
  H   H234      1.0  0.45550  0.39748  0.63973  1.0000
  H   H235      1.0  0.43965  0.44185  0.55548  1.0000
  C   C201      1.0  0.01371  0.41405  0.68902  1.0000
  H   H236      1.0  0.05401  0.43535  0.83644  1.0000
  C   C202      1.0  0.01633  0.63375  0.88346  1.0000
  H   H237      1.0  0.32929  0.49369  0.85290  1.0000
  H   H238      1.0  0.48012  0.37801  0.98442  1.0000
  C   C203      1.0  0.48214  0.41953  0.91843  1.0000
  H   H239      1.0  0.08542  0.45840  0.63933  1.0000
  C   C204      1.0  0.38280  0.45104  0.57685  1.0000
  C   C205      1.0  0.37212  0.42456  0.58661  1.0000
  C   C206      1.0  0.35802  0.40916  0.56662  1.0000
  H   H240      1.0  0.02861  0.49794  0.74844  1.0000
  C   C207      1.0  0.48292  0.48549  0.79339  1.0000
  C   C208      1.0  0.37956  0.46194  0.54694  1.0000
  H   H241      1.0  0.37503  0.41577  0.60939  1.0000
  H   H242      1.0  0.34990  0.38860  0.57421  1.0000
  H   H243      1.0  0.49302  0.42707  0.65191  1.0000
  C   C209      1.0  0.06936  0.39384  0.54893  1.0000
  H   H244      1.0  0.13426  0.35013  0.84754  1.0000
  H   H245      1.0  0.37722  0.56438  0.81516  1.0000
  C   C210      1.0  0.03901  0.42642  0.69450  1.0000
  C   C211      1.0  0.04178  0.45504  0.69497  1.0000
  H   H246      1.0  0.29812  0.40704  0.57906  1.0000
  H   H247      1.0  0.46613  0.39638  0.86431  1.0000
  S   S69       1.0  0.48063  0.36341  0.91968  1.0000
  H   H248      1.0  0.05611  0.41361  0.69890  1.0000
  C   C212      1.0  0.29213  0.42288  0.71898  1.0000
  C   C213      1.0  0.29082  0.45137  0.71220  1.0000
  C   C214      1.0  0.26505  0.46364  0.71123  1.0000
  C   C215      1.0  0.24058  0.44738  0.71613  1.0000
  C   C216      1.0  0.24194  0.41887  0.72243  1.0000
  C   C217      1.0  0.26767  0.40673  0.72431  1.0000
  H   H249      1.0  0.26401  0.48574  0.70633  1.0000
  H   H250      1.0  0.22315  0.40625  0.72652  1.0000
  H   H251      1.0  0.26859  0.38468  0.72970  1.0000
  Fe  Fe35      1.0  0.40440  0.47740  0.71367  1.0000
  S   S70       1.0  0.39693  0.43544  0.73842  1.0000
  S   S71       1.0  0.41593  0.51593  0.73562  1.0000
  Fe  Fe36      1.0  0.39883  0.45631  0.65105  1.0000
  S   S72       1.0  0.40168  0.47029  0.60078  1.0000
  Fe  Fe37      1.0  0.36370  0.43055  0.70608  1.0000
  S   S73       1.0  0.36846  0.47399  0.68448  1.0000
  S   S74       1.0  0.43525  0.46367  0.67814  1.0000
  Fe  Fe38      1.0  0.45739  0.53673  0.89911  1.0000
  H   H252      1.0  0.08476  0.42318  0.81860  1.0000
  S   S75       1.0  0.42119  0.51712  0.87846  1.0000
  Fe  Fe39      1.0  0.47590  0.55238  0.96058  1.0000
  H   H253      1.0  0.04055  0.47744  0.62705  1.0000
  H   H254      1.0  0.39742  0.47562  0.78587  1.0000
  H   H255      1.0  0.47616  0.63610  0.88701  1.0000
  C   C218      1.0  0.00443  0.55279  0.01327  1.0000
  C   C219      1.0  0.36369  0.54697  0.81176  1.0000
  S   S76       1.0  0.46087  0.57734  0.92024  1.0000
  S   S77       1.0  0.46814  0.51194  0.94153  1.0000
  H   H256      1.0  0.24157  0.36056  0.56374  1.0000
  H   H257      1.0  0.02734  0.47367  0.59051  1.0000
  C   C220      1.0  0.33045  0.49980  0.80269  1.0000
  C   C221      1.0  0.13548  0.43603  0.52440  1.0000
  H   H258      1.0  0.16424  0.49125  0.55442  1.0000
  H   H259      1.0  0.99866  0.39631  0.99402  1.0000
  H   H260      1.0  0.02073  0.49339  0.69115  1.0000
  C   C222      1.0  0.03375  0.65670  0.88621  1.0000
  H   H261      1.0  0.30956  0.46397  0.70795  1.0000
  C   C223      1.0  0.41987  0.51433  0.77516  1.0000
  C   C224      1.0  0.43364  0.53626  0.78718  1.0000
  C   C225      1.0  0.43568  0.53643  0.81884  1.0000
  C   C226      1.0  0.42316  0.51506  0.83866  1.0000
  C   C227      1.0  0.40973  0.49290  0.82663  1.0000
  C   C228      1.0  0.40836  0.49236  0.79491  1.0000
  H   H262      1.0  0.44247  0.55334  0.77199  1.0000
  H   H263      1.0  0.44582  0.55370  0.82799  1.0000
  S   S78       1.0  0.45943  0.55844  0.00872  1.0000
  C   C229      1.0  0.21528  0.39186  0.54594  1.0000
  H   H264      1.0  0.03334  0.37111  0.80208  1.0000
  C   C230      1.0  0.49064  0.65313  0.88863  1.0000
  H   H265      1.0  0.46012  0.41788  0.91626  1.0000
  C   C231      1.0  0.02026  0.51686  0.75614  1.0000
  H   H266      1.0  0.02249  0.46205  0.81464  1.0000
  N   N13       1.0  0.06748  0.45671  0.59597  1.0000
  H   H267      1.0  0.31020  0.43106  0.65616  1.0000
  C   C232      1.0  0.28927  0.42702  0.58482  1.0000
  H   H268      1.0  0.25123  0.45631  0.61331  1.0000
  C   C233      1.0  0.27514  0.38429  0.65422  1.0000
  C   C234      1.0  0.27073  0.45392  0.62483  1.0000
  C   C235      1.0  0.10347  0.34425  0.78124  1.0000
  H   H269      1.0  0.02763  0.44444  0.61811  1.0000
  H   H270      1.0  0.20201  0.37550  0.62569  1.0000
  C   C236      1.0  0.03311  0.53056  0.77813  1.0000
  H   H271      1.0  0.28132  0.37527  0.52703  1.0000
  H   H272      1.0  0.06909  0.45259  0.80086  1.0000
  H   H273      1.0  0.01181  0.39186  0.68856  1.0000
  H   H274      1.0  0.13082  0.39502  0.54695  1.0000
  H   H275      1.0  0.26526  0.45445  0.64978  1.0000
  H   H276      1.0  0.45739  0.45625  0.77512  1.0000
  C   C237      1.0  0.47543  0.39669  0.62701  1.0000
  H   H277      1.0  0.45023  0.41131  0.77042  1.0000
  H   H278      1.0  0.42485  0.42159  0.79905  1.0000
  C   C238      1.0  0.47221  0.65996  0.97857  1.0000
  C   C239      1.0  0.06452  0.43214  0.81378  1.0000
  H   H279      1.0  0.49694  0.46992  0.97900  1.0000
  C   C240      1.0  0.00187  0.62473  0.96522  1.0000
  C   C241      1.0  0.02265  0.55512  0.78797  1.0000
  C   C242      1.0  0.47915  0.37819  0.60466  1.0000
  C   C243      1.0  0.44172  0.40712  0.79452  1.0000
  C   C244      1.0  0.08220  0.44384  0.62161  1.0000
  H   H280      1.0  0.05543  0.65391  0.88927  1.0000
  H   H281      1.0  0.05139  0.52212  0.78758  1.0000
  H   H282      1.0  0.47743  0.42334  0.99135  1.0000
  S   S79       1.0  0.10978  0.34933  0.74142  1.0000
  H   H283      1.0  0.32515  0.44701  0.62072  1.0000
  C   C245      1.0  0.06503  0.43863  0.57071  1.0000
  H   H284      1.0  0.29008  0.44025  0.82040  1.0000
  H   H285      1.0  0.33894  0.51390  0.75439  1.0000
  C   C246      1.0  0.23991  0.40014  0.62135  1.0000
  H   H286      1.0  0.07031  0.42579  0.63365  1.0000
  C   C247      1.0  0.22260  0.37785  0.63335  1.0000
  C   C248      1.0  0.45064  0.40012  0.84726  1.0000
  H   H287      1.0  0.01902  0.36682  0.90138  1.0000
  S   S80       1.0  0.01380  0.52970  0.92816  1.0000
  H   H288      1.0  0.47883  0.50147  0.77579  1.0000
  C   C249      1.0  0.49167  0.43313  0.72410  1.0000
  H   H289      1.0  0.27682  0.49811  0.79258  1.0000
  H   H290      1.0  0.01693  0.62062  0.98279  1.0000
  C   C250      1.0  0.31205  0.42902  0.63114  1.0000
  H   H291      1.0  0.23187  0.41450  0.60444  1.0000
  C   C251      1.0  0.35488  0.42005  0.53668  1.0000
  H   H292      1.0  0.06837  0.42775  0.75271  1.0000
  H   H293      1.0  0.04999  0.47046  0.53869  1.0000
  S   S81       1.0  0.02296  0.46675  0.88077  1.0000
  H   H294      1.0  0.02513  0.61107  0.79924  1.0000
  C   C252      1.0  0.26219  0.38624  0.52635  1.0000
  C   C253      1.0  0.06487  0.40854  0.76823  1.0000
  C   C254      1.0  0.03953  0.46340  0.60833  1.0000
  H   H295      1.0  0.48311  0.46386  0.91504  1.0000
  H   H296      1.0  0.06140  0.37913  0.82438  1.0000
  H   H297      1.0  0.00766  0.45133  0.99111  1.0000
  H   H298      1.0  0.47733  0.36902  0.80710  1.0000
  H   H299      1.0  0.00338  0.59262  0.82963  1.0000
  H   H300      1.0  0.45065  0.62043  0.99305  1.0000
  H   H301      1.0  0.33752  0.46659  0.75556  1.0000
  N   N14       1.0  0.31369  0.47505  0.79709  1.0000
  C   C255      1.0  0.30284  0.45850  0.82550  1.0000
  C   C256      1.0  0.02071  0.41080  0.89119  1.0000
  H   H302      1.0  0.10284  0.47848  0.57232  1.0000
  H   H303      1.0  0.02732  0.38990  0.83506  1.0000
  H   H304      1.0  0.31988  0.45026  0.83881  1.0000
  H   H305      1.0  0.28934  0.47087  0.84026  1.0000
  C   C257      1.0  0.08292  0.48282  0.58478  1.0000
  C   C258      1.0  0.35812  0.54116  0.78233  1.0000
  H   H306      1.0  0.28412  0.47250  0.61715  1.0000
  H   H307      1.0  0.34972  0.45098  0.79010  1.0000
  H   H308      1.0  0.31927  0.43732  0.77500  1.0000
  H   H309      1.0  0.26998  0.42934  0.57292  1.0000
  C   C259      1.0  0.01873  0.47121  0.69091  1.0000
  H   H310      1.0  0.30399  0.44375  0.57442  1.0000
  H   H311      1.0  0.36750  0.55406  0.76284  1.0000
  C   C260      1.0  0.02115  0.42551  0.78833  1.0000
  C   C261      1.0  0.23136  0.35897  0.65581  1.0000
  H   H312      1.0  0.14185  0.36316  0.79170  1.0000
  H   H313      1.0  0.01127  0.64087  0.94800  1.0000
  H   H314      1.0  0.38783  0.48243  0.53926  1.0000
  H   H315      1.0  0.47428  0.47282  0.53926  1.0000
  H   H316      1.0  0.43623  0.41564  0.85585  1.0000
  H   H317      1.0  0.10300  0.43718  0.61359  1.0000
  H   H318      1.0  0.07838  0.40009  0.59413  1.0000
  S   S82       1.0  0.03008  0.60074  0.88565  1.0000
  H   H319      1.0  0.07497  0.37239  0.55128  1.0000
  H   H320      1.0  0.04303  0.41229  0.89001  1.0000
  C   C262      1.0  0.33648  0.50638  0.83249  1.0000
  H   H321      1.0  0.19337  0.42406  0.52409  1.0000
  C   C263      1.0  0.07124  0.41015  0.57350  1.0000
  H   H322      1.0  0.00971  0.39233  0.76058  1.0000
  H   H323      1.0  0.35827  0.53374  0.85953  1.0000
  C   C264      1.0  0.26677  0.40405  0.63136  1.0000
  C   C265      1.0  0.47560  0.43777  0.81604  1.0000
  C   C266      1.0  0.36568  0.44646  0.52687  1.0000
  C   C267      1.0  0.47072  0.45914  0.79325  1.0000
  H   H324      1.0  0.46211  0.36471  0.59993  1.0000
  H   H325      1.0  0.45219  0.40757  0.55509  1.0000
  C   C268      1.0  0.04223  0.38734  0.81522  1.0000
  H   H326      1.0  0.27603  0.46541  0.77619  1.0000
  H   H327      1.0  0.00842  0.61632  0.74624  1.0000
  H   H328      1.0  0.32372  0.41020  0.62689  1.0000
  C   C269      1.0  0.00552  0.43459  0.88687  1.0000
  H   H329      1.0  0.21760  0.34208  0.66552  1.0000
  H   H330      1.0  0.29585  0.49376  0.75700  1.0000
  C   C270      1.0  0.23987  0.37793  0.54700  1.0000
  C   C271      1.0  0.34186  0.51791  0.77775  1.0000
  C   C272      1.0  0.25756  0.36217  0.66618  1.0000
  H   H331      1.0  0.26417  0.34770  0.68404  1.0000
  H   H332      1.0  0.05556  0.39255  0.75514  1.0000
  C   C273      1.0  0.48936  0.40529  0.71854  1.0000
  C   C274      1.0  0.44899  0.64126  0.98280  1.0000
  H   H333      1.0  0.99982  0.60573  0.95287  1.0000
  C   C275      1.0  0.00334  0.60610  0.80798  1.0000
  N   N15       1.0  0.04775  0.41381  0.79633  1.0000
  C   C276      1.0  0.33077  0.45677  0.77867  1.0000
  H   H334      1.0  0.19778  0.38525  0.56184  1.0000
  H   H335      1.0  0.49618  0.39726  0.78535  1.0000
  H   H336      1.0  0.07128  0.49636  0.56915  1.0000
  C   C277      1.0  0.28963  0.48348  0.78002  1.0000
  H   H337      1.0  0.47392  0.44594  0.72301  1.0000
  C   C278      1.0  0.42315  0.64889  0.97361  1.0000
  H   H338      1.0  0.41881  0.41538  0.54222  1.0000
  H   H339      1.0  0.40590  0.63403  0.97661  1.0000
  C   C279      1.0  0.21293  0.41410  0.52421  1.0000
  H   H340      1.0  0.43891  0.38008  0.84754  1.0000
  C   C280      1.0  0.11864  0.34489  0.83246  1.0000
  C   C281      1.0  0.48561  0.39049  0.80813  1.0000
  C   C282      1.0  0.12292  0.35236  0.80091  1.0000
  H   H341      1.0  0.43221  0.38591  0.79586  1.0000
  H   H342      1.0  0.00760  0.39000  0.56971  1.0000
  C   C283      1.0  0.00377  0.41147  0.76964  1.0000
  C   C284      1.0  0.49758  0.39569  0.92073  1.0000
  H   H343      1.0  0.49315  0.60818  0.97941  1.0000
  C   C285      1.0  0.99876  0.56670  0.77588  1.0000
  C   C286      1.0  0.49586  0.42907  0.00206  1.0000
  Fe  Fe40      1.0  0.00072  0.56414  0.89593  1.0000
  C   C287      1.0  0.49510  0.44566  0.91817  1.0000
  C   C288      1.0  0.49369  0.44443  0.83849  1.0000
  C   C289      1.0  0.49535  0.36815  0.99911  1.0000
  H   H344      1.0  0.05698  0.66281  0.00013  1.0000
  C   C290      1.0  0.49743  0.41366  0.63391  1.0000
  H   H345      1.0  0.28995  0.93251  0.44061  1.0000
  H   H346      1.0  0.11421  0.85278  0.28769  1.0000
  S   S83       1.0  0.11941  0.94908  0.37613  1.0000
  H   H347      1.0  0.47294  0.85320  0.36777  1.0000
  Fe  Fe41      1.0  0.14768  0.96521  0.45278  1.0000
  S   S84       1.0  0.14879  0.92285  0.43628  1.0000
  C   C291      1.0  0.25812  0.91540  0.49390  1.0000
  Fe  Fe42      1.0  0.16260  0.94512  0.39099  1.0000
  S   S85       1.0  0.19626  0.92363  0.36489  1.0000
  Fe  Fe43      1.0  0.10574  0.93035  0.42295  1.0000
  S   S86       1.0  0.07172  0.89751  0.42623  1.0000
  H   H348      1.0  0.37379  0.95121  0.50233  1.0000
  H   H349      1.0  0.04929  0.72460  0.06316  1.0000
  Fe  Fe44      1.0  0.36812  0.90447  0.45962  1.0000
  S   S87       1.0  0.37396  0.94754  0.43762  1.0000
  Fe  Fe45      1.0  0.38231  0.87920  0.39979  1.0000
  S   S88       1.0  0.38926  0.92018  0.37296  1.0000
  S   S89       1.0  0.38888  0.83902  0.37880  1.0000
  Fe  Fe46      1.0  0.41154  0.93180  0.41304  1.0000
  S   S90       1.0  0.45067  0.95807  0.40703  1.0000
  Fe  Fe47      1.0  0.35087  0.93209  0.39969  1.0000
  S   S91       1.0  0.32036  0.96156  0.37992  1.0000
  S   S92       1.0  0.40770  0.88982  0.43809  1.0000
  S   S93       1.0  0.34192  0.88994  0.42356  1.0000
  C   C292      1.0  0.00940  0.91941  0.12714  1.0000
  S   S94       1.0  0.45696  0.84839  0.17047  1.0000
  S   S95       1.0  0.03041  0.87476  0.20421  1.0000
  C   C293      1.0  0.48024  0.83935  0.35107  1.0000
  S   S96       1.0  0.45444  0.78251  0.19502  1.0000
  H   H350      1.0  0.23443  0.95582  0.43500  1.0000
  Fe  Fe48      1.0  0.47183  0.80880  0.15344  1.0000
  S   S97       1.0  0.46216  0.79603  0.10718  1.0000
  Fe  Fe49      1.0  0.44335  0.82266  0.21386  1.0000
  S   S98       1.0  0.40110  0.82640  0.23723  1.0000
  H   H351      1.0  0.05354  0.92771  0.48385  1.0000
  C   C294      1.0  0.05362  0.69580  0.02970  1.0000
  C   C295      1.0  0.39045  0.84052  0.33870  1.0000
  C   C296      1.0  0.37027  0.82611  0.32469  1.0000
  C   C297      1.0  0.37346  0.82283  0.29334  1.0000
  C   C298      1.0  0.39737  0.83293  0.27597  1.0000
  C   C299      1.0  0.41759  0.84763  0.28980  1.0000
  C   C300      1.0  0.41381  0.85188  0.32108  1.0000
  H   H352      1.0  0.35237  0.81696  0.33824  1.0000
  H   H353      1.0  0.35772  0.81157  0.28273  1.0000
  H   H354      1.0  0.43603  0.85563  0.27643  1.0000
  H   H355      1.0  0.42950  0.86278  0.33201  1.0000
  C   C301      1.0  0.03879  0.91079  0.42181  1.0000
  C   C302      1.0  0.03481  0.93914  0.42170  1.0000
  C   C303      1.0  0.01166  0.66963  0.13359  1.0000
  H   H356      1.0  0.46767  0.92949  0.33974  1.0000
  H   H357      1.0  0.47751  0.74628  0.34812  1.0000
  C   C304      1.0  0.01620  0.89288  0.41886  1.0000
  H   H358      1.0  0.05206  0.95320  0.42353  1.0000
  H   H359      1.0  0.46223  0.90007  0.40297  1.0000
  Fe  Fe50      1.0  0.11938  0.98906  0.39777  1.0000
  H   H360      1.0  0.23986  0.91934  0.43776  1.0000
  C   C305      1.0  0.23059  0.93412  0.36994  1.0000
  C   C306      1.0  0.25113  0.91442  0.37158  1.0000
  C   C307      1.0  0.27867  0.92247  0.37525  1.0000
  C   C308      1.0  0.28596  0.95039  0.37625  1.0000
  C   C309      1.0  0.26547  0.97008  0.37431  1.0000
  C   C310      1.0  0.23782  0.96196  0.37156  1.0000
  H   H361      1.0  0.24571  0.89286  0.37016  1.0000
  H   H362      1.0  0.29434  0.90714  0.37658  1.0000
  H   H363      1.0  0.04515  0.98759  0.34157  1.0000
  H   H364      1.0  0.22221  0.97733  0.36997  1.0000
  C   C311      1.0  0.44950  0.77523  0.28525  1.0000
  S   S99       1.0  0.03054  0.73917  0.20438  1.0000
  C   C312      1.0  0.12665  0.88277  0.35241  1.0000
  C   C313      1.0  0.38241  0.90773  0.27339  1.0000
  C   C314      1.0  0.03027  0.93015  0.20984  1.0000
  H   H365      1.0  0.34438  0.90970  0.30098  1.0000
  H   H366      1.0  0.45899  0.72899  0.32069  1.0000
  C   C315      1.0  0.47730  0.96738  0.20528  1.0000
  H   H367      1.0  0.05246  0.92900  0.20955  1.0000
  H   H368      1.0  0.03019  0.97362  0.21587  1.0000
  H   H369      1.0  0.44045  0.94218  0.20322  1.0000
  H   H370      1.0  0.00544  0.97144  0.41966  1.0000
  C   C316      1.0  0.48953  0.66722  0.23522  1.0000
  H   H371      1.0  0.05439  0.68604  0.20959  1.0000
  C   C317      1.0  0.44823  0.93450  0.49511  1.0000
  H   H372      1.0  0.46253  0.70303  0.10792  1.0000
  H   H373      1.0  0.46559  0.89915  0.19689  1.0000
  C   C318      1.0  0.47259  0.79781  0.32405  1.0000
  N   N16       1.0  0.02820  0.69136  0.11398  1.0000
  H   H374      1.0  0.43524  0.95514  0.26702  1.0000
  C   C319      1.0  0.28313  0.87645  0.51636  1.0000
  C   C320      1.0  0.46412  0.81601  0.34639  1.0000
  H   H375      1.0  0.29999  0.95340  0.47043  1.0000
  C   C321      1.0  0.23542  0.93726  0.45136  1.0000
  H   H376      1.0  0.44486  0.93239  0.47130  1.0000
  H   H377      1.0  0.45702  0.72432  0.13934  1.0000
  H   H378      1.0  0.46277  0.77822  0.04703  1.0000
  C   C322      1.0  0.45852  0.99537  0.12380  1.0000
  H   H379      1.0  0.08150  0.93582  0.25018  1.0000
  H   H380      1.0  0.22802  0.96102  0.50360  1.0000
  H   H381      1.0  0.14985  0.91918  0.50192  1.0000
  N   N17       1.0  0.45574  0.77328  0.31784  1.0000
  C   C323      1.0  0.00605  0.86175  0.03322  1.0000
  N   N18       1.0  0.13015  0.88007  0.31903  1.0000
  C   C324      1.0  0.15916  0.87301  0.31100  1.0000
  H   H382      1.0  0.17432  0.88826  0.31837  1.0000
  C   C325      1.0  0.11208  0.85649  0.31237  1.0000
  C   C326      1.0  0.12396  0.90652  0.30211  1.0000
  C   C327      1.0  0.13990  0.93083  0.30547  1.0000
  C   C328      1.0  0.10245  0.90906  0.28181  1.0000
  C   C329      1.0  0.13466  0.95605  0.28978  1.0000
  C   C330      1.0  0.09757  0.93440  0.26598  1.0000
  C   C331      1.0  0.11355  0.95786  0.27003  1.0000
  H   H383      1.0  0.37681  0.88817  0.26490  1.0000
  C   C332      1.0  0.47368  0.90756  0.29950  1.0000
  H   H384      1.0  0.44887  0.68294  0.24324  1.0000
  C   C333      1.0  0.03218  0.68292  0.21133  1.0000
  C   C334      1.0  0.48225  0.92434  0.32140  1.0000
  H   H385      1.0  0.06727  0.71331  0.11522  1.0000
  H   H386      1.0  0.06657  0.67797  0.13067  1.0000
  C   C335      1.0  0.48347  0.78545  0.05058  1.0000
  C   C336      1.0  0.48909  0.79546  0.07852  1.0000
  C   C337      1.0  0.28319  0.94894  0.45544  1.0000
  H   H387      1.0  0.08923  0.89181  0.27749  1.0000
  H   H388      1.0  0.46660  0.87511  0.04912  1.0000
  H   H389      1.0  0.44939  0.97629  0.30789  1.0000
  H   H390      1.0  0.43192  0.76754  0.36142  1.0000
  N   N19       1.0  0.25670  0.94095  0.47340  1.0000
  H   H391      1.0  0.28145  0.96792  0.43982  1.0000
  C   C338      1.0  0.46722  0.95425  0.50283  1.0000
  C   C339      1.0  0.43320  0.91781  0.51801  1.0000
  H   H392      1.0  0.01545  0.79247  0.10318  1.0000
  H   H393      1.0  0.04973  0.99187  0.12277  1.0000
  C   C340      1.0  0.41530  0.94580  0.27515  1.0000
  N   N20       1.0  0.01262  0.97101  0.11079  1.0000
  H   H394      1.0  0.14716  0.97429  0.29295  1.0000
  H   H395      1.0  0.05422  0.95706  0.11362  1.0000
  H   H396      1.0  0.41589  0.78826  0.33207  1.0000
  C   C341      1.0  0.48155  0.91177  0.40209  1.0000
  H   H397      1.0  0.38056  0.98047  0.35067  1.0000
  C   C342      1.0  0.01771  0.95547  0.21295  1.0000
  H   H398      1.0  0.03574  0.93500  0.27928  1.0000
  H   H399      1.0  0.43952  0.79495  0.27890  1.0000
  H   H400      1.0  0.30211  0.90718  0.48442  1.0000
  H   H401      1.0  0.41811  0.90273  0.51185  1.0000
  C   C343      1.0  0.03816  0.96716  0.33474  1.0000
  H   H402      1.0  0.45676  0.98451  0.14713  1.0000
  C   C344      1.0  0.47698  0.91824  0.19859  1.0000
  C   C345      1.0  0.49220  0.68620  0.15488  1.0000
  C   C346      1.0  0.40791  0.92065  0.26412  1.0000
  H   H403      1.0  0.44480  0.81312  0.36022  1.0000
  H   H404      1.0  0.10972  0.97746  0.25769  1.0000
  H   H405      1.0  0.27097  0.99172  0.37497  1.0000
  C   C347      1.0  0.05100  0.66843  0.02294  1.0000
  S   S100      1.0  0.35595  0.89323  0.50969  1.0000
  H   H406      1.0  0.04737  0.77598  0.06285  1.0000
  C   C348      1.0  0.01523  0.70578  0.20982  1.0000
  H   H407      1.0  0.47218  0.84151  0.03627  1.0000
  H   H408      1.0  0.41659  0.75173  0.33118  1.0000
  C   C349      1.0  0.47800  0.91354  0.10532  1.0000
  H   H409      1.0  0.24841  0.98396  0.47704  1.0000
  H   H410      1.0  0.21491  0.91478  0.51084  1.0000
  H   H411      1.0  0.42908  0.96459  0.34253  1.0000
  H   H412      1.0  0.00445  0.72183  0.13669  1.0000
  H   H413      1.0  0.45317  0.94773  0.09449  1.0000
  H   H414      1.0  0.42201  0.91098  0.24835  1.0000
  C   C350      1.0  0.04615  0.70318  0.05913  1.0000
  H   H415      1.0  0.11737  0.83692  0.32526  1.0000
  C   C351      1.0  0.01800  0.98169  0.07828  1.0000
  H   H416      1.0  0.09000  0.85994  0.31920  1.0000
  C   C352      1.0  0.00709  0.67240  0.28901  1.0000
  H   H417      1.0  0.01458  0.84073  0.03432  1.0000
  C   C353      1.0  0.03952  0.97088  0.12486  1.0000
  C   C354      1.0  0.47995  0.71584  0.23804  1.0000
  C   C355      1.0  0.47071  0.68816  0.23930  1.0000
  H   H418      1.0  0.47482  0.73829  0.10465  1.0000
  C   C356      1.0  0.28276  0.90065  0.49690  1.0000
  H   H419      1.0  0.46525  0.73181  0.24101  1.0000
  H   H420      1.0  0.10571  0.88995  0.35933  1.0000
  H   H421      1.0  0.01917  0.87092  0.41868  1.0000
  H   H422      1.0  0.16431  0.85271  0.32236  1.0000
  H   H423      1.0  0.02438  0.73544  0.10367  1.0000
  S   S101      1.0  0.48310  0.82794  0.23578  1.0000
  C   C357      1.0  0.01596  0.98646  0.29076  1.0000
  C   C358      1.0  0.03529  0.68331  0.08269  1.0000
  C   C359      1.0  0.01197  0.71685  0.11328  1.0000
  C   C360      1.0  0.36413  0.91995  0.29361  1.0000
  H   H424      1.0  0.14207  0.89756  0.35998  1.0000
  S   S102      1.0  0.16409  0.98737  0.40807  1.0000
  C   C361      1.0  0.01418  0.90628  0.20712  1.0000
  H   H425      1.0  0.45245  0.89999  0.30056  1.0000
  H   H426      1.0  0.03684  0.96440  0.14975  1.0000
  C   C362      1.0  0.48238  0.86194  0.03863  1.0000
  H   H427      1.0  0.35600  0.95326  0.32044  1.0000
  H   H428      1.0  0.03607  0.95278  0.35588  1.0000
  H   H429      1.0  0.02833  0.91982  0.13856  1.0000
  C   C363      1.0  0.39730  0.95871  0.29611  1.0000
  C   C364      1.0  0.46275  0.94255  0.20255  1.0000
  C   C365      1.0  0.01766  0.92578  0.29220  1.0000
  C   C366      1.0  0.42895  0.77011  0.33653  1.0000
  H   H430      1.0  0.15656  0.93059  0.32048  1.0000
  H   H431      1.0  0.46217  0.89852  0.10095  1.0000
  C   C367      1.0  0.06444  0.92260  0.50411  1.0000
  C   C368      1.0  0.47214  0.71929  0.12051  1.0000
  H   H432      1.0  0.47843  0.96748  0.48478  1.0000
  H   H433      1.0  0.16316  0.87223  0.28587  1.0000
  C   C369      1.0  0.37121  0.94516  0.30470  1.0000
  H   H434      1.0  0.43523  0.75820  0.28009  1.0000
  S   S103      1.0  0.01712  0.80994  0.16202  1.0000
  H   H435      1.0  0.02150  0.88822  0.26956  1.0000
  H   H436      1.0  0.21424  0.93395  0.46264  1.0000
  H   H437      1.0  0.46832  0.77414  0.26960  1.0000
  H   H438      1.0  0.12950  0.86288  0.36602  1.0000
  C   C370      1.0  0.24897  0.96422  0.49170  1.0000
  N   N21       1.0  0.01172  0.96869  0.31993  1.0000
  H   H439      1.0  0.48571  0.88769  0.25897  1.0000
  H   H440      1.0  0.05513  0.95974  0.31951  1.0000
  H   H441      1.0  0.03379  0.98047  0.27584  1.0000
  C   C371      1.0  0.47288  0.94176  0.10226  1.0000
  S   S104      1.0  0.10319  0.97057  0.44420  1.0000
  S   S105      1.0  0.16597  0.97747  0.49549  1.0000
  C   C372      1.0  0.38498  0.99543  0.33023  1.0000
  C   C373      1.0  0.48158  0.94034  0.40401  1.0000
  N   N22       1.0  0.40588  0.98504  0.30801  1.0000
  C   C374      1.0  0.49241  0.90064  0.27617  1.0000
  H   H442      1.0  0.04993  0.70378  0.15188  1.0000
  C   C375      1.0  0.07519  0.89650  0.50876  1.0000
  C   C376      1.0  0.01821  0.77949  0.02829  1.0000
  C   C377      1.0  0.02663  0.78132  0.05780  1.0000
  C   C378      1.0  0.00979  0.89891  0.28662  1.0000
  H   H443      1.0  0.07263  0.88145  0.49220  1.0000
  H   H444      1.0  0.47046  0.99027  0.06336  1.0000
  H   H445      1.0  0.00422  0.87569  0.13945  1.0000
  C   C379      1.0  0.47136  0.74795  0.32418  1.0000
  C   C380      1.0  0.23425  0.90458  0.51183  1.0000
  N   N23       1.0  0.48605  0.99145  0.10801  1.0000
  H   H446      1.0  0.02897  0.96642  0.06477  1.0000
  H   H447      1.0  0.01956  0.87484  0.04596  1.0000
  C   C381      1.0  0.05411  0.69682  0.12857  1.0000
  C   C382      1.0  0.00858  0.79076  0.08067  1.0000
  C   C383      1.0  0.00835  0.94948  0.41935  1.0000
  C   C384      1.0  0.00252  0.94044  0.31406  1.0000
  H   H448      1.0  0.47760  0.69147  0.17404  1.0000
  C   C385      1.0  0.43174  0.98137  0.32369  1.0000
  H   H449      1.0  0.26390  0.96718  0.50926  1.0000
  Fe  Fe51      1.0  0.49554  0.78994  0.21321  1.0000
  C   C386      1.0  0.49252  0.96180  0.10985  1.0000
  H   H450      1.0  0.49052  0.74756  0.30875  1.0000
  H   H451      1.0  0.44122  0.98774  0.11127  1.0000
  H   H452      1.0  0.02913  0.67225  0.28309  1.0000
  H   H453      1.0  0.00434  0.67697  0.15590  1.0000
  Fe  Fe52      1.0  0.00328  0.77560  0.19742  1.0000
  H   H454      1.0  0.48219  0.66872  0.14450  1.0000
  H   H455      1.0  0.00639  0.71576  0.28181  1.0000
  Fe  Fe53      1.0  0.00271  0.83825  0.19709  1.0000
  H   H456      1.0  0.49690  0.73700  0.16923  1.0000
  H   H457      1.0  0.30218  0.86547  0.51807  1.0000
  H   H458      1.0  0.99925  0.90298  0.48896  1.0000
  Fe  Fe54      1.0  0.49776  0.85059  0.19109  1.0000
  H   H459      1.0  0.99874  0.98686  0.06716  1.0000
  C   C387      1.0  0.99850  0.94348  0.11258  1.0000
  S   S106      1.0  0.38187  0.92082  0.67104  1.0000
  S   S107      1.0  0.31853  0.90313  0.72869  1.0000
  Fe  Fe55      1.0  0.41695  0.93445  0.69736  1.0000
  S   S108      1.0  0.45517  0.90953  0.70009  1.0000
  H   H460      1.0  0.49502  0.94990  0.82918  1.0000
  Fe  Fe56      1.0  0.16492  0.91507  0.70647  1.0000
  S   S109      1.0  0.17114  0.87302  0.68993  1.0000
  S   S110      1.0  0.19397  0.93817  0.73387  1.0000
  Fe  Fe57      1.0  0.11198  0.92359  0.67472  1.0000
  S   S111      1.0  0.11400  0.88298  0.65455  1.0000
  S   S112      1.0  0.07730  0.95246  0.66754  1.0000
  Fe  Fe58      1.0  0.12535  0.86663  0.70089  1.0000
  S   S113      1.0  0.10117  0.82821  0.71967  1.0000
  Fe  Fe59      1.0  0.15916  0.89300  0.64526  1.0000
  S   S114      1.0  0.18076  0.88426  0.60053  1.0000
  S   S115      1.0  0.12009  0.90686  0.72190  1.0000
  S   S116      1.0  0.15628  0.93556  0.66079  1.0000
  C   C388      1.0  0.08490  0.96862  0.80833  1.0000
  S   S117      1.0  0.04952  0.75181  0.91486  1.0000
  C   C389      1.0  0.04913  0.95022  0.75169  1.0000
  C   C390      1.0  0.45537  0.97441  0.59575  1.0000
  S   S118      1.0  0.04453  0.81762  0.92605  1.0000
  H   H461      1.0  0.29005  0.94214  0.65242  1.0000
  Fe  Fe60      1.0  0.05890  0.79263  0.88769  1.0000
  S   S119      1.0  0.09984  0.80670  0.86300  1.0000
  S   S120      1.0  0.49266  0.87206  0.90078  1.0000
  C   C391      1.0  0.01494  0.89628  0.69302  1.0000
  H   H462      1.0  0.31004  0.89974  0.65776  1.0000
  H   H463      1.0  0.45186  0.96090  0.78207  1.0000
  H   H464      1.0  0.01692  0.96795  0.96888  1.0000
  C   C392      1.0  0.25922  0.86626  0.53334  1.0000
  C   C393      1.0  0.17553  0.91024  0.57188  1.0000
  H   H465      1.0  0.24482  0.97032  0.72344  1.0000
  C   C394      1.0  0.44136  0.92770  0.61215  1.0000
  C   C395      1.0  0.18096  0.95798  0.55137  1.0000
  C   C396      1.0  0.18416  0.93745  0.57496  1.0000
  C   C397      1.0  0.29721  0.85875  0.67251  1.0000
  H   H466      1.0  0.19351  0.94265  0.59537  1.0000
  C   C398      1.0  0.10198  0.81978  0.75905  1.0000
  C   C399      1.0  0.12509  0.82669  0.77430  1.0000
  C   C400      1.0  0.12470  0.82129  0.80615  1.0000
  C   C401      1.0  0.10096  0.80974  0.82285  1.0000
  C   C402      1.0  0.07830  0.80181  0.80737  1.0000
  C   C403      1.0  0.07894  0.80652  0.77547  1.0000
  H   H467      1.0  0.14332  0.83589  0.76144  1.0000
  H   H468      1.0  0.14275  0.82611  0.81791  1.0000
  H   H469      1.0  0.06036  0.79190  0.81983  1.0000
  H   H470      1.0  0.06126  0.80058  0.76360  1.0000
  C   C404      1.0  0.43671  0.92104  0.54882  1.0000
  H   H471      1.0  0.06402  0.93527  0.74487  1.0000
  H   H472      1.0  0.45915  0.68335  0.89116  1.0000
  H   H473      1.0  0.08961  0.90999  0.85375  1.0000
  H   H474      1.0  0.05733  0.91422  0.90055  1.0000
  H   H475      1.0  0.30615  0.93173  0.61695  1.0000
  H   H476      1.0  0.47327  0.92717  0.89357  1.0000
  Fe  Fe61      1.0  0.00355  0.81558  0.90603  1.0000
  C   C405      1.0  0.29485  0.94903  0.81126  1.0000
  Fe  Fe62      1.0  0.37994  0.96548  0.65494  1.0000
  S   S121      1.0  0.38974  0.94076  0.73926  1.0000
  H   H477      1.0  0.23645  0.82672  0.66066  1.0000
  C   C406      1.0  0.29345  0.88457  0.65724  1.0000
  C   C407      1.0  0.10821  0.95029  0.59500  1.0000
  C   C408      1.0  0.05268  0.97758  0.73972  1.0000
  S   S122      1.0  0.03656  0.96840  0.90192  1.0000
  C   C409      1.0  0.01482  0.90154  0.58136  1.0000
  C   C410      1.0  0.37066  0.95601  0.57929  1.0000
  C   C411      1.0  0.36186  0.92889  0.58900  1.0000
  C   C412      1.0  0.35713  0.90988  0.56742  1.0000
  H   H478      1.0  0.43453  0.98059  0.58927  1.0000
  S   S123      1.0  0.34990  0.97597  0.69308  1.0000
  C   C413      1.0  0.37473  0.96397  0.54795  1.0000
  H   H479      1.0  0.35842  0.92258  0.61306  1.0000
  H   H480      1.0  0.35032  0.88891  0.57502  1.0000
  H   H481      1.0  0.04645  0.97163  0.57239  1.0000
  C   C414      1.0  0.02167  0.95346  0.68179  1.0000
  H   H482      1.0  0.04282  0.87466  0.84035  1.0000
  H   H483      1.0  0.27836  0.90493  0.58310  1.0000
  C   C415      1.0  0.04124  0.90826  0.68426  1.0000
  C   C416      1.0  0.04460  0.93690  0.67842  1.0000
  Fe  Fe63      1.0  0.35429  0.93198  0.71095  1.0000
  C   C417      1.0  0.47234  0.87436  0.98699  1.0000
  H   H484      1.0  0.01510  0.88836  0.53672  1.0000
  H   H485      1.0  0.05877  0.89526  0.68172  1.0000
  C   C418      1.0  0.28413  0.91338  0.72718  1.0000
  C   C419      1.0  0.27758  0.94122  0.72343  1.0000
  C   C420      1.0  0.24983  0.94874  0.72548  1.0000
  C   C421      1.0  0.22852  0.92842  0.72981  1.0000
  C   C422      1.0  0.23506  0.90058  0.73202  1.0000
  C   C423      1.0  0.26278  0.89314  0.73130  1.0000
  C   C424      1.0  0.03158  0.86922  0.98453  1.0000
  H   H486      1.0  0.21877  0.88477  0.73536  1.0000
  H   H487      1.0  0.26769  0.87156  0.73410  1.0000
  N   N24       1.0  0.14161  0.90280  0.82275  1.0000
  C   C425      1.0  0.14759  0.88933  0.79410  1.0000
  C   C426      1.0  0.16772  0.91516  0.83180  1.0000
  C   C427      1.0  0.13177  0.88087  0.84693  1.0000
  C   C428      1.0  0.12155  0.92479  0.81769  1.0000
  C   C429      1.0  0.12757  0.94669  0.79458  1.0000
  H   H488      1.0  0.15668  0.88256  0.54301  1.0000
  H   H489      1.0  0.43910  0.71491  0.94547  1.0000
  C   C430      1.0  0.15961  0.92431  0.52209  1.0000
  H   H490      1.0  0.06612  0.87078  0.74516  1.0000
  C   C431      1.0  0.02323  0.68329  0.88542  1.0000
  H   H491      1.0  0.16174  0.87191  0.79732  1.0000
  H   H492      1.0  0.12828  0.88115  0.78553  1.0000
  H   H493      1.0  0.15797  0.90358  0.77554  1.0000
  H   H494      1.0  0.16398  0.92660  0.85253  1.0000
  C   C432      1.0  0.02603  0.94185  0.77138  1.0000
  H   H495      1.0  0.11246  0.87015  0.84119  1.0000
  H   H496      1.0  0.14710  0.86444  0.84997  1.0000
  H   H497      1.0  0.12813  0.88919  0.86962  1.0000
  H   H498      1.0  0.14652  0.94752  0.77998  1.0000
  H   H499      1.0  0.99820  0.85226  0.83442  1.0000
  C   C433      1.0  0.48106  0.67992  0.89090  1.0000
  H   H500      1.0  0.22922  0.87132  0.63370  1.0000
  H   H501      1.0  0.28208  0.95864  0.61651  1.0000
  H   H502      1.0  0.48027  0.88203  0.96345  1.0000
  H   H503      1.0  0.07101  0.98549  0.80504  1.0000
  H   H504      1.0  0.44488  0.93151  0.63622  1.0000
  H   H505      1.0  0.49265  0.94081  0.62075  1.0000
  H   H506      1.0  0.28129  0.98321  0.76736  1.0000
  C   C434      1.0  0.25245  0.84286  0.65958  1.0000
  H   H507      1.0  0.47522  0.96391  0.74879  1.0000
  C   C435      1.0  0.05096  0.86702  0.76449  1.0000
  C   C436      1.0  0.16336  0.90364  0.54542  1.0000
  H   H508      1.0  0.40808  0.97027  0.84182  1.0000
  H   H509      1.0  0.49390  0.97244  0.90369  1.0000
  C   C437      1.0  0.23821  0.92886  0.64102  1.0000
  H   H510      1.0  0.11879  0.97955  0.53930  1.0000
  N   N25       1.0  0.46013  0.94522  0.58992  1.0000
  H   H511      1.0  0.25960  0.84740  0.54819  1.0000
  H   H512      1.0  0.02418  0.97566  0.67773  1.0000
  H   H513      1.0  0.17784  0.92988  0.81337  1.0000
  H   H514      1.0  0.32514  0.95513  0.75938  1.0000
  Fe  Fe64      1.0  0.38749  0.98419  0.71845  1.0000
  C   C438      1.0  0.41054  0.98996  0.82841  1.0000
  C   C439      1.0  0.05707  0.87460  0.79310  1.0000
  C   C440      1.0  0.47128  0.95734  0.53355  1.0000
  C   C441      1.0  0.47395  0.95907  0.77404  1.0000
  H   H515      1.0  0.11232  0.96724  0.60981  1.0000
  H   H516      1.0  0.23439  0.94998  0.63085  1.0000
  H   H517      1.0  0.34820  0.95223  0.78932  1.0000
  H   H518      1.0  0.31715  0.95454  0.86136  1.0000
  C   C442      1.0  0.37026  0.94490  0.52638  1.0000
  C   C443      1.0  0.08370  0.93667  0.55080  1.0000
  H   H519      1.0  0.46584  0.97174  0.83082  1.0000
  H   H520      1.0  0.03695  0.84701  0.98618  1.0000
  H   H521      1.0  0.48396  0.70271  0.96109  1.0000
  H   H522      1.0  0.12838  0.94486  0.58407  1.0000
  H   H523      1.0  0.39961  0.68114  0.95280  1.0000
  H   H524      1.0  0.21945  0.91602  0.63808  1.0000
  H   H525      1.0  0.05904  0.94786  0.84508  1.0000
  C   C444      1.0  0.46770  0.68699  0.96543  1.0000
  C   C445      1.0  0.48888  0.93871  0.59636  1.0000
  C   C446      1.0  0.44175  0.69440  0.95635  1.0000
  C   C447      1.0  0.00070  0.91463  0.60450  1.0000
  H   H526      1.0  0.03473  0.89292  0.58524  1.0000
  H   H527      1.0  0.49674  0.87445  0.74643  1.0000
  H   H528      1.0  0.47281  0.96740  0.68623  1.0000
  H   H529      1.0  0.29382  0.95699  0.71969  1.0000
  H   H530      1.0  0.06493  0.98100  0.60410  1.0000
  C   C448      1.0  0.26000  0.91433  0.59425  1.0000
  S   S124      1.0  0.41715  0.97846  0.67824  1.0000
  C   C449      1.0  0.07816  0.94730  0.83088  1.0000
  C   C450      1.0  0.03519  0.91261  0.89944  1.0000
  Fe  Fe65      1.0  0.03138  0.77709  0.95129  1.0000
  C   C451      1.0  0.26875  0.89034  0.64279  1.0000
  H   H531      1.0  0.24163  0.90095  0.59117  1.0000
  H   H532      1.0  0.10530  0.90302  0.57455  1.0000
  H   H533      1.0  0.03432  0.86859  0.89776  1.0000
  H   H534      1.0  0.41932  0.93209  0.60901  1.0000
  C   C452      1.0  0.24847  0.86857  0.64424  1.0000
  H   H535      1.0  0.09796  0.86956  0.53800  1.0000
  H   H536      1.0  0.11458  0.98473  0.77229  1.0000
  H   H537      1.0  0.18794  0.97900  0.55362  1.0000
  C   C453      1.0  0.33999  0.98764  0.87671  1.0000
  H   H538      1.0  0.27967  0.81814  0.68595  1.0000
  C   C454      1.0  0.28653  0.93833  0.62836  1.0000
  C   C455      1.0  0.02213  0.88671  0.89826  1.0000
  H   H539      1.0  0.07688  0.88435  0.79594  1.0000
  C   C456      1.0  0.06212  0.96458  0.58822  1.0000
  H   H540      1.0  0.18304  0.89912  0.83685  1.0000
  C   C457      1.0  0.03300  0.99666  0.74713  1.0000
  C   C458      1.0  0.49343  0.92817  0.90249  1.0000
  N   N26       1.0  0.08860  0.95836  0.57176  1.0000
  C   C459      1.0  0.03784  0.86917  0.81801  1.0000
  H   H541      1.0  0.45660  0.97791  0.62032  1.0000
  H   H542      1.0  0.23957  0.93000  0.66601  1.0000
  N   N27       1.0  0.00454  0.87351  0.00118  1.0000
  C   C460      1.0  0.48744  0.92597  0.68911  1.0000
  C   C461      1.0  0.09609  0.92564  0.83566  1.0000
  C   C462      1.0  0.00496  0.95188  0.98302  1.0000
  C   C463      1.0  0.41956  0.67538  0.96029  1.0000
  H   H543      1.0  0.34144  0.97717  0.89922  1.0000
  C   C464      1.0  0.09365  0.90951  0.55540  1.0000
  H   H544      1.0  0.21615  0.87229  0.54427  1.0000
  S   S125      1.0  0.01854  0.79329  0.86601  1.0000
  H   H545      1.0  0.03682  0.70084  0.88766  1.0000
  H   H546      1.0  0.45456  0.88688  0.99413  1.0000
  H   H547      1.0  0.46417  0.85297  0.98512  1.0000
  N   N28       1.0  0.31169  0.97432  0.80008  1.0000
  H   H548      1.0  0.01225  0.87411  0.69625  1.0000
  C   C465      1.0  0.10944  0.96820  0.79001  1.0000
  S   S126      1.0  0.37666  0.98044  0.60565  1.0000
  H   H549      1.0  0.31591  0.85514  0.68410  1.0000
  N   N29       1.0  0.49431  0.87501  0.00874  1.0000
  H   H550      1.0  0.38156  0.98492  0.54029  1.0000
  C   C466      1.0  0.45588  0.94106  0.55756  1.0000
  C   C467      1.0  0.33367  0.96625  0.77789  1.0000
  H   H551      1.0  0.34603  0.98443  0.76680  1.0000
  H   H552      1.0  0.44459  0.90533  0.61031  1.0000
  C   C468      1.0  0.16881  0.95142  0.52486  1.0000
  C   C469      1.0  0.01965  0.93637  0.89970  1.0000
  N   N30       1.0  0.49235  0.97789  0.78907  1.0000
  C   C470      1.0  0.08950  0.88988  0.53451  1.0000
  S   S127      1.0  0.48673  0.73542  0.89615  1.0000
  C   C471      1.0  0.02595  0.85327  0.76078  1.0000
  N   N31       1.0  0.26369  0.91757  0.62694  1.0000
  H   H553      1.0  0.00171  0.72553  0.98147  1.0000
  C   C472      1.0  0.27675  0.83798  0.67376  1.0000
  H   H554      1.0  0.47073  0.98906  0.58285  1.0000
  H   H555      1.0  0.27855  0.95351  0.82906  1.0000
  H   H556      1.0  0.02336  0.84679  0.73830  1.0000
  H   H557      1.0  0.42368  0.90792  0.56523  1.0000
  C   C473      1.0  0.00580  0.96091  0.77992  1.0000
  C   C474      1.0  0.36146  0.91779  0.53605  1.0000
  H   H558      1.0  0.07028  0.98374  0.72383  1.0000
  C   C475      1.0  0.48801  0.97098  0.82259  1.0000
  H   H559      1.0  0.48623  0.97295  0.53841  1.0000
  C   C476      1.0  0.06832  0.94234  0.52491  1.0000
  H   H560      1.0  0.25689  0.93448  0.58129  1.0000
  C   C477      1.0  0.00576  0.84748  0.78565  1.0000
  H   H561      1.0  0.02418  0.92024  0.77898  1.0000
  H   H562      1.0  0.39439  0.97449  0.78871  1.0000
  C   C478      1.0  0.01241  0.85610  0.81438  1.0000
  H   H563      1.0  0.05327  0.94606  0.60249  1.0000
  C   C479      1.0  0.40265  0.99233  0.79832  1.0000
  H   H564      1.0  0.09993  0.93251  0.61082  1.0000
  H   H565      1.0  0.99992  0.92245  0.82919  1.0000
  H   H566      1.0  0.06155  0.71149  0.01203  1.0000
  H   H567      1.0  0.28436  0.94005  0.79241  1.0000
  C   C480      1.0  0.32612  0.97484  0.85458  1.0000
  H   H568      1.0  0.30783  0.93230  0.82055  1.0000
  C   C481      1.0  0.49046  0.95467  0.68358  1.0000
  H   H569      1.0  0.03082  0.92068  0.96833  1.0000
  H   H570      1.0  0.48395  0.92575  0.97605  1.0000
  H   H571      1.0  0.04862  0.88080  0.99398  1.0000
  H   H572      1.0  0.03129  0.87547  0.95970  1.0000
  H   H573      1.0  0.08531  0.99404  0.53930  1.0000
  C   C482      1.0  0.23480  0.88031  0.53108  1.0000
  H   H574      1.0  0.47897  0.93708  0.77898  1.0000
  H   H575      1.0  0.49351  0.91713  0.59153  1.0000
  Fe  Fe66      1.0  0.00768  0.75456  0.89632  1.0000
  C   C483      1.0  0.10022  0.98397  0.55420  1.0000
  H   H576      1.0  0.47973  0.88034  0.79973  1.0000
  S   S128      1.0  0.04151  0.76810  0.00014  1.0000
  H   H577      1.0  0.00946  0.91610  0.62631  1.0000
  C   C484      1.0  0.01275  0.92442  0.98296  1.0000
  C   C485      1.0  0.00319  0.89899  0.55348  1.0000
  C   C486      1.0  0.00977  0.98850  0.76672  1.0000
  C   C487      1.0  0.32476  0.98787  0.82462  1.0000
  C   C488      1.0  0.29333  0.99361  0.78398  1.0000
  H   H578      1.0  0.05955  0.96226  0.52023  1.0000
  Fe  Fe67      1.0  0.96492  0.32035  0.15934  1.0000
  S   S129      1.0  0.53039  0.04039  0.19380  1.0000
  H   H579      1.0  0.52497  0.13757  0.08316  1.0000
  S   S130      1.0  0.52558  0.10787  0.18934  1.0000
  H   H580      1.0  0.49858  0.20625  0.07762  1.0000
  Fe  Fe68      1.0  0.52250  0.07405  0.15769  1.0000
  S   S131      1.0  0.54298  0.07540  0.10978  1.0000
  Fe  Fe69      1.0  0.52825  0.07339  0.22650  1.0000
  S   S132      1.0  0.55169  0.07441  0.26890  1.0000
  C   C489      1.0  0.99299  0.15785  0.21401  1.0000
  H   H581      1.0  0.98509  0.05725  0.10617  1.0000
  H   H582      1.0  0.55132  0.05874  0.04877  1.0000
  H   H583      1.0  0.55499  0.16207  0.14955  1.0000
  H   H584      1.0  0.51294  0.19680  0.24189  1.0000
  H   H585      1.0  0.98390  0.15560  0.13703  1.0000
  H   H586      1.0  0.80508  0.31877  0.25983  1.0000
  C   C490      1.0  0.97181  0.31965  0.05299  1.0000
  C   C491      1.0  0.53227  0.14942  0.10180  1.0000
  S   S133      1.0  0.95284  0.27904  0.18364  1.0000
  C   C492      1.0  0.52573  0.19109  0.13008  1.0000
  H   H587      1.0  0.97255  0.22335  0.22401  1.0000
  H   H588      1.0  0.95300  0.19318  0.13168  1.0000
  Fe  Fe70      1.0  0.93970  0.30323  0.22356  1.0000
  C   C493      1.0  0.53048  0.06590  0.05170  1.0000
  H   H589      1.0  0.52718  0.00951  0.10990  1.0000
  N   N32       1.0  0.99191  0.21073  0.11107  1.0000
  C   C494      1.0  0.86510  0.29279  0.30119  1.0000
  H   H590      1.0  0.60349  0.01813  0.34089  1.0000
  C   C495      1.0  0.88716  0.30649  0.28360  1.0000
  H   H591      1.0  0.83697  0.29243  0.34111  1.0000
  C   C496      1.0  0.98778  0.30583  0.03151  1.0000
  H   H592      1.0  0.95209  0.04572  0.06834  1.0000
  H   H593      1.0  0.55134  0.23773  0.19174  1.0000
  H   H594      1.0  0.55425  0.15573  0.09539  1.0000
  H   H595      1.0  0.50029  0.03060  0.12203  1.0000
  H   H596      1.0  0.96211  0.21408  0.07716  1.0000
  C   C497      1.0  0.57991  0.04198  0.30904  1.0000
  H   H597      1.0  0.53137  0.13428  0.12226  1.0000
  H   H598      1.0  0.96278  0.22577  0.14486  1.0000
  Fe  Fe71      1.0  0.99462  0.28097  0.20204  1.0000
  C   C498      1.0  0.97769  0.31749  0.08378  1.0000
  C   C499      1.0  0.98350  0.04368  0.03153  1.0000
  C   C500      1.0  0.98576  0.20691  0.21761  1.0000
  H   H599      1.0  0.56858  0.05225  0.32665  1.0000
  H   H600      1.0  0.50628  0.00045  0.06308  1.0000
  H   H601      1.0  0.95540  0.17455  0.23265  1.0000
  C   C501      1.0  0.61039  0.01671  0.26363  1.0000
  C   C502      1.0  0.58998  0.03534  0.25559  1.0000
  C   C503      1.0  0.57505  0.04846  0.27826  1.0000
  H   H602      1.0  0.52299  0.26256  0.07950  1.0000
  H   H603      1.0  0.58664  0.04047  0.23180  1.0000
  H   H604      1.0  0.53457  0.20054  0.06981  1.0000
  H   H605      1.0  0.51532  0.25398  0.15867  1.0000
  C   C504      1.0  0.97610  0.17930  0.22245  1.0000
  H   H606      1.0  0.96930  0.24572  0.09411  1.0000
  C   C505      1.0  0.52435  0.23416  0.15562  1.0000
  C   C506      1.0  0.99263  0.05421  0.08306  1.0000
  S   S134      1.0  0.89889  0.29216  0.24968  1.0000
  H   H607      1.0  0.50859  0.17695  0.05886  1.0000
  C   C507      1.0  0.52097  0.07545  0.07965  1.0000
  C   C508      1.0  0.51421  0.19005  0.07717  1.0000
  H   H608      1.0  0.96303  0.13321  0.02866  1.0000
  C   C509      1.0  0.51308  0.06532  0.02757  1.0000
  C   C510      1.0  0.59968  0.02268  0.31715  1.0000
  C   C511      1.0  0.55538  0.19898  0.17168  1.0000
  C   C512      1.0  0.54613  0.18215  0.14995  1.0000
  H   H609      1.0  0.62255  0.00737  0.24592  1.0000
  H   H610      1.0  0.99357  0.23391  0.06663  1.0000
  C   C513      1.0  0.97398  0.04762  0.06163  1.0000
  H   H611      1.0  0.57059  0.19160  0.18699  1.0000
  C   C514      1.0  0.50637  0.00875  0.12233  1.0000
  H   H612      1.0  0.85640  0.27379  0.29415  1.0000
  C   C515      1.0  0.51462  0.21736  0.13416  1.0000
  H   H613      1.0  0.50811  0.00137  0.14670  1.0000
  H   H614      1.0  0.97985  0.19577  0.15769  1.0000
  C   C516      1.0  0.97869  0.22665  0.08616  1.0000
  N   N33       1.0  0.51515  0.17368  0.10710  1.0000
  C   C517      1.0  0.54467  0.22500  0.17435  1.0000
  C   C518      1.0  0.97093  0.20602  0.13737  1.0000
  C   C519      1.0  0.61534  0.01036  0.29441  1.0000
  C   C520      1.0  0.85408  0.30338  0.32783  1.0000
  S   S135      1.0  0.98078  0.30179  0.24405  1.0000
  C   C521      1.0  0.50167  0.27514  0.03970  1.0000
  S   S136      1.0  0.98020  0.12357  0.22064  1.0000
  S   S137      1.0  0.98791  0.06096  0.17132  1.0000
  C   C522      1.0  0.86480  0.32795  0.33731  1.0000
  C   C523      1.0  0.50576  0.27364  0.07098  1.0000
  H   H615      1.0  0.99300  0.11286  0.03281  1.0000
  C   C524      1.0  0.99723  0.15852  0.11620  1.0000
  H   H616      1.0  0.54128  0.29296  0.80145  1.0000
  H   H617      1.0  0.98267  0.30685  0.00794  1.0000
  S   S138      1.0  0.60712  0.31240  0.89674  1.0000
  H   H618      1.0  0.80887  0.00050  0.71262  1.0000
  Fe  Fe72      1.0  0.50640  0.32562  0.92309  1.0000
  C   C525      1.0  0.91587  0.01189  0.83216  1.0000
  S   S139      1.0  0.53307  0.11552  0.86990  1.0000
  H   H619      1.0  0.84083  0.01361  0.72379  1.0000
  Fe  Fe73      1.0  0.95422  0.02761  0.89248  1.0000
  N   N34       1.0  0.56603  0.25708  0.80854  1.0000
  H   H620      1.0  0.52105  0.17099  0.80237  1.0000
  H   H621      1.0  0.53387  0.13613  0.97281  1.0000
  H   H622      1.0  0.59289  0.25713  0.84579  1.0000
  H   H623      1.0  0.65098  0.29028  0.86151  1.0000
  H   H624      1.0  0.52261  0.26317  0.81896  1.0000
  C   C526      1.0  0.54041  0.21124  0.80411  1.0000
  H   H625      1.0  0.60728  0.17144  0.81629  1.0000
  S   S140      1.0  0.95959  0.06464  0.91941  1.0000
  H   H626      1.0  0.84740  0.04331  0.75945  1.0000
  S   S141      1.0  0.52451  0.25924  0.01441  1.0000
  S   S142      1.0  0.54872  0.25923  0.92825  1.0000
  H   H627      1.0  0.97702  0.12380  0.87622  1.0000
  Fe  Fe74      1.0  0.56252  0.30263  0.91142  1.0000
  H   H628      1.0  0.86700  0.06301  0.80205  1.0000
  H   H629      1.0  0.57245  0.28677  0.84121  1.0000
  Fe  Fe75      1.0  0.97475  0.03464  0.95547  1.0000
  S   S143      1.0  0.97951  0.27691  0.94727  1.0000
  C   C527      1.0  0.81838  0.01098  0.73106  1.0000
  S   S144      1.0  0.91614  0.01230  0.87194  1.0000
  C   C528      1.0  0.52984  0.19696  0.88195  1.0000
  C   C529      1.0  0.82528  0.00838  0.78655  1.0000
  C   C530      1.0  0.58794  0.26962  0.78593  1.0000
  S   S145      1.0  0.52405  0.06376  0.93874  1.0000
  C   C531      1.0  0.57233  0.26414  0.83945  1.0000
  S   S146      1.0  0.90238  0.01577  0.73033  1.0000
  C   C532      1.0  0.99554  0.18940  0.89106  1.0000
  S   S147      1.0  0.52770  0.30985  0.88139  1.0000
  S   S148      1.0  0.98275  0.22292  0.88744  1.0000
  H   H630      1.0  0.54422  0.21319  0.88636  1.0000
  C   C533      1.0  0.52058  0.14858  0.87449  1.0000
  H   H631      1.0  0.56371  0.14584  0.80972  1.0000
  C   C534      1.0  0.90916  0.01303  0.76916  1.0000
  C   C535      1.0  0.53888  0.16988  0.88061  1.0000
  H   H632      1.0  0.53612  0.00739  0.80791  1.0000
  H   H633      1.0  0.56025  0.16551  0.88376  1.0000
  H   H634      1.0  0.55657  0.25470  0.85708  1.0000
  H   H635      1.0  0.52943  0.19746  0.97592  1.0000
  H   H636      1.0  0.95061  0.11256  0.96495  1.0000
  C   C536      1.0  0.92395  0.03442  0.78095  1.0000
  C   C537      1.0  0.92767  0.03368  0.81238  1.0000
  C   C538      1.0  0.97582  0.11751  0.01798  1.0000
  C   C539      1.0  0.58921  0.21147  0.81217  1.0000
  H   H637      1.0  0.94812  0.14646  0.97718  1.0000
  H   H638      1.0  0.93204  0.05190  0.76584  1.0000
  H   H639      1.0  0.93843  0.05060  0.82149  1.0000
  C   C540      1.0  0.53967  0.27007  0.80146  1.0000
  N   N35       1.0  0.98653  0.12676  0.98629  1.0000
  H   H640      1.0  0.53353  0.26533  0.77854  1.0000
  C   C541      1.0  0.84899  0.03222  0.83585  1.0000
  H   H641      1.0  0.58545  0.26269  0.76277  1.0000
  C   C542      1.0  0.51824  0.14297  0.99016  1.0000
  C   C543      1.0  0.98954  0.14061  0.88313  1.0000
  H   H642      1.0  0.60854  0.22174  0.81593  1.0000
  Fe  Fe76      1.0  0.52509  0.27876  0.96603  1.0000
  C   C544      1.0  0.64912  0.30777  0.81526  1.0000
  Fe  Fe77      1.0  0.51691  0.02181  0.92246  1.0000
  H   H643      1.0  0.95870  0.17097  0.87575  1.0000
  H   H644      1.0  0.50517  0.20112  0.94657  1.0000
  H   H645      1.0  0.50691  0.12380  0.00000  1.0000
  S   S149      1.0  0.95957  0.03616  0.00505  1.0000
  C   C545      1.0  0.61705  0.31749  0.85749  1.0000
  C   C546      1.0  0.58874  0.18269  0.81243  1.0000
  H   H646      1.0  0.52076  0.22073  0.80195  1.0000
  H   H647      1.0  0.60909  0.26457  0.79219  1.0000
  C   C547      1.0  0.56508  0.22667  0.80788  1.0000
  H   H648      1.0  0.52947  0.15163  0.00854  1.0000
  H   H649      1.0  0.53286  0.17807  0.94322  1.0000
  C   C548      1.0  0.54023  0.18247  0.80427  1.0000
  H   H650      1.0  0.98833  0.08474  0.97401  1.0000
  H   H651      1.0  0.58770  0.29258  0.78396  1.0000
  C   C549      1.0  0.83275  0.00805  0.84125  1.0000
  H   H652      1.0  0.99455  0.00384  0.77075  1.0000
  Fe  Fe78      1.0  0.51198  0.26791  0.90165  1.0000
  S   S150      1.0  0.50520  0.03762  0.87622  1.0000
  C   C550      1.0  0.84203  0.03306  0.78185  1.0000
  H   H653      1.0  0.85885  0.04080  0.85450  1.0000
  C   C551      1.0  0.97923  0.16731  0.88285  1.0000
  H   H654      1.0  0.80937  0.03173  0.73156  1.0000
  C   C552      1.0  0.96282  0.13190  0.96737  1.0000
  H   H655      1.0  0.97006  0.14082  0.94399  1.0000
  H   H656      1.0  0.52054  0.05773  0.00621  1.0000
  S   S151      1.0  0.96541  0.99761  0.93061  1.0000
  H   H657      1.0  0.97009  0.17719  0.00349  1.0000
  S   S152      1.0  0.54247  0.32151  0.95191  1.0000
  Fe  Fe79      1.0  0.99104  0.31767  0.92117  1.0000
  C   C553      1.0  0.56429  0.16822  0.80848  1.0000
  H   H658      1.0  0.77302  0.00972  0.77149  1.0000
  C   C554      1.0  0.85355  0.04472  0.80626  1.0000
  C   C555      1.0  0.64012  0.30396  0.84624  1.0000
  S   S153      1.0  0.99680  0.03141  0.86874  1.0000
  H   H659      1.0  0.66674  0.29682  0.80668  1.0000
  C   C556      1.0  0.50263  0.20298  0.87628  1.0000
  H   H660      1.0  0.58477  0.00670  0.78987  1.0000
  Fe  Fe80      1.0  0.50807  0.07954  0.89431  1.0000
  C   C557      1.0  0.51748  0.18609  0.95994  1.0000
  H   H661      1.0  0.81169  0.00784  0.61047  1.0000
  H   H662      1.0  0.99773  0.21998  0.00289  1.0000
  S   S154      1.0  0.64730  0.32898  0.75658  1.0000
  C   C558      1.0  0.99173  0.17683  0.99605  1.0000
  C   C559      1.0  0.63590  0.32609  0.79548  1.0000
  H   H663      1.0  0.76086  0.00668  0.62103  1.0000
  H   H664      1.0  0.96252  0.09836  0.01869  1.0000
  N   N36       1.0  0.49969  0.16348  0.97640  1.0000
  H   H665      1.0  0.99781  0.15866  0.81079  1.0000
  H   H666      1.0  0.49813  0.14237  0.93529  1.0000
  H   H667      1.0  0.82983  0.99811  0.86426  1.0000
  H   H668      1.0  0.76464  0.41255  0.30981  1.0000
  Fe  Fe81      1.0  0.60598  0.49092  0.40070  1.0000
  S   S155      1.0  0.60590  0.44960  0.38143  1.0000
  S   S156      1.0  0.59318  0.52993  0.37516  1.0000
  Fe  Fe82      1.0  0.61397  0.46636  0.46534  1.0000
  S   S157      1.0  0.61319  0.42316  0.45131  1.0000
  C   C560      1.0  0.53997  0.58676  0.34974  1.0000
  Fe  Fe83      1.0  0.64101  0.44081  0.41112  1.0000
  S   S158      1.0  0.67739  0.41451  0.40033  1.0000
  Fe  Fe84      1.0  0.57830  0.43616  0.42325  1.0000
  S   S159      1.0  0.54037  0.40916  0.41908  1.0000
  S   S160      1.0  0.64376  0.48357  0.42668  1.0000
  S   S161      1.0  0.57658  0.47786  0.44111  1.0000
  Fe  Fe85      1.0  0.86432  0.39953  0.45570  1.0000
  S   S162      1.0  0.86872  0.44366  0.43679  1.0000
  S   S163      1.0  0.86296  0.42107  0.36892  1.0000
  Fe  Fe86      1.0  0.89678  0.42751  0.40023  1.0000
  S   S164      1.0  0.93641  0.45118  0.38414  1.0000
  Fe  Fe87      1.0  0.83437  0.43282  0.40784  1.0000
  S   S165      1.0  0.79997  0.46230  0.39998  1.0000
  H   H669      1.0  0.55434  0.44961  0.25834  1.0000
  H   H670      1.0  0.51375  0.47038  0.25989  1.0000
  H   H671      1.0  0.53892  0.41275  0.12801  1.0000
  H   H672      1.0  0.93406  0.48672  0.26686  1.0000
  C   C561      1.0  0.96646  0.44003  0.40082  1.0000
  H   H673      1.0  0.84507  0.44151  0.50125  1.0000
  H   H674      1.0  0.93224  0.42382  0.10644  1.0000
  H   H675      1.0  0.72241  0.49181  0.48387  1.0000
  S   S166      1.0  0.82788  0.38975  0.42973  1.0000
  H   H676      1.0  0.94791  0.40274  0.42398  1.0000
  H   H677      1.0  0.52672  0.46690  0.41902  1.0000
  C   C562      1.0  0.71084  0.42867  0.40219  1.0000
  C   C563      1.0  0.71719  0.45656  0.39361  1.0000
  C   C564      1.0  0.74459  0.46677  0.39329  1.0000
  C   C565      1.0  0.76566  0.44920  0.40171  1.0000
  C   C566      1.0  0.75905  0.42157  0.41125  1.0000
  C   C567      1.0  0.73177  0.41128  0.41125  1.0000
  H   H678      1.0  0.70115  0.47009  0.38644  1.0000
  H   H679      1.0  0.74954  0.48825  0.38604  1.0000
  H   H680      1.0  0.77491  0.40809  0.41858  1.0000
  H   H681      1.0  0.72687  0.38976  0.41826  1.0000
  H   H682      1.0  0.97990  0.48179  0.25906  1.0000
  H   H683      1.0  0.56816  0.62136  0.25355  1.0000
  C   C568      1.0  0.95806  0.43561  0.21017  1.0000
  H   H684      1.0  0.52854  0.49422  0.06722  1.0000
  C   C569      1.0  0.96135  0.42695  0.02067  1.0000
  C   C570      1.0  0.96243  0.36574  0.35733  1.0000
  H   H685      1.0  0.93597  0.43636  0.20862  1.0000
  C   C571      1.0  0.52818  0.58119  0.04884  1.0000
  H   H686      1.0  0.53888  0.44258  0.20155  1.0000
  H   H687      1.0  0.98387  0.52213  0.34330  1.0000
  C   C572      1.0  0.59131  0.52928  0.33559  1.0000
  C   C573      1.0  0.61393  0.53508  0.28446  1.0000
  C   C574      1.0  0.61540  0.53027  0.31617  1.0000
  H   H688      1.0  0.63274  0.53691  0.26960  1.0000
  H   H689      1.0  0.63528  0.52873  0.32568  1.0000
  H   H690      1.0  0.51903  0.48895  0.20004  1.0000
  H   H691      1.0  0.55447  0.58810  0.26828  1.0000
  S   S167      1.0  0.89494  0.38384  0.42115  1.0000
  C   C575      1.0  0.97006  0.41052  0.21857  1.0000
  S   S168      1.0  0.53484  0.54177  0.17237  1.0000
  C   C576      1.0  0.53317  0.41936  0.03454  1.0000
  S   S169      1.0  0.54389  0.60521  0.19184  1.0000
  S   S170      1.0  0.50675  0.55937  0.23843  1.0000
  Fe  Fe88      1.0  0.52623  0.58450  0.15347  1.0000
  S   S171      1.0  0.53957  0.59799  0.10441  1.0000
  Fe  Fe89      1.0  0.54847  0.56203  0.21300  1.0000
  S   S172      1.0  0.58785  0.54845  0.23275  1.0000
  N   N37       1.0  0.70635  0.45076  0.49910  1.0000
  S   S173      1.0  0.95938  0.49074  0.19273  1.0000
  H   H692      1.0  0.56304  0.45280  0.03610  1.0000
  H   H693      1.0  0.93081  0.55537  0.29362  1.0000
  H   H694      1.0  0.92413  0.40893  0.50999  1.0000
  H   H695      1.0  0.90897  0.51126  0.32169  1.0000
  C   C577      1.0  0.78394  0.40976  0.50360  1.0000
  C   C578      1.0  0.56570  0.53172  0.32310  1.0000
  C   C579      1.0  0.56418  0.53623  0.29140  1.0000
  C   C580      1.0  0.58841  0.53886  0.27207  1.0000
  H   H696      1.0  0.54706  0.53079  0.33807  1.0000
  H   H697      1.0  0.54434  0.53836  0.28211  1.0000
  H   H698      1.0  0.68102  0.41301  0.50580  1.0000
  H   H699      1.0  0.73673  0.36507  0.31322  1.0000
  H   H700      1.0  0.92486  0.47141  0.48492  1.0000
  C   C581      1.0  0.54730  0.43450  0.27793  1.0000
  C   C582      1.0  0.88695  0.34205  0.31980  1.0000
  H   H701      1.0  0.95348  0.52417  0.06397  1.0000
  H   H702      1.0  0.54444  0.40635  0.04997  1.0000
  S   S174      1.0  0.98049  0.56694  0.16270  1.0000
  S   S175      1.0  0.84880  0.33990  0.37076  1.0000
  H   H703      1.0  0.82445  0.39845  0.31909  1.0000
  C   C583      1.0  0.53865  0.42556  0.33221  1.0000
  H   H704      1.0  0.97189  0.39421  0.12189  1.0000
  H   H705      1.0  0.56301  0.41827  0.27840  1.0000
  C   C584      1.0  0.50464  0.42473  0.49655  1.0000
  C   C585      1.0  0.98879  0.54761  0.07607  1.0000
  H   H706      1.0  0.73021  0.36848  0.35333  1.0000
  H   H707      1.0  0.95366  0.34857  0.30503  1.0000
  H   H708      1.0  0.95191  0.46778  0.08051  1.0000
  C   C586      1.0  0.99187  0.65185  0.21794  1.0000
  H   H709      1.0  0.53236  0.65810  0.22658  1.0000
  C   C587      1.0  0.80853  0.33678  0.27224  1.0000
  H   H710      1.0  0.58843  0.44700  0.31149  1.0000
  C   C588      1.0  0.96382  0.64755  0.30276  1.0000
  H   H711      1.0  0.93707  0.50846  0.34575  1.0000
  C   C589      1.0  0.73314  0.43703  0.50028  1.0000
  H   H712      1.0  0.68690  0.48587  0.47737  1.0000
  S   S176      1.0  0.95713  0.33403  0.11069  1.0000
  H   H713      1.0  0.78873  0.34453  0.36827  1.0000
  H   H714      1.0  0.91444  0.34242  0.27851  1.0000
  H   H715      1.0  0.99242  0.44009  0.48194  1.0000
  H   H716      1.0  0.51739  0.41649  0.33197  1.0000
  H   H717      1.0  0.71277  0.47112  0.45365  1.0000
  C   C590      1.0  0.97063  0.65897  0.02725  1.0000
  H   H718      1.0  0.50521  0.34189  0.05183  1.0000
  H   H719      1.0  0.97401  0.34737  0.36513  1.0000
  H   H720      1.0  0.53185  0.61579  0.26069  1.0000
  C   C591      1.0  0.95155  0.44933  0.06821  1.0000
  C   C592      1.0  0.53211  0.43367  0.49779  1.0000
  C   C593      1.0  0.50479  0.60228  0.31668  1.0000
  C   C594      1.0  0.93986  0.40098  0.06700  1.0000
  S   S177      1.0  0.86694  0.38651  0.50557  1.0000
  H   H721      1.0  0.93118  0.38170  0.07843  1.0000
  N   N38       1.0  0.55402  0.61812  0.30149  1.0000
  H   H722      1.0  0.98337  0.40997  0.15456  1.0000
  H   H723      1.0  0.95231  0.62811  0.30767  1.0000
  C   C595      1.0  0.76903  0.40514  0.33350  1.0000
  H   H724      1.0  0.66509  0.44144  0.48687  1.0000
  C   C596      1.0  0.55194  0.61055  0.26974  1.0000
  H   H725      1.0  0.95942  0.41937  0.33514  1.0000
  H   H726      1.0  0.56437  0.66087  0.28709  1.0000
  C   C597      1.0  0.51493  0.48041  0.33570  1.0000
  C   C598      1.0  0.94053  0.41950  0.49389  1.0000
  H   H727      1.0  0.57673  0.47828  0.29270  1.0000
  C   C599      1.0  0.54888  0.64796  0.30228  1.0000
  C   C600      1.0  0.75724  0.44676  0.48185  1.0000
  H   H728      1.0  0.76895  0.37056  0.38551  1.0000
  C   C601      1.0  0.98002  0.53814  0.02406  1.0000
  H   H729      1.0  0.95666  0.55250  0.32026  1.0000
  C   C602      1.0  0.96652  0.41524  0.41922  1.0000
  H   H730      1.0  0.57101  0.47166  0.33323  1.0000
  H   H731      1.0  0.55338  0.40851  0.33066  1.0000
  H   H732      1.0  0.96440  0.41260  0.29571  1.0000
  C   C603      1.0  0.51932  0.42130  0.12257  1.0000
  H   H733      1.0  0.51438  0.52638  0.07613  1.0000
  H   H734      1.0  0.94781  0.38336  0.02492  1.0000
  S   S178      1.0  0.61922  0.47872  0.51293  1.0000
  C   C604      1.0  0.96174  0.45063  0.03759  1.0000
  C   C605      1.0  0.51798  0.44907  0.11181  1.0000
  H   H735      1.0  0.54970  0.65448  0.32587  1.0000
  H   H736      1.0  0.52528  0.47529  0.35622  1.0000
  H   H737      1.0  0.52560  0.56007  0.38948  1.0000
  C   C606      1.0  0.93154  0.46507  0.50809  1.0000
  H   H738      1.0  0.95601  0.40387  0.48868  1.0000
  C   C607      1.0  0.58290  0.61352  0.30924  1.0000
  C   C608      1.0  0.50833  0.45493  0.41603  1.0000
  H   H739      1.0  0.92883  0.48061  0.32367  1.0000
  H   H740      1.0  0.69178  0.42388  0.46672  1.0000
  C   C609      1.0  0.78217  0.43323  0.48361  1.0000
  H   H741      1.0  0.58786  0.59125  0.30927  1.0000
  H   H742      1.0  0.53726  0.46087  0.10899  1.0000
  N   N39       1.0  0.95280  0.44374  0.50703  1.0000
  H   H743      1.0  0.56093  0.58515  0.35627  1.0000
  N   N40       1.0  0.77301  0.37483  0.33621  1.0000
  H   H744      1.0  0.80331  0.39922  0.50455  1.0000
  C   C610      1.0  0.51414  0.36330  0.04800  1.0000
  H   H745      1.0  0.91645  0.51836  0.26662  1.0000
  C   C611      1.0  0.94985  0.40208  0.03632  1.0000
  C   C612      1.0  0.78862  0.34411  0.29444  1.0000
  H   H746      1.0  0.52752  0.42438  0.27284  1.0000
  H   H747      1.0  0.94080  0.35829  0.35521  1.0000
  C   C613      1.0  0.97460  0.45965  0.20370  1.0000
  H   H748      1.0  0.55588  0.65255  0.07678  1.0000
  C   C614      1.0  0.97434  0.35894  0.30483  1.0000
  H   H749      1.0  0.51796  0.63791  0.02960  1.0000
  Fe  Fe90      1.0  0.98978  0.34135  0.21458  1.0000
  C   C615      1.0  0.50560  0.47096  0.19977  1.0000
  H   H750      1.0  0.50629  0.34193  0.32317  1.0000
  H   H751      1.0  0.58684  0.62069  0.33195  1.0000
  C   C616      1.0  0.70734  0.47599  0.47755  1.0000
  H   H752      1.0  0.51510  0.37085  0.07110  1.0000
  C   C617      1.0  0.93709  0.50931  0.26854  1.0000
  N   N41       1.0  0.94932  0.51544  0.29735  1.0000
  H   H753      1.0  0.80338  0.37849  0.36918  1.0000
  C   C618      1.0  0.52255  0.46837  0.30815  1.0000
  C   C619      1.0  0.50935  0.42637  0.41479  1.0000
  H   H754      1.0  0.95027  0.51808  0.24813  1.0000
  H   H755      1.0  0.55986  0.46343  0.51409  1.0000
  H   H756      1.0  0.98736  0.37435  0.15139  1.0000
  S   S179      1.0  0.97683  0.61843  0.22396  1.0000
  H   H757      1.0  0.80014  0.44084  0.46892  1.0000
  H   H758      1.0  0.54848  0.42333  0.48560  1.0000
  H   H759      1.0  0.89494  0.36131  0.32675  1.0000
  N   N42       1.0  0.54446  0.44782  0.30719  1.0000
  C   C620      1.0  0.57129  0.46172  0.31134  1.0000
  C   C621      1.0  0.83331  0.35199  0.26653  1.0000
  C   C622      1.0  0.81887  0.38179  0.30570  1.0000
  S   S180      1.0  0.51384  0.38827  0.20468  1.0000
  H   H760      1.0  0.50592  0.36703  0.27197  1.0000
  Fe  Fe91      1.0  0.85905  0.37856  0.39285  1.0000
  C   C623      1.0  0.51743  0.58638  0.07812  1.0000
  H   H761      1.0  0.85815  0.38567  0.27937  1.0000
  H   H762      1.0  0.54075  0.43294  0.35520  1.0000
  H   H763      1.0  0.96134  0.38026  0.37552  1.0000
  C   C624      1.0  0.50887  0.47771  0.28197  1.0000
  C   C625      1.0  0.97235  0.53547  0.05549  1.0000
  C   C626      1.0  0.99211  0.50957  0.32591  1.0000
  H   H764      1.0  0.75151  0.41113  0.34900  1.0000
  C   C627      1.0  0.79311  0.36714  0.31168  1.0000
  H   H765      1.0  0.96650  0.55541  0.28002  1.0000
  H   H766      1.0  0.98650  0.47329  0.49557  1.0000
  H   H767      1.0  0.95711  0.39223  0.22417  1.0000
  C   C628      1.0  0.51969  0.57206  0.36922  1.0000
  C   C629      1.0  0.95799  0.40296  0.31901  1.0000
  Fe  Fe92      1.0  0.99028  0.52629  0.18635  1.0000
  C   C630      1.0  0.51681  0.44465  0.20101  1.0000
  H   H768      1.0  0.55013  0.58396  0.04280  1.0000
  C   C631      1.0  0.98954  0.48685  0.27924  1.0000
  H   H769      1.0  0.96192  0.64124  0.04142  1.0000
  C   C632      1.0  0.95091  0.54593  0.29793  1.0000
  H   H770      1.0  0.93088  0.42543  0.47221  1.0000
  C   C633      1.0  0.93022  0.50355  0.32317  1.0000
  C   C634      1.0  0.74536  0.36101  0.33583  1.0000
  H   H771      1.0  0.95445  0.33136  0.04589  1.0000
  H   H772      1.0  0.98950  0.34253  0.30885  1.0000
  C   C635      1.0  0.50891  0.40981  0.02179  1.0000
  C   C636      1.0  0.78389  0.36685  0.36610  1.0000
  C   C637      1.0  0.51067  0.57197  0.02750  1.0000
  C   C638      1.0  0.97634  0.45539  0.48614  1.0000
  C   C639      1.0  0.98849  0.39469  0.13787  1.0000
  H   H773      1.0  0.59817  0.62491  0.29237  1.0000
  Fe  Fe93      1.0  0.50077  0.60080  0.21386  1.0000
  C   C640      1.0  0.97701  0.50403  0.30052  1.0000
  C   C641      1.0  0.94049  0.42462  0.08283  1.0000
  C   C642      1.0  0.99222  0.64753  0.29586  1.0000
  H   H774      1.0  0.96962  0.46250  0.46321  1.0000
  H   H775      1.0  0.75743  0.46456  0.46547  1.0000
  H   H776      1.0  0.78722  0.41720  0.33988  1.0000
  C   C643      1.0  0.68523  0.43140  0.48928  1.0000
  C   C644      1.0  0.83844  0.37450  0.28317  1.0000
  H   H777      1.0  0.93583  0.39653  0.31886  1.0000
  H   H778      1.0  0.52825  0.65323  0.29443  1.0000
  H   H779      1.0  0.97916  0.36851  0.28122  1.0000
  H   H780      1.0  0.96935  0.47060  0.02754  1.0000
  H   H781      1.0  0.61667  0.41879  0.51488  1.0000
  H   H782      1.0  0.52363  0.66006  0.11938  1.0000
  H   H783      1.0  0.50127  0.40754  0.48303  1.0000
  H   H784      1.0  0.53542  0.36147  0.03735  1.0000
  C   C645      1.0  0.99098  0.40621  0.43117  1.0000
  H   H785      1.0  0.52999  0.50635  0.10506  1.0000
  C   C646      1.0  0.53316  0.60208  0.32254  1.0000
  C   C647      1.0  0.51698  0.50472  0.08541  1.0000
  C   C648      1.0  0.53854  0.45628  0.51375  1.0000
  H   H786      1.0  0.77017  0.33107  0.29805  1.0000
  C   C649      1.0  0.99087  0.45613  0.39521  1.0000
  N   N43       1.0  0.97519  0.37937  0.32806  1.0000
  H   H787      1.0  0.98259  0.54555  0.10024  1.0000
  C   C650      1.0  0.49953  0.42106  0.20174  1.0000
  S   S181      1.0  0.94766  0.34428  0.19721  1.0000
  H   H788      1.0  0.84895  0.34573  0.24986  1.0000
  H   H789      1.0  0.99098  0.38679  0.44503  1.0000
  H   H790      1.0  0.99072  0.47564  0.38178  1.0000
  C   C651      1.0  0.89809  0.33131  0.29276  1.0000
  H   H791      1.0  0.74607  0.33833  0.34148  1.0000
  C   C652      1.0  0.54404  0.44620  0.02696  1.0000
  H   H792      1.0  0.99297  0.66301  0.12252  1.0000
  H   H793      1.0  0.93933  0.48406  0.51762  1.0000
  H   H794      1.0  0.99260  0.40641  0.51991  1.0000
  S   S182      1.0  0.88345  0.42787  0.66186  1.0000
  S   S183      1.0  0.82800  0.41800  0.72866  1.0000
  Fe  Fe94      1.0  0.92314  0.44135  0.67990  1.0000
  S   S184      1.0  0.95931  0.41387  0.67842  1.0000
  C   C653      1.0  0.80049  0.39450  0.64755  1.0000
  Fe  Fe95      1.0  0.67205  0.42619  0.71180  1.0000
  S   S185      1.0  0.67612  0.38493  0.69293  1.0000
  S   S186      1.0  0.70637  0.45798  0.71397  1.0000
  Fe  Fe96      1.0  0.60948  0.42022  0.72088  1.0000
  S   S187      1.0  0.60820  0.37867  0.70234  1.0000
  S   S188      1.0  0.57256  0.44364  0.73694  1.0000
  Fe  Fe97      1.0  0.64400  0.37026  0.73053  1.0000
  C   C654      1.0  0.95118  0.44469  0.56503  1.0000
  Fe  Fe98      1.0  0.64000  0.39701  0.66643  1.0000
  S   S189      1.0  0.63767  0.38603  0.61790  1.0000
  S   S190      1.0  0.64314  0.41052  0.75194  1.0000
  S   S191      1.0  0.63814  0.43947  0.68238  1.0000
  H   H795      1.0  0.59909  0.47528  0.86259  1.0000
  C   C655      1.0  0.98730  0.61307  0.75784  1.0000
  S   S192      1.0  0.96122  0.35180  0.91463  1.0000
  H   H796      1.0  0.97986  0.47233  0.97854  1.0000
  C   C656      1.0  0.63241  0.41209  0.58916  1.0000
  C   C657      1.0  0.62621  0.40458  0.56032  1.0000
  H   H797      1.0  0.94046  0.50658  0.82259  1.0000
  C   C658      1.0  0.62986  0.46030  0.57094  1.0000
  C   C659      1.0  0.63413  0.44000  0.59449  1.0000
  H   H798      1.0  0.62478  0.38298  0.55613  1.0000
  H   H799      1.0  0.63889  0.44605  0.61661  1.0000
  H   H800      1.0  0.51919  0.56756  0.00521  1.0000
  C   C660      1.0  0.59780  0.40805  0.86742  1.0000
  C   C661      1.0  0.73567  0.41307  0.52046  1.0000
  H   H801      1.0  0.97655  0.60283  0.01816  1.0000
  H   H802      1.0  0.69161  0.44095  0.54657  1.0000
  N   N44       1.0  0.59127  0.44748  0.82829  1.0000
  H   H803      1.0  0.53811  0.37977  0.92536  1.0000
  H   H804      1.0  0.96735  0.38528  0.97802  1.0000
  H   H805      1.0  0.95761  0.57231  0.81834  1.0000
  C   C662      1.0  0.96308  0.40671  0.89545  1.0000
  C   C663      1.0  0.95996  0.43476  0.59334  1.0000
  H   H806      1.0  0.51758  0.47612  0.85733  1.0000
  H   H807      1.0  0.94910  0.43471  0.94582  1.0000
  H   H808      1.0  0.97996  0.63353  0.76402  1.0000
  H   H809      1.0  0.94075  0.40516  0.89744  1.0000
  H   H810      1.0  0.71348  0.46518  0.64500  1.0000
  H   H811      1.0  0.98633  0.51656  0.72737  1.0000
  H   H812      1.0  0.57679  0.40945  0.87672  1.0000
  C   C664      1.0  0.86830  0.45553  0.56982  1.0000
  C   C665      1.0  0.88053  0.43045  0.57731  1.0000
  C   C666      1.0  0.87961  0.40923  0.55763  1.0000
  C   C667      1.0  0.96315  0.60850  0.99931  1.0000
  S   S193      1.0  0.54003  0.48078  0.92117  1.0000
  C   C668      1.0  0.85553  0.45944  0.54233  1.0000
  H   H813      1.0  0.89103  0.42744  0.59801  1.0000
  H   H814      1.0  0.88911  0.38985  0.56356  1.0000
  C   C669      1.0  0.63645  0.42222  0.83121  1.0000
  C   C670      1.0  0.97834  0.42182  0.76218  1.0000
  C   C671      1.0  0.94428  0.43268  0.97094  1.0000
  H   H815      1.0  0.57372  0.41862  0.80001  1.0000
  C   C672      1.0  0.53788  0.40028  0.72684  1.0000
  C   C673      1.0  0.54038  0.42824  0.73173  1.0000
  H   H816      1.0  0.57054  0.43164  0.58131  1.0000
  Fe  Fe99      1.0  0.51147  0.51663  0.92072  1.0000
  H   H817      1.0  0.94968  0.45418  0.76737  1.0000
  H   H818      1.0  0.55549  0.38739  0.72824  1.0000
  C   C674      1.0  0.79423  0.42931  0.72474  1.0000
  C   C675      1.0  0.78935  0.45703  0.71666  1.0000
  C   C676      1.0  0.76229  0.46556  0.71350  1.0000
  C   C677      1.0  0.73997  0.44640  0.71804  1.0000
  C   C678      1.0  0.74481  0.41865  0.72607  1.0000
  C   C679      1.0  0.77188  0.41020  0.72982  1.0000
  H   H819      1.0  0.75859  0.48708  0.70746  1.0000
  H   H820      1.0  0.72768  0.40377  0.72980  1.0000
  H   H821      1.0  0.77549  0.38874  0.73629  1.0000
  Fe  Fe100     1.0  0.90114  0.49481  0.69909  1.0000
  S   S194      1.0  0.90311  0.45306  0.72415  1.0000
  S   S195      1.0  0.91201  0.53409  0.71991  1.0000
  Fe  Fe101     1.0  0.88268  0.47146  0.64138  1.0000
  S   S196      1.0  0.86893  0.48232  0.59420  1.0000
  Fe  Fe102     1.0  0.86306  0.44396  0.70370  1.0000
  S   S197      1.0  0.85935  0.48687  0.68213  1.0000
  S   S198      1.0  0.92420  0.48381  0.65595  1.0000
  Fe  Fe103     1.0  0.94683  0.53488  0.88597  1.0000
  S   S199      1.0  0.50063  0.53932  0.87711  1.0000
  S   S200      1.0  0.90715  0.53916  0.86301  1.0000
  Fe  Fe104     1.0  0.97025  0.52908  0.94834  1.0000
  H   H822      1.0  0.62399  0.47643  0.80990  1.0000
  H   H823      1.0  0.94082  0.50319  0.76630  1.0000
  N   N45       1.0  0.96950  0.42858  0.98748  1.0000
  H   H824      1.0  0.99262  0.40531  0.95493  1.0000
  H   H825      1.0  0.60467  0.37349  0.89963  1.0000
  S   S201      1.0  0.95819  0.56576  0.91871  1.0000
  S   S202      1.0  0.95487  0.49812  0.91777  1.0000
  C   C680      1.0  0.72290  0.44714  0.63630  1.0000
  H   H826      1.0  0.63148  0.48191  0.57505  1.0000
  H   H827      1.0  0.52585  0.46425  0.64049  1.0000
  C   C681      1.0  0.95585  0.63856  0.95500  1.0000
  S   S203      1.0  0.95831  0.52345  0.99893  1.0000
  C   C682      1.0  0.52344  0.44812  0.92134  1.0000
  H   H828      1.0  0.64664  0.43487  0.81217  1.0000
  H   H829      1.0  0.97539  0.47133  0.68340  1.0000
  H   H830      1.0  0.80631  0.47200  0.71319  1.0000
  C   C683      1.0  0.90951  0.53304  0.75995  1.0000
  C   C684      1.0  0.89170  0.55087  0.77430  1.0000
  C   C685      1.0  0.89090  0.55219  0.80599  1.0000
  C   C686      1.0  0.90864  0.53646  0.82343  1.0000
  C   C687      1.0  0.92676  0.51879  0.80914  1.0000
  C   C688      1.0  0.92677  0.51666  0.77744  1.0000
  H   H831      1.0  0.87856  0.56381  0.76083  1.0000
  H   H832      1.0  0.87693  0.56594  0.81694  1.0000
  H   H833      1.0  0.59205  0.48072  0.79241  1.0000
  H   H834      1.0  0.68401  0.42756  0.62900  1.0000
  H   H835      1.0  0.98640  0.40711  0.61711  1.0000
  H   H836      1.0  0.55420  0.44901  0.80392  1.0000
  H   H837      1.0  0.95063  0.44192  0.61429  1.0000
  H   H838      1.0  0.79177  0.39853  0.67079  1.0000
  H   H839      1.0  0.93384  0.45179  0.97712  1.0000
  C   C689      1.0  0.56890  0.41069  0.63880  1.0000
  S   S204      1.0  0.53179  0.61549  0.88384  1.0000
  H   H840      1.0  0.56073  0.42602  0.92718  1.0000
  C   C690      1.0  0.65188  0.40111  0.84430  1.0000
  C   C691      1.0  0.51894  0.64859  0.88767  1.0000
  C   C692      1.0  0.61358  0.38741  0.88073  1.0000
  C   C693      1.0  0.70622  0.42592  0.62747  1.0000
  C   C694      1.0  0.97829  0.38306  0.90106  1.0000
  H   H841      1.0  0.51562  0.36919  0.98551  1.0000
  H   H842      1.0  0.57764  0.45964  0.60329  1.0000
  H   H843      1.0  0.56001  0.39819  0.65973  1.0000
  H   H844      1.0  0.54528  0.45752  0.58624  1.0000
  C   C695      1.0  0.56087  0.44512  0.59797  1.0000
  C   C696      1.0  0.60319  0.33538  0.83761  1.0000
  H   H845      1.0  0.93510  0.45958  0.56562  1.0000
  N   N46       1.0  0.79457  0.41729  0.62472  1.0000
  C   C697      1.0  0.81029  0.44232  0.63187  1.0000
  H   H846      1.0  0.55976  0.46165  0.65403  1.0000
  C   C698      1.0  0.80534  0.41036  0.59395  1.0000
  C   C699      1.0  0.76437  0.42083  0.62537  1.0000
  C   C700      1.0  0.75155  0.44477  0.63538  1.0000
  C   C701      1.0  0.74665  0.39942  0.61693  1.0000
  H   H847      1.0  0.67268  0.39787  0.83493  1.0000
  H   H848      1.0  0.58735  0.42241  0.64517  1.0000
  C   C702      1.0  0.98252  0.40280  0.97850  1.0000
  H   H849      1.0  0.80511  0.44756  0.65569  1.0000
  H   H850      1.0  0.83293  0.43933  0.63004  1.0000
  H   H851      1.0  0.80669  0.46048  0.61573  1.0000
  H   H852      1.0  0.71376  0.47141  0.53932  1.0000
  H   H853      1.0  0.65224  0.36705  0.87875  1.0000
  H   H854      1.0  0.51885  0.46615  0.73499  1.0000
  H   H855      1.0  0.79658  0.39056  0.58746  1.0000
  H   H856      1.0  0.80105  0.42689  0.57605  1.0000
  H   H857      1.0  0.82805  0.40791  0.59282  1.0000
  H   H858      1.0  0.76304  0.46171  0.64342  1.0000
  H   H859      1.0  0.75473  0.38015  0.61032  1.0000
  H   H860      1.0  0.70471  0.38530  0.61200  1.0000
  H   H861      1.0  0.57669  0.39599  0.62238  1.0000
  C   C703      1.0  0.71803  0.40208  0.61785  1.0000
  N   N47       1.0  0.54819  0.42926  0.62596  1.0000
  C   C704      1.0  0.52601  0.39806  0.92359  1.0000
  H   H862      1.0  0.53293  0.43875  0.67080  1.0000
  C   C705      1.0  0.54124  0.44940  0.64870  1.0000
  C   C706      1.0  0.53883  0.42424  0.92434  1.0000
  H   H863      1.0  0.95244  0.62031  0.94190  1.0000
  C   C707      1.0  0.51707  0.44450  0.73109  1.0000
  C   C708      1.0  0.58148  0.46601  0.85165  1.0000
  S   S205      1.0  0.52045  0.55512  0.94358  1.0000
  C   C709      1.0  0.98598  0.55195  0.75382  1.0000
  H   H864      1.0  0.52252  0.48810  0.54040  1.0000
  H   H865      1.0  0.55323  0.42272  0.83485  1.0000
  C   C710      1.0  0.85500  0.43836  0.52238  1.0000
  S   S206      1.0  0.98850  0.53647  0.86047  1.0000
  C   C711      1.0  0.86701  0.41320  0.53006  1.0000
  C   C712      1.0  0.50751  0.62613  0.97269  1.0000
  C   C713      1.0  0.96935  0.44624  0.77332  1.0000
  H   H866      1.0  0.52841  0.61938  0.97817  1.0000
  C   C714      1.0  0.76072  0.39969  0.52200  1.0000
  C   C715      1.0  0.50677  0.45588  0.99492  1.0000
  H   H867      1.0  0.60258  0.35415  0.79134  1.0000
  H   H868      1.0  0.92910  0.41507  0.97631  1.0000
  C   C716      1.0  0.69729  0.45899  0.52990  1.0000
  H   H869      1.0  0.96497  0.45070  0.88393  1.0000
  C   C717      1.0  0.99313  0.45877  0.68618  1.0000
  C   C718      1.0  0.96249  0.43491  0.53734  1.0000
  C   C719      1.0  0.62167  0.42486  0.53689  1.0000
  H   H870      1.0  0.97487  0.61984  0.87690  1.0000
  C   C720      1.0  0.95863  0.58811  0.79852  1.0000
  C   C721      1.0  0.97876  0.65787  0.99568  1.0000
  H   H871      1.0  0.93538  0.64473  0.96472  1.0000
  C   C722      1.0  0.98940  0.45190  0.97733  1.0000
  N   N48       1.0  0.98740  0.59301  0.78508  1.0000
  H   H872      1.0  0.84612  0.47887  0.53639  1.0000
  C   C723      1.0  0.49965  0.49161  0.81645  1.0000
  H   H873      1.0  0.50770  0.62989  0.94744  1.0000
  C   C724      1.0  0.53100  0.46433  0.00695  1.0000
  C   C725      1.0  0.52706  0.39354  0.59563  1.0000
  N   N49       1.0  0.84195  0.47010  0.80380  1.0000
  C   C726      1.0  0.83421  0.49343  0.82210  1.0000
  C   C727      1.0  0.84613  0.48114  0.77136  1.0000
  C   C728      1.0  0.81825  0.44984  0.80708  1.0000
  C   C729      1.0  0.86727  0.45644  0.81311  1.0000
  C   C730      1.0  0.88341  0.46590  0.83616  1.0000
  C   C731      1.0  0.87673  0.43305  0.79863  1.0000
  C   C732      1.0  0.90739  0.45267  0.84405  1.0000
  C   C733      1.0  0.90073  0.41997  0.80673  1.0000
  C   C734      1.0  0.91602  0.42973  0.82942  1.0000
  H   H874      1.0  0.85049  0.51019  0.81934  1.0000
  H   H875      1.0  0.81494  0.50303  0.81483  1.0000
  H   H876      1.0  0.83052  0.48654  0.84683  1.0000
  H   H877      1.0  0.84916  0.46451  0.75579  1.0000
  H   H878      1.0  0.86461  0.49537  0.76750  1.0000
  H   H879      1.0  0.82803  0.49263  0.76369  1.0000
  H   H880      1.0  0.81513  0.44010  0.83089  1.0000
  H   H881      1.0  0.79870  0.45960  0.80103  1.0000
  H   H882      1.0  0.82106  0.43295  0.79168  1.0000
  H   H883      1.0  0.87824  0.48372  0.84829  1.0000
  H   H884      1.0  0.86574  0.42482  0.78067  1.0000
  H   H885      1.0  0.91942  0.46045  0.86152  1.0000
  H   H886      1.0  0.90752  0.40218  0.79524  1.0000
  H   H887      1.0  0.93466  0.41958  0.83559  1.0000
  C   C735      1.0  0.56702  0.43386  0.81641  1.0000
  C   C736      1.0  0.97672  0.43248  0.88821  1.0000
  H   H888      1.0  0.82310  0.39199  0.64898  1.0000
  C   C737      1.0  0.60873  0.42615  0.84225  1.0000
  H   H889      1.0  0.67865  0.47177  0.52928  1.0000
  H   H890      1.0  0.56770  0.45507  0.87024  1.0000
  C   C738      1.0  0.51749  0.47011  0.52858  1.0000
  H   H891      1.0  0.50161  0.38956  0.82500  1.0000
  H   H892      1.0  0.61264  0.45262  0.78340  1.0000
  C   C739      1.0  0.60579  0.46504  0.80251  1.0000
  C   C740      1.0  0.98327  0.41505  0.53990  1.0000
  C   C741      1.0  0.98017  0.41510  0.59499  1.0000
  H   H893      1.0  0.56947  0.48324  0.84172  1.0000
  H   H894      1.0  0.79155  0.37432  0.64225  1.0000
  C   C742      1.0  0.64048  0.38378  0.86902  1.0000
  C   C743      1.0  0.52406  0.41250  0.61844  1.0000
  H   H895      1.0  0.50782  0.36215  0.57163  1.0000
  C   C744      1.0  0.62364  0.45276  0.54209  1.0000
  C   C745      1.0  0.51241  0.38881  0.72029  1.0000
  H   H896      1.0  0.96566  0.41095  0.74738  1.0000
  C   C746      1.0  0.50487  0.37675  0.58883  1.0000
  H   H897      1.0  0.97846  0.47914  0.80116  1.0000
  N   N50       1.0  0.97493  0.63273  0.97935  1.0000
  H   H898      1.0  0.96110  0.58982  0.98641  1.0000
  H   H899      1.0  0.94459  0.58069  0.78185  1.0000
  H   H900      1.0  0.94966  0.60719  0.80680  1.0000
  H   H901      1.0  0.76207  0.38120  0.53723  1.0000
  C   C747      1.0  0.99072  0.43016  0.68489  1.0000
  Fe  Fe105     1.0  0.50531  0.57783  0.90186  1.0000
  Fe  Fe106     1.0  0.99763  0.50205  0.89475  1.0000
  H   H902      1.0  0.54682  0.39117  0.58332  1.0000
  H   H903      1.0  0.53989  0.48482  0.00020  1.0000
  H   H904      1.0  0.97345  0.60611  0.74072  1.0000
  C   C748      1.0  0.98558  0.46026  0.79225  1.0000
  H   H905      1.0  0.96754  0.55920  0.74381  1.0000
  H   H906      1.0  0.99443  0.62587  0.81434  1.0000
  H   H907      1.0  0.71816  0.40441  0.53501  1.0000
  C   C749      1.0  0.50496  0.47114  0.83905  1.0000
  C   C750      1.0  0.61298  0.34012  0.80666  1.0000
  H   H908      1.0  0.99709  0.45153  0.95287  1.0000
  H   H909      1.0  0.91258  0.45718  0.52202  1.0000
  H   H910      1.0  0.51062  0.36718  0.71630  1.0000
  C   C751      1.0  0.98840  0.63746  0.87920  1.0000
  H   H911      1.0  0.58543  0.34602  0.84628  1.0000
  C   C752      1.0  0.99660  0.52743  0.74419  1.0000
  C   C753      1.0  0.99197  0.40543  0.56832  1.0000
  H   H912      1.0  0.94209  0.61229  0.00939  1.0000
  H   H913      1.0  0.96383  0.65560  0.93810  1.0000
  H   H914      1.0  0.50826  0.51235  0.81691  1.0000
  H   H915      1.0  0.49902  0.42909  0.85598  1.0000
  N   N51       1.0  0.49949  0.65114  0.98794  1.0000
  H   H916      1.0  0.95293  0.80228  0.03945  1.0000
  C   C754      1.0  0.52337  0.92373  0.12107  1.0000
  S   S207      1.0  0.63512  0.91813  0.34801  1.0000
  H   H917      1.0  0.51113  0.67881  0.16534  1.0000
  Fe  Fe107     1.0  0.64020  0.95767  0.42005  1.0000
  S   S208      1.0  0.63422  0.91185  0.42177  1.0000
  H   H918      1.0  0.92645  0.74881  0.32433  1.0000
  Fe  Fe108     1.0  0.66674  0.91496  0.38274  1.0000
  S   S209      1.0  0.70072  0.88438  0.38656  1.0000
  Fe  Fe109     1.0  0.60341  0.92037  0.38718  1.0000
  S   S210      1.0  0.56278  0.89608  0.39016  1.0000
  C   C755      1.0  0.98656  0.70161  0.21233  1.0000
  S   S211      1.0  0.60678  0.96630  0.38799  1.0000
  Fe  Fe110     1.0  0.87285  0.88570  0.45853  1.0000
  S   S212      1.0  0.87506  0.92786  0.43384  1.0000
  Fe  Fe111     1.0  0.89599  0.85889  0.40247  1.0000
  S   S213      1.0  0.90001  0.89901  0.37340  1.0000
  S   S214      1.0  0.90957  0.81848  0.38584  1.0000
  Fe  Fe112     1.0  0.91658  0.91571  0.41468  1.0000
  S   S215      1.0  0.95302  0.94557  0.41316  1.0000
  Fe  Fe113     1.0  0.85797  0.90700  0.39539  1.0000
  S   S216      1.0  0.82540  0.92852  0.36884  1.0000
  S   S217      1.0  0.91569  0.87504  0.44234  1.0000
  S   S218      1.0  0.85269  0.86536  0.42139  1.0000
  H   H919      1.0  0.53349  0.90461  0.25597  1.0000
  S   S219      1.0  0.95955  0.84010  0.18215  1.0000
  H   H920      1.0  0.57467  0.90032  0.27726  1.0000
  H   H921      1.0  0.98897  0.98224  0.15084  1.0000
  S   S220      1.0  0.96030  0.77249  0.18250  1.0000
  C   C756      1.0  0.99149  0.78671  0.02180  1.0000
  H   H922      1.0  0.97666  0.74633  0.25843  1.0000
  H   H923      1.0  0.56684  0.95705  0.46700  1.0000
  Fe  Fe114     1.0  0.95083  0.80372  0.21637  1.0000
  S   S221      1.0  0.91102  0.79793  0.24598  1.0000
  C   C757      1.0  0.57283  0.88781  0.47933  1.0000
  H   H924      1.0  0.52044  0.81237  0.10449  1.0000
  C   C758      1.0  0.90928  0.81514  0.34648  1.0000
  C   C759      1.0  0.88874  0.79850  0.33585  1.0000
  C   C760      1.0  0.88946  0.79361  0.30490  1.0000
  C   C761      1.0  0.91098  0.80491  0.28447  1.0000
  C   C762      1.0  0.93184  0.82124  0.29506  1.0000
  C   C763      1.0  0.93092  0.82642  0.32611  1.0000
  H   H925      1.0  0.87236  0.78921  0.35166  1.0000
  H   H926      1.0  0.87341  0.78078  0.29685  1.0000
  H   H927      1.0  0.94855  0.82990  0.27933  1.0000
  H   H928      1.0  0.94726  0.83847  0.33460  1.0000
  C   C764      1.0  0.53180  0.91344  0.39619  1.0000
  H   H929      1.0  0.50680  0.88267  0.11838  1.0000
  H   H930      1.0  0.70067  0.97236  0.44631  1.0000
  H   H931      1.0  0.96685  0.68392  0.06550  1.0000
  H   H932      1.0  0.95270  0.67152  0.21933  1.0000
  C   C765      1.0  0.53174  0.94189  0.39891  1.0000
  H   H933      1.0  0.92207  0.71240  0.33354  1.0000
  H   H934      1.0  0.94421  0.92601  0.26832  1.0000
  H   H935      1.0  0.97254  0.88944  0.41291  1.0000
  H   H936      1.0  0.55084  0.95381  0.39750  1.0000
  C   C766      1.0  0.73538  0.89639  0.38022  1.0000
  C   C767      1.0  0.74256  0.92163  0.36364  1.0000
  C   C768      1.0  0.77037  0.93088  0.35954  1.0000
  C   C769      1.0  0.79102  0.91538  0.37278  1.0000
  C   C770      1.0  0.78383  0.89007  0.38917  1.0000
  C   C771      1.0  0.75615  0.88046  0.39252  1.0000
  H   H937      1.0  0.72674  0.93388  0.35369  1.0000
  S   S222      1.0  0.67439  0.96061  0.38257  1.0000
  H   H938      1.0  0.79951  0.87785  0.39929  1.0000
  H   H939      1.0  0.75071  0.86085  0.40525  1.0000
  C   C772      1.0  0.98553  0.90784  0.20726  1.0000
  H   H940      1.0  0.93955  0.91237  0.09062  1.0000
  H   H941      1.0  0.95478  0.76779  0.27990  1.0000
  C   C773      1.0  0.80406  0.94902  0.51750  1.0000
  H   H942      1.0  0.98337  0.75283  0.29722  1.0000
  H   H943      1.0  0.90941  0.94617  0.30288  1.0000
  H   H944      1.0  0.73665  0.96674  0.40681  1.0000
  C   C774      1.0  0.52888  0.67759  0.10308  1.0000
  H   H945      1.0  0.74306  0.91179  0.44262  1.0000
  S   S223      1.0  0.85750  0.87775  0.50811  1.0000
  C   C775      1.0  0.55575  0.69421  0.05633  1.0000
  H   H946      1.0  0.92524  0.88621  0.50718  1.0000
  C   C776      1.0  0.56535  0.95419  0.26503  1.0000
  H   H947      1.0  0.54893  0.70683  0.22692  1.0000
  C   C777      1.0  0.52036  0.94366  0.19926  1.0000
  H   H948      1.0  0.51468  0.94767  0.33745  1.0000
  H   H949      1.0  0.53460  0.96549  0.12481  1.0000
  N   N52       1.0  0.55855  0.93761  0.29453  1.0000
  H   H950      1.0  0.53209  0.89031  0.04829  1.0000
  H   H951      1.0  0.54269  0.91656  0.12921  1.0000
  H   H952      1.0  0.52277  0.93461  0.48502  1.0000
  C   C778      1.0  0.97349  0.79638  0.04463  1.0000
  H   H953      1.0  0.95976  0.89510  0.03117  1.0000
  H   H954      1.0  0.70591  0.96436  0.48564  1.0000
  C   C779      1.0  0.72764  0.92603  0.45169  1.0000
  C   C780      1.0  0.50673  0.95529  0.40271  1.0000
  C   C781      1.0  0.97065  0.89116  0.11458  1.0000
  S   S224      1.0  0.51403  0.81316  0.17020  1.0000
  H   H955      1.0  0.55779  0.81057  0.06333  1.0000
  H   H956      1.0  0.95374  0.72981  0.34061  1.0000
  H   H957      1.0  0.66437  0.92186  0.47060  1.0000
  C   C782      1.0  0.98905  0.95705  0.21268  1.0000
  H   H958      1.0  0.55170  0.93627  0.05356  1.0000
  C   C783      1.0  0.53189  0.91407  0.48342  1.0000
  C   C784      1.0  0.54749  0.67287  0.07843  1.0000
  H   H959      1.0  0.59567  0.88744  0.48037  1.0000
  H   H960      1.0  0.99371  0.71485  0.09970  1.0000
  C   C785      1.0  0.95926  0.91437  0.10045  1.0000
  C   C786      1.0  0.92649  0.72237  0.27262  1.0000
  C   C787      1.0  0.53702  0.80358  0.05973  1.0000
  H   H961      1.0  0.52066  0.89933  0.50101  1.0000
  H   H962      1.0  0.51279  0.75275  0.13433  1.0000
  C   C788      1.0  0.98450  0.70737  0.02503  1.0000
  C   C789      1.0  0.51828  0.95195  0.11869  1.0000
  H   H963      1.0  0.77580  0.95041  0.34664  1.0000
  H   H964      1.0  0.93444  0.71750  0.24940  1.0000
  H   H965      1.0  0.57375  0.93134  0.44110  1.0000
  C   C790      1.0  0.97943  0.92619  0.33057  1.0000
  C   C791      1.0  0.93735  0.72893  0.32425  1.0000
  H   H966      1.0  0.56366  0.94179  0.24514  1.0000
  S   S225      1.0  0.52437  0.88892  0.19153  1.0000
  H   H967      1.0  0.98672  0.72632  0.03612  1.0000
  H   H968      1.0  0.59793  0.93843  0.46850  1.0000
  C   C792      1.0  0.51982  0.91047  0.27466  1.0000
  H   H969      1.0  0.93380  0.88156  0.24710  1.0000
  H   H970      1.0  0.92810  0.67138  0.30814  1.0000
  C   C793      1.0  0.75219  0.96534  0.42426  1.0000
  N   N53       1.0  0.84509  0.87371  0.29802  1.0000
  C   C794      1.0  0.82227  0.89299  0.29344  1.0000
  C   C795      1.0  0.83962  0.84961  0.28038  1.0000
  C   C796      1.0  0.84420  0.86370  0.33078  1.0000
  C   C797      1.0  0.87216  0.88797  0.28897  1.0000
  C   C798      1.0  0.87908  0.91329  0.30096  1.0000
  C   C799      1.0  0.89275  0.87684  0.26930  1.0000
  C   C800      1.0  0.90470  0.92684  0.29338  1.0000
  C   C801      1.0  0.91839  0.89050  0.26202  1.0000
  C   C802      1.0  0.92431  0.91549  0.27394  1.0000
  H   H971      1.0  0.82338  0.90253  0.26952  1.0000
  H   H972      1.0  0.80161  0.88246  0.29859  1.0000
  H   H973      1.0  0.82245  0.91000  0.30881  1.0000
  H   H974      1.0  0.85446  0.83304  0.28477  1.0000
  H   H975      1.0  0.84079  0.85569  0.25537  1.0000
  H   H976      1.0  0.81874  0.83996  0.28684  1.0000
  H   H977      1.0  0.84647  0.88089  0.34559  1.0000
  H   H978      1.0  0.82429  0.85263  0.33875  1.0000
  H   H979      1.0  0.86125  0.84950  0.33536  1.0000
  H   H980      1.0  0.86492  0.92264  0.31682  1.0000
  H   H981      1.0  0.88974  0.85750  0.25936  1.0000
  H   H982      1.0  0.59899  0.92049  0.29507  1.0000
  H   H983      1.0  0.94591  0.93069  0.48321  1.0000
  C   C803      1.0  0.53645  0.93363  0.03712  1.0000
  C   C804      1.0  0.98210  0.79865  0.07406  1.0000
  C   C805      1.0  0.50957  0.93453  0.31994  1.0000
  C   C806      1.0  0.57681  0.91368  0.29631  1.0000
  C   C807      1.0  0.51447  0.82747  0.31242  1.0000
  H   H984      1.0  0.52731  0.90753  0.46059  1.0000
  H   H985      1.0  0.50659  0.87631  0.39667  1.0000
  C   C808      1.0  0.97970  0.89120  0.49684  1.0000
  H   H986      1.0  0.55144  0.97192  0.26229  1.0000
  C   C809      1.0  0.78452  0.93571  0.47161  1.0000
  N   N54       1.0  0.56198  0.91480  0.48728  1.0000
  H   H987      1.0  0.96695  0.93527  0.34818  1.0000
  H   H988      1.0  0.88179  0.93310  0.49560  1.0000
  C   C810      1.0  0.76129  0.95226  0.47672  1.0000
  H   H989      1.0  0.54267  0.94426  0.19756  1.0000
  H   H990      1.0  0.56302  0.87039  0.49463  1.0000
  H   H991      1.0  0.95083  0.93442  0.20933  1.0000
  H   H992      1.0  0.57227  0.90064  0.31823  1.0000
  C   C811      1.0  0.96691  0.74875  0.28170  1.0000
  H   H993      1.0  0.95411  0.88881  0.33771  1.0000
  H   H994      1.0  0.97522  0.94610  0.49874  1.0000
  H   H995      1.0  0.82310  0.92156  0.48710  1.0000
  C   C812      1.0  0.53132  0.79388  0.03165  1.0000
  N   N55       1.0  0.73972  0.95399  0.45457  1.0000
  C   C813      1.0  0.65865  0.92778  0.49318  1.0000
  C   C814      1.0  0.52706  0.70163  0.23010  1.0000
  H   H996      1.0  0.51752  0.98638  0.20713  1.0000
  H   H997      1.0  0.97101  0.98343  0.33082  1.0000
  C   C815      1.0  0.71668  0.97190  0.46324  1.0000
  H   H998      1.0  0.57054  0.69057  0.03759  1.0000
  N   N56       1.0  0.94927  0.72416  0.29323  1.0000
  H   H999      1.0  0.54760  0.96133  0.51524  1.0000
  S   S226      1.0  0.99302  0.80409  0.23400  1.0000
  C   C816      1.0  0.97182  0.89925  0.32487  1.0000
  H   H1000     1.0  0.55345  0.97445  0.31847  1.0000
  S   S227      1.0  0.97284  0.98854  0.21568  1.0000
  C   C817      1.0  0.57558  0.93636  0.46507  1.0000
  H   H1001     1.0  0.97339  0.71906  0.21103  1.0000
  C   C818      1.0  0.76030  0.96699  0.50342  1.0000
  H   H1002     1.0  0.53399  0.83199  0.29916  1.0000
  H   H1003     1.0  0.96324  0.95765  0.08832  1.0000
  C   C819      1.0  0.51805  0.70418  0.10632  1.0000
  S   S228      1.0  0.64205  0.97670  0.46510  1.0000
  S   S229      1.0  0.96017  0.81306  0.10148  1.0000
  C   C820      1.0  0.56699  0.92137  0.51872  1.0000
  H   H1004     1.0  0.55193  0.73710  0.04157  1.0000
  H   H1005     1.0  0.49820  0.85783  0.05526  1.0000
  C   C821      1.0  0.52498  0.90740  0.03401  1.0000
  C   C822      1.0  0.52675  0.72531  0.08320  1.0000
  C   C823      1.0  0.97293  0.94018  0.09936  1.0000
  Fe  Fe115     1.0  0.64014  0.96397  0.35043  1.0000
  H   H1006     1.0  0.97296  0.88957  0.20545  1.0000
  H   H1007     1.0  0.71866  0.91644  0.47416  1.0000
  Fe  Fe116     1.0  0.97321  0.80903  0.14974  1.0000
  H   H1008     1.0  0.96842  0.88869  0.47603  1.0000
  C   C824      1.0  0.50664  0.89838  0.39825  1.0000
  C   C825      1.0  0.51591  0.80456  0.08308  1.0000
  C   C826      1.0  0.52931  0.92769  0.29654  1.0000
  H   H1009     1.0  0.78687  0.92401  0.45174  1.0000
  H   H1010     1.0  0.71094  0.92654  0.43556  1.0000
  H   H1011     1.0  0.76880  0.95236  0.41525  1.0000
  S   S230      1.0  0.52037  0.75670  0.23565  1.0000
  C   C827      1.0  0.98576  0.93164  0.41640  1.0000
  H   H1012     1.0  0.91038  0.70647  0.28119  1.0000
  C   C828      1.0  0.56522  0.95511  0.31929  1.0000
  H   H1013     1.0  0.74351  0.98011  0.50928  1.0000
  C   C829      1.0  0.80549  0.93418  0.49173  1.0000
  H   H1014     1.0  0.56875  0.88350  0.45553  1.0000
  H   H1015     1.0  0.97534  0.99425  0.11561  1.0000
  C   C830      1.0  0.50585  0.91884  0.19671  1.0000
  H   H1016     1.0  0.53098  0.72753  0.15659  1.0000
  C   C831      1.0  0.64763  0.95363  0.49700  1.0000
  H   H1017     1.0  0.91556  0.74214  0.26994  1.0000
  C   C832      1.0  0.97301  0.93322  0.20977  1.0000
  H   H1018     1.0  0.51942  0.74597  0.08410  1.0000
  C   C833      1.0  0.54531  0.72037  0.05865  1.0000
  H   H1019     1.0  0.50685  0.97741  0.40414  1.0000
  C   C834      1.0  0.96446  0.69816  0.29457  1.0000
  C   C835      1.0  0.99480  0.99038  0.12679  1.0000
  H   H1020     1.0  0.56133  0.94369  0.34212  1.0000
  C   C836      1.0  0.50534  0.84513  0.33412  1.0000
  H   H1021     1.0  0.58744  0.96158  0.31748  1.0000
  C   C837      1.0  0.51037  0.73280  0.14868  1.0000
  C   C838      1.0  0.50452  0.78471  0.02716  1.0000
  H   H1022     1.0  0.98550  0.85937  0.04618  1.0000
  S   S231      1.0  0.64126  0.98701  0.30358  1.0000
  C   C839      1.0  0.95011  0.67246  0.30251  1.0000
  C   C840      1.0  0.97490  0.67470  0.21690  1.0000
  H   H1023     1.0  0.98926  0.97189  0.36358  1.0000
  C   C841      1.0  0.98976  0.90331  0.41578  1.0000
  H   H1024     1.0  0.76154  0.98636  0.42539  1.0000
  C   C842      1.0  0.50611  0.96772  0.20409  1.0000
  C   C843      1.0  0.99357  0.69742  0.28828  1.0000
  C   C844      1.0  0.50818  0.72256  0.23407  1.0000
  N   N57       1.0  0.96291  0.90567  0.51975  1.0000
  H   H1025     1.0  0.67178  0.88978  0.51547  1.0000
  H   H1026     1.0  0.51768  0.86334  0.33781  1.0000
  H   H1027     1.0  0.94199  0.94444  0.51943  1.0000
  H   H1028     1.0  0.98458  0.87001  0.50588  1.0000
  C   C845      1.0  0.51772  0.67404  0.23004  1.0000
  H   H1029     1.0  0.72388  0.99370  0.46426  1.0000
  C   C846      1.0  0.99167  0.98252  0.34021  1.0000
  H   H1030     1.0  0.58696  0.96282  0.26332  1.0000
  C   C847      1.0  0.98684  0.88573  0.30279  1.0000
  C   C848      1.0  0.50313  0.90455  0.11496  1.0000
  H   H1031     1.0  0.94677  0.94339  0.03052  1.0000
  H   H1032     1.0  0.50645  0.79110  0.29030  1.0000
  H   H1033     1.0  0.98080  0.86496  0.29824  1.0000
  C   C849      1.0  0.66326  0.90975  0.51870  1.0000
  H   H1034     1.0  0.95991  0.87121  0.11563  1.0000
  C   C850      1.0  0.95624  0.93287  0.50477  1.0000
  C   C851      1.0  0.97342  0.68347  0.04152  1.0000
  H   H1035     1.0  0.99728  0.98579  0.27746  1.0000
  C   C852      1.0  0.49849  0.80408  0.30752  1.0000
  C   C853      1.0  0.99564  0.89370  0.12790  1.0000
  N   N58       1.0  0.49859  0.71027  0.13222  1.0000
  H   H1036     1.0  0.53851  0.97652  0.02020  1.0000
  C   C854      1.0  0.87845  0.92860  0.51997  1.0000
  S   S232      1.0  0.89095  0.90959  0.66587  1.0000
  S   S233      1.0  0.82014  0.90184  0.71440  1.0000
  Fe  Fe117     1.0  0.92314  0.92288  0.69638  1.0000
  S   S234      1.0  0.95947  0.89730  0.70887  1.0000
  H   H1037     1.0  0.75920  0.97588  0.68191  1.0000
  Fe  Fe118     1.0  0.66712  0.92966  0.68286  1.0000
  S   S235      1.0  0.66787  0.88639  0.66846  1.0000
  S   S236      1.0  0.70412  0.95437  0.69530  1.0000
  Fe  Fe119     1.0  0.60826  0.93801  0.66467  1.0000
  S   S237      1.0  0.60524  0.89602  0.64788  1.0000
  S   S238      1.0  0.57264  0.96665  0.66208  1.0000
  Fe  Fe120     1.0  0.62465  0.88217  0.69101  1.0000
  S   S239      1.0  0.60093  0.84561  0.71610  1.0000
  Fe  Fe121     1.0  0.64821  0.90470  0.62704  1.0000
  S   S240      1.0  0.66278  0.89394  0.57973  1.0000
  S   S241      1.0  0.62541  0.92406  0.70908  1.0000
  S   S242      1.0  0.64984  0.94803  0.64016  1.0000
  H   H1038     1.0  0.57927  0.89246  0.76674  1.0000
  S   S243      1.0  0.55833  0.76639  0.91961  1.0000
  H   H1039     1.0  0.55945  0.66739  0.88907  1.0000
  H   H1040     1.0  0.83534  0.96557  0.59805  1.0000
  S   S244      1.0  0.55999  0.83346  0.92328  1.0000
  Fe  Fe122     1.0  0.89593  0.97644  0.70770  1.0000
  Fe  Fe123     1.0  0.56822  0.80419  0.88723  1.0000
  S   S245      1.0  0.60774  0.81159  0.85707  1.0000
  Fe  Fe124     1.0  0.54561  0.79614  0.95408  1.0000
  H   H1041     1.0  0.94102  0.86821  0.53837  1.0000
  H   H1042     1.0  0.63589  0.76320  0.81320  1.0000
  C   C855      1.0  0.93693  0.88905  0.52763  1.0000
  H   H1043     1.0  0.78057  0.97702  0.54336  1.0000
  H   H1044     1.0  0.99436  0.97358  0.83746  1.0000
  C   C856      1.0  0.65687  0.91736  0.54833  1.0000
  C   C857      1.0  0.97806  0.66418  0.87751  1.0000
  H   H1045     1.0  0.58084  0.94104  0.60115  1.0000
  H   H1046     1.0  0.56661  0.94493  0.72954  1.0000
  C   C858      1.0  0.64614  0.94335  0.55225  1.0000
  C   C859      1.0  0.55986  0.92742  0.84211  1.0000
  H   H1047     1.0  0.64110  0.94948  0.57496  1.0000
  C   C860      1.0  0.60276  0.83834  0.75563  1.0000
  C   C861      1.0  0.62699  0.84344  0.76984  1.0000
  C   C862      1.0  0.62843  0.83500  0.80101  1.0000
  C   C863      1.0  0.60541  0.82228  0.81818  1.0000
  C   C864      1.0  0.58099  0.81799  0.80407  1.0000
  C   C865      1.0  0.57979  0.82565  0.77282  1.0000
  H   H1048     1.0  0.64489  0.85296  0.75660  1.0000
  H   H1049     1.0  0.64743  0.83828  0.81181  1.0000
  H   H1050     1.0  0.56333  0.80793  0.81695  1.0000
  H   H1051     1.0  0.56108  0.82151  0.76184  1.0000
  C   C866      1.0  0.49961  0.70218  0.89310  1.0000
  C   C867      1.0  0.62434  0.76998  0.76708  1.0000
  H   H1052     1.0  0.76493  0.89745  0.65100  1.0000
  H   H1053     1.0  0.81808  0.95649  0.74009  1.0000
  H   H1054     1.0  0.82061  0.94797  0.53278  1.0000
  C   C868      1.0  0.96546  0.93802  0.01770  1.0000
  H   H1055     1.0  0.95573  0.90656  0.89690  1.0000
  H   H1056     1.0  0.89231  0.97346  0.83558  1.0000
  H   H1057     1.0  0.54237  0.71450  0.89438  1.0000
  H   H1058     1.0  0.50644  0.71709  0.78831  1.0000
  H   H1059     1.0  0.96269  0.85735  0.99986  1.0000
  C   C869      1.0  0.55970  0.95815  0.74707  1.0000
  S   S246      1.0  0.55797  0.79350  0.00259  1.0000
  C   C870      1.0  0.99295  0.70691  0.99420  1.0000
  C   C871      1.0  0.98160  0.92437  0.81542  1.0000
  H   H1060     1.0  0.53064  0.76816  0.81621  1.0000
  C   C872      1.0  0.60351  0.76706  0.74736  1.0000
  C   C873      1.0  0.88353  0.94219  0.57123  1.0000
  C   C874      1.0  0.97510  0.92564  0.59971  1.0000
  H   H1061     1.0  0.50430  0.95266  0.58253  1.0000
  C   C875      1.0  0.78332  0.99007  0.76737  1.0000
  C   C876      1.0  0.86208  0.89779  0.56381  1.0000
  C   C877      1.0  0.87080  0.91716  0.58339  1.0000
  H   H1062     1.0  0.53414  0.71500  0.75965  1.0000
  C   C878      1.0  0.90166  0.99023  0.82028  1.0000
  H   H1063     1.0  0.85269  0.87823  0.57330  1.0000
  H   H1064     1.0  0.86779  0.91261  0.60781  1.0000
  C   C879      1.0  0.52195  0.97609  0.77910  1.0000
  H   H1065     1.0  0.77376  0.98117  0.74788  1.0000
  C   C880      1.0  0.53687  0.92219  0.67811  1.0000
  C   C881      1.0  0.53993  0.95082  0.67227  1.0000
  H   H1066     1.0  0.97853  0.95461  0.69586  1.0000
  C   C882      1.0  0.96331  0.92324  0.57198  1.0000
  H   H1067     1.0  0.61098  0.91027  0.83478  1.0000
  H   H1068     1.0  0.55464  0.90949  0.67651  1.0000
  C   C883      1.0  0.78802  0.91594  0.70674  1.0000
  C   C884      1.0  0.78626  0.94306  0.69401  1.0000
  C   C885      1.0  0.76040  0.95457  0.69070  1.0000
  C   C886      1.0  0.73607  0.93863  0.69848  1.0000
  C   C887      1.0  0.73771  0.91109  0.70985  1.0000
  C   C888      1.0  0.76365  0.89994  0.71447  1.0000
  H   H1069     1.0  0.56532  0.93207  0.93502  1.0000
  H   H1070     1.0  0.71902  0.89871  0.71617  1.0000
  H   H1071     1.0  0.76482  0.87890  0.72428  1.0000
  N   N59       1.0  0.75330  0.91209  0.60653  1.0000
  S   S247      1.0  0.54586  0.98693  0.92796  1.0000
  C   C889      1.0  0.76473  0.89059  0.62751  1.0000
  C   C890      1.0  0.72339  0.91350  0.61576  1.0000
  C   C891      1.0  0.76880  0.93864  0.60750  1.0000
  H   H1072     1.0  0.51316  0.73765  0.83478  1.0000
  H   H1073     1.0  0.96305  0.91923  0.83149  1.0000
  H   H1074     1.0  0.97527  0.97993  0.99997  1.0000
  H   H1075     1.0  0.58959  0.88440  0.53270  1.0000
  C   C892      1.0  0.59715  0.90502  0.81683  1.0000
  H   H1076     1.0  0.89612  0.96768  0.53002  1.0000
  H   H1077     1.0  0.92266  0.89884  0.54402  1.0000
  C   C893      1.0  0.79976  0.98881  0.60941  1.0000
  C   C894      1.0  0.95667  0.95297  0.78062  1.0000
  H   H1078     1.0  0.60496  0.88568  0.80800  1.0000
  H   H1079     1.0  0.95956  0.93901  0.76183  1.0000
  C   C895      1.0  0.97679  0.90951  0.54809  1.0000
  H   H1080     1.0  0.97345  0.81324  0.82852  1.0000
  N   N60       1.0  0.97891  0.83316  0.78248  1.0000
  C   C896      1.0  0.53104  0.95525  0.91999  1.0000
  C   C897      1.0  0.50153  0.88356  0.79282  1.0000
  C   C898      1.0  0.99346  0.88440  0.89780  1.0000
  C   C899      1.0  0.59479  0.74700  0.80860  1.0000
  H   H1081     1.0  0.75234  0.87084  0.62911  1.0000
  H   H1082     1.0  0.59987  0.92192  0.79813  1.0000
  C   C900      1.0  0.55782  0.89059  0.77517  1.0000
  S   S248      1.0  0.97658  0.85199  0.89819  1.0000
  C   C901      1.0  0.86637  0.90326  0.53206  1.0000
  C   C902      1.0  0.82103  0.99624  0.81706  1.0000
  C   C903      1.0  0.97587  0.82427  0.75134  1.0000
  H   H1083     1.0  0.52434  0.67813  0.95498  1.0000
  C   C904      1.0  0.98145  0.95867  0.00043  1.0000
  H   H1084     1.0  0.93559  0.84193  0.78694  1.0000
  C   C905      1.0  0.51110  0.88007  0.76285  1.0000
  H   H1085     1.0  0.80924  0.92232  0.59551  1.0000
  C   C906      1.0  0.88669  0.94813  0.53952  1.0000
  H   H1086     1.0  0.55669  0.97314  0.56676  1.0000
  N   N61       1.0  0.54642  0.73016  0.80154  1.0000
  Fe  Fe125     1.0  0.51695  0.83348  0.90846  1.0000
  C   C907      1.0  0.64159  0.96144  0.52664  1.0000
  C   C908      1.0  0.53919  0.88342  0.75412  1.0000
  C   C909      1.0  0.82651  0.96778  0.75847  1.0000
  H   H1087     1.0  0.52048  0.74814  0.76798  1.0000
  C   C910      1.0  0.57309  0.74355  0.78913  1.0000
  S   S249      1.0  0.89642  0.96612  0.59490  1.0000
  C   C911      1.0  0.51998  0.89064  0.81409  1.0000
  C   C912      1.0  0.99207  0.91285  0.69694  1.0000
  H   H1088     1.0  0.95364  0.97397  0.76958  1.0000
  H   H1089     1.0  0.54647  0.74759  0.84532  1.0000
  H   H1090     1.0  0.93709  0.94642  0.79431  1.0000
  N   N62       1.0  0.98056  0.95252  0.79975  1.0000
  H   H1091     1.0  0.71240  0.89313  0.61532  1.0000
  C   C913      1.0  0.52610  0.72754  0.77820  1.0000
  H   H1092     1.0  0.71281  0.92801  0.59993  1.0000
  H   H1093     1.0  0.95795  0.87094  0.77335  1.0000
  C   C914      1.0  0.56647  0.87892  0.85412  1.0000
  C   C915      1.0  0.51711  0.85811  0.99725  1.0000
  C   C916      1.0  0.99106  0.93419  0.89814  1.0000
  S   S250      1.0  0.98148  0.72009  0.88068  1.0000
  H   H1094     1.0  0.99207  0.80963  0.74486  1.0000
  C   C917      1.0  0.53171  0.95827  0.75692  1.0000
  H   H1095     1.0  0.77787  0.97514  0.78749  1.0000
  C   C918      1.0  0.52789  0.69756  0.89264  1.0000
  H   H1096     1.0  0.58127  0.88271  0.87162  1.0000
  S   S251      1.0  0.86152  0.96911  0.67757  1.0000
  H   H1097     1.0  0.74776  0.91905  0.55854  1.0000
  H   H1098     1.0  0.54568  0.87626  0.86628  1.0000
  Fe  Fe126     1.0  0.51520  0.77089  0.90521  1.0000
  C   C919      1.0  0.52895  0.95634  0.01855  1.0000
  N   N63       1.0  0.56788  0.90135  0.82911  1.0000
  C   C920      1.0  0.55107  0.70195  0.81531  1.0000
  C   C921      1.0  0.89865  0.99059  0.78882  1.0000
  H   H1099     1.0  0.77768  0.89981  0.56705  1.0000
  H   H1100     1.0  0.97112  0.99295  0.81472  1.0000
  H   H1101     1.0  0.98465  0.78482  0.99926  1.0000
  C   C922      1.0  0.97795  0.90821  0.89739  1.0000
  H   H1102     1.0  0.50851  0.88759  0.69019  1.0000
  S   S252      1.0  0.92877  0.96544  0.67294  1.0000
  H   H1103     1.0  0.56418  0.70208  0.83495  1.0000
  H   H1104     1.0  0.53886  0.92588  0.85390  1.0000
  C   C923      1.0  0.99013  0.68262  0.97964  1.0000
  H   H1105     1.0  0.54230  0.66483  0.98664  1.0000
  H   H1106     1.0  0.94318  0.93180  0.56970  1.0000
  H   H1107     1.0  0.88729  0.97400  0.78012  1.0000
  C   C924      1.0  0.54874  0.89442  0.80593  1.0000
  H   H1108     1.0  0.59727  0.89698  0.58318  1.0000
  C   C925      1.0  0.78150  0.96535  0.52336  1.0000
  H   H1109     1.0  0.51822  0.69139  0.99203  1.0000
  H   H1110     1.0  0.82322  0.95380  0.77975  1.0000
  N   N64       1.0  0.81360  0.99477  0.76119  1.0000
  H   H1111     1.0  0.64354  0.78090  0.75890  1.0000
  H   H1112     1.0  0.95796  0.96515  0.84031  1.0000
  C   C926      1.0  0.53365  0.90546  0.92005  1.0000
  H   H1113     1.0  0.73383  0.96433  0.61998  1.0000
  H   H1114     1.0  0.57397  0.93335  0.85955  1.0000
  C   C927      1.0  0.62001  0.75993  0.79762  1.0000
  C   C928      1.0  0.75580  0.96347  0.61441  1.0000
  S   S253      1.0  0.52591  0.80655  0.87018  1.0000
  H   H1115     1.0  0.80476  0.95539  0.68722  1.0000
  H   H1116     1.0  0.98870  0.83610  0.98446  1.0000
  H   H1117     1.0  0.96405  0.93575  0.61778  1.0000
  H   H1118     1.0  0.53134  0.69097  0.82433  1.0000
  H   H1119     1.0  0.97894  0.95242  0.89764  1.0000
  Fe  Fe127     1.0  0.86010  0.92591  0.69987  1.0000
  C   C929      1.0  0.57821  0.75402  0.75803  1.0000
  S   S254      1.0  0.89207  0.93444  0.73288  1.0000
  Fe  Fe128     1.0  0.89409  0.95338  0.64537  1.0000
  C   C930      1.0  0.56291  0.95345  0.55909  1.0000
  C   C931      1.0  0.97594  0.97186  0.82396  1.0000
  C   C932      1.0  0.54531  0.93103  0.92578  1.0000
  H   H1120     1.0  0.54487  0.88708  0.92474  1.0000
  H   H1121     1.0  0.60670  0.77587  0.72386  1.0000
  C   C933      1.0  0.75590  0.90327  0.57501  1.0000
  H   H1122     1.0  0.50007  0.77667  0.00582  1.0000
  C   C934      1.0  0.51069  0.90981  0.68619  1.0000
  H   H1123     1.0  0.56025  0.94468  0.82396  1.0000
  H   H1124     1.0  0.56292  0.75297  0.74154  1.0000
  H   H1125     1.0  0.57133  0.85881  0.84516  1.0000
  H   H1126     1.0  0.80915  0.97714  0.82236  1.0000
  H   H1127     1.0  0.74401  0.88359  0.57328  1.0000
  H   H1128     1.0  0.71991  0.91982  0.63946  1.0000
  H   H1129     1.0  0.50961  0.83711  0.99278  1.0000
  H   H1130     1.0  0.95670  0.79557  0.80094  1.0000
  H   H1131     1.0  0.95556  0.81353  0.74966  1.0000
  C   C935      1.0  0.77119  0.98812  0.61525  1.0000
  C   C936      1.0  0.51664  0.96705  0.67498  1.0000
  C   C937      1.0  0.55795  0.94654  0.52968  1.0000
  C   C938      1.0  0.79791  0.94023  0.60120  1.0000
  H   H1132     1.0  0.50450  0.97058  0.98213  1.0000
  C   C939      1.0  0.53370  0.74657  0.82546  1.0000
  S   S255      1.0  0.98884  0.77707  0.93478  1.0000
  H   H1133     1.0  0.78621  0.88552  0.62019  1.0000
  C   C940      1.0  0.99536  0.68709  0.88112  1.0000
  C   C941      1.0  0.58570  0.91058  0.56849  1.0000
  S   S256      1.0  0.50171  0.79819  0.94195  1.0000
  C   C942      1.0  0.81307  0.96493  0.60238  1.0000
  H   H1134     1.0  0.51816  0.94459  0.74625  1.0000
  C   C943      1.0  0.95615  0.85190  0.78937  1.0000
  H   H1135     1.0  0.95648  0.66709  0.87403  1.0000
  H   H1136     1.0  0.84908  0.97064  0.75291  1.0000
  H   H1137     1.0  0.51895  0.98927  0.67083  1.0000
  H   H1138     1.0  0.54680  0.87998  0.73098  1.0000
  C   C944      1.0  0.50508  0.95382  0.90824  1.0000
  H   H1139     1.0  0.59223  0.74039  0.83270  1.0000
  C   C945      1.0  0.56994  0.99298  0.78091  1.0000
  H   H1140     1.0  0.95580  0.85815  0.81315  1.0000
  C   C946      1.0  0.53752  0.67087  0.88965  1.0000
  C   C947      1.0  0.50769  0.90390  0.90840  1.0000
  H   H1141     1.0  0.99361  0.79466  0.80169  1.0000
  C   C948      1.0  0.57663  0.93543  0.57852  1.0000
  H   H1142     1.0  0.98204  0.90828  0.79889  1.0000
  C   C949      1.0  0.97557  0.80816  0.80430  1.0000
  C   C950      1.0  0.52198  0.67240  0.98005  1.0000
  C   C951      1.0  0.50534  0.90318  0.01232  1.0000
  H   H1143     1.0  0.56141  0.68918  0.79828  1.0000
  H   H1144     1.0  0.97684  0.84225  0.73384  1.0000
  C   C952      1.0  0.49804  0.92684  0.99383  1.0000
  C   C953      1.0  0.58117  0.90359  0.53906  1.0000
  H   H1145     1.0  0.98020  0.86727  0.96319  1.0000
  H   H1146     1.0  0.51159  0.89255  0.83722  1.0000
  C   C954      1.0  0.98311  0.85791  0.98666  1.0000
  C   C955      1.0  0.99562  0.94150  0.69166  1.0000
  H   H1147     1.0  0.63319  0.98146  0.52984  1.0000
  C   C956      1.0  0.99714  0.90286  0.00076  1.0000
  H   H1148     1.0  0.53335  0.85522  0.01368  1.0000
  H   H1149     1.0  0.52733  0.86783  0.97546  1.0000
  C   C957      1.0  0.50970  0.95295  0.99711  1.0000
  C   C958      1.0  0.97309  0.91050  0.01789  1.0000
  C   C959      1.0  0.57874  0.97556  0.75883  1.0000
  C   C960      1.0  0.54200  0.99325  0.79102  1.0000
  H   H1150     1.0  0.60029  0.97581  0.75039  1.0000
  H   H1151     1.0  0.49912  0.98567  0.83588  1.0000
  H   H1152     1.0  0.99663  0.68355  0.95551  1.0000
