data_image0
_chemical_formula_structural       HSHFeS2HCFeSNSHCFeHSFeHSH4S2H4NH5CH2CHCH3C2H2CHCHCH2C3HC2H3CNHS2HC2HC5H3C5HFeH3C6H6CNHC2H2CH6CH2C2HC4HCHCHCH2C2HC2NHC4HC6H4CH3C2HFeCH5S2NCH3C3H2CHC4FeHSHCHFeSCFeCFeSHS2HCH5SHSFeS4FeSFeHS2HCNFeS2CHFeSCSC6H5C3H2CHC2HC2HFeHFeH2C2HC3H5C2H3FeC2SH9CHNH4C2SHC3HCHNC2SC5H2CH2FeCHCH2SC2H2CHCFeCSHC4HFeC3SC2HCHCHCH2SHCH2SH3CSHCHCH2CFeCNC3H3CSCFeHCH2CSCH2CHCHFeHSCH2CHC2HCHC2S2HCHFeS2FeS2FeSFeS3HCSFeS2FeSFeSC4HCHCH6C4H3C6H4C6H4C6HSH3CH6CHC2HCH4NHCHCH3CH2C2HCHC3H2CHN2HC2HC2FeCS2HC2H3CH3C2H4C2NC8SH12CHCH3CHCH2S2H3NC9H3CHC4H2C2H2SCH3FeHCH3CH2CHCHNCHCH2SC2HCFeHSH2C2H2FeS4FeS2FeSHFeSFeS3H2C4H3C3H5C4H3CH2C2H2CHC2HCH3CH5SH2CHSHCHCH3CHC6HCNCNH6CHCHFeHSCHCHC2H2CFeC3HCHNC3H10C2HC2SH2CHC2H2FeS2FeS2FeSFeS3H3C2FeS2H3SH3NH2C2HCSHCHC2H2FeC6H6C2H3NHSCH2C2H2CHC2HC3HCH2CH2C4SH2C6H4C6H4C4H5C2HC3HCFeNH3CH2CHCFeH4CH2CHCH2SH2C2H2NCH2CH2CH2CHC2H2CSHC2FeCHSHCH6FeC2H3CH3CH2C2HCSH2C2H4C2NCH7C2H2S2FeCHSCHCFe2SCHC3S2CHSFeH5C5HCHCH2CS2H2C3H2SH4CH2CH2NH2C3SCNC5HSC2H2C2NC3HNSH3SCHCHCSH2CH2CHC2SHSC2FeC2SCH2CHCH2SC2H4FeHCHC2Fe2HSCH5FeS2HC3H3C2HC2FeS2H2FeSFeHS2HFeCFeS2FeSFeCS2C6H5SHSHSHCH3SC2H2CHC2H2C3HCH4CHFeH4FeCH2C2H3C2H4C2H3CSFeHCNH5CN2C9H2CHCHCHCH3SH2C3HSH7NC6HSCHSH3CH3FeCHC2H2C2H2FeS2FeS2FeSFeS3HCSFeS2FeSFeSCSH2CHC3H5C4NH2C6H4C6H4C6HSH2NCH3SCHCHC2HNH5NH3CSH6CFeH2CHCH2C2H3C4H4C2HC4H3CH4CNC2HCSC4H4C3H2CHCH2CH3CH2CHCH3NC9H5CH2CH2C3HC2H6CNH5CSC3HC2H3FeCHFeH4CHCHFeSFeS4FeS2FeCHFeCFeS3HC6H2CHCH2C6H5SC3H2CHNHNC5HS2CHCH7C2H3FeC3SHNC7H10SH3SHCNHC2H2CH2C2SHC4FeHSC2SH2SHC2HFeHCHFeC2SH2SHFeCHCHCHFeHSH2C3HSCFeC2HCSCFeC2SFeCH4CSH3CH2FeSH5CSH2FeH2NHSC2H3CH2CSHC3HSHNCH3FeSHFeS2FeCFeSNSHCFeCSFeCSH2FeCS2HCH3CHC4HNHCHCNCHCHC2HCH3C2HCHCHCH2NCHCHCHCSCHC3H3CHCH2C2HC8H4CH2C2HCHCH2CH3CHCHCH4C4H4C2SCH4CHNHCH4CHCH6CSCHC2H2CNH2CSH4C2H2SH3FeSHSHCH2C4SCHFeS2H2FeSFeHS2C2NFeS2FeSFeS3C6H5SHC3H3CHNC2H2SHFeH2NC3HCH2C2H2SCH2C2H7C3HNC3HCNFeCFeHC3HCHCH2CH3CHSFeHCH5SH3CSC4H6CHCHFeH2CHFeCHCHC3H3S2HC6HCH3CHSH2CH2C2H3CHCHCSH2NFeS2FeS2FeSFeS3H3FeS2FeSCH8C3NC2HCSH2CH2C6H4C6H4C6H5NSHCH2CHCNC2H4CHCHC5H3C2HC2HC2H2C2H2C3H4C2H2C2H8CNHC2HCH2CH2CHNH2CH3C3H4C2H2C2H3CHC2H3FeCH2C4HSCH2C2H2CHC5H3CFeHC2H3SCFeS4FeS2FeCHFeHFeS3CHC5HCH4CH2C3SH3C2SC3H2CHCHNC9H15CHCH2FeCS3C3HCFeHNCHCH2C2H6C5H4CH3CH6SHCSCH5NSHCHC2H4C2HFeS2FeS2FeSFeS3HCHC3S2HCH2CHSHCSH2CHSH2C3H3C6HC2HC2H2CH5C3HCH2CHC7H3C3SC2HCH2C6H4C6HC2HNC8H15CHCHCHCFeHC2H2CH3C2HCNH2C4HSHCHC2H2C2H4CHNC2H2SCHC2S2HNH2C7HSH2CH2NCH2SHSCH5FeCH3SHCHC3H2CH2CSHNHC2H4C2H3C2HC2SH3CH3CFeSC2H5C2H2C2HC3HCH2C2HCHCH3C2SC2HCH3CHSC3SHCHCN2HCHCHCHFeC2S2HSHC2HNH2C2FeSFeCHCH3C2NHCH2FeHCH3S2HC2H3C4H2CHNH2FeC2FeH2CFeNSCHCH3CH4CHSCHC4HC2H3SCH3CSHCSC2SFeSCSHFeC2HFeSCHSHFeS2H2FeSFeS3FeSCFeS2FeSFeS3C6H4C6H3C3HCNCSCHFeH2C3SH3C3H3CHC2H2CHS2HCSHC2HC3HCH3C3H2FeCHFeHC2HSCSHSCFeH2CNC7HFeH16SNC9H14SCHNCHCHFeHFeHC4H3C2FeH2CH7SC2H2C2H2CHSHCH3CHC2NHFeS2FeS2FeSFeS3CHSFeS2FeSFeSHCHC3NCH6C4H2FeC6H4C6H4C7H3CHCHCH4C5H3CNCHC10HNH4SH4CH2CHCHCHC3HCHC2H2CH2C3H2SH3NH2CH4CHCHCNH6CH2CHC2H4CHCHNH2C4H5C2H2CSH3CHSH3CHCHCHCSCHCHCH4NC5H3CHC2HNH3SHCHCHC2HFeH2CH2CHC3HCHSH2CSHCH3C2HC4HCHCHSCHCHFeHFeS4FeSHFeS2FeCFeS3HFeHC4H3C3HCH2C3H4CHC3H5CH2S2HNCSCFe2HC3HC2H4SC2H2CHCHCSCH4NC9H13CHC2HC2SC3HFeHCH2C2H6SCHSH2SHCFeH2CHSCFeHSCFeCH2SCNHC2HCH2S2CH6SH2CSHNCHSHC2H3C2HCHC2H2CNCH2CSC4FeSHCFe2CH2CSHFeHSCNH8FeH
_chemical_formula_sum              "H1728 S384 Fe192 C1440 N96"
_cell_length_a       48.084
_cell_length_b       48.3791
_cell_length_c       59.2953
_cell_angle_alpha    90.0147
_cell_angle_beta     89.9286
_cell_angle_gamma    120.19

_space_group_name_H-M_alt    "P 1"
_space_group_IT_number       1

loop_
  _space_group_symop_operation_xyz
  'x, y, z'

loop_
  _atom_site_type_symbol
  _atom_site_label
  _atom_site_symmetry_multiplicity
  _atom_site_fract_x
  _atom_site_fract_y
  _atom_site_fract_z
  _atom_site_occupancy
  H   H1        1.0  0.32110  0.45479  0.21523  1.0000
  S   S1        1.0  0.47214  0.50790  0.08744  1.0000
  H   H2        1.0  0.03316  0.43449  0.11526  1.0000
  Fe  Fe1       1.0  0.45817  0.48338  0.15021  1.0000
  S   S2        1.0  0.46612  0.45453  0.12399  1.0000
  S   S3        1.0  0.45094  0.46844  0.18669  1.0000
  H   H3        1.0  0.33718  0.47871  0.99032  1.0000
  C   C1        1.0  0.42799  0.28697  0.18189  1.0000
  Fe  Fe2       1.0  0.43221  0.46352  0.10331  1.0000
  S   S4        1.0  0.39000  0.42491  0.08450  1.0000
  N   N1        1.0  0.06414  0.43335  0.19563  1.0000
  S   S5        1.0  0.42146  0.48871  0.13058  1.0000
  H   H4        1.0  0.15543  0.01756  0.20788  1.0000
  C   C2        1.0  0.23708  0.38292  0.19097  1.0000
  Fe  Fe3       1.0  0.18827  0.46053  0.10885  1.0000
  H   H5        1.0  0.07090  0.40371  0.17151  1.0000
  S   S6        1.0  0.13642  0.43808  0.12054  1.0000
  Fe  Fe4       1.0  0.24502  0.44808  0.10909  1.0000
  H   H6        1.0  0.38184  0.50077  0.18716  1.0000
  S   S7        1.0  0.25520  0.40776  0.11288  1.0000
  H   H7        1.0  0.29905  0.48692  0.05319  1.0000
  H   H8        1.0  0.35160  0.46441  0.14632  1.0000
  H   H9        1.0  0.19285  0.02345  0.19772  1.0000
  H   H10       1.0  0.51698  0.47009  0.20864  1.0000
  S   S8        1.0  0.22079  0.46059  0.13614  1.0000
  S   S9        1.0  0.20985  0.44343  0.08244  1.0000
  H   H11       1.0  0.08400  0.44996  0.05268  1.0000
  H   H12       1.0  0.30970  0.33140  0.18384  1.0000
  H   H13       1.0  0.26128  0.43139  0.05146  1.0000
  H   H14       1.0  0.23081  0.47161  0.99252  1.0000
  N   N2        1.0  0.15062  0.37430  0.16188  1.0000
  H   H15       1.0  0.03239  0.44314  0.00320  1.0000
  H   H16       1.0  0.48826  0.29632  0.18264  1.0000
  H   H17       1.0  0.32475  0.48611  0.19754  1.0000
  H   H18       1.0  0.34187  0.49175  0.15932  1.0000
  H   H19       1.0  0.50886  0.48169  0.16258  1.0000
  C   C3        1.0  0.51459  0.38059  0.14917  1.0000
  H   H20       1.0  0.21942  0.12717  0.21098  1.0000
  H   H21       1.0  0.31015  0.45230  0.15283  1.0000
  C   C4        1.0  0.21608  0.38799  0.20415  1.0000
  H   H22       1.0  0.10327  0.48218  0.19891  1.0000
  C   C5        1.0  0.18824  0.38537  0.19465  1.0000
  H   H23       1.0  0.25838  0.38448  0.19843  1.0000
  H   H24       1.0  0.15263  0.47690  0.02415  1.0000
  H   H25       1.0  0.29269  0.44618  0.19297  1.0000
  C   C6        1.0  0.40395  0.37906  0.21323  1.0000
  C   C7        1.0  0.04818  0.44349  0.17879  1.0000
  H   H26       1.0  0.29227  0.09635  0.17391  1.0000
  H   H27       1.0  0.12740  0.37184  0.13003  1.0000
  C   C8        1.0  0.37320  0.47473  0.18838  1.0000
  H   H28       1.0  0.05369  0.32107  0.21227  1.0000
  C   C9        1.0  0.27883  0.42618  0.04306  1.0000
  H   H29       1.0  0.19649  0.48014  0.04791  1.0000
  C   C10       1.0  0.08288  0.44704  0.07078  1.0000
  H   H30       1.0  0.35877  0.05931  0.99259  1.0000
  H   H31       1.0  0.03110  0.44951  0.18715  1.0000
  C   C11       1.0  0.18094  0.37831  0.17141  1.0000
  C   C12       1.0  0.09539  0.50978  0.03382  1.0000
  C   C13       1.0  0.20223  0.49605  0.03368  1.0000
  H   H32       1.0  0.12462  0.39995  0.16027  1.0000
  C   C14       1.0  0.50328  0.35684  0.16580  1.0000
  C   C15       1.0  0.45051  0.35142  0.16301  1.0000
  H   H33       1.0  0.24708  0.37209  0.15779  1.0000
  H   H34       1.0  0.50135  0.44358  0.17252  1.0000
  H   H35       1.0  0.12548  0.32323  0.16593  1.0000
  C   C16       1.0  0.24286  0.08076  0.18226  1.0000
  N   N3        1.0  0.18607  0.06420  0.19339  1.0000
  H   H36       1.0  0.33706  0.50435  0.03922  1.0000
  S   S10       1.0  0.02422  0.44437  0.06827  1.0000
  S   S11       1.0  0.36502  0.31807  0.19645  1.0000
  H   H37       1.0  0.16813  0.09703  0.19568  1.0000
  C   C17       1.0  0.33148  0.40620  0.20229  1.0000
  C   C18       1.0  0.42610  0.42683  0.18975  1.0000
  H   H38       1.0  0.03404  0.42469  0.16611  1.0000
  C   C19       1.0  0.38200  0.03192  0.98642  1.0000
  C   C20       1.0  0.38796  0.36005  0.19452  1.0000
  C   C21       1.0  0.39074  0.37458  0.17355  1.0000
  C   C22       1.0  0.40966  0.40785  0.17117  1.0000
  C   C23       1.0  0.12328  0.34428  0.17077  1.0000
  H   H39       1.0  0.40583  0.05200  0.98951  1.0000
  H   H40       1.0  0.37818  0.36003  0.15905  1.0000
  H   H41       1.0  0.41127  0.41873  0.15495  1.0000
  C   C24       1.0  0.17349  0.05428  0.17017  1.0000
  C   C25       1.0  0.33547  0.46621  0.15899  1.0000
  C   C26       1.0  0.07914  0.43688  0.11725  1.0000
  C   C27       1.0  0.10651  0.44145  0.10552  1.0000
  C   C28       1.0  0.10847  0.44680  0.08222  1.0000
  H   H42       1.0  0.50204  0.32467  0.20581  1.0000
  Fe  Fe5       1.0  0.50512  0.50221  0.11125  1.0000
  H   H43       1.0  0.07729  0.43239  0.13514  1.0000
  H   H44       1.0  0.12920  0.44981  0.07294  1.0000
  H   H45       1.0  0.41898  0.26663  0.19401  1.0000
  C   C29       1.0  0.35281  0.42107  0.09217  1.0000
  C   C30       1.0  0.32545  0.39062  0.09309  1.0000
  C   C31       1.0  0.29566  0.38688  0.09947  1.0000
  C   C32       1.0  0.29277  0.41364  0.10430  1.0000
  C   C33       1.0  0.31990  0.44422  0.10289  1.0000
  C   C34       1.0  0.34994  0.44789  0.09705  1.0000
  H   H46       1.0  0.32742  0.36979  0.08927  1.0000
  H   H47       1.0  0.27477  0.36314  0.10057  1.0000
  H   H48       1.0  0.31793  0.46500  0.10670  1.0000
  H   H49       1.0  0.37076  0.47148  0.09600  1.0000
  H   H50       1.0  0.12209  0.34447  0.18950  1.0000
  H   H51       1.0  0.10800  0.50070  0.02292  1.0000
  C   C35       1.0  0.35528  0.03608  0.98814  1.0000
  N   N4        1.0  0.33901  0.45491  0.18153  1.0000
  H   H52       1.0  0.17233  0.38856  0.20581  1.0000
  C   C36       1.0  0.26701  0.14114  0.20154  1.0000
  C   C37       1.0  0.32983  0.42072  0.18189  1.0000
  H   H53       1.0  0.31891  0.41016  0.14584  1.0000
  H   H54       1.0  0.39344  0.50033  0.04978  1.0000
  C   C38       1.0  0.31337  0.47560  0.99142  1.0000
  H   H55       1.0  0.14877  0.35064  0.13040  1.0000
  H   H56       1.0  0.17788  0.07527  0.15980  1.0000
  H   H57       1.0  0.43026  0.33401  0.20712  1.0000
  H   H58       1.0  0.19947  0.36761  0.14072  1.0000
  H   H59       1.0  0.43256  0.27880  0.16548  1.0000
  H   H60       1.0  0.32906  0.47792  0.06265  1.0000
  C   C39       1.0  0.05409  0.43806  0.10597  1.0000
  H   H61       1.0  0.31356  0.14986  0.19118  1.0000
  H   H62       1.0  0.42560  0.34110  0.16796  1.0000
  C   C40       1.0  0.03956  0.40605  0.20899  1.0000
  C   C41       1.0  0.08477  0.42336  0.18371  1.0000
  H   H63       1.0  0.10308  0.50892  0.05139  1.0000
  C   C42       1.0  0.48044  0.30513  0.19729  1.0000
  C   C43       1.0  0.32028  0.40126  0.16222  1.0000
  C   C44       1.0  0.14607  0.40138  0.16851  1.0000
  C   C45       1.0  0.22083  0.08828  0.19263  1.0000
  H   H64       1.0  0.17024  0.39385  0.12914  1.0000
  C   C46       1.0  0.17742  0.49420  0.02025  1.0000
  H   H65       1.0  0.27652  0.16449  0.20932  1.0000
  C   C47       1.0  0.05577  0.44306  0.08267  1.0000
  H   H66       1.0  0.16718  0.42473  0.16378  1.0000
  C   C48       1.0  0.44901  0.32760  0.21065  1.0000
  H   H67       1.0  0.09982  0.34042  0.16437  1.0000
  H   H68       1.0  0.50269  0.40764  0.12636  1.0000
  C   C49       1.0  0.32397  0.37427  0.20292  1.0000
  C   C50       1.0  0.20294  0.37332  0.15846  1.0000
  H   H69       1.0  0.38908  0.46964  0.17754  1.0000
  C   C51       1.0  0.31861  0.46062  0.19750  1.0000
  C   C52       1.0  0.23396  0.11927  0.20231  1.0000
  N   N5        1.0  0.30541  0.45468  0.03168  1.0000
  H   H70       1.0  0.46940  0.28514  0.20974  1.0000
  C   C53       1.0  0.33134  0.44722  0.02698  1.0000
  C   C54       1.0  0.31819  0.48209  0.04744  1.0000
  C   C55       1.0  0.29394  0.46328  0.01109  1.0000
  C   C56       1.0  0.26392  0.46232  0.01090  1.0000
  H   H71       1.0  0.28781  0.41710  0.05685  1.0000
  C   C57       1.0  0.46207  0.37525  0.14649  1.0000
  C   C58       1.0  0.27296  0.48343  0.97291  1.0000
  C   C59       1.0  0.16620  0.07587  0.20454  1.0000
  C   C60       1.0  0.30282  0.48528  0.97263  1.0000
  C   C61       1.0  0.47057  0.34108  0.17294  1.0000
  C   C62       1.0  0.42301  0.41243  0.21083  1.0000
  H   H72       1.0  0.32387  0.42851  0.01375  1.0000
  H   H73       1.0  0.33804  0.43851  0.04231  1.0000
  H   H74       1.0  0.35408  0.46869  0.02159  1.0000
  H   H75       1.0  0.10437  0.44348  0.17398  1.0000
  C   C63       1.0  0.14935  0.37251  0.13682  1.0000
  H   H76       1.0  0.09623  0.41463  0.19595  1.0000
  H   H77       1.0  0.24860  0.45531  0.02561  1.0000
  H   H78       1.0  0.23471  0.05757  0.17477  1.0000
  C   C64       1.0  0.49396  0.38956  0.13942  1.0000
  C   C65       1.0  0.03692  0.47071  0.97353  1.0000
  H   H79       1.0  0.06915  0.49252  0.03239  1.0000
  Fe  Fe6       1.0  0.24487  0.49565  0.07719  1.0000
  C   C66       1.0  0.52004  0.46665  0.16501  1.0000
  H   H80       1.0  0.14219  0.40214  0.18682  1.0000
  H   H81       1.0  0.40754  0.29133  0.17955  1.0000
  H   H82       1.0  0.26559  0.40625  0.03090  1.0000
  H   H83       1.0  0.44607  0.38248  0.13908  1.0000
  H   H84       1.0  0.14705  0.03704  0.17019  1.0000
  S   S12       1.0  0.28152  0.49908  0.10187  1.0000
  S   S13       1.0  0.29192  0.01810  0.98658  1.0000
  N   N6        1.0  0.45750  0.31564  0.19033  1.0000
  C   C67       1.0  0.08556  0.46185  0.20949  1.0000
  H   H85       1.0  0.18459  0.04196  0.16133  1.0000
  H   H86       1.0  0.16478  0.50850  0.17388  1.0000
  H   H87       1.0  0.06587  0.46485  0.16905  1.0000
  C   C68       1.0  0.31276  0.36934  0.16306  1.0000
  C   C69       1.0  0.28793  0.13291  0.19136  1.0000
  C   C70       1.0  0.27589  0.10278  0.18169  1.0000
  H   H88       1.0  0.14017  0.05722  0.20468  1.0000
  H   H89       1.0  0.30616  0.35517  0.14774  1.0000
  C   C71       1.0  0.18135  0.03572  0.20604  1.0000
  H   H90       1.0  0.37738  0.47010  0.20606  1.0000
  C   C72       1.0  0.25361  0.47205  0.99203  1.0000
  C   C73       1.0  0.23059  0.37574  0.16817  1.0000
  C   C74       1.0  0.31460  0.35588  0.18336  1.0000
  C   C75       1.0  0.02549  0.45892  0.99507  1.0000
  Fe  Fe7       1.0  0.25367  0.51132  0.12609  1.0000
  H   H91       1.0  0.52063  0.35124  0.17272  1.0000
  S   S14       1.0  0.22007  0.51261  0.10066  1.0000
  H   H92       1.0  0.19657  0.20095  0.44103  1.0000
  C   C76       1.0  0.47941  0.29688  0.25744  1.0000
  H   H93       1.0  0.47497  0.42648  0.40347  1.0000
  Fe  Fe8       1.0  0.18190  0.46429  0.28295  1.0000
  S   S15       1.0  0.19195  0.42955  0.26489  1.0000
  C   C77       1.0  0.07185  0.35708  0.26365  1.0000
  Fe  Fe9       1.0  0.22374  0.47160  0.24290  1.0000
  C   C78       1.0  0.04560  0.24398  0.24938  1.0000
  Fe  Fe10      1.0  0.15076  0.42139  0.24266  1.0000
  S   S16       1.0  0.11311  0.37452  0.22725  1.0000
  H   H94       1.0  0.44374  0.40847  0.28306  1.0000
  S   S17       1.0  0.13788  0.45282  0.26255  1.0000
  S   S18       1.0  0.20880  0.10679  0.43463  1.0000
  H   H95       1.0  0.34348  0.25978  0.38937  1.0000
  C   C79       1.0  0.25651  0.09665  0.26328  1.0000
  H   H96       1.0  0.27074  0.08506  0.26369  1.0000
  H   H97       1.0  0.09135  0.37668  0.27266  1.0000
  H   H98       1.0  0.50144  0.36774  0.30098  1.0000
  H   H99       1.0  0.48518  0.36162  0.32900  1.0000
  H   H100      1.0  0.48604  0.47994  0.37108  1.0000
  S   S19       1.0  0.20379  0.03582  0.26808  1.0000
  H   H101      1.0  0.15103  0.49380  0.30638  1.0000
  S   S20       1.0  0.43809  0.33844  0.45830  1.0000
  Fe  Fe11      1.0  0.35518  0.29306  0.28059  1.0000
  S   S21       1.0  0.35492  0.24692  0.28467  1.0000
  S   S22       1.0  0.34876  0.31816  0.31005  1.0000
  S   S23       1.0  0.43980  0.26490  0.26134  1.0000
  S   S24       1.0  0.36173  0.24771  0.22943  1.0000
  Fe  Fe12      1.0  0.32145  0.22997  0.25487  1.0000
  S   S25       1.0  0.27060  0.18673  0.25360  1.0000
  Fe  Fe13      1.0  0.39513  0.26886  0.25912  1.0000
  H   H102      1.0  0.48938  0.31337  0.32836  1.0000
  S   S26       1.0  0.31921  0.27531  0.25265  1.0000
  S   S27       1.0  0.39807  0.31643  0.25773  1.0000
  H   H103      1.0  0.05561  0.42626  0.24291  1.0000
  C   C80       1.0  0.52011  0.35353  0.25492  1.0000
  N   N7        1.0  0.22666  0.03484  0.39029  1.0000
  Fe  Fe14      1.0  0.41301  0.32875  0.42493  1.0000
  S   S28       1.0  0.39506  0.36308  0.43012  1.0000
  S   S29       1.0  0.43579  0.32676  0.39221  1.0000
  C   C81       1.0  0.06900  0.28639  0.28564  1.0000
  H   H104      1.0  0.43924  0.30915  0.22419  1.0000
  Fe  Fe15      1.0  0.35172  0.32041  0.44537  1.0000
  S   S30       1.0  0.29987  0.30173  0.43598  1.0000
  C   C82       1.0  0.50798  0.37312  0.31910  1.0000
  S   S31       1.0  0.36830  0.28585  0.43757  1.0000
  C   C83       1.0  0.37324  0.32045  0.33255  1.0000
  C   C84       1.0  0.36766  0.32904  0.35384  1.0000
  C   C85       1.0  0.38630  0.33008  0.37224  1.0000
  C   C86       1.0  0.41152  0.32392  0.36929  1.0000
  C   C87       1.0  0.41751  0.31585  0.34787  1.0000
  C   C88       1.0  0.39815  0.31378  0.32951  1.0000
  H   H105      1.0  0.34858  0.33447  0.35618  1.0000
  H   H106      1.0  0.38103  0.33570  0.38865  1.0000
  H   H107      1.0  0.43665  0.31056  0.34555  1.0000
  H   H108      1.0  0.40258  0.30720  0.31302  1.0000
  H   H109      1.0  0.26574  0.01631  0.36660  1.0000
  C   C89       1.0  0.25461  0.02661  0.35649  1.0000
  C   C90       1.0  0.24238  0.24477  0.43791  1.0000
  C   C91       1.0  0.27437  0.26218  0.44537  1.0000
  H   H110      1.0  0.22123  0.39387  0.22189  1.0000
  H   H111      1.0  0.28714  0.46363  0.30175  1.0000
  C   C92       1.0  0.47651  0.45017  0.46294  1.0000
  H   H112      1.0  0.05109  0.42202  0.40819  1.0000
  C   C93       1.0  0.51365  0.42763  0.37126  1.0000
  C   C94       1.0  0.30544  0.48902  0.30538  1.0000
  H   H113      1.0  0.44516  0.42691  0.38576  1.0000
  C   C95       1.0  0.23888  0.06738  0.39961  1.0000
  C   C96       1.0  0.16914  0.48135  0.33555  1.0000
  H   H114      1.0  0.07783  0.30337  0.29945  1.0000
  Fe  Fe16      1.0  0.17336  0.49162  0.23976  1.0000
  H   H115      1.0  0.28458  0.19679  0.39857  1.0000
  Fe  Fe17      1.0  0.09006  0.47546  0.45575  1.0000
  H   H116      1.0  0.31758  0.49948  0.28903  1.0000
  H   H117      1.0  0.22675  0.07958  0.39202  1.0000
  C   C97       1.0  0.27233  0.21083  0.31456  1.0000
  C   C98       1.0  0.05062  0.32562  0.22968  1.0000
  H   H118      1.0  0.49170  0.32933  0.36313  1.0000
  C   C99       1.0  0.22006  0.12672  0.26155  1.0000
  C   C100      1.0  0.25362  0.14529  0.25922  1.0000
  C   C101      1.0  0.27192  0.13017  0.26035  1.0000
  H   H119      1.0  0.09015  0.27713  0.23286  1.0000
  H   H120      1.0  0.51245  0.32141  0.30359  1.0000
  H   H121      1.0  0.20569  0.13817  0.26087  1.0000
  H   H122      1.0  0.29778  0.14414  0.25847  1.0000
  H   H123      1.0  0.17913  0.07991  0.26720  1.0000
  C   C102      1.0  0.07600  0.35129  0.24116  1.0000
  C   C103      1.0  0.51644  0.50354  0.43565  1.0000
  H   H124      1.0  0.02521  0.25608  0.30234  1.0000
  H   H125      1.0  0.26515  0.08281  0.39651  1.0000
  H   H126      1.0  0.51489  0.47857  0.38959  1.0000
  Fe  Fe18      1.0  0.41736  0.37026  0.46438  1.0000
  C   C104      1.0  0.43174  0.39984  0.31825  1.0000
  C   C105      1.0  0.51451  0.32693  0.32198  1.0000
  S   S32       1.0  0.18375  0.45964  0.21842  1.0000
  H   H127      1.0  0.06045  0.38918  0.34301  1.0000
  H   H128      1.0  0.28035  0.22093  0.29785  1.0000
  H   H129      1.0  0.45274  0.39382  0.38488  1.0000
  H   H130      1.0  0.40161  0.36812  0.22952  1.0000
  H   H131      1.0  0.21742  0.06266  0.31633  1.0000
  H   H132      1.0  0.20583  0.05916  0.35663  1.0000
  H   H133      1.0  0.23481  0.06666  0.41816  1.0000
  H   H134      1.0  0.43548  0.42707  0.22530  1.0000
  H   H135      1.0  0.44045  0.43850  0.43748  1.0000
  C   C106      1.0  0.26112  0.02912  0.33332  1.0000
  H   H136      1.0  0.27654  0.02086  0.32638  1.0000
  N   N8        1.0  0.29051  0.50665  0.31528  1.0000
  H   H137      1.0  0.30788  0.25275  0.33099  1.0000
  H   H138      1.0  0.23437  0.16609  0.30184  1.0000
  H   H139      1.0  0.25171  0.46373  0.33028  1.0000
  H   H140      1.0  0.19166  0.04250  0.22327  1.0000
  C   C107      1.0  0.08746  0.29290  0.26616  1.0000
  C   C108      1.0  0.24635  0.17990  0.31676  1.0000
  S   S33       1.0  0.11714  0.46792  0.42780  1.0000
  H   H141      1.0  0.30549  0.28049  0.39090  1.0000
  C   C109      1.0  0.04268  0.33683  0.27475  1.0000
  C   C110      1.0  0.03838  0.40627  0.23297  1.0000
  C   C111      1.0  0.05927  0.40832  0.37542  1.0000
  H   H142      1.0  0.17776  0.08137  0.32758  1.0000
  C   C112      1.0  0.28556  0.24815  0.46077  1.0000
  H   H143      1.0  0.11027  0.06094  0.38148  1.0000
  N   N9        1.0  0.48887  0.43698  0.36843  1.0000
  C   C113      1.0  0.28795  0.22879  0.33370  1.0000
  C   C114      1.0  0.12785  0.05120  0.31897  1.0000
  S   S34       1.0  0.06669  0.01998  0.45968  1.0000
  C   C115      1.0  0.47581  0.42922  0.34521  1.0000
  C   C116      1.0  0.44297  0.40696  0.34047  1.0000
  C   C117      1.0  0.46422  0.42029  0.38628  1.0000
  C   C118      1.0  0.17087  0.48184  0.35908  1.0000
  C   C119      1.0  0.45269  0.41426  0.30020  1.0000
  H   H144      1.0  0.49686  0.26433  0.25164  1.0000
  H   H145      1.0  0.40654  0.38294  0.31499  1.0000
  C   C120      1.0  0.02588  0.23681  0.26885  1.0000
  H   H146      1.0  0.51928  0.39946  0.32135  1.0000
  H   H147      1.0  0.50309  0.40156  0.36830  1.0000
  Fe  Fe19      1.0  0.36199  0.29427  0.22984  1.0000
  C   C121      1.0  0.22129  0.05044  0.35075  1.0000
  H   H148      1.0  0.32628  0.36386  0.21852  1.0000
  C   C122      1.0  0.48465  0.48183  0.42919  1.0000
  H   H149      1.0  0.34165  0.50630  0.24040  1.0000
  H   H150      1.0  0.42539  0.39467  0.35358  1.0000
  S   S35       1.0  0.14262  0.03796  0.42511  1.0000
  C   C123      1.0  0.08966  0.04036  0.34908  1.0000
  C   C124      1.0  0.51462  0.34989  0.36744  1.0000
  H   H151      1.0  0.26671  0.25851  0.37773  1.0000
  H   H152      1.0  0.17324  0.08221  0.22250  1.0000
  C   C125      1.0  0.23573  0.16687  0.33813  1.0000
  H   H153      1.0  0.33296  0.22426  0.37329  1.0000
  C   C126      1.0  0.09600  0.03661  0.32654  1.0000
  Fe  Fe20      1.0  0.16675  0.08761  0.41106  1.0000
  C   C127      1.0  0.25116  0.18458  0.35745  1.0000
  S   S36       1.0  0.17946  0.09596  0.37442  1.0000
  H   H154      1.0  0.13301  0.04856  0.30162  1.0000
  C   C128      1.0  0.14701  0.07313  0.35629  1.0000
  C   C129      1.0  0.48499  0.43619  0.30425  1.0000
  C   C130      1.0  0.48790  0.32920  0.25875  1.0000
  C   C131      1.0  0.15324  0.06977  0.33371  1.0000
  H   H155      1.0  0.21526  0.14285  0.33973  1.0000
  Fe  Fe21      1.0  0.11718  0.05513  0.44772  1.0000
  C   C132      1.0  0.13814  0.50687  0.36088  1.0000
  C   C133      1.0  0.11520  0.05823  0.36406  1.0000
  C   C134      1.0  0.23428  0.03714  0.36590  1.0000
  S   S37       1.0  0.27424  0.48157  0.23561  1.0000
  C   C135      1.0  0.46493  0.45497  0.44257  1.0000
  C   C136      1.0  0.49640  0.44370  0.32637  1.0000
  H   H156      1.0  0.28605  0.48517  0.34805  1.0000
  C   C137      1.0  0.27801  0.21617  0.35579  1.0000
  H   H157      1.0  0.30230  0.27966  0.36088  1.0000
  C   C138      1.0  0.27108  0.48824  0.33512  1.0000
  H   H158      1.0  0.11050  0.31483  0.26488  1.0000
  C   C139      1.0  0.22790  0.05274  0.32766  1.0000
  H   H159      1.0  0.17887  0.02829  0.38651  1.0000
  H   H160      1.0  0.08397  0.42790  0.37439  1.0000
  S   S38       1.0  0.18956  0.46612  0.32028  1.0000
  H   H161      1.0  0.34192  0.26073  0.35949  1.0000
  C   C140      1.0  0.04078  0.40507  0.39440  1.0000
  H   H162      1.0  0.25721  0.21216  0.40040  1.0000
  H   H163      1.0  0.46974  0.33535  0.26276  1.0000
  S   S39       1.0  0.13826  0.10396  0.43156  1.0000
  H   H164      1.0  0.03980  0.34105  0.29229  1.0000
  H   H165      1.0  0.23353  0.25550  0.42603  1.0000
  H   H166      1.0  0.29653  0.23411  0.41216  1.0000
  C   C141      1.0  0.04591  0.38648  0.35775  1.0000
  S   S40       1.0  0.12063  0.02718  0.25350  1.0000
  H   H167      1.0  0.15738  0.49537  0.38986  1.0000
  C   C142      1.0  0.22281  0.07809  0.26531  1.0000
  H   H168      1.0  0.24140  0.17289  0.37341  1.0000
  C   C143      1.0  0.20482  0.09349  0.26486  1.0000
  H   H169      1.0  0.10020  0.45678  0.22153  1.0000
  H   H170      1.0  0.32369  0.48917  0.31699  1.0000
  C   C144      1.0  0.13668  0.50674  0.33730  1.0000
  Fe  Fe22      1.0  0.18215  0.05857  0.45072  1.0000
  C   C145      1.0  0.15219  0.49393  0.32459  1.0000
  N   N10       1.0  0.29522  0.23571  0.37577  1.0000
  C   C146      1.0  0.28274  0.21878  0.39759  1.0000
  C   C147      1.0  0.32981  0.24549  0.37440  1.0000
  C   C148      1.0  0.29234  0.26482  0.37630  1.0000
  H   H171      1.0  0.25839  0.49982  0.34292  1.0000
  H   H172      1.0  0.47517  0.48589  0.41382  1.0000
  H   H173      1.0  0.18412  0.47227  0.36759  1.0000
  C   C149      1.0  0.50395  0.47187  0.37249  1.0000
  S   S41       1.0  0.21585  0.50669  0.26223  1.0000
  C   C150      1.0  0.50314  0.28917  0.25259  1.0000
  Fe  Fe23      1.0  0.16134  0.50054  0.44771  1.0000
  H   H174      1.0  0.50135  0.44760  0.29022  1.0000
  C   C151      1.0  0.15551  0.49472  0.37173  1.0000
  H   H175      1.0  0.23443  0.01763  0.42200  1.0000
  H   H176      1.0  0.33931  0.41964  0.21782  1.0000
  C   C152      1.0  0.07584  0.27169  0.24809  1.0000
  S   S42       1.0  0.20630  0.49731  0.44799  1.0000
  C   C153      1.0  0.26795  0.50718  0.29855  1.0000
  H   H177      1.0  0.03755  0.22842  0.23484  1.0000
  H   H178      1.0  0.24835  0.48257  0.29431  1.0000
  C   C154      1.0  0.03861  0.25888  0.28706  1.0000
  H   H179      1.0  0.04674  0.02603  0.41455  1.0000
  C   C155      1.0  0.22150  0.21378  0.44627  1.0000
  H   H180      1.0  0.26775  0.03305  0.40313  1.0000
  Fe  Fe24      1.0  0.17891  0.11951  0.45643  1.0000
  H   H181      1.0  0.07163  0.47066  0.21905  1.0000
  S   S43       1.0  0.20455  0.02950  0.46128  1.0000
  C   C156      1.0  0.23241  0.20028  0.46239  1.0000
  H   H182      1.0  0.50281  0.34206  0.40282  1.0000
  H   H183      1.0  0.06512  0.02939  0.35504  1.0000
  C   C157      1.0  0.24776  0.04210  0.31896  1.0000
  H   H184      1.0  0.25264  0.04382  0.30099  1.0000
  C   C158      1.0  0.19128  0.01605  0.39360  1.0000
  C   C159      1.0  0.24100  0.01923  0.40378  1.0000
  H   H185      1.0  0.47034  0.34935  0.21747  1.0000
  C   C160      1.0  0.52060  0.35721  0.39038  1.0000
  H   H186      1.0  0.52167  0.46087  0.32861  1.0000
  C   C161      1.0  0.29246  0.18547  0.51947  1.0000
  C   C162      1.0  0.18840  0.21761  0.51441  1.0000
  S   S44       1.0  0.15524  0.07229  0.47456  1.0000
  S   S45       1.0  0.38517  0.26145  0.49639  1.0000
  H   H187      1.0  0.20977  0.24314  0.56820  1.0000
  C   C163      1.0  0.27712  0.08743  0.50337  1.0000
  H   H188      1.0  0.28892  0.39078  0.70870  1.0000
  Fe  Fe25      1.0  0.31953  0.29193  0.60735  1.0000
  S   S46       1.0  0.27754  0.28159  0.58559  1.0000
  S   S47       1.0  0.36643  0.29772  0.59526  1.0000
  Fe  Fe26      1.0  0.28688  0.29715  0.64970  1.0000
  S   S48       1.0  0.24188  0.28722  0.63144  1.0000
  S   S49       1.0  0.29923  0.30770  0.68633  1.0000
  Fe  Fe27      1.0  0.24794  0.24919  0.61374  1.0000
  S   S50       1.0  0.20584  0.20097  0.60482  1.0000
  Fe  Fe28      1.0  0.27597  0.32057  0.60514  1.0000
  S   S51       1.0  0.27695  0.36061  0.58505  1.0000
  S   S52       1.0  0.29014  0.25653  0.63417  1.0000
  S   S53       1.0  0.32047  0.33335  0.62479  1.0000
  H   H189      1.0  0.17736  0.20598  0.55869  1.0000
  C   C164      1.0  0.22595  0.02444  0.50306  1.0000
  S   S54       1.0  0.22869  0.45080  0.62518  1.0000
  Fe  Fe29      1.0  0.23202  0.05377  0.61340  1.0000
  S   S55       1.0  0.28132  0.09262  0.60459  1.0000
  S   S56       1.0  0.19300  0.06540  0.62082  1.0000
  Fe  Fe30      1.0  0.28000  0.05868  0.57831  1.0000
  S   S57       1.0  0.29951  0.08237  0.54467  1.0000
  Fe  Fe31      1.0  0.29798  0.06772  0.62794  1.0000
  S   S58       1.0  0.33467  0.09511  0.65474  1.0000
  C   C165      1.0  0.31588  0.12468  0.71394  1.0000
  C   C166      1.0  0.27295  0.15975  0.50554  1.0000
  C   C167      1.0  0.22614  0.19523  0.67264  1.0000
  C   C168      1.0  0.27255  0.06744  0.52181  1.0000
  H   H190      1.0  0.24304  0.25053  0.71300  1.0000
  C   C169      1.0  0.28535  0.12066  0.71007  1.0000
  H   H191      1.0  0.34877  0.21808  0.57423  1.0000
  C   C170      1.0  0.25805  0.15745  0.55121  1.0000
  H   H192      1.0  0.17817  0.12052  0.54595  1.0000
  H   H193      1.0  0.51697  0.46894  0.48561  1.0000
  H   H194      1.0  0.39027  0.42752  0.48162  1.0000
  H   H195      1.0  0.34011  0.39646  0.70394  1.0000
  H   H196      1.0  0.29036  0.30933  0.48467  1.0000
  H   H197      1.0  0.29828  0.03947  0.68822  1.0000
  C   C171      1.0  0.27126  0.11114  0.68875  1.0000
  C   C172      1.0  0.28684  0.10416  0.67162  1.0000
  C   C173      1.0  0.31693  0.10723  0.67555  1.0000
  C   C174      1.0  0.33192  0.11848  0.69651  1.0000
  H   H198      1.0  0.24771  0.10815  0.68564  1.0000
  H   H199      1.0  0.27532  0.09621  0.65541  1.0000
  H   H200      1.0  0.35531  0.12109  0.69959  1.0000
  C   C175      1.0  0.20442  0.16480  0.61177  1.0000
  C   C176      1.0  0.23214  0.16248  0.61487  1.0000
  C   C177      1.0  0.22935  0.13222  0.61823  1.0000
  C   C178      1.0  0.19881  0.10443  0.61873  1.0000
  C   C179      1.0  0.17140  0.10726  0.61655  1.0000
  C   C180      1.0  0.17418  0.13711  0.61284  1.0000
  H   H201      1.0  0.25562  0.18380  0.61415  1.0000
  H   H202      1.0  0.25069  0.13040  0.62033  1.0000
  H   H203      1.0  0.14777  0.08605  0.61715  1.0000
  H   H204      1.0  0.15267  0.13866  0.61061  1.0000
  C   C181      1.0  0.26360  0.38539  0.59678  1.0000
  C   C182      1.0  0.27063  0.41361  0.58544  1.0000
  C   C183      1.0  0.26000  0.43378  0.59402  1.0000
  C   C184      1.0  0.24188  0.42561  0.61388  1.0000
  C   C185      1.0  0.23468  0.39727  0.62520  1.0000
  C   C186      1.0  0.24577  0.37731  0.61680  1.0000
  H   H205      1.0  0.28423  0.41989  0.56988  1.0000
  H   H206      1.0  0.26540  0.45538  0.58506  1.0000
  H   H207      1.0  0.22049  0.39074  0.64051  1.0000
  H   H208      1.0  0.23993  0.35540  0.62551  1.0000
  C   C187      1.0  0.36990  0.28612  0.56783  1.0000
  C   C188      1.0  0.39840  0.28681  0.56192  1.0000
  C   C189      1.0  0.40278  0.27889  0.54002  1.0000
  C   C190      1.0  0.37909  0.27122  0.52369  1.0000
  C   C191      1.0  0.35046  0.27049  0.52950  1.0000
  C   C192      1.0  0.34553  0.27715  0.55174  1.0000
  H   H209      1.0  0.41726  0.29362  0.57432  1.0000
  S   S59       1.0  0.13442  0.50496  0.47704  1.0000
  H   H210      1.0  0.33203  0.26446  0.51688  1.0000
  H   H211      1.0  0.32314  0.27578  0.55626  1.0000
  H   H212      1.0  0.42490  0.27946  0.53556  1.0000
  C   C193      1.0  0.25477  0.27401  0.50696  1.0000
  H   H213      1.0  0.25400  0.25479  0.49734  1.0000
  H   H214      1.0  0.31359  0.02646  0.71093  1.0000
  H   H215      1.0  0.28743  0.38772  0.65703  1.0000
  H   H216      1.0  0.29952  0.20489  0.55292  1.0000
  H   H217      1.0  0.32415  0.23110  0.60532  1.0000
  H   H218      1.0  0.29254  0.35510  0.50479  1.0000
  C   C194      1.0  0.22980  0.21683  0.53687  1.0000
  H   H219      1.0  0.41418  0.20473  0.58246  1.0000
  C   C195      1.0  0.24998  0.31947  0.69705  1.0000
  C   C196      1.0  0.27682  0.31784  0.70440  1.0000
  H   H220      1.0  0.31003  0.26142  0.46689  1.0000
  C   C197      1.0  0.34722  0.50632  0.64573  1.0000
  H   H221      1.0  0.20014  0.21681  0.49844  1.0000
  H   H222      1.0  0.24186  0.31353  0.67981  1.0000
  H   H223      1.0  0.18062  0.08434  0.51798  1.0000
  H   H224      1.0  0.16724  0.08923  0.56654  1.0000
  N   N11       1.0  0.32145  0.41922  0.68214  1.0000
  H   H225      1.0  0.19035  0.49306  0.49587  1.0000
  C   C198      1.0  0.22460  0.41451  0.71439  1.0000
  H   H226      1.0  0.24064  0.21366  0.52118  1.0000
  C   C199      1.0  0.33073  0.44950  0.67013  1.0000
  H   H227      1.0  0.32840  0.39806  0.65225  1.0000
  H   H228      1.0  0.30199  0.43250  0.71006  1.0000
  H   H229      1.0  0.17468  0.22994  0.51058  1.0000
  C   C200      1.0  0.19143  0.07610  0.53095  1.0000
  H   H230      1.0  0.31353  0.20613  0.51249  1.0000
  H   H231      1.0  0.34660  0.18723  0.54515  1.0000
  C   C201      1.0  0.24354  0.46055  0.68985  1.0000
  C   C202      1.0  0.22245  0.08824  0.56466  1.0000
  H   H232      1.0  0.27439  0.18086  0.70584  1.0000
  C   C203      1.0  0.29507  0.41219  0.69823  1.0000
  H   H233      1.0  0.20652  0.06772  0.52246  1.0000
  C   C204      1.0  0.50803  0.47231  0.46973  1.0000
  C   C205      1.0  0.28466  0.18460  0.54219  1.0000
  C   C206      1.0  0.34808  0.41976  0.69523  1.0000
  H   H234      1.0  0.39446  0.41672  0.57284  1.0000
  H   H235      1.0  0.35202  0.15462  0.53813  1.0000
  C   C207      1.0  0.23778  0.13069  0.53747  1.0000
  H   H236      1.0  0.34999  0.44455  0.48751  1.0000
  N   N12       1.0  0.21196  0.23406  0.53280  1.0000
  N   N13       1.0  0.21033  0.10182  0.54751  1.0000
  H   H237      1.0  0.36850  0.42393  0.68412  1.0000
  C   C208      1.0  0.19350  0.23137  0.55361  1.0000
  C   C209      1.0  0.23462  0.26757  0.52603  1.0000
  H   H238      1.0  0.19968  0.12833  0.57198  1.0000
  C   C210      1.0  0.25746  0.32565  0.52973  1.0000
  C   C211      1.0  0.35354  0.43067  0.50035  1.0000
  Fe  Fe32      1.0  0.39096  0.29923  0.47171  1.0000
  C   C212      1.0  0.24321  0.23066  0.70491  1.0000
  S   S60       1.0  0.24849  0.03061  0.63867  1.0000
  S   S61       1.0  0.20514  0.16503  0.47696  1.0000
  H   H239      1.0  0.23114  0.11450  0.50222  1.0000
  C   C213      1.0  0.27679  0.33099  0.51084  1.0000
  C   C214      1.0  0.30784  0.45235  0.65675  1.0000
  H   H240      1.0  0.31385  0.01607  0.65063  1.0000
  H   H241      1.0  0.17788  0.24203  0.55136  1.0000
  H   H242      1.0  0.21286  0.18703  0.65698  1.0000
  C   C215      1.0  0.23020  0.04460  0.48480  1.0000
  H   H243      1.0  0.24352  0.16214  0.67121  1.0000
  H   H244      1.0  0.21377  0.19228  0.54354  1.0000
  H   H245      1.0  0.29715  0.11171  0.50331  1.0000
  C   C216      1.0  0.24345  0.18130  0.68068  1.0000
  C   C217      1.0  0.24675  0.03599  0.52172  1.0000
  H   H246      1.0  0.31932  0.14790  0.55612  1.0000
  H   H247      1.0  0.35249  0.39311  0.58021  1.0000
  H   H248      1.0  0.31362  0.20293  0.64186  1.0000
  H   H249      1.0  0.25356  0.15744  0.56909  1.0000
  C   C218      1.0  0.23677  0.29449  0.53741  1.0000
  C   C219      1.0  0.21623  0.50673  0.49398  1.0000
  N   N14       1.0  0.36748  0.37548  0.55175  1.0000
  C   C220      1.0  0.39450  0.36955  0.54728  1.0000
  C   C221      1.0  0.37365  0.39189  0.57390  1.0000
  C   C222      1.0  0.33769  0.34401  0.55350  1.0000
  C   C223      1.0  0.36322  0.39462  0.53404  1.0000
  C   C224      1.0  0.34017  0.40454  0.53678  1.0000
  C   C225      1.0  0.38085  0.40318  0.51351  1.0000
  C   C226      1.0  0.33555  0.42238  0.52019  1.0000
  C   C227      1.0  0.37611  0.42104  0.49703  1.0000
  S   S62       1.0  0.22880  0.02095  0.58532  1.0000
  H   H250      1.0  0.41777  0.39236  0.54535  1.0000
  H   H251      1.0  0.39763  0.35595  0.56128  1.0000
  H   H252      1.0  0.39026  0.35479  0.53186  1.0000
  H   H253      1.0  0.22267  0.29227  0.55223  1.0000
  H   H254      1.0  0.31785  0.42974  0.52274  1.0000
  H   H255      1.0  0.37900  0.37899  0.58725  1.0000
  H   H256      1.0  0.33254  0.33035  0.53744  1.0000
  H   H257      1.0  0.33971  0.32947  0.56721  1.0000
  H   H258      1.0  0.31634  0.34622  0.55751  1.0000
  H   H259      1.0  0.32531  0.39833  0.55172  1.0000
  H   H260      1.0  0.39859  0.39644  0.50976  1.0000
  H   H261      1.0  0.37720  0.13599  0.56134  1.0000
  C   C228      1.0  0.18792  0.11039  0.55842  1.0000
  H   H262      1.0  0.25835  0.34580  0.53846  1.0000
  C   C229      1.0  0.24560  0.13306  0.51418  1.0000
  H   H263      1.0  0.35226  0.14670  0.61694  1.0000
  H   H264      1.0  0.32867  0.16142  0.64723  1.0000
  H   H265      1.0  0.17087  0.19226  0.51876  1.0000
  C   C230      1.0  0.29794  0.03661  0.70688  1.0000
  H   H266      1.0  0.39761  0.22089  0.56298  1.0000
  C   C231      1.0  0.25569  0.07621  0.48505  1.0000
  H   H267      1.0  0.40949  0.19344  0.55309  1.0000
  H   H268      1.0  0.29818  0.48155  0.63430  1.0000
  S   S63       1.0  0.37176  0.33148  0.48054  1.0000
  S   S64       1.0  0.30209  0.03743  0.60091  1.0000
  H   H269      1.0  0.24115  0.46915  0.67355  1.0000
  H   H270      1.0  0.28332  0.43287  0.65544  1.0000
  H   H271      1.0  0.17120  0.05464  0.53911  1.0000
  N   N15       1.0  0.36555  0.17164  0.57247  1.0000
  C   C232      1.0  0.36842  0.14285  0.57655  1.0000
  C   C233      1.0  0.34503  0.16521  0.55219  1.0000
  C   C234      1.0  0.39813  0.19883  0.56753  1.0000
  C   C235      1.0  0.35175  0.18006  0.59184  1.0000
  C   C236      1.0  0.34643  0.16511  0.61333  1.0000
  C   C237      1.0  0.34387  0.20453  0.58965  1.0000
  C   C238      1.0  0.33273  0.17331  0.63105  1.0000
  C   C239      1.0  0.33001  0.21237  0.60744  1.0000
  C   C240      1.0  0.32427  0.19668  0.62807  1.0000
  H   H272      1.0  0.38564  0.14670  0.59037  1.0000
  H   H273      1.0  0.34465  0.12170  0.58078  1.0000
  H   H274      1.0  0.35690  0.43825  0.70875  1.0000
  C   C241      1.0  0.22337  0.42785  0.69385  1.0000
  H   H275      1.0  0.23987  0.08213  0.55712  1.0000
  C   C242      1.0  0.36225  0.47668  0.67110  1.0000
  C   C243      1.0  0.27558  0.30520  0.49955  1.0000
  C   C244      1.0  0.26078  0.19202  0.70084  1.0000
  C   C245      1.0  0.22629  0.22006  0.68461  1.0000
  H   H276      1.0  0.24938  0.22972  0.54939  1.0000
  H   H277      1.0  0.23479  0.10498  0.57878  1.0000
  C   C246      1.0  0.31004  0.39268  0.66558  1.0000
  C   C247      1.0  0.31609  0.48024  0.64465  1.0000
  H   H278      1.0  0.27871  0.16061  0.48776  1.0000
  H   H279      1.0  0.20259  0.06604  0.57237  1.0000
  S   S65       1.0  0.45140  0.41779  0.48073  1.0000
  C   C248      1.0  0.37021  0.50460  0.65901  1.0000
  H   H280      1.0  0.21354  0.23147  0.67799  1.0000
  H   H281      1.0  0.24336  0.02023  0.53569  1.0000
  H   H282      1.0  0.30485  0.36985  0.67374  1.0000
  Fe  Fe33      1.0  0.24669  0.49884  0.60831  1.0000
  H   H283      1.0  0.35683  0.04119  0.67930  1.0000
  C   C249      1.0  0.26568  0.48097  0.70650  1.0000
  H   H284      1.0  0.20658  0.41284  0.68091  1.0000
  H   H285      1.0  0.38119  0.47700  0.68107  1.0000
  H   H286      1.0  0.24765  0.03788  0.69132  1.0000
  C   C250      1.0  0.26049  0.21650  0.71395  1.0000
  H   H287      1.0  0.21428  0.33225  0.70619  1.0000
  H   H288      1.0  0.27306  0.20790  0.48224  1.0000
  C   C251      1.0  0.23423  0.32978  0.71202  1.0000
  H   H289      1.0  0.27248  0.40708  0.68963  1.0000
  C   C252      1.0  0.26456  0.21755  0.46942  1.0000
  H   H290      1.0  0.30930  0.06083  0.71449  1.0000
  N   N16       1.0  0.26482  0.01617  0.71539  1.0000
  C   C253      1.0  0.24585  0.03176  0.70957  1.0000
  H   H291      1.0  0.32467  0.50880  0.68911  1.0000
  C   C254      1.0  0.34817  0.01669  0.67409  1.0000
  H   H292      1.0  0.22004  0.01636  0.71414  1.0000
  H   H293      1.0  0.25933  0.09179  0.47090  1.0000
  S   S66       1.0  0.04717  0.43155  0.47076  1.0000
  C   C255      1.0  0.22999  0.51187  0.47242  1.0000
  C   C256      1.0  0.38558  0.37897  0.87496  1.0000
  H   H294      1.0  0.33037  0.35443  0.85136  1.0000
  C   C257      1.0  0.28702  0.32529  0.72675  1.0000
  Fe  Fe34      1.0  0.33423  0.39207  0.78780  1.0000
  H   H295      1.0  0.37710  0.35361  0.87033  1.0000
  S   S67       1.0  0.35895  0.36295  0.78170  1.0000
  H   H296      1.0  0.37830  0.04017  0.87454  1.0000
  H   H297      1.0  0.32831  0.26370  0.74384  1.0000
  C   C258      1.0  0.25427  0.15895  0.86651  1.0000
  C   C259      1.0  0.33648  0.02913  0.89544  1.0000
  H   H298      1.0  0.30287  0.19797  0.86905  1.0000
  H   H299      1.0  0.25061  0.16650  0.85007  1.0000
  Fe  Fe35      1.0  0.30336  0.41713  0.82052  1.0000
  S   S68       1.0  0.35307  0.43960  0.80561  1.0000
  S   S69       1.0  0.29786  0.42143  0.85809  1.0000
  S   S70       1.0  0.28614  0.36889  0.80466  1.0000
  S   S71       1.0  0.28244  0.43358  0.79322  1.0000
  Fe  Fe36      1.0  0.25388  0.10472  0.81424  1.0000
  S   S72       1.0  0.30036  0.13913  0.83076  1.0000
  S   S73       1.0  0.21091  0.06917  0.83459  1.0000
  Fe  Fe37      1.0  0.28037  0.13094  0.76739  1.0000
  S   S74       1.0  0.32940  0.16715  0.78020  1.0000
  H   H300      1.0  0.28378  0.48009  0.74018  1.0000
  Fe  Fe38      1.0  0.32283  0.12624  0.80246  1.0000
  S   S75       1.0  0.35545  0.10706  0.81166  1.0000
  Fe  Fe39      1.0  0.30194  0.17657  0.80716  1.0000
  S   S76       1.0  0.30637  0.22250  0.82146  1.0000
  S   S77       1.0  0.27604  0.08964  0.78727  1.0000
  S   S78       1.0  0.25328  0.14258  0.79287  1.0000
  H   H301      1.0  0.20145  0.04413  0.91752  1.0000
  H   H302      1.0  0.38213  0.40004  0.82108  1.0000
  C   C260      1.0  0.35434  0.30367  0.78315  1.0000
  C   C261      1.0  0.34274  0.27235  0.79144  1.0000
  C   C262      1.0  0.31934  0.26016  0.80845  1.0000
  C   C263      1.0  0.30720  0.27932  0.81659  1.0000
  H   H303      1.0  0.37311  0.31326  0.77049  1.0000
  H   H304      1.0  0.35275  0.25813  0.78529  1.0000
  H   H305      1.0  0.34658  0.49950  0.91957  1.0000
  C   C264      1.0  0.24536  0.33831  0.73424  1.0000
  C   C265      1.0  0.35190  0.08289  0.76921  1.0000
  C   C266      1.0  0.35320  0.07833  0.79237  1.0000
  H   H306      1.0  0.15997  0.05231  0.90492  1.0000
  H   H307      1.0  0.35213  0.10410  0.76313  1.0000
  H   H308      1.0  0.26872  0.26533  0.74477  1.0000
  H   H309      1.0  0.33497  0.39204  0.84278  1.0000
  H   H310      1.0  0.37415  0.37811  0.89142  1.0000
  C   C267      1.0  0.21689  0.04112  0.84949  1.0000
  C   C268      1.0  0.24598  0.04127  0.84790  1.0000
  C   C269      1.0  0.25007  0.01834  0.85962  1.0000
  C   C270      1.0  0.35245  0.02839  0.78466  1.0000
  H   H311      1.0  0.27932  0.34061  0.75889  1.0000
  H   H312      1.0  0.26514  0.05867  0.83730  1.0000
  H   H313      1.0  0.31246  0.18041  0.90602  1.0000
  C   C271      1.0  0.26483  0.13898  0.90817  1.0000
  H   H314      1.0  0.20891  0.38914  0.71753  1.0000
  H   H315      1.0  0.16926  0.01738  0.86401  1.0000
  C   C272      1.0  0.32453  0.46505  0.89259  1.0000
  C   C273      1.0  0.32184  0.46019  0.86914  1.0000
  H   H316      1.0  0.24770  0.48640  0.85560  1.0000
  H   H317      1.0  0.27845  0.24848  0.76749  1.0000
  C   C274      1.0  0.34218  0.32283  0.79136  1.0000
  H   H318      1.0  0.31177  0.44485  0.90380  1.0000
  C   C275      1.0  0.31822  0.31024  0.80793  1.0000
  C   C276      1.0  0.39146  0.42978  0.86300  1.0000
  H   H319      1.0  0.29524  0.02822  0.91240  1.0000
  C   C277      1.0  0.38474  0.43891  0.88416  1.0000
  H   H320      1.0  0.24748  0.42318  0.74673  1.0000
  H   H321      1.0  0.33098  0.38195  0.87191  1.0000
  H   H322      1.0  0.29745  0.07213  0.89140  1.0000
  C   C278      1.0  0.27107  0.33497  0.74167  1.0000
  H   H323      1.0  0.30775  0.32413  0.73258  1.0000
  H   H324      1.0  0.32695  0.13218  0.73037  1.0000
  H   H325      1.0  0.24637  0.50073  0.82808  1.0000
  H   H326      1.0  0.29242  0.21073  0.76446  1.0000
  H   H327      1.0  0.26500  0.49133  0.95845  1.0000
  S   S79       1.0  0.31886  0.40961  0.75793  1.0000
  H   H328      1.0  0.41573  0.40078  0.83527  1.0000
  H   H329      1.0  0.35508  0.04768  0.81796  1.0000
  C   C279      1.0  0.24637  0.43375  0.73087  1.0000
  H   H330      1.0  0.39208  0.47749  0.90620  1.0000
  S   S80       1.0  0.26319  0.12567  0.73159  1.0000
  H   H331      1.0  0.25754  0.18137  0.74941  1.0000
  C   C280      1.0  0.34418  0.49591  0.90153  1.0000
  H   H332      1.0  0.31241  0.27423  0.72014  1.0000
  C   C281      1.0  0.26594  0.24239  0.75088  1.0000
  H   H333      1.0  0.41736  0.45050  0.83121  1.0000
  H   H334      1.0  0.36886  0.42122  0.89620  1.0000
  H   H335      1.0  0.25477  0.05490  0.71860  1.0000
  C   C282      1.0  0.38913  0.39005  0.83543  1.0000
  H   H336      1.0  0.37847  0.36410  0.83158  1.0000
  C   C283      1.0  0.33793  0.08046  0.87111  1.0000
  C   C284      1.0  0.36041  0.07115  0.86647  1.0000
  C   C285      1.0  0.34198  0.38024  0.85585  1.0000
  C   C286      1.0  0.31512  0.06500  0.88800  1.0000
  C   C287      1.0  0.23427  0.12037  0.89782  1.0000
  C   C288      1.0  0.02815  0.49105  0.96315  1.0000
  H   H337      1.0  0.43797  0.50578  0.84173  1.0000
  C   C289      1.0  0.28919  0.16673  0.89795  1.0000
  N   N17       1.0  0.37747  0.39548  0.85727  1.0000
  C   C290      1.0  0.19215  0.01825  0.86315  1.0000
  N   N18       1.0  0.27969  0.22861  0.73494  1.0000
  H   H338      1.0  0.03727  0.50043  0.94644  1.0000
  H   H339      1.0  0.22310  0.02356  0.79062  1.0000
  H   H340      1.0  0.28921  0.27021  0.82980  1.0000
  H   H341      1.0  0.20782  0.11818  0.86692  1.0000
  H   H342      1.0  0.18165  0.06725  0.87916  1.0000
  H   H343      1.0  0.27350  0.03862  0.74823  1.0000
  C   C291      1.0  0.35376  0.05116  0.80008  1.0000
  H   H344      1.0  0.30862  0.32454  0.81450  1.0000
  C   C292      1.0  0.35202  0.06089  0.75385  1.0000
  H   H345      1.0  0.09579  0.02036  0.95160  1.0000
  Fe  Fe40      1.0  0.27132  0.38799  0.77551  1.0000
  H   H346      1.0  0.29757  0.19560  0.73870  1.0000
  S   S81       1.0  0.23070  0.35736  0.75188  1.0000
  C   C293      1.0  0.22976  0.13113  0.87652  1.0000
  H   H347      1.0  0.27237  0.01825  0.85787  1.0000
  C   C294      1.0  0.28388  0.17671  0.87718  1.0000
  H   H348      1.0  0.33636  0.48270  0.83669  1.0000
  C   C295      1.0  0.28179  0.20298  0.74732  1.0000
  C   C296      1.0  0.31262  0.25390  0.72876  1.0000
  H   H349      1.0  0.33810  0.09960  0.86144  1.0000
  H   H350      1.0  0.23998  0.22532  0.75406  1.0000
  C   C297      1.0  0.41131  0.45492  0.84785  1.0000
  Fe  Fe41      1.0  0.33129  0.45388  0.77751  1.0000
  C   C298      1.0  0.33826  0.48632  0.85472  1.0000
  C   C299      1.0  0.35999  0.04610  0.87855  1.0000
  C   C300      1.0  0.31411  0.03956  0.89996  1.0000
  H   H351      1.0  0.36685  0.03265  0.93452  1.0000
  C   C301      1.0  0.26685  0.46639  0.72699  1.0000
  H   H352      1.0  0.35300  0.06565  0.73601  1.0000
  N   N19       1.0  0.20910  0.09084  0.90890  1.0000
  C   C302      1.0  0.17828  0.07459  0.89624  1.0000
  C   C303      1.0  0.22078  0.06786  0.91128  1.0000
  C   C304      1.0  0.20190  0.09844  0.93167  1.0000
  H   H353      1.0  0.37816  0.08348  0.85331  1.0000
  H   H354      1.0  0.16767  0.09027  0.89437  1.0000
  H   H355      1.0  0.24099  0.07617  0.92342  1.0000
  H   H356      1.0  0.22941  0.06393  0.89484  1.0000
  H   H357      1.0  0.19455  0.11684  0.93072  1.0000
  H   H358      1.0  0.18202  0.07684  0.94000  1.0000
  H   H359      1.0  0.22276  0.10736  0.94329  1.0000
  H   H360      1.0  0.27021  0.13192  0.92412  1.0000
  H   H361      1.0  0.20813  0.50136  0.87045  1.0000
  H   H362      1.0  0.41208  0.39115  0.87760  1.0000
  C   C305      1.0  0.41674  0.49507  0.87473  1.0000
  C   C306      1.0  0.42349  0.48701  0.85370  1.0000
  H   H363      1.0  0.32413  0.24473  0.71696  1.0000
  C   C307      1.0  0.35164  0.03329  0.76148  1.0000
  C   C308      1.0  0.39765  0.47107  0.88999  1.0000
  S   S82       1.0  0.35151  0.50048  0.75812  1.0000
  H   H364      1.0  0.31818  0.49479  0.95791  1.0000
  H   H365      1.0  0.38819  0.02759  0.91151  1.0000
  C   C309      1.0  0.25825  0.50827  0.84486  1.0000
  H   H366      1.0  0.33463  0.50869  0.80354  1.0000
  C   C310      1.0  0.26585  0.01487  0.74043  1.0000
  C   C311      1.0  0.36586  0.01521  0.92179  1.0000
  H   H367      1.0  0.20553  0.51136  0.84155  1.0000
  H   H368      1.0  0.05279  0.46427  0.96492  1.0000
  Fe  Fe42      1.0  0.27489  0.81293  0.09327  1.0000
  S   S83       1.0  0.24478  0.77708  0.06708  1.0000
  S   S84       1.0  0.30789  0.86247  0.08065  1.0000
  Fe  Fe43      1.0  0.24828  0.76380  0.13033  1.0000
  S   S85       1.0  0.21577  0.72403  0.10688  1.0000
  S   S86       1.0  0.25226  0.75462  0.16704  1.0000
  Fe  Fe44      1.0  0.25930  0.74528  0.08434  1.0000
  S   S87       1.0  0.27457  0.71546  0.06449  1.0000
  Fe  Fe45      1.0  0.20472  0.76046  0.09212  1.0000
  S   S88       1.0  0.15917  0.75337  0.07548  1.0000
  S   S89       1.0  0.29244  0.78237  0.10873  1.0000
  S   S90       1.0  0.23400  0.79877  0.11739  1.0000
  H   H369      1.0  0.39597  0.62580  0.06073  1.0000
  H   H370      1.0  0.17608  0.83777  0.02502  1.0000
  H   H371      1.0  0.30528  0.58315  0.07184  1.0000
  C   C312      1.0  0.41158  0.83241  0.99666  1.0000
  C   C313      1.0  0.37610  0.72322  0.02778  1.0000
  Fe  Fe46      1.0  0.03166  0.80163  0.10923  1.0000
  S   S91       1.0  0.04677  0.85375  0.10903  1.0000
  S   S92       1.0  0.06536  0.78893  0.12711  1.0000
  H   H372      1.0  0.51532  0.64555  0.10399  1.0000
  H   H373      1.0  0.16345  0.59913  0.19315  1.0000
  H   H374      1.0  0.39800  0.60128  0.19077  1.0000
  S   S93       1.0  0.04516  0.87823  0.04623  1.0000
  H   H375      1.0  0.22099  0.67157  0.98744  1.0000
  H   H376      1.0  0.37320  0.56785  0.15709  1.0000
  H   H377      1.0  0.48657  0.55631  0.04357  1.0000
  N   N20       1.0  0.20647  0.63240  0.17509  1.0000
  H   H378      1.0  0.42079  0.82349  0.98291  1.0000
  H   H379      1.0  0.19874  0.82462  0.08098  1.0000
  C   C314      1.0  0.06057  0.95262  0.18185  1.0000
  C   C315      1.0  0.22759  0.63816  0.19490  1.0000
  H   H380      1.0  0.35590  0.77961  0.01795  1.0000
  C   C316      1.0  0.36185  0.79825  0.15603  1.0000
  S   S94       1.0  0.18719  0.60240  0.98326  1.0000
  H   H381      1.0  0.38862  0.76684  0.08857  1.0000
  C   C317      1.0  0.30071  0.59614  0.05894  1.0000
  H   H382      1.0  0.04023  0.58916  0.07538  1.0000
  C   C318      1.0  0.04178  0.91564  0.15012  1.0000
  C   C319      1.0  0.06515  0.94446  0.16001  1.0000
  H   H383      1.0  0.27854  0.73482  0.98945  1.0000
  H   H384      1.0  0.04558  0.90924  0.13339  1.0000
  Fe  Fe47      1.0  0.46325  0.53284  0.11603  1.0000
  C   C320      1.0  0.07640  0.87832  0.03069  1.0000
  C   C321      1.0  0.08464  0.85457  0.03356  1.0000
  C   C322      1.0  0.10849  0.85444  0.01983  1.0000
  C   C323      1.0  0.12449  0.87838  0.00354  1.0000
  C   C324      1.0  0.09612  0.54216  0.00296  1.0000
  C   C325      1.0  0.09229  0.90201  0.01434  1.0000
  H   H385      1.0  0.07258  0.83624  0.04623  1.0000
  H   H386      1.0  0.11467  0.83596  0.02191  1.0000
  H   H387      1.0  0.38181  0.65475  0.02089  1.0000
  H   H388      1.0  0.08607  0.92043  0.01196  1.0000
  H   H389      1.0  0.38097  0.82806  0.03524  1.0000
  H   H390      1.0  0.36153  0.61830  0.00451  1.0000
  C   C326      1.0  0.38659  0.79571  0.16719  1.0000
  C   C327      1.0  0.25734  0.63332  0.11472  1.0000
  H   H391      1.0  0.24803  0.66967  0.10242  1.0000
  H   H392      1.0  0.06757  0.62634  0.98717  1.0000
  H   H393      1.0  0.40451  0.74968  0.13334  1.0000
  N   N21       1.0  0.35368  0.61160  0.04038  1.0000
  H   H394      1.0  0.29007  0.66663  0.06662  1.0000
  S   S95       1.0  0.39344  0.53563  0.01158  1.0000
  C   C328      1.0  0.24090  0.93452  0.02405  1.0000
  H   H395      1.0  0.46389  0.83969  0.03767  1.0000
  H   H396      1.0  0.39209  0.71765  0.97697  1.0000
  C   C329      1.0  0.23337  0.88615  0.04320  1.0000
  C   C330      1.0  0.38947  0.80118  0.19088  1.0000
  H   H397      1.0  0.21757  0.68149  0.17391  1.0000
  H   H398      1.0  0.10697  0.56649  0.99556  1.0000
  C   C331      1.0  0.40551  0.79038  0.02193  1.0000
  H   H399      1.0  0.26630  0.82282  0.98199  1.0000
  C   C332      1.0  0.27617  0.73704  0.17101  1.0000
  C   C333      1.0  0.28659  0.73505  0.19270  1.0000
  H   H400      1.0  0.02401  0.86219  0.99951  1.0000
  C   C334      1.0  0.31256  0.70702  0.17772  1.0000
  C   C335      1.0  0.30210  0.70895  0.15608  1.0000
  C   C336      1.0  0.28427  0.72427  0.15268  1.0000
  H   H401      1.0  0.44974  0.78222  0.15802  1.0000
  C   C337      1.0  0.21454  0.84968  0.07509  1.0000
  H   H402      1.0  0.30755  0.69835  0.14191  1.0000
  H   H403      1.0  0.27608  0.72540  0.13593  1.0000
  C   C338      1.0  0.31041  0.71674  0.07290  1.0000
  H   H404      1.0  0.10925  0.86323  0.17929  1.0000
  H   H405      1.0  0.48302  0.67806  0.11249  1.0000
  C   C339      1.0  0.35801  0.57912  0.15664  1.0000
  C   C340      1.0  0.22096  0.90275  0.03078  1.0000
  C   C341      1.0  0.33828  0.74515  0.07929  1.0000
  C   C342      1.0  0.03232  0.93223  0.19359  1.0000
  S   S96       1.0  0.33293  0.68584  0.18163  1.0000
  H   H406      1.0  0.44959  0.81131  0.17623  1.0000
  H   H407      1.0  0.33801  0.76736  0.07968  1.0000
  C   C343      1.0  0.13412  0.76462  0.08982  1.0000
  C   C344      1.0  0.10960  0.76601  0.07792  1.0000
  C   C345      1.0  0.08888  0.77431  0.08898  1.0000
  C   C346      1.0  0.09220  0.78066  0.11215  1.0000
  C   C347      1.0  0.11688  0.77950  0.12398  1.0000
  C   C348      1.0  0.13798  0.77182  0.11284  1.0000
  H   H408      1.0  0.10641  0.76039  0.06012  1.0000
  H   H409      1.0  0.06990  0.77503  0.07972  1.0000
  H   H410      1.0  0.11955  0.78430  0.14191  1.0000
  H   H411      1.0  0.15671  0.77073  0.12219  1.0000
  C   C349      1.0  0.32015  0.85762  0.05384  1.0000
  C   C350      1.0  0.33024  0.88177  0.03759  1.0000
  C   C351      1.0  0.33607  0.87595  0.01538  1.0000
  C   C352      1.0  0.33142  0.84590  0.00946  1.0000
  C   C353      1.0  0.32216  0.82215  0.02584  1.0000
  C   C354      1.0  0.31734  0.82829  0.04809  1.0000
  H   H412      1.0  0.33290  0.90467  0.04201  1.0000
  H   H413      1.0  0.34335  0.89447  0.00274  1.0000
  H   H414      1.0  0.31918  0.79917  0.02145  1.0000
  H   H415      1.0  0.31125  0.81015  0.06080  1.0000
  C   C355      1.0  0.31491  0.62863  0.02520  1.0000
  C   C356      1.0  0.28506  0.62705  0.02592  1.0000
  C   C357      1.0  0.27083  0.59448  0.05938  1.0000
  C   C358      1.0  0.26290  0.60963  0.04276  1.0000
  H   H416      1.0  0.33068  0.64224  0.01155  1.0000
  H   H417      1.0  0.18637  0.68944  0.02182  1.0000
  H   H418      1.0  0.18445  0.65647  0.19173  1.0000
  H   H419      1.0  0.23956  0.60795  0.04292  1.0000
  H   H420      1.0  0.36009  0.61343  0.07661  1.0000
  C   C359      1.0  0.06094  0.61061  0.97273  1.0000
  C   C360      1.0  0.44117  0.58997  0.06634  1.0000
  H   H421      1.0  0.07170  0.88721  0.18302  1.0000
  C   C361      1.0  0.31126  0.68837  0.07185  1.0000
  C   C362      1.0  0.25128  0.77432  0.99145  1.0000
  C   C363      1.0  0.19747  0.53776  0.20000  1.0000
  H   H422      1.0  0.14654  0.58885  0.02512  1.0000
  C   C364      1.0  0.26440  0.72547  0.00530  1.0000
  Fe  Fe48      1.0  0.50917  0.80379  0.06379  1.0000
  N   N22       1.0  0.40820  0.78802  0.15424  1.0000
  H   H423      1.0  0.27890  0.63909  0.01315  1.0000
  H   H424      1.0  0.32266  0.80769  0.15890  1.0000
  H   H425      1.0  0.35761  0.79370  0.13816  1.0000
  C   C365      1.0  0.49827  0.60113  0.02854  1.0000
  H   H426      1.0  0.36479  0.60554  0.19895  1.0000
  H   H427      1.0  0.14467  0.56528  0.04907  1.0000
  C   C366      1.0  0.25430  0.56063  0.19150  1.0000
  H   H428      1.0  0.26643  0.55581  0.00606  1.0000
  C   C367      1.0  0.24648  0.54574  0.17038  1.0000
  Fe  Fe49      1.0  0.41272  0.56966  0.98237  1.0000
  H   H429      1.0  0.33730  0.56483  0.16816  1.0000
  H   H430      1.0  0.21064  0.81303  0.97866  1.0000
  H   H431      1.0  0.44187  0.80784  0.12674  1.0000
  H   H432      1.0  0.36477  0.65101  0.16774  1.0000
  C   C368      1.0  0.37036  0.69525  0.97339  1.0000
  H   H433      1.0  0.36480  0.69768  0.03036  1.0000
  H   H434      1.0  0.10187  0.59813  0.02046  1.0000
  C   C369      1.0  0.23428  0.51801  0.02837  1.0000
  H   H435      1.0  0.38522  0.82152  0.99429  1.0000
  C   C370      1.0  0.37300  0.62618  0.06102  1.0000
  H   H436      1.0  0.27607  0.78019  0.99214  1.0000
  H   H437      1.0  0.34382  0.95298  0.97296  1.0000
  S   S97       1.0  0.48637  0.90275  0.97663  1.0000
  H   H438      1.0  0.41204  0.83213  0.05395  1.0000
  H   H439      1.0  0.28877  0.97530  0.02419  1.0000
  C   C371      1.0  0.32338  0.61256  0.04149  1.0000
  C   C372      1.0  0.40731  0.83799  0.03675  1.0000
  H   H440      1.0  0.34823  0.57629  0.13925  1.0000
  H   H441      1.0  0.08694  0.96024  0.15085  1.0000
  N   N23       1.0  0.23007  0.71603  0.00208  1.0000
  C   C373      1.0  0.36720  0.71599  0.08363  1.0000
  H   H442      1.0  0.37916  0.65159  0.06283  1.0000
  H   H443      1.0  0.29611  0.96044  0.97600  1.0000
  C   C374      1.0  0.22530  0.74307  0.99605  1.0000
  H   H444      1.0  0.04514  0.94008  0.04727  1.0000
  H   H445      1.0  0.10585  0.52961  0.99275  1.0000
  C   C375      1.0  0.18863  0.76335  0.98786  1.0000
  H   H446      1.0  0.27921  0.57465  0.19662  1.0000
  H   H447      1.0  0.03644  0.53838  0.08684  1.0000
  C   C376      1.0  0.42443  0.81212  0.13618  1.0000
  H   H448      1.0  0.46711  0.83642  0.00748  1.0000
  C   C377      1.0  0.24445  0.65340  0.11618  1.0000
  C   C378      1.0  0.36876  0.80868  0.20248  1.0000
  H   H449      1.0  0.19599  0.89180  0.02590  1.0000
  H   H450      1.0  0.23107  0.94670  0.01447  1.0000
  C   C379      1.0  0.19647  0.65691  0.17557  1.0000
  S   S98       1.0  0.27594  0.66616  0.97017  1.0000
  H   H451      1.0  0.22067  0.71908  0.03719  1.0000
  C   C380      1.0  0.40643  0.52539  0.05424  1.0000
  C   C381      1.0  0.26670  0.90340  0.04839  1.0000
  Fe  Fe50      1.0  0.50370  0.81678  0.11264  1.0000
  C   C382      1.0  0.24592  0.79920  0.98542  1.0000
  H   H452      1.0  0.33121  0.72201  0.02329  1.0000
  S   S99       1.0  0.46049  0.57661  0.10687  1.0000
  H   H453      1.0  0.21879  0.66982  0.13563  1.0000
  C   C383      1.0  0.37159  0.77005  0.02091  1.0000
  H   H454      1.0  0.50038  0.53636  0.00248  1.0000
  H   H455      1.0  0.25340  0.58055  0.07232  1.0000
  H   H456      1.0  0.19058  0.68146  0.98154  1.0000
  H   H457      1.0  0.31186  0.94768  0.04554  1.0000
  H   H458      1.0  0.27786  0.89238  0.05769  1.0000
  H   H459      1.0  0.15263  0.55545  0.02146  1.0000
  Fe  Fe51      1.0  0.45256  0.75465  0.09070  1.0000
  C   C384      1.0  0.19375  0.73830  0.99389  1.0000
  C   C385      1.0  0.45568  0.84337  0.02100  1.0000
  H   H460      1.0  0.40740  0.79965  0.20088  1.0000
  H   H461      1.0  0.31326  0.71905  0.21278  1.0000
  H   H462      1.0  0.39672  0.62768  0.02023  1.0000
  C   C386      1.0  0.07120  0.59626  0.04700  1.0000
  H   H463      1.0  0.42324  0.76902  0.18164  1.0000
  H   H464      1.0  0.02512  0.95735  0.06255  1.0000
  H   H465      1.0  0.17276  0.71501  0.99659  1.0000
  C   C387      1.0  0.08556  0.55475  0.04059  1.0000
  H   H466      1.0  0.21653  0.64021  0.21084  1.0000
  H   H467      1.0  0.21794  0.68210  0.02930  1.0000
  C   C388      1.0  0.22355  0.63298  0.15412  1.0000
  C   C389      1.0  0.05150  0.86232  0.18558  1.0000
  H   H468      1.0  0.40729  0.81183  0.12352  1.0000
  C   C390      1.0  0.32008  0.98048  0.97863  1.0000
  S   S100      1.0  0.15444  0.87871  0.98625  1.0000
  H   H469      1.0  0.03984  0.85330  0.16887  1.0000
  H   H470      1.0  0.16461  0.81231  0.04922  1.0000
  C   C391      1.0  0.18970  0.52358  0.17868  1.0000
  C   C392      1.0  0.36693  0.74489  0.08425  1.0000
  H   H471      1.0  0.40257  0.64025  0.19242  1.0000
  H   H472      1.0  0.16757  0.85051  0.05158  1.0000
  H   H473      1.0  0.23913  0.85695  0.08128  1.0000
  H   H474      1.0  0.51921  0.85044  0.20964  1.0000
  C   C393      1.0  0.21291  0.70103  0.02344  1.0000
  C   C394      1.0  0.17895  0.83773  0.04366  1.0000
  N   N24       1.0  0.21335  0.85229  0.05021  1.0000
  C   C395      1.0  0.05068  0.55104  0.07216  1.0000
  H   H475      1.0  0.36986  0.75421  0.13251  1.0000
  H   H476      1.0  0.26320  0.59708  0.13133  1.0000
  H   H477      1.0  0.27076  0.63382  0.09992  1.0000
  H   H478      1.0  0.26708  0.70475  0.01041  1.0000
  H   H479      1.0  0.16080  0.59507  0.16286  1.0000
  H   H480      1.0  0.18281  0.58104  0.17887  1.0000
  H   H481      1.0  0.37736  0.73724  0.15679  1.0000
  C   C396      1.0  0.34170  0.80633  0.16773  1.0000
  C   C397      1.0  0.50139  0.70596  0.97341  1.0000
  H   H482      1.0  0.33988  0.71564  0.97680  1.0000
  H   H483      1.0  0.22775  0.83625  0.02105  1.0000
  S   S101      1.0  0.19574  0.97060  0.98681  1.0000
  S   S102      1.0  0.48241  0.76515  0.12193  1.0000
  Fe  Fe52      1.0  0.18125  0.92555  0.96729  1.0000
  C   C398      1.0  0.34596  0.57784  0.03878  1.0000
  H   H484      1.0  0.20654  0.86492  0.08372  1.0000
  S   S103      1.0  0.47036  0.80620  0.08321  1.0000
  C   C399      1.0  0.21681  0.53737  0.99699  1.0000
  H   H485      1.0  0.39213  0.66448  0.13313  1.0000
  C   C400      1.0  0.40945  0.65655  0.13457  1.0000
  Fe  Fe53      1.0  0.24363  0.98845  0.96980  1.0000
  Fe  Fe54      1.0  0.37770  0.88335  0.96758  1.0000
  S   S104      1.0  0.41485  0.91910  0.99097  1.0000
  C   C401      1.0  0.38578  0.61514  0.18731  1.0000
  H   H486      1.0  0.44078  0.69265  0.11085  1.0000
  C   C402      1.0  0.37420  0.62889  0.02066  1.0000
  C   C403      1.0  0.17711  0.60058  0.17758  1.0000
  C   C404      1.0  0.41033  0.54857  0.03853  1.0000
  S   S105      1.0  0.41030  0.67103  0.97061  1.0000
  S   S106      1.0  0.48894  0.75121  0.06885  1.0000
  C   C405      1.0  0.32426  0.01063  0.98406  1.0000
  H   H487      1.0  0.42736  0.60373  0.15961  1.0000
  S   S107      1.0  0.33786  0.83793  0.98181  1.0000
  Fe  Fe55      1.0  0.02408  0.84323  0.07476  1.0000
  H   H488      1.0  0.25052  0.83993  0.04588  1.0000
  H   H489      1.0  0.07307  0.61877  0.04215  1.0000
  H   H490      1.0  0.23400  0.59620  0.16510  1.0000
  H   H491      1.0  0.25102  0.66063  0.19276  1.0000
  H   H492      1.0  0.43815  0.83669  0.14338  1.0000
  C   C406      1.0  0.22761  0.65323  0.13550  1.0000
  C   C407      1.0  0.35314  0.62560  0.16222  1.0000
  C   C408      1.0  0.46128  0.66485  0.12244  1.0000
  C   C409      1.0  0.49598  0.71846  0.99297  1.0000
  C   C410      1.0  0.28640  0.93512  0.04154  1.0000
  H   H493      1.0  0.03989  0.95899  0.01126  1.0000
  C   C411      1.0  0.42935  0.62299  0.14923  1.0000
  H   H494      1.0  0.33893  0.66539  0.07730  1.0000
  C   C412      1.0  0.33910  0.68779  0.07774  1.0000
  H   H495      1.0  0.06979  0.53002  0.00001  1.0000
  H   H496      1.0  0.42990  0.59905  0.03284  1.0000
  C   C413      1.0  0.45716  0.63973  0.13617  1.0000
  S   S108      1.0  0.40155  0.71314  0.08992  1.0000
  S   S109      1.0  0.45097  0.62103  0.98645  1.0000
  H   H497      1.0  0.16430  0.75907  0.98632  1.0000
  H   H498      1.0  0.47552  0.63301  0.13666  1.0000
  C   C414      1.0  0.21417  0.52743  0.16395  1.0000
  C   C415      1.0  0.13833  0.56404  0.03090  1.0000
  C   C416      1.0  0.30531  0.72058  0.19601  1.0000
  H   H499      1.0  0.32923  0.56533  0.02447  1.0000
  H   H500      1.0  0.45524  0.61498  0.07084  1.0000
  S   S110      1.0  0.40736  0.69678  0.21068  1.0000
  H   H501      1.0  0.33422  0.56392  0.05428  1.0000
  H   H502      1.0  0.02688  0.80026  0.00213  1.0000
  H   H503      1.0  0.21043  0.80707  0.04334  1.0000
  H   H504      1.0  0.45005  0.78877  0.02667  1.0000
  C   C417      1.0  0.22605  0.83306  0.03966  1.0000
  H   H505      1.0  0.36775  0.57588  0.03601  1.0000
  H   H506      1.0  0.34322  0.62347  0.14496  1.0000
  C   C418      1.0  0.05279  0.57971  0.06572  1.0000
  H   H507      1.0  0.33181  0.61193  0.17339  1.0000
  H   H508      1.0  0.27568  0.74365  0.01892  1.0000
  N   N25       1.0  0.37584  0.61323  0.16342  1.0000
  H   H509      1.0  0.03745  0.84378  0.97950  1.0000
  H   H510      1.0  0.17908  0.65311  0.16189  1.0000
  C   C419      1.0  0.40468  0.63099  0.14898  1.0000
  C   C420      1.0  0.11642  0.90216  0.00100  1.0000
  C   C421      1.0  0.42412  0.77545  0.02580  1.0000
  S   S111      1.0  0.09009  0.98846  0.19421  1.0000
  C   C422      1.0  0.43870  0.56655  0.08147  1.0000
  N   N26       1.0  0.06248  0.84142  0.19554  1.0000
  C   C423      1.0  0.38921  0.75603  0.14371  1.0000
  C   C424      1.0  0.27348  0.95068  0.02945  1.0000
  C   C425      1.0  0.25319  0.61274  0.13244  1.0000
  C   C426      1.0  0.23650  0.61247  0.15180  1.0000
  C   C427      1.0  0.43744  0.67310  0.12158  1.0000
  H   H511      1.0  0.23296  0.61860  0.19767  1.0000
  S   S112      1.0  0.50829  0.85001  0.14076  1.0000
  C   C428      1.0  0.42711  0.58096  0.04474  1.0000
  C   C429      1.0  0.21467  0.79372  0.98356  1.0000
  H   H512      1.0  0.03330  0.86348  0.19659  1.0000
  H   H513      1.0  0.42401  0.73150  0.03204  1.0000
  C   C430      1.0  0.35721  0.73701  0.02382  1.0000
  C   C431      1.0  0.08750  0.58413  0.03465  1.0000
  N   N27       1.0  0.42001  0.82540  0.01916  1.0000
  C   C432      1.0  0.21694  0.69181  0.98387  1.0000
  C   C433      1.0  0.22975  0.55627  0.20644  1.0000
  C   C434      1.0  0.06677  0.53860  0.05991  1.0000
  H   H514      1.0  0.02319  0.98035  0.02489  1.0000
  N   N28       1.0  0.10335  0.54263  0.02737  1.0000
  S   S113      1.0  0.27689  0.54959  0.15211  1.0000
  H   H515      1.0  0.28041  0.74496  0.20691  1.0000
  H   H516      1.0  0.12877  0.92066  0.98861  1.0000
  H   H517      1.0  0.46570  0.86960  0.01908  1.0000
  S   S114      1.0  0.49923  0.53072  0.13884  1.0000
  C   C435      1.0  0.08608  0.84016  0.17994  1.0000
  H   H518      1.0  0.41827  0.86444  0.03551  1.0000
  C   C436      1.0  0.43366  0.78764  0.16821  1.0000
  H   H519      1.0  0.42200  0.85856  0.99402  1.0000
  C   C437      1.0  0.40944  0.74235  0.02876  1.0000
  S   S115      1.0  0.15384  0.51272  0.98525  1.0000
  H   H520      1.0  0.48306  0.59003  0.01397  1.0000
  H   H521      1.0  0.32864  0.81665  0.19996  1.0000
  C   C438      1.0  0.31225  0.66546  0.96903  1.0000
  H   H522      1.0  0.47213  0.71457  0.99652  1.0000
  H   H523      1.0  0.09134  0.82108  0.18500  1.0000
  C   C439      1.0  0.34708  0.97622  0.97700  1.0000
  H   H524      1.0  0.07756  0.83544  0.16218  1.0000
  C   C440      1.0  0.24163  0.53865  0.01004  1.0000
  C   C441      1.0  0.37210  0.66779  0.96903  1.0000
  S   S116      1.0  0.41346  0.99942  0.97835  1.0000
  H   H525      1.0  0.22258  0.55357  0.98302  1.0000
  S   S117      1.0  0.26526  0.51948  0.04443  1.0000
  C   C442      1.0  0.03404  0.80916  0.19882  1.0000
  C   C443      1.0  0.34502  0.81136  0.19092  1.0000
  Fe  Fe56      1.0  0.36116  0.69701  0.21375  1.0000
  C   C444      1.0  0.51482  0.63427  0.03096  1.0000
  C   C445      1.0  0.34071  0.69409  0.97339  1.0000
  S   S118      1.0  0.12406  0.62497  0.97248  1.0000
  C   C446      1.0  0.37822  0.00214  0.98080  1.0000
  H   H526      1.0  0.51929  0.57961  0.07672  1.0000
  H   H527      1.0  0.22881  0.70233  0.96743  1.0000
  C   C447      1.0  0.50055  0.58209  0.04514  1.0000
  H   H528      1.0  0.51284  0.64900  0.01799  1.0000
  C   C448      1.0  0.42056  0.53438  0.07552  1.0000
  H   H529      1.0  0.51718  0.74671  0.02266  1.0000
  H   H530      1.0  0.02839  0.93858  0.21028  1.0000
  S   S119      1.0  0.52046  0.82568  0.02942  1.0000
  C   C449      1.0  0.18476  0.51485  0.00189  1.0000
  C   C450      1.0  0.51933  0.59596  0.06432  1.0000
  H   H531      1.0  0.10208  0.87971  0.21386  1.0000
  H   H532      1.0  0.41804  0.51625  0.08720  1.0000
  H   H533      1.0  0.50080  0.51426  0.04013  1.0000
  H   H534      1.0  0.20787  0.51576  0.14774  1.0000
  Fe  Fe57      1.0  0.52049  0.76644  0.09946  1.0000
  H   H535      1.0  0.06409  0.51632  0.06599  1.0000
  C   C451      1.0  0.52133  0.73638  0.00770  1.0000
  H   H536      1.0  0.02777  0.79626  0.16313  1.0000
  C   C452      1.0  0.52022  0.53301  0.00735  1.0000
  C   C453      1.0  0.52062  0.52083  0.02856  1.0000
  Fe  Fe58      1.0  0.41345  0.95481  0.96731  1.0000
  Fe  Fe59      1.0  0.45094  0.91866  0.96706  1.0000
  H   H537      1.0  0.16300  0.58971  0.36361  1.0000
  S   S120      1.0  0.12497  0.96257  0.24130  1.0000
  C   C454      1.0  0.21523  0.62837  0.45674  1.0000
  H   H538      1.0  0.27426  0.53236  0.45358  1.0000
  H   H539      1.0  0.22708  0.68284  0.39363  1.0000
  H   H540      1.0  0.26280  0.65552  0.44203  1.0000
  H   H541      1.0  0.19071  0.66420  0.42175  1.0000
  H   H542      1.0  0.22109  0.54527  0.32431  1.0000
  Fe  Fe60      1.0  0.08769  0.93746  0.26836  1.0000
  S   S121      1.0  0.06317  0.88548  0.27943  1.0000
  S   S122      1.0  0.06444  0.01228  0.30806  1.0000
  H   H543      1.0  0.35174  0.59255  0.36463  1.0000
  C   C455      1.0  0.42299  0.79069  0.31204  1.0000
  C   C456      1.0  0.41212  0.78817  0.35945  1.0000
  C   C457      1.0  0.31587  0.53978  0.32070  1.0000
  H   H544      1.0  0.17473  0.60657  0.42042  1.0000
  H   H545      1.0  0.22101  0.71055  0.46558  1.0000
  H   H546      1.0  0.45989  0.81271  0.26092  1.0000
  C   C458      1.0  0.33776  0.52645  0.24027  1.0000
  C   C459      1.0  0.21967  0.68773  0.46318  1.0000
  H   H547      1.0  0.49840  0.85095  0.32583  1.0000
  C   C460      1.0  0.42736  0.79105  0.28873  1.0000
  C   C461      1.0  0.24036  0.64419  0.35134  1.0000
  Fe  Fe61      1.0  0.37050  0.71065  0.26389  1.0000
  S   S123      1.0  0.41772  0.71149  0.26470  1.0000
  S   S124      1.0  0.34615  0.71831  0.29373  1.0000
  H   H548      1.0  0.07553  0.97153  0.33842  1.0000
  H   H549      1.0  0.37097  0.81216  0.22059  1.0000
  Fe  Fe62      1.0  0.39139  0.66774  0.24251  1.0000
  S   S125      1.0  0.39408  0.62248  0.24589  1.0000
  Fe  Fe63      1.0  0.42883  0.74043  0.23276  1.0000
  H   H550      1.0  0.33245  0.55281  0.28596  1.0000
  S   S126      1.0  0.34378  0.66524  0.24406  1.0000
  S   S127      1.0  0.38314  0.74252  0.23348  1.0000
  H   H551      1.0  0.29330  0.60759  0.42518  1.0000
  Fe  Fe64      1.0  0.13860  0.54724  0.45827  1.0000
  C   C462      1.0  0.47816  0.83364  0.31603  1.0000
  Fe  Fe65      1.0  0.36987  0.70755  0.41667  1.0000
  S   S128      1.0  0.35834  0.74602  0.40921  1.0000
  S   S129      1.0  0.37250  0.67740  0.38887  1.0000
  Fe  Fe66      1.0  0.39921  0.77606  0.43276  1.0000
  S   S130      1.0  0.43467  0.82555  0.41979  1.0000
  Fe  Fe67      1.0  0.32688  0.72777  0.43984  1.0000
  C   C463      1.0  0.24318  0.65672  0.44993  1.0000
  S   S131      1.0  0.41282  0.73852  0.43828  1.0000
  S   S132      1.0  0.33515  0.68686  0.44548  1.0000
  C   C464      1.0  0.35310  0.70600  0.31991  1.0000
  C   C465      1.0  0.33694  0.70782  0.33901  1.0000
  C   C466      1.0  0.34279  0.69900  0.36023  1.0000
  C   C467      1.0  0.36523  0.68886  0.36247  1.0000
  C   C468      1.0  0.38111  0.68671  0.34336  1.0000
  C   C469      1.0  0.37499  0.69515  0.32209  1.0000
  H   H552      1.0  0.31982  0.71599  0.33734  1.0000
  H   H553      1.0  0.32950  0.69951  0.37475  1.0000
  H   H554      1.0  0.39865  0.67911  0.34509  1.0000
  H   H555      1.0  0.38743  0.69354  0.30746  1.0000
  H   H556      1.0  0.21365  0.60549  0.45444  1.0000
  S   S133      1.0  0.27763  0.72239  0.44236  1.0000
  H   H557      1.0  0.26826  0.54450  0.39876  1.0000
  S   S134      1.0  0.11847  0.52235  0.37685  1.0000
  H   H558      1.0  0.03597  0.88644  0.32754  1.0000
  S   S135      1.0  0.05578  0.95611  0.25714  1.0000
  H   H559      1.0  0.50464  0.78115  0.26038  1.0000
  C   C470      1.0  0.21044  0.61630  0.35034  1.0000
  H   H560      1.0  0.41860  0.86718  0.44560  1.0000
  H   H561      1.0  0.49362  0.82961  0.36030  1.0000
  H   H562      1.0  0.06723  0.93589  0.38259  1.0000
  S   S136      1.0  0.36636  0.76208  0.46271  1.0000
  C   C471      1.0  0.49318  0.88023  0.42298  1.0000
  C   C472      1.0  0.47011  0.85273  0.43435  1.0000
  H   H563      1.0  0.38536  0.62707  0.33348  1.0000
  H   H564      1.0  0.41006  0.78948  0.37807  1.0000
  C   C473      1.0  0.33566  0.56057  0.30332  1.0000
  H   H565      1.0  0.48943  0.88387  0.40551  1.0000
  C   C474      1.0  0.45685  0.81248  0.27904  1.0000
  C   C475      1.0  0.24572  0.66768  0.36714  1.0000
  H   H566      1.0  0.23780  0.59658  0.42022  1.0000
  H   H567      1.0  0.23580  0.56653  0.22318  1.0000
  C   C476      1.0  0.32842  0.57903  0.24052  1.0000
  C   C477      1.0  0.35967  0.58399  0.24287  1.0000
  C   C478      1.0  0.36408  0.55750  0.24271  1.0000
  H   H568      1.0  0.31744  0.78384  0.46282  1.0000
  C   C479      1.0  0.36022  0.59172  0.30792  1.0000
  H   H569      1.0  0.32459  0.59916  0.24043  1.0000
  H   H570      1.0  0.38805  0.56103  0.24455  1.0000
  H   H571      1.0  0.14998  0.65470  0.42090  1.0000
  H   H572      1.0  0.20625  0.59794  0.33809  1.0000
  C   C480      1.0  0.32219  0.55221  0.34306  1.0000
  H   H573      1.0  0.26914  0.68927  0.36801  1.0000
  Fe  Fe68      1.0  0.08565  0.99694  0.28042  1.0000
  H   H574      1.0  0.46526  0.80921  0.38211  1.0000
  H   H575      1.0  0.02331  0.95235  0.46371  1.0000
  H   H576      1.0  0.23223  0.99429  0.39803  1.0000
  H   H577      1.0  0.13462  0.59970  0.42277  1.0000
  Fe  Fe69      1.0  0.14926  0.00488  0.26484  1.0000
  C   C481      1.0  0.34708  0.58339  0.34751  1.0000
  H   H578      1.0  0.11445  0.62242  0.39207  1.0000
  H   H579      1.0  0.12452  0.60137  0.37222  1.0000
  C   C482      1.0  0.40880  0.86261  0.46256  1.0000
  C   C483      1.0  0.51911  0.80471  0.25310  1.0000
  H   H580      1.0  0.08659  0.84062  0.22597  1.0000
  H   H581      1.0  0.44343  0.84661  0.37517  1.0000
  H   H582      1.0  0.39216  0.79061  0.35211  1.0000
  C   C484      1.0  0.52106  0.90331  0.43409  1.0000
  C   C485      1.0  0.46881  0.80965  0.36348  1.0000
  H   H583      1.0  0.27793  0.54413  0.23623  1.0000
  H   H584      1.0  0.40786  0.76377  0.35567  1.0000
  H   H585      1.0  0.07716  0.93559  0.34045  1.0000
  H   H586      1.0  0.22756  0.53680  0.40017  1.0000
  C   C486      1.0  0.47519  0.84840  0.45701  1.0000
  C   C487      1.0  0.50830  0.81313  0.23382  1.0000
  H   H587      1.0  0.18480  0.01213  0.41185  1.0000
  H   H588      1.0  0.37500  0.60710  0.29426  1.0000
  H   H589      1.0  0.30386  0.63444  0.40212  1.0000
  C   C488      1.0  0.36604  0.60303  0.32998  1.0000
  S   S137      1.0  0.11572  0.97700  0.29321  1.0000
  Fe  Fe70      1.0  0.09454  0.98372  0.23159  1.0000
  H   H590      1.0  0.18080  0.99218  0.38544  1.0000
  C   C489      1.0  0.48230  0.83364  0.29266  1.0000
  N   N29       1.0  0.03533  0.93309  0.35609  1.0000
  H   H591      1.0  0.17738  0.68078  0.39977  1.0000
  H   H592      1.0  0.12330  0.51622  0.32888  1.0000
  H   H593      1.0  0.14098  0.64375  0.36891  1.0000
  H   H594      1.0  0.02861  0.81181  0.23542  1.0000
  H   H595      1.0  0.46779  0.78688  0.35872  1.0000
  C   C490      1.0  0.03184  0.00152  0.42010  1.0000
  N   N30       1.0  0.44409  0.81344  0.35111  1.0000
  N   N31       1.0  0.26425  0.58675  0.39528  1.0000
  C   C491      1.0  0.29533  0.60899  0.40644  1.0000
  C   C492      1.0  0.24085  0.59680  0.40159  1.0000
  C   C493      1.0  0.25295  0.55429  0.40463  1.0000
  C   C494      1.0  0.26652  0.58646  0.37035  1.0000
  C   C495      1.0  0.29394  0.60947  0.35819  1.0000
  C   C496      1.0  0.24017  0.56358  0.35737  1.0000
  C   C497      1.0  0.29491  0.60925  0.33460  1.0000
  C   C498      1.0  0.24155  0.56317  0.33381  1.0000
  C   C499      1.0  0.26887  0.58602  0.32244  1.0000
  H   H596      1.0  0.30928  0.81636  0.46028  1.0000
  H   H597      1.0  0.02997  0.89093  0.24032  1.0000
  C   C500      1.0  0.05193  0.94622  0.37792  1.0000
  H   H598      1.0  0.24893  0.62149  0.39563  1.0000
  C   C501      1.0  0.30188  0.54774  0.23822  1.0000
  H   H599      1.0  0.21666  0.58079  0.39422  1.0000
  C   C502      1.0  0.03806  0.99189  0.44081  1.0000
  H   H600      1.0  0.25331  0.55435  0.42342  1.0000
  C   C503      1.0  0.30653  0.52134  0.23809  1.0000
  H   H601      1.0  0.31501  0.62794  0.36650  1.0000
  H   H602      1.0  0.21803  0.54613  0.36533  1.0000
  H   H603      1.0  0.31610  0.62725  0.32571  1.0000
  S   S138      1.0  0.16703  0.52725  0.21999  1.0000
  H   H604      1.0  0.26980  0.58592  0.30415  1.0000
  H   H605      1.0  0.39938  0.77350  0.31822  1.0000
  C   C504      1.0  0.44771  0.84491  0.35690  1.0000
  C   C505      1.0  0.44833  0.81209  0.32646  1.0000
  C   C506      1.0  0.24519  0.68647  0.45287  1.0000
  H   H606      1.0  0.14427  0.58051  0.40098  1.0000
  S   S139      1.0  0.16865  0.54482  0.43064  1.0000
  H   H607      1.0  0.36173  0.83070  0.45115  1.0000
  H   H608      1.0  0.30837  0.53834  0.35738  1.0000
  H   H609      1.0  0.31453  0.60360  0.40171  1.0000
  H   H610      1.0  0.47227  0.86509  0.35319  1.0000
  H   H611      1.0  0.06760  0.97277  0.37729  1.0000
  H   H612      1.0  0.25950  0.64760  0.33991  1.0000
  H   H613      1.0  0.43026  0.84911  0.34733  1.0000
  N   N32       1.0  0.16290  0.63100  0.39547  1.0000
  C   C507      1.0  0.15374  0.60326  0.41049  1.0000
  C   C508      1.0  0.17068  0.65900  0.40999  1.0000
  C   C509      1.0  0.13460  0.62442  0.38153  1.0000
  C   C510      1.0  0.18995  0.63579  0.38078  1.0000
  C   C511      1.0  0.22106  0.66367  0.38176  1.0000
  C   C512      1.0  0.18568  0.61195  0.36492  1.0000
  H   H614      1.0  0.04966  0.93860  0.32105  1.0000
  S   S140      1.0  0.09165  0.51845  0.43984  1.0000
  C   C513      1.0  0.06042  0.94497  0.33823  1.0000
  H   H615      1.0  0.40757  0.77461  0.27811  1.0000
  S   S141      1.0  0.47239  0.78589  0.21962  1.0000
  H   H616      1.0  0.06504  0.86219  0.22838  1.0000
  H   H617      1.0  0.03488  0.94141  0.39205  1.0000
  H   H618      1.0  0.25639  0.52052  0.30513  1.0000
  C   C514      1.0  0.02528  0.85910  0.26733  1.0000
  H   H619      1.0  0.50527  0.85022  0.28498  1.0000
  H   H620      1.0  0.27976  0.51823  0.28230  1.0000
  H   H621      1.0  0.02781  0.97274  0.34943  1.0000
  Fe  Fe71      1.0  0.12200  0.51302  0.41348  1.0000
  C   C515      1.0  0.37594  0.84161  0.46605  1.0000
  H   H622      1.0  0.45743  0.82740  0.46599  1.0000
  C   C516      1.0  0.07971  0.85642  0.21689  1.0000
  C   C517      1.0  0.36696  0.77133  0.65166  1.0000
  H   H623      1.0  0.40770  0.72122  0.62083  1.0000
  H   H624      1.0  0.30969  0.71885  0.70211  1.0000
  C   C518      1.0  0.28719  0.62640  0.67086  1.0000
  C   C519      1.0  0.26373  0.69665  0.64938  1.0000
  H   H625      1.0  0.24614  0.73918  0.64075  1.0000
  H   H626      1.0  0.36508  0.59138  0.54207  1.0000
  Fe  Fe72      1.0  0.33050  0.79975  0.57781  1.0000
  S   S142      1.0  0.28813  0.79202  0.55733  1.0000
  S   S143      1.0  0.37860  0.81328  0.56301  1.0000
  Fe  Fe73      1.0  0.29629  0.79298  0.62157  1.0000
  S   S144      1.0  0.25082  0.78526  0.60518  1.0000
  S   S145      1.0  0.30712  0.79225  0.65803  1.0000
  Fe  Fe74      1.0  0.25909  0.75300  0.58215  1.0000
  S   S146      1.0  0.21847  0.70483  0.57167  1.0000
  Fe  Fe75      1.0  0.28413  0.82520  0.58196  1.0000
  S   S147      1.0  0.28333  0.86780  0.56685  1.0000
  S   S148      1.0  0.30184  0.75784  0.60038  1.0000
  S   S149      1.0  0.32883  0.83554  0.60068  1.0000
  H   H627      1.0  0.21812  0.65278  0.52335  1.0000
  C   C520      1.0  0.30868  0.79809  0.47196  1.0000
  S   S150      1.0  0.23227  0.94927  0.61789  1.0000
  Fe  Fe76      1.0  0.23523  0.55553  0.60173  1.0000
  S   S151      1.0  0.28504  0.58776  0.58893  1.0000
  S   S152      1.0  0.19927  0.57211  0.60566  1.0000
  Fe  Fe77      1.0  0.27654  0.54465  0.56910  1.0000
  S   S153      1.0  0.29575  0.55389  0.53369  1.0000
  Fe  Fe78      1.0  0.30021  0.56673  0.61659  1.0000
  S   S154      1.0  0.34093  0.59475  0.64046  1.0000
  C   C521      1.0  0.20663  0.65990  0.65234  1.0000
  S   S155      1.0  0.25090  0.53768  0.63115  1.0000
  H   H628      1.0  0.19298  0.61160  0.54865  1.0000
  H   H629      1.0  0.37135  0.62601  0.59741  1.0000
  C   C522      1.0  0.35561  0.74886  0.66969  1.0000
  H   H630      1.0  0.18314  0.65592  0.65879  1.0000
  C   C523      1.0  0.32004  0.92036  0.62736  1.0000
  C   C524      1.0  0.33961  0.70648  0.64126  1.0000
  C   C525      1.0  0.26962  0.53647  0.51066  1.0000
  H   H631      1.0  0.22544  0.51446  0.52976  1.0000
  H   H632      1.0  0.21174  0.64235  0.66066  1.0000
  H   H633      1.0  0.31741  0.85126  0.49358  1.0000
  H   H634      1.0  0.42144  0.77609  0.50327  1.0000
  H   H635      1.0  0.17244  0.66100  0.47791  1.0000
  C   C526      1.0  0.32929  0.63462  0.69699  1.0000
  C   C527      1.0  0.34224  0.62302  0.68081  1.0000
  C   C528      1.0  0.32734  0.61274  0.65978  1.0000
  C   C529      1.0  0.29999  0.61472  0.65478  1.0000
  N   N33       1.0  0.23253  0.69355  0.65589  1.0000
  H   H636      1.0  0.36330  0.62134  0.68478  1.0000
  H   H637      1.0  0.28848  0.60709  0.63852  1.0000
  C   C530      1.0  0.21526  0.66940  0.58249  1.0000
  C   C531      1.0  0.24218  0.66608  0.58666  1.0000
  C   C532      1.0  0.23796  0.63642  0.59405  1.0000
  C   C533      1.0  0.20683  0.61031  0.59744  1.0000
  C   C534      1.0  0.18027  0.61423  0.59394  1.0000
  C   C535      1.0  0.18443  0.64339  0.58621  1.0000
  H   H638      1.0  0.26609  0.68600  0.58357  1.0000
  H   H639      1.0  0.25864  0.63370  0.59694  1.0000
  H   H640      1.0  0.15620  0.59427  0.59660  1.0000
  H   H641      1.0  0.16355  0.64573  0.58296  1.0000
  C   C536      1.0  0.26791  0.88957  0.58076  1.0000
  C   C537      1.0  0.24606  0.87644  0.59863  1.0000
  C   C538      1.0  0.23443  0.89466  0.60930  1.0000
  C   C539      1.0  0.24529  0.92639  0.60269  1.0000
  C   C540      1.0  0.26709  0.93948  0.58481  1.0000
  C   C541      1.0  0.27803  0.92098  0.57373  1.0000
  H   H642      1.0  0.23779  0.85215  0.60398  1.0000
  H   H643      1.0  0.21721  0.88424  0.62291  1.0000
  H   H644      1.0  0.27547  0.96381  0.57948  1.0000
  H   H645      1.0  0.29477  0.93122  0.55982  1.0000
  C   C542      1.0  0.37919  0.78347  0.54667  1.0000
  C   C543      1.0  0.40299  0.79230  0.53017  1.0000
  C   C544      1.0  0.40327  0.76906  0.51626  1.0000
  C   C545      1.0  0.38034  0.73683  0.51930  1.0000
  C   C546      1.0  0.35672  0.72785  0.53604  1.0000
  C   C547      1.0  0.35585  0.75126  0.54952  1.0000
  H   H646      1.0  0.42094  0.81723  0.52785  1.0000
  S   S156      1.0  0.15262  0.59525  0.47358  1.0000
  H   H647      1.0  0.33870  0.70297  0.53831  1.0000
  H   H648      1.0  0.33727  0.74437  0.56215  1.0000
  N   N34       1.0  0.35684  0.75825  0.69364  1.0000
  C   C548      1.0  0.42927  0.87729  0.48077  1.0000
  H   H649      1.0  0.39033  0.60780  0.56641  1.0000
  H   H650      1.0  0.29731  0.55381  0.67957  1.0000
  H   H651      1.0  0.17482  0.60139  0.52098  1.0000
  S   S157      1.0  0.38076  0.70801  0.50165  1.0000
  C   C549      1.0  0.30491  0.82137  0.69646  1.0000
  H   H652      1.0  0.26224  0.70183  0.50866  1.0000
  C   C550      1.0  0.34783  0.63625  0.53926  1.0000
  H   H653      1.0  0.31133  0.70378  0.49376  1.0000
  C   C551      1.0  0.26493  0.81287  0.66832  1.0000
  C   C552      1.0  0.29130  0.81022  0.67525  1.0000
  H   H654      1.0  0.34060  0.64210  0.71326  1.0000
  N   N35       1.0  0.37669  0.63948  0.55070  1.0000
  H   H655      1.0  0.22187  0.56523  0.50040  1.0000
  H   H656      1.0  0.25416  0.80404  0.65201  1.0000
  H   H657      1.0  0.23220  0.74673  0.67530  1.0000
  H   H658      1.0  0.34770  0.59419  0.56763  1.0000
  H   H659      1.0  0.20323  0.71295  0.64443  1.0000
  N   N36       1.0  0.32789  0.81291  0.49264  1.0000
  H   H660      1.0  0.28288  0.78115  0.47592  1.0000
  H   H661      1.0  0.28602  0.51664  0.66648  1.0000
  H   H662      1.0  0.30665  0.92964  0.61779  1.0000
  C   C553      1.0  0.36254  0.83494  0.48815  1.0000
  S   S158      1.0  0.28538  0.65168  0.71132  1.0000
  H   H663      1.0  0.43285  0.88244  0.51684  1.0000
  H   H664      1.0  0.39752  0.75246  0.70088  1.0000
  H   H665      1.0  0.41309  0.74086  0.58152  1.0000
  H   H666      1.0  0.35342  0.52799  0.63640  1.0000
  H   H667      1.0  0.33480  0.79540  0.52445  1.0000
  H   H668      1.0  0.37571  0.84675  0.52356  1.0000
  C   C554      1.0  0.25170  0.98388  0.70550  1.0000
  Fe  Fe79      1.0  0.25076  0.00162  0.60981  1.0000
  H   H669      1.0  0.32535  0.84041  0.52066  1.0000
  H   H670      1.0  0.21949  0.98673  0.68049  1.0000
  C   C555      1.0  0.23770  0.73965  0.70976  1.0000
  H   H671      1.0  0.29818  0.76861  0.51055  1.0000
  C   C556      1.0  0.26347  0.52882  0.47011  1.0000
  H   H672      1.0  0.35926  0.71831  0.70825  1.0000
  H   H673      1.0  0.50642  0.86869  0.48589  1.0000
  C   C557      1.0  0.25153  0.93309  0.70336  1.0000
  C   C558      1.0  0.23424  0.73081  0.68701  1.0000
  H   H674      1.0  0.37703  0.79668  0.65434  1.0000
  H   H675      1.0  0.39980  0.80463  0.69123  1.0000
  H   H676      1.0  0.26385  0.69016  0.63138  1.0000
  C   C559      1.0  0.37447  0.79344  0.69719  1.0000
  C   C560      1.0  0.30168  0.63620  0.69203  1.0000
  C   C561      1.0  0.23399  0.70260  0.67993  1.0000
  C   C562      1.0  0.22627  0.71387  0.64032  1.0000
  H   H677      1.0  0.26580  0.62748  0.66692  1.0000
  H   H678      1.0  0.34597  0.93588  0.62316  1.0000
  H   H679      1.0  0.26943  0.68089  0.65963  1.0000
  H   H680      1.0  0.40757  0.67461  0.52587  1.0000
  C   C563      1.0  0.38477  0.66141  0.57018  1.0000
  C   C564      1.0  0.38078  0.65079  0.59295  1.0000
  H   H681      1.0  0.32653  0.62539  0.55061  1.0000
  C   C565      1.0  0.40113  0.70468  0.60684  1.0000
  C   C566      1.0  0.39623  0.69445  0.56669  1.0000
  C   C567      1.0  0.38408  0.85060  0.50629  1.0000
  C   C568      1.0  0.36982  0.60694  0.55712  1.0000
  H   H682      1.0  0.34840  0.72158  0.60654  1.0000
  H   H683      1.0  0.23713  0.59920  0.55820  1.0000
  H   H684      1.0  0.36145  0.95583  0.68489  1.0000
  C   C569      1.0  0.32363  0.74541  0.70228  1.0000
  H   H685      1.0  0.20346  0.65330  0.63415  1.0000
  H   H686      1.0  0.39931  0.63535  0.52032  1.0000
  H   H687      1.0  0.33839  0.54858  0.69941  1.0000
  H   H688      1.0  0.22453  0.70609  0.62244  1.0000
  C   C570      1.0  0.22838  0.92228  0.68642  1.0000
  N   N37       1.0  0.31449  0.91974  0.65203  1.0000
  C   C571      1.0  0.33072  0.90387  0.66279  1.0000
  C   C572      1.0  0.27956  0.89955  0.65662  1.0000
  H   H689      1.0  0.30903  0.55487  0.48707  1.0000
  C   C573      1.0  0.32597  0.95273  0.66016  1.0000
  S   S159      1.0  0.29740  0.52709  0.59560  1.0000
  C   C574      1.0  0.25186  0.82625  0.68288  1.0000
  C   C575      1.0  0.32114  0.52272  0.70251  1.0000
  C   C576      1.0  0.40378  0.65246  0.53431  1.0000
  C   C577      1.0  0.34189  0.71615  0.66375  1.0000
  H   H690      1.0  0.32634  0.90115  0.68131  1.0000
  H   H691      1.0  0.32148  0.87921  0.65612  1.0000
  H   H692      1.0  0.35712  0.91725  0.65963  1.0000
  H   H693      1.0  0.27470  0.89672  0.67508  1.0000
  C   C578      1.0  0.28131  0.52756  0.68147  1.0000
  C   C579      1.0  0.21740  0.94213  0.67838  1.0000
  C   C580      1.0  0.32397  0.78660  0.50760  1.0000
  H   H694      1.0  0.21922  0.89864  0.67928  1.0000
  H   H695      1.0  0.31591  0.65517  0.49412  1.0000
  C   C581      1.0  0.28316  0.54144  0.48910  1.0000
  H   H696      1.0  0.38590  0.66354  0.62814  1.0000
  C   C582      1.0  0.23686  0.68373  0.69706  1.0000
  H   H697      1.0  0.28380  0.72171  0.65168  1.0000
  H   H698      1.0  0.33581  0.77390  0.50038  1.0000
  C   C583      1.0  0.35030  0.96779  0.67681  1.0000
  H   H699      1.0  0.42669  0.65797  0.54271  1.0000
  H   H700      1.0  0.39894  0.70414  0.54990  1.0000
  H   H701      1.0  0.34155  0.62088  0.52397  1.0000
  C   C584      1.0  0.38901  0.67225  0.61092  1.0000
  H   H702      1.0  0.29426  0.96130  0.63843  1.0000
  H   H703      1.0  0.16673  0.57080  0.54114  1.0000
  C   C585      1.0  0.50291  0.87188  0.46828  1.0000
  H   H704      1.0  0.28780  0.81508  0.50727  1.0000
  C   C586      1.0  0.31299  0.97106  0.65107  1.0000
  H   H705      1.0  0.27240  0.60484  0.50896  1.0000
  H   H706      1.0  0.32889  0.68128  0.63721  1.0000
  H   H707      1.0  0.31011  0.75391  0.69199  1.0000
  N   N38       1.0  0.21410  0.59243  0.52604  1.0000
  C   C587      1.0  0.20247  0.56849  0.50764  1.0000
  C   C588      1.0  0.22599  0.58081  0.54477  1.0000
  C   C589      1.0  0.18600  0.59426  0.53455  1.0000
  C   C590      1.0  0.24057  0.62334  0.51757  1.0000
  C   C591      1.0  0.23887  0.65188  0.51730  1.0000
  C   C592      1.0  0.26926  0.62547  0.50914  1.0000
  C   C593      1.0  0.26425  0.68050  0.50888  1.0000
  C   C594      1.0  0.29435  0.65417  0.50064  1.0000
  C   C595      1.0  0.29182  0.68160  0.50044  1.0000
  H   H708      1.0  0.19252  0.57587  0.49351  1.0000
  H   H709      1.0  0.35133  0.65967  0.53371  1.0000
  H   H710      1.0  0.18322  0.54459  0.51358  1.0000
  H   H711      1.0  0.24424  0.57464  0.53913  1.0000
  H   H712      1.0  0.20621  0.55885  0.55280  1.0000
  C   C596      1.0  0.40433  0.71571  0.58475  1.0000
  H   H713      1.0  0.31203  0.89604  0.62048  1.0000
  H   H714      1.0  0.23121  0.82799  0.67772  1.0000
  C   C597      1.0  0.37302  0.74487  0.70746  1.0000
  H   H715      1.0  0.20029  0.93413  0.66456  1.0000
  H   H716      1.0  0.20648  0.99986  0.50283  1.0000
  C   C598      1.0  0.22876  0.97250  0.68772  1.0000
  C   C599      1.0  0.31405  0.83064  0.50399  1.0000
  C   C600      1.0  0.35072  0.72909  0.62401  1.0000
  H   H717      1.0  0.33232  0.69776  0.67650  1.0000
  C   C601      1.0  0.41693  0.87127  0.50261  1.0000
  C   C602      1.0  0.36465  0.76145  0.62921  1.0000
  H   H718      1.0  0.26540  0.90977  0.64942  1.0000
  H   H719      1.0  0.36248  0.80499  0.68845  1.0000
  H   H720      1.0  0.26959  0.87521  0.64924  1.0000
  H   H721      1.0  0.37306  0.77901  0.61570  1.0000
  H   H722      1.0  0.39438  0.52506  0.65995  1.0000
  H   H723      1.0  0.32524  0.81938  0.70196  1.0000
  C   C603      1.0  0.26607  0.83809  0.70389  1.0000
  N   N39       1.0  0.28740  0.51570  0.70293  1.0000
  H   H724      1.0  0.23718  0.66213  0.69299  1.0000
  H   H725      1.0  0.26056  0.91793  0.70935  1.0000
  H   H726      1.0  0.25615  0.52285  0.68064  1.0000
  H   H727      1.0  0.45480  0.89315  0.47791  1.0000
  H   H728      1.0  0.37547  0.79980  0.71536  1.0000
  C   C604      1.0  0.36109  0.99928  0.68362  1.0000
  S   S160      1.0  0.22529  0.51330  0.58001  1.0000
  C   C605      1.0  0.29266  0.83578  0.71058  1.0000
  C   C606      1.0  0.23610  0.51876  0.51316  1.0000
  C   C607      1.0  0.26344  0.96357  0.71254  1.0000
  H   H729      1.0  0.02263  0.94560  0.52509  1.0000
  C   C608      1.0  0.32401  0.00253  0.65796  1.0000
  C   C609      1.0  0.19211  0.65963  0.47015  1.0000
  H   H730      1.0  0.23830  0.76158  0.71468  1.0000
  H   H731      1.0  0.03044  0.99199  0.50257  1.0000
  H   H732      1.0  0.37945  0.01022  0.69654  1.0000
  Fe  Fe80      1.0  0.37671  0.72205  0.46644  1.0000
  C   C610      1.0  0.18936  0.62981  0.46648  1.0000
  H   H733      1.0  0.41148  0.91961  0.84067  1.0000
  Fe  Fe81      1.0  0.15724  0.60927  0.95747  1.0000
  H   H734      1.0  0.28356  0.75882  0.82131  1.0000
  H   H735      1.0  0.35609  0.90808  0.90037  1.0000
  H   H736      1.0  0.28518  0.97494  0.91363  1.0000
  H   H737      1.0  0.31020  0.57511  0.93648  1.0000
  C   C611      1.0  0.36057  0.52201  0.88698  1.0000
  H   H738      1.0  0.34889  0.83120  0.76306  1.0000
  C   C612      1.0  0.49735  0.92201  0.91832  1.0000
  H   H739      1.0  0.49786  0.90072  0.92493  1.0000
  Fe  Fe82      1.0  0.18576  0.58914  0.91929  1.0000
  S   S161      1.0  0.18743  0.57665  0.88293  1.0000
  Fe  Fe83      1.0  0.31688  0.90946  0.79212  1.0000
  S   S162      1.0  0.36632  0.94602  0.78031  1.0000
  S   S163      1.0  0.30304  0.90182  0.82873  1.0000
  S   S164      1.0  0.31289  0.86910  0.77120  1.0000
  S   S165      1.0  0.29114  0.92359  0.76723  1.0000
  Fe  Fe84      1.0  0.29546  0.68230  0.79244  1.0000
  S   S166      1.0  0.34419  0.69413  0.80465  1.0000
  S   S167      1.0  0.26585  0.69259  0.81662  1.0000
  Fe  Fe85      1.0  0.30796  0.66555  0.74559  1.0000
  C   C613      1.0  0.28819  0.77226  0.83744  1.0000
  H   H740      1.0  0.15345  0.94678  0.83114  1.0000
  Fe  Fe86      1.0  0.33503  0.64975  0.78614  1.0000
  C   C614      1.0  0.38704  0.91479  0.87214  1.0000
  Fe  Fe87      1.0  0.36144  0.71952  0.77154  1.0000
  S   S168      1.0  0.40492  0.76859  0.76767  1.0000
  S   S169      1.0  0.28460  0.63593  0.77641  1.0000
  S   S170      1.0  0.31333  0.71054  0.76053  1.0000
  H   H741      1.0  0.30525  0.81181  0.80082  1.0000
  C   C615      1.0  0.21604  0.00180  0.80001  1.0000
  C   C616      1.0  0.37119  0.83111  0.76111  1.0000
  C   C617      1.0  0.37204  0.80257  0.76460  1.0000
  C   C618      1.0  0.40118  0.80259  0.76239  1.0000
  C   C619      1.0  0.42903  0.83093  0.75638  1.0000
  C   C620      1.0  0.30620  0.82171  0.81796  1.0000
  H   H742      1.0  0.35046  0.78095  0.76960  1.0000
  H   H743      1.0  0.35712  0.60484  0.75916  1.0000
  C   C621      1.0  0.26680  0.56104  0.83907  1.0000
  H   H744      1.0  0.34808  0.60290  0.85070  1.0000
  C   C622      1.0  0.34370  0.58190  0.79163  1.0000
  H   H745      1.0  0.26105  0.00488  0.79527  1.0000
  H   H746      1.0  0.34694  0.59013  0.87919  1.0000
  C   C623      1.0  0.20816  0.60904  0.86445  1.0000
  C   C624      1.0  0.21758  0.64027  0.87109  1.0000
  C   C625      1.0  0.23453  0.66581  0.85609  1.0000
  C   C626      1.0  0.24260  0.66021  0.83455  1.0000
  C   C627      1.0  0.23307  0.62897  0.82787  1.0000
  C   C628      1.0  0.21561  0.60340  0.84272  1.0000
  H   H747      1.0  0.21147  0.64476  0.88764  1.0000
  H   H748      1.0  0.24176  0.68992  0.86130  1.0000
  H   H749      1.0  0.23863  0.62442  0.81113  1.0000
  H   H750      1.0  0.20777  0.57923  0.83731  1.0000
  H   H751      1.0  0.29145  0.52962  0.73812  1.0000
  S   S171      1.0  0.41964  0.91925  0.88820  1.0000
  C   C629      1.0  0.35846  0.90949  0.88230  1.0000
  C   C630      1.0  0.33264  0.90560  0.86894  1.0000
  C   C631      1.0  0.33535  0.90687  0.84541  1.0000
  H   H752      1.0  0.26710  0.96821  0.85159  1.0000
  H   H753      1.0  0.29754  0.82149  0.86262  1.0000
  C   C632      1.0  0.04382  0.57052  0.93520  1.0000
  H   H754      1.0  0.31055  0.90142  0.87683  1.0000
  N   N40       1.0  0.31551  0.80553  0.83513  1.0000
  H   H755      1.0  0.03676  0.98206  0.95502  1.0000
  N   N41       1.0  0.25060  0.94925  0.81846  1.0000
  C   C633      1.0  0.25549  0.94494  0.84261  1.0000
  C   C634      1.0  0.23555  0.91757  0.80728  1.0000
  C   C635      1.0  0.28305  0.96967  0.80850  1.0000
  C   C636      1.0  0.22914  0.96280  0.81593  1.0000
  C   C637      1.0  0.19793  0.94705  0.82572  1.0000
  H   H756      1.0  0.37573  0.75297  0.72528  1.0000
  S   S172      1.0  0.45378  0.95827  0.94559  1.0000
  S   S173      1.0  0.23120  0.96772  0.88866  1.0000
  C   C638      1.0  0.34830  0.53163  0.77117  1.0000
  H   H757      1.0  0.23275  0.92867  0.85158  1.0000
  C   C639      1.0  0.30156  0.54285  0.90899  1.0000
  H   H758      1.0  0.16970  0.99544  0.80841  1.0000
  H   H759      1.0  0.21216  0.90024  0.81512  1.0000
  H   H760      1.0  0.25102  0.90657  0.80851  1.0000
  H   H761      1.0  0.23108  0.91952  0.78909  1.0000
  H   H762      1.0  0.29891  0.95930  0.81120  1.0000
  H   H763      1.0  0.28191  0.97249  0.78997  1.0000
  H   H764      1.0  0.34487  0.61758  0.96116  1.0000
  C   C640      1.0  0.30824  0.98513  0.92308  1.0000
  C   C641      1.0  0.08708  0.99529  0.95467  1.0000
  H   H765      1.0  0.46978  0.90378  0.87803  1.0000
  H   H766      1.0  0.31490  0.96990  0.88004  1.0000
  H   H767      1.0  0.24182  0.99736  0.74740  1.0000
  Fe  Fe88      1.0  0.40480  0.57516  0.93222  1.0000
  C   C642      1.0  0.21865  0.52094  0.85772  1.0000
  C   C643      1.0  0.35490  0.55904  0.75877  1.0000
  C   C644      1.0  0.10918  0.98443  0.95666  1.0000
  S   S174      1.0  0.35792  0.67650  0.75410  1.0000
  H   H768      1.0  0.24351  0.72761  0.74371  1.0000
  N   N42       1.0  0.37739  0.64069  0.87421  1.0000
  C   C645      1.0  0.39816  0.66245  0.85608  1.0000
  C   C646      1.0  0.35186  0.64814  0.87989  1.0000
  C   C647      1.0  0.32957  0.64557  0.86317  1.0000
  C   C648      1.0  0.34863  0.65870  0.90165  1.0000
  C   C649      1.0  0.30543  0.65272  0.86792  1.0000
  C   C650      1.0  0.32445  0.66602  0.90614  1.0000
  C   C651      1.0  0.30275  0.66280  0.88938  1.0000
  H   H769      1.0  0.41167  0.66896  0.90008  1.0000
  H   H770      1.0  0.40861  0.68794  0.86110  1.0000
  H   H771      1.0  0.30836  0.96480  0.93180  1.0000
  H   H772      1.0  0.33085  0.63834  0.84614  1.0000
  H   H773      1.0  0.36450  0.66169  0.91549  1.0000
  H   H774      1.0  0.28896  0.65080  0.85477  1.0000
  H   H775      1.0  0.32252  0.67437  0.92271  1.0000
  H   H776      1.0  0.28396  0.66834  0.89297  1.0000
  H   H777      1.0  0.29324  0.57192  0.83713  1.0000
  H   H778      1.0  0.18975  0.92586  0.83593  1.0000
  S   S175      1.0  0.40101  0.89643  0.75079  1.0000
  H   H779      1.0  0.33908  0.84740  0.85642  1.0000
  H   H780      1.0  0.28226  0.81910  0.82160  1.0000
  H   H781      1.0  0.33004  0.75594  0.82972  1.0000
  S   S176      1.0  0.19933  0.63708  0.93422  1.0000
  H   H782      1.0  0.30805  0.00095  0.93666  1.0000
  C   C652      1.0  0.28721  0.53194  0.88787  1.0000
  N   N43       1.0  0.25376  0.53381  0.85513  1.0000
  H   H783      1.0  0.42354  0.86321  0.81363  1.0000
  C   C653      1.0  0.34371  0.63893  0.96435  1.0000
  C   C654      1.0  0.22574  0.99617  0.87385  1.0000
  H   H784      1.0  0.29859  0.56046  0.71872  1.0000
  H   H785      1.0  0.36273  0.56139  0.74144  1.0000
  C   C655      1.0  0.19688  0.99640  0.87577  1.0000
  H   H786      1.0  0.28237  0.97122  0.72493  1.0000
  H   H787      1.0  0.32316  0.84790  0.81724  1.0000
  C   C656      1.0  0.31987  0.82183  0.85711  1.0000
  C   C657      1.0  0.23765  0.99072  0.80294  1.0000
  S   S177      1.0  0.44247  0.62714  0.93284  1.0000
  H   H788      1.0  0.41683  0.63751  0.88879  1.0000
  C   C658      1.0  0.33780  0.55484  0.80413  1.0000
  C   C659      1.0  0.29913  0.56688  0.92012  1.0000
  C   C660      1.0  0.36268  0.60726  0.86607  1.0000
  C   C661      1.0  0.40592  0.81283  0.81664  1.0000
  Fe  Fe89      1.0  0.41823  0.62966  0.96422  1.0000
  H   H789      1.0  0.29253  0.75883  0.85090  1.0000
  S   S178      1.0  0.43517  0.56051  0.95192  1.0000
  C   C662      1.0  0.31368  0.63772  0.96437  1.0000
  C   C663      1.0  0.33574  0.97860  0.89174  1.0000
  S   S179      1.0  0.23029  0.94266  0.95225  1.0000
  H   H790      1.0  0.27127  0.93446  0.84485  1.0000
  H   H791      1.0  0.33373  0.95738  0.90064  1.0000
  S   S180      1.0  0.14100  0.56226  0.94037  1.0000
  H   H792      1.0  0.26540  0.77160  0.84203  1.0000
  C   C664      1.0  0.34974  0.77997  0.82693  1.0000
  C   C665      1.0  0.37382  0.83746  0.82390  1.0000
  H   H793      1.0  0.45001  0.88077  0.74820  1.0000
  Fe  Fe90      1.0  0.41346  0.91947  0.92569  1.0000
  H   H794      1.0  0.42839  0.81470  0.81131  1.0000
  C   C666      1.0  0.49457  0.90746  0.87945  1.0000
  H   H795      1.0  0.38157  0.76183  0.81946  1.0000
  Fe  Fe91      1.0  0.17360  0.55730  0.96464  1.0000
  C   C667      1.0  0.40313  0.84004  0.81788  1.0000
  C   C668      1.0  0.34614  0.80737  0.82854  1.0000
  S   S181      1.0  0.33982  0.92150  0.72939  1.0000
  H   H796      1.0  0.09325  0.58181  0.93489  1.0000
  H   H797      1.0  0.33225  0.55353  0.82189  1.0000
  S   S182      1.0  0.41331  0.88016  0.94537  1.0000
  H   H798      1.0  0.35799  0.98824  0.88142  1.0000
  Fe  Fe92      1.0  0.21370  0.96243  0.92439  1.0000
  C   C669      1.0  0.38956  0.91581  0.84864  1.0000
  H   H799      1.0  0.41835  0.65828  0.85188  1.0000
  C   C670      1.0  0.17673  0.95860  0.82287  1.0000
  H   H800      1.0  0.45161  0.83126  0.75468  1.0000
  C   C671      1.0  0.37933  0.78292  0.82115  1.0000
  H   H801      1.0  0.29547  0.99385  0.81638  1.0000
  Fe  Fe93      1.0  0.47135  0.61295  0.95458  1.0000
  H   H802      1.0  0.38428  0.62756  0.90763  1.0000
  S   S183      1.0  0.37347  0.91882  0.94573  1.0000
  H   H803      1.0  0.28369  0.00841  0.74652  1.0000
  H   H804      1.0  0.38476  0.65898  0.84005  1.0000
  C   C672      1.0  0.28235  0.58020  0.91020  1.0000
  C   C673      1.0  0.24071  0.72064  0.72610  1.0000
  C   C674      1.0  0.26970  0.54493  0.87731  1.0000
  H   H805      1.0  0.28040  0.59888  0.91889  1.0000
  S   S184      1.0  0.16296  0.93984  0.93705  1.0000
  C   C675      1.0  0.26773  0.56940  0.88918  1.0000
  Fe  Fe94      1.0  0.34027  0.95719  0.75380  1.0000
  C   C676      1.0  0.18575  0.98589  0.81001  1.0000
  C   C677      1.0  0.35193  0.58381  0.76882  1.0000
  H   H806      1.0  0.25818  0.52814  0.72323  1.0000
  C   C678      1.0  0.28369  0.53415  0.72155  1.0000
  S   S185      1.0  0.21716  0.57979  0.94225  1.0000
  C   C679      1.0  0.07548  0.58544  0.94341  1.0000
  Fe  Fe95      1.0  0.36052  0.90620  0.75740  1.0000
  C   C680      1.0  0.39839  0.64400  0.89359  1.0000
  C   C681      1.0  0.39945  0.85951  0.75527  1.0000
  S   S186      1.0  0.38444  0.56132  0.89708  1.0000
  Fe  Fe96      1.0  0.29243  0.88718  0.74494  1.0000
  C   C682      1.0  0.36370  0.91160  0.83532  1.0000
  H   H807      1.0  0.49152  0.88386  0.88429  1.0000
  H   H808      1.0  0.24270  0.67789  0.73245  1.0000
  H   H809      1.0  0.32681  0.81036  0.87053  1.0000
  H   H810      1.0  0.38125  0.60085  0.86159  1.0000
  C   C683      1.0  0.42813  0.85904  0.75275  1.0000
  S   S187      1.0  0.34197  0.61332  0.80545  1.0000
  H   H811      1.0  0.36566  0.91144  0.81724  1.0000
  H   H812      1.0  0.37298  0.85929  0.82465  1.0000
  H   H813      1.0  0.36698  0.99586  0.93122  1.0000
  C   C684      1.0  0.33942  0.52952  0.79383  1.0000
  H   H814      1.0  0.21295  0.53946  0.86338  1.0000
  H   H815      1.0  0.29171  0.61540  0.96121  1.0000
  Fe  Fe97      1.0  0.22790  0.62576  0.95864  1.0000
  S   S188      1.0  0.25194  0.85729  0.72145  1.0000
  H   H816      1.0  0.36972  0.53726  0.85224  1.0000
  H   H817      1.0  0.25452  0.58023  0.88241  1.0000
  H   H818      1.0  0.26211  0.58032  0.84452  1.0000
  H   H819      1.0  0.03741  0.55512  0.92058  1.0000
  H   H820      1.0  0.47169  0.91557  0.91697  1.0000
  C   C685      1.0  0.05367  0.97364  0.95660  1.0000
  S   S189      1.0  0.37850  0.57886  0.96234  1.0000
  H   H821      1.0  0.35285  0.00748  0.79067  1.0000
  H   H822      1.0  0.32350  0.75301  0.71999  1.0000
  Fe  Fe98      1.0  0.18036  0.98605  0.95572  1.0000
  H   H823      1.0  0.30380  0.84490  0.72672  1.0000
  H   H824      1.0  0.17782  0.97909  0.88648  1.0000
  N   N44       1.0  0.33637  0.00246  0.90784  1.0000
  H   H825      1.0  0.25603  0.55355  0.82197  1.0000
  S   S190      1.0  0.34960  0.00531  0.74154  1.0000
  C   C686      1.0  0.08423  0.60565  0.96213  1.0000
  C   C687      1.0  0.24016  0.69266  0.71976  1.0000
  H   H826      1.0  0.48162  0.69227  0.96188  1.0000
  H   H827      1.0  0.28416  0.51648  0.84203  1.0000
  H   H828      1.0  0.50826  0.94094  0.93141  1.0000
  C   C688      1.0  0.02916  0.59563  0.96450  1.0000
  H   H829      1.0  0.48993  0.95817  0.88665  1.0000
  H   H830      1.0  0.11430  0.94347  0.96193  1.0000
  C   C689      1.0  0.09766  0.95206  0.96058  1.0000
  S   S191      1.0  0.23017  0.00947  0.94105  1.0000
  H   H831      1.0  0.31502  0.53284  0.91666  1.0000
  C   C690      1.0  0.35719  0.51717  0.86360  1.0000
  C   C691      1.0  0.06462  0.93065  0.96281  1.0000
  C   C692      1.0  0.04244  0.94118  0.96073  1.0000
  H   H832      1.0  0.42582  0.51995  0.87908  1.0000
  S   S192      1.0  0.15109  0.01111  0.95436  1.0000
  H   H833      1.0  0.32820  0.51629  0.71863  1.0000
  N   N45       1.0  0.51412  0.93253  0.89632  1.0000
  C   C693      1.0  0.51470  0.96230  0.88935  1.0000
  H   H834      1.0  0.50538  0.91414  0.86230  1.0000
  H   H835      1.0  0.05639  0.90575  0.96599  1.0000
  H   H836      1.0  0.29037  0.51341  0.88021  1.0000
  Fe  Fe99      1.0  0.96979  0.49344  0.10889  1.0000
  S   S193      1.0  0.95551  0.46313  0.07786  1.0000
  H   H837      1.0  0.53952  0.39205  0.14372  1.0000
  Fe  Fe100     1.0  0.96006  0.43727  0.13854  1.0000
  S   S194      1.0  0.94476  0.40377  0.10900  1.0000
  S   S195      1.0  0.96155  0.42029  0.17401  1.0000
  Fe  Fe101     1.0  0.98664  0.44471  0.09127  1.0000
  C   C694      1.0  0.58711  0.41972  0.18753  1.0000
  Fe  Fe102     1.0  0.91563  0.42673  0.09935  1.0000
  S   S196      1.0  0.86370  0.39960  0.08774  1.0000
  N   N46       1.0  0.97525  0.49752  0.00880  1.0000
  S   S197      1.0  0.92845  0.45780  0.12989  1.0000
  H   H838      1.0  0.75746  0.40905  0.06788  1.0000
  C   C695      1.0  0.01617  0.37774  0.19798  1.0000
  Fe  Fe103     1.0  0.68554  0.46893  0.11146  1.0000
  C   C696      1.0  0.00545  0.46757  0.00636  1.0000
  S   S198      1.0  0.63106  0.44278  0.10830  1.0000
  Fe  Fe104     1.0  0.74258  0.45873  0.12245  1.0000
  C   C697      1.0  0.72681  0.44825  0.20901  1.0000
  S   S199      1.0  0.75577  0.42141  0.13203  1.0000
  H   H839      1.0  0.57639  0.51116  0.15073  1.0000
  H   H840      1.0  0.55883  0.49970  0.21392  1.0000
  Fe  Fe105     1.0  0.75044  0.50893  0.08893  1.0000
  C   C698      1.0  0.72455  0.43029  0.18942  1.0000
  S   S200      1.0  0.70833  0.46645  0.14385  1.0000
  S   S201      1.0  0.71646  0.45595  0.09045  1.0000
  H   H841      1.0  0.86619  0.39410  0.13692  1.0000
  C   C699      1.0  0.56211  0.46154  0.18250  1.0000
  H   H842      1.0  0.73869  0.42831  0.05477  1.0000
  H   H843      1.0  0.82905  0.34264  0.19865  1.0000
  H   H844      1.0  0.82563  0.25767  0.16072  1.0000
  C   C700      1.0  0.80828  0.13899  0.18282  1.0000
  H   H845      1.0  0.87094  0.35811  0.19146  1.0000
  C   C701      1.0  0.67437  0.38530  0.20243  1.0000
  C   C702      1.0  0.79769  0.46940  0.98083  1.0000
  C   C703      1.0  0.77606  0.48043  0.97894  1.0000
  C   C704      1.0  0.73858  0.50237  0.21585  1.0000
  H   H846      1.0  0.77671  0.04768  0.13248  1.0000
  N   N47       1.0  0.54869  0.48298  0.17959  1.0000
  H   H847      1.0  0.62150  0.50956  0.05427  1.0000
  C   C705      1.0  0.75815  0.47967  0.99763  1.0000
  H   H848      1.0  0.78835  0.48182  0.18991  1.0000
  C   C706      1.0  0.59636  0.44050  0.16922  1.0000
  N   N48       1.0  0.75876  0.03822  0.16651  1.0000
  C   C707      1.0  0.83467  0.33215  0.15298  1.0000
  H   H849      1.0  0.82275  0.07793  0.17683  1.0000
  C   C708      1.0  0.75876  0.09024  0.17372  1.0000
  H   H850      1.0  0.61368  0.44119  0.15712  1.0000
  C   C709      1.0  0.87090  0.38953  0.15445  1.0000
  C   C710      1.0  0.82501  0.12249  0.18158  1.0000
  H   H851      1.0  0.53457  0.43675  0.21273  1.0000
  C   C711      1.0  0.90293  0.31296  0.19037  1.0000
  H   H852      1.0  0.74152  0.48855  0.99620  1.0000
  H   H853      1.0  0.53216  0.50961  0.19944  1.0000
  H   H854      1.0  0.52637  0.46151  0.14808  1.0000
  C   C712      1.0  0.77547  0.49517  0.19302  1.0000
  C   C713      1.0  0.60010  0.51179  0.05008  1.0000
  H   H855      1.0  0.59945  0.49802  0.99393  1.0000
  C   C714      1.0  0.75530  0.41912  0.05151  1.0000
  H   H856      1.0  0.74830  0.46904  0.03247  1.0000
  C   C715      1.0  0.82872  0.32943  0.12942  1.0000
  H   H857      1.0  0.70735  0.49120  0.05596  1.0000
  C   C716      1.0  0.57689  0.44806  0.10521  1.0000
  H   H858      1.0  0.61587  0.48689  0.01678  1.0000
  H   H859      1.0  0.83331  0.44794  0.03746  1.0000
  N   N49       1.0  0.78715  0.44424  0.04296  1.0000
  C   C717      1.0  0.56449  0.41851  0.20279  1.0000
  H   H860      1.0  0.01566  0.37559  0.17983  1.0000
  C   C718      1.0  0.78347  0.45622  0.02080  1.0000
  H   H861      1.0  0.79998  0.03839  0.15147  1.0000
  C   C719      1.0  0.80121  0.47104  0.05932  1.0000
  H   H862      1.0  0.85063  0.13495  0.18513  1.0000
  C   C720      1.0  0.93997  0.37882  0.18006  1.0000
  S   S202      1.0  0.00355  0.47734  0.12122  1.0000
  C   C721      1.0  0.57685  0.49826  0.10513  1.0000
  H   H863      1.0  0.74336  0.39908  0.03925  1.0000
  C   C722      1.0  0.90831  0.32345  0.16793  1.0000
  C   C723      1.0  0.92689  0.35613  0.16281  1.0000
  C   C724      1.0  0.69094  0.50065  0.02488  1.0000
  H   H864      1.0  0.78522  0.48106  0.06235  1.0000
  H   H865      1.0  0.89790  0.30623  0.15439  1.0000
  H   H866      1.0  0.93078  0.36359  0.14545  1.0000
  C   C725      1.0  0.77523  0.07274  0.17212  1.0000
  H   H867      1.0  0.74220  0.43973  0.17606  1.0000
  C   C726      1.0  0.82598  0.27756  0.15197  1.0000
  H   H868      1.0  0.59739  0.40446  0.18990  1.0000
  H   H869      1.0  0.81011  0.42076  0.05899  1.0000
  C   C727      1.0  0.82209  0.30184  0.11753  1.0000
  C   C728      1.0  0.58358  0.46064  0.16643  1.0000
  H   H870      1.0  0.65307  0.51087  0.11035  1.0000
  C   C729      1.0  0.80825  0.43000  0.04223  1.0000
  C   C730      1.0  0.80878  0.08980  0.17664  1.0000
  C   C731      1.0  0.83468  0.40786  0.09933  1.0000
  C   C732      1.0  0.84295  0.43685  0.11008  1.0000
  C   C733      1.0  0.81876  0.44213  0.11903  1.0000
  C   C734      1.0  0.78626  0.41817  0.11768  1.0000
  C   C735      1.0  0.77821  0.38920  0.10714  1.0000
  C   C736      1.0  0.80215  0.38432  0.09768  1.0000
  H   H871      1.0  0.86790  0.45516  0.11157  1.0000
  H   H872      1.0  0.82534  0.46431  0.12764  1.0000
  H   H873      1.0  0.75329  0.37028  0.10648  1.0000
  H   H874      1.0  0.79545  0.36183  0.08948  1.0000
  C   C737      1.0  0.91661  0.33547  0.20773  1.0000
  H   H875      1.0  0.91571  0.49169  0.09386  1.0000
  H   H876      1.0  0.92849  0.47501  0.02484  1.0000
  C   C738      1.0  0.00786  0.49962  0.97421  1.0000
  C   C739      1.0  0.83265  0.30509  0.16401  1.0000
  H   H877      1.0  0.65404  0.36150  0.19975  1.0000
  C   C740      1.0  0.82086  0.27598  0.12878  1.0000
  H   H878      1.0  0.79256  0.34691  0.17050  1.0000
  C   C741      1.0  0.80144  0.45741  0.00136  1.0000
  H   H879      1.0  0.73314  0.07928  0.17115  1.0000
  H   H880      1.0  0.81619  0.25477  0.11950  1.0000
  C   C742      1.0  0.61059  0.46454  0.10728  1.0000
  H   H881      1.0  0.87635  0.47841  0.06347  1.0000
  H   H882      1.0  0.87885  0.41217  0.16391  1.0000
  H   H883      1.0  0.99773  0.45817  0.02322  1.0000
  C   C743      1.0  0.53888  0.49081  0.20140  1.0000
  H   H884      1.0  0.57883  0.48844  0.05482  1.0000
  C   C744      1.0  0.92117  0.50831  0.08018  1.0000
  H   H885      1.0  0.81832  0.30077  0.09945  1.0000
  C   C745      1.0  0.81478  0.36750  0.16340  1.0000
  H   H886      1.0  0.81944  0.38949  0.17261  1.0000
  H   H887      1.0  0.85652  0.38477  0.19770  1.0000
  H   H888      1.0  0.66623  0.48205  0.02752  1.0000
  H   H889      1.0  0.80946  0.37079  0.14567  1.0000
  C   C746      1.0  0.62724  0.49791  0.10854  1.0000
  C   C747      1.0  0.94487  0.46863  0.01579  1.0000
  C   C748      1.0  0.69860  0.39934  0.18623  1.0000
  C   C749      1.0  0.55197  0.43889  0.20034  1.0000
  H   H890      1.0  0.99917  0.50159  0.04058  1.0000
  H   H891      1.0  0.81920  0.45001  0.00169  1.0000
  H   H892      1.0  0.80560  0.46342  0.07602  1.0000
  H   H893      1.0  0.93164  0.45383  0.00091  1.0000
  C   C750      1.0  0.72441  0.02464  0.16020  1.0000
  C   C751      1.0  0.99273  0.35163  0.21015  1.0000
  S   S203      1.0  0.87812  0.50941  0.02242  1.0000
  C   C752      1.0  0.89884  0.50085  0.06288  1.0000
  H   H894      1.0  0.79904  0.40966  0.03018  1.0000
  H   H895      1.0  0.82461  0.49097  0.05308  1.0000
  H   H896      1.0  0.82095  0.16424  0.18707  1.0000
  H   H897      1.0  0.72205  0.49946  0.20175  1.0000
  C   C753      1.0  0.71431  0.50576  0.04096  1.0000
  H   H898      1.0  0.53424  0.45214  0.10192  1.0000
  N   N50       1.0  0.84244  0.36204  0.16499  1.0000
  H   H899      1.0  0.95332  0.50592  0.97982  1.0000
  C   C754      1.0  0.77521  0.12288  0.17900  1.0000
  H   H900      1.0  0.76223  0.13578  0.18026  1.0000
  H   H901      1.0  0.59123  0.47574  0.15172  1.0000
  H   H902      1.0  0.78496  0.02732  0.19131  1.0000
  H   H903      1.0  0.83703  0.30473  0.18185  1.0000
  C   C755      1.0  0.99588  0.48813  0.99624  1.0000
  H   H904      1.0  0.89166  0.38544  0.15379  1.0000
  C   C756      1.0  0.77514  0.03272  0.14724  1.0000
  H   H905      1.0  0.94897  0.45318  0.02756  1.0000
  H   H906      1.0  0.69719  0.38645  0.17088  1.0000
  H   H907      1.0  0.54509  0.50739  0.05171  1.0000
  H   H908      1.0  0.82953  0.34884  0.11992  1.0000
  H   H909      1.0  0.57309  0.47051  0.01496  1.0000
  H   H910      1.0  0.76269  0.49507  0.17736  1.0000
  C   C757      1.0  0.84996  0.36172  0.18926  1.0000
  S   S204      1.0  0.87677  0.27195  0.19593  1.0000
  C   C758      1.0  0.93505  0.36833  0.20257  1.0000
  H   H911      1.0  0.56389  0.42224  0.10408  1.0000
  C   C759      1.0  0.56003  0.46487  0.10419  1.0000
  C   C760      1.0  0.76197  0.46808  0.01831  1.0000
  H   H912      1.0  0.97493  0.33038  0.20136  1.0000
  H   H913      1.0  0.88476  0.01402  0.01606  1.0000
  C   C761      1.0  0.59679  0.49256  0.01232  1.0000
  N   N51       1.0  0.75286  0.48174  0.21240  1.0000
  H   H914      1.0  0.74841  0.02421  0.20119  1.0000
  H   H915      1.0  0.72160  0.03721  0.14543  1.0000
  C   C762      1.0  0.75993  0.02014  0.18629  1.0000
  S   S205      1.0  0.77883  0.51089  0.11943  1.0000
  H   H916      1.0  0.70985  0.02566  0.17444  1.0000
  H   H917      1.0  0.81219  0.47084  0.96637  1.0000
  H   H918      1.0  0.83331  0.01324  0.01989  1.0000
  H   H919      1.0  0.94525  0.38566  0.21606  1.0000
  C   C763      1.0  0.94913  0.30874  0.36084  1.0000
  C   C764      1.0  0.99165  0.35299  0.23355  1.0000
  H   H920      1.0  0.80486  0.07871  0.31218  1.0000
  H   H921      1.0  0.94139  0.33646  0.46097  1.0000
  S   S206      1.0  0.63200  0.43950  0.28898  1.0000
  H   H922      1.0  0.70946  0.10142  0.42756  1.0000
  H   H923      1.0  0.65435  0.50082  0.32426  1.0000
  H   H924      1.0  0.52849  0.31675  0.32972  1.0000
  Fe  Fe106     1.0  0.60743  0.42538  0.25545  1.0000
  S   S207      1.0  0.58418  0.37402  0.24414  1.0000
  H   H925      1.0  0.63329  0.07288  0.34616  1.0000
  S   S208      1.0  0.58244  0.45360  0.25899  1.0000
  H   H926      1.0  0.79528  0.12079  0.27647  1.0000
  C   C765      1.0  0.73791  0.07581  0.29075  1.0000
  H   H927      1.0  0.00751  0.17826  0.25055  1.0000
  H   H928      1.0  0.72655  0.03916  0.33092  1.0000
  C   C766      1.0  0.55952  0.37793  0.31214  1.0000
  C   C767      1.0  0.76867  0.11846  0.36459  1.0000
  C   C768      1.0  0.97570  0.20405  0.29080  1.0000
  C   C769      1.0  0.78309  0.06986  0.30138  1.0000
  S   S209      1.0  0.65741  0.04048  0.27600  1.0000
  C   C770      1.0  0.72919  0.15580  0.29871  1.0000
  H   H929      1.0  0.79189  0.14202  0.33440  1.0000
  Fe  Fe107     1.0  0.86411  0.22003  0.27321  1.0000
  S   S210      1.0  0.90132  0.20534  0.27439  1.0000
  S   S211      1.0  0.83011  0.20697  0.30267  1.0000
  H   H930      1.0  0.76423  0.06688  0.23768  1.0000
  H   H931      1.0  0.65557  0.14890  0.43922  1.0000
  Fe  Fe108     1.0  0.88663  0.18926  0.23890  1.0000
  S   S212      1.0  0.88172  0.14192  0.22902  1.0000
  Fe  Fe109     1.0  0.93464  0.25415  0.26021  1.0000
  H   H932      1.0  0.91245  0.32765  0.22513  1.0000
  S   S213      1.0  0.84696  0.20059  0.23838  1.0000
  S   S214      1.0  0.89815  0.27008  0.26141  1.0000
  C   C771      1.0  0.60368  0.50800  0.36067  1.0000
  C   C772      1.0  0.56543  0.39712  0.35833  1.0000
  N   N52       1.0  0.76795  0.08985  0.30424  1.0000
  Fe  Fe110     1.0  0.87317  0.23980  0.42055  1.0000
  S   S215      1.0  0.85639  0.26989  0.40332  1.0000
  S   S216      1.0  0.89914  0.22458  0.39677  1.0000
  Fe  Fe111     1.0  0.87467  0.30077  0.43417  1.0000
  S   S217      1.0  0.90484  0.35488  0.43135  1.0000
  Fe  Fe112     1.0  0.81049  0.23915  0.42220  1.0000
  S   S218      1.0  0.76148  0.21515  0.40590  1.0000
  S   S219      1.0  0.89433  0.27241  0.45034  1.0000
  S   S220      1.0  0.82634  0.20733  0.43772  1.0000
  C   C773      1.0  0.84961  0.21210  0.32879  1.0000
  C   C774      1.0  0.83192  0.20519  0.34885  1.0000
  C   C775      1.0  0.84695  0.20826  0.36970  1.0000
  C   C776      1.0  0.87972  0.21805  0.37062  1.0000
  C   C777      1.0  0.89739  0.22475  0.35062  1.0000
  C   C778      1.0  0.88252  0.22248  0.32981  1.0000
  H   H933      1.0  0.80667  0.19784  0.34839  1.0000
  H   H934      1.0  0.83315  0.20316  0.38510  1.0000
  H   H935      1.0  0.92282  0.23279  0.35126  1.0000
  H   H936      1.0  0.89679  0.22941  0.31468  1.0000
  H   H937      1.0  0.97333  0.33272  0.24293  1.0000
  S   S221      1.0  0.64462  0.08586  0.44222  1.0000
  H   H938      1.0  0.95143  0.18214  0.29068  1.0000
  C   C779      1.0  0.73174  0.17983  0.41891  1.0000
  C   C780      1.0  0.73417  0.15210  0.41976  1.0000
  C   C781      1.0  0.70785  0.12292  0.42730  1.0000
  H   H939      1.0  0.66877  0.09356  0.38842  1.0000
  H   H940      1.0  0.82608  0.02683  0.24130  1.0000
  H   H941      1.0  0.75595  0.15300  0.41394  1.0000
  C   C782      1.0  0.67749  0.14964  0.43390  1.0000
  H   H942      1.0  0.79154  0.50881  0.23578  1.0000
  N   N53       1.0  0.99361  0.20764  0.26952  1.0000
  C   C783      1.0  0.96521  0.40794  0.43563  1.0000
  C   C784      1.0  0.94485  0.37577  0.44170  1.0000
  H   H943      1.0  0.78057  0.14050  0.37428  1.0000
  H   H944      1.0  0.52389  0.43283  0.38862  1.0000
  S   S222      1.0  0.92420  0.23670  0.22441  1.0000
  H   H945      1.0  0.97048  0.30391  0.40247  1.0000
  Fe  Fe113     1.0  0.67251  0.48125  0.27114  1.0000
  H   H946      1.0  0.92340  0.28984  0.36291  1.0000
  H   H947      1.0  0.74273  0.07652  0.27234  1.0000
  N   N54       1.0  0.53008  0.36190  0.32638  1.0000
  C   C785      1.0  0.81544  0.10080  0.23510  1.0000
  C   C786      1.0  0.84643  0.10466  0.23417  1.0000
  C   C787      1.0  0.84977  0.07768  0.23615  1.0000
  H   H948      1.0  0.68849  0.11947  0.28048  1.0000
  C   C788      1.0  0.02127  0.30564  0.24069  1.0000
  H   H949      1.0  0.81254  0.12144  0.23314  1.0000
  H   H950      1.0  0.87345  0.08027  0.23527  1.0000
  C   C789      1.0  0.53720  0.36923  0.35068  1.0000
  C   C790      1.0  0.54364  0.34539  0.24973  1.0000
  H   H951      1.0  0.81426  0.13353  0.30322  1.0000
  H   H952      1.0  0.55479  0.36975  0.29434  1.0000
  S   S223      1.0  0.66713  0.02831  0.40920  1.0000
  C   C791      1.0  0.63570  0.09494  0.35391  1.0000
  H   H953      1.0  0.62126  0.08698  0.36977  1.0000
  H   H954      1.0  0.55283  0.30668  0.24453  1.0000
  C   C792      1.0  0.99715  0.42510  0.44362  1.0000
  C   C793      1.0  0.78808  0.06990  0.23759  1.0000
  H   H955      1.0  0.55321  0.38987  0.41512  1.0000
  H   H956      1.0  0.95070  0.32016  0.34424  1.0000
  H   H957      1.0  0.76642  0.04435  0.30568  1.0000
  H   H958      1.0  0.69430  0.16351  0.37753  1.0000
  H   H959      1.0  0.68483  0.08478  0.36379  1.0000
  H   H960      1.0  0.78041  0.13827  0.29608  1.0000
  H   H961      1.0  0.65432  0.02748  0.35830  1.0000
  C   C794      1.0  0.79038  0.12198  0.29470  1.0000
  C   C795      1.0  0.68354  0.10416  0.37293  1.0000
  C   C796      1.0  0.54885  0.38422  0.39732  1.0000
  H   H962      1.0  0.66166  0.15903  0.36029  1.0000
  N   N55       1.0  0.66988  0.11923  0.35839  1.0000
  C   C797      1.0  0.73867  0.06176  0.33977  1.0000
  C   C798      1.0  0.67926  0.12167  0.43408  1.0000
  C   C799      1.0  0.74759  0.08974  0.37527  1.0000
  H   H963      1.0  0.73299  0.16801  0.35503  1.0000
  C   C800      1.0  0.99440  0.35751  0.37806  1.0000
  N   N56       1.0  0.96010  0.33221  0.37964  1.0000
  Fe  Fe114     1.0  0.84491  0.24374  0.46561  1.0000
  C   C801      1.0  0.01456  0.38011  0.24493  1.0000
  Fe  Fe115     1.0  0.62748  0.49371  0.24370  1.0000
  H   H964      1.0  0.76578  0.18907  0.32109  1.0000
  C   C802      1.0  0.67624  0.40195  0.22207  1.0000
  C   C803      1.0  0.97372  0.20841  0.25069  1.0000
  C   C804      1.0  0.70337  0.17842  0.42607  1.0000
  H   H965      1.0  0.00511  0.34545  0.34461  1.0000
  C   C805      1.0  0.93985  0.34732  0.37948  1.0000
  H   H966      1.0  0.52379  0.48644  0.36055  1.0000
  C   C806      1.0  0.99685  0.17888  0.26704  1.0000
  H   H967      1.0  0.74301  0.08939  0.39322  1.0000
  H   H968      1.0  0.75700  0.47593  0.24817  1.0000
  C   C807      1.0  0.70223  0.43282  0.22548  1.0000
  H   H969      1.0  0.94301  0.36073  0.36354  1.0000
  H   H970      1.0  0.65430  0.09823  0.31322  1.0000
  H   H971      1.0  0.70831  0.12172  0.37855  1.0000
  C   C808      1.0  0.61363  0.49745  0.34206  1.0000
  H   H972      1.0  0.72448  0.49686  0.23167  1.0000
  S   S224      1.0  0.82620  0.27398  0.45097  1.0000
  Fe  Fe116     1.0  0.88531  0.24945  0.22653  1.0000
  H   H973      1.0  0.97303  0.15643  0.26804  1.0000
  C   C809      1.0  0.67005  0.14582  0.37106  1.0000
  H   H974      1.0  0.96319  0.29619  0.36014  1.0000
  H   H975      1.0  0.62409  0.10463  0.34267  1.0000
  H   H976      1.0  0.94592  0.36460  0.39354  1.0000
  H   H977      1.0  0.98866  0.20215  0.30573  1.0000
  H   H978      1.0  0.67603  0.05826  0.32258  1.0000
  S   S225      1.0  0.98177  0.28543  0.27823  1.0000
  H   H979      1.0  0.00187  0.28592  0.23173  1.0000
  H   H980      1.0  0.91382  0.32930  0.38137  1.0000
  H   H981      1.0  0.59286  0.42566  0.38669  1.0000
  C   C810      1.0  0.77192  0.48379  0.23261  1.0000
  S   S226      1.0  0.72285  0.49299  0.27984  1.0000
  C   C811      1.0  0.77506  0.11900  0.34151  1.0000
  C   C812      1.0  0.73240  0.06148  0.36283  1.0000
  C   C813      1.0  0.76044  0.09052  0.32841  1.0000
  C   C814      1.0  0.79187  0.04308  0.24014  1.0000
  H   H982      1.0  0.70265  0.44478  0.24101  1.0000
  H   H983      1.0  0.01251  0.44996  0.43909  1.0000
  H   H984      1.0  0.58338  0.41412  0.34688  1.0000
  H   H985      1.0  0.79081  0.07009  0.28366  1.0000
  H   H986      1.0  0.95740  0.32862  0.41617  1.0000
  H   H987      1.0  0.65428  0.13704  0.38628  1.0000
  C   C815      1.0  0.95419  0.31395  0.40096  1.0000
  H   H988      1.0  0.77989  0.04581  0.45924  1.0000
  C   C816      1.0  0.01735  0.31106  0.26333  1.0000
  H   H989      1.0  0.98347  0.20771  0.23386  1.0000
  Fe  Fe117     1.0  0.63775  0.03729  0.43436  1.0000
  H   H990      1.0  0.65724  0.39107  0.23462  1.0000
  H   H991      1.0  0.72471  0.08892  0.29358  1.0000
  C   C817      1.0  0.64650  0.50957  0.33822  1.0000
  H   H992      1.0  0.72104  0.05026  0.29481  1.0000
  Fe  Fe118     1.0  0.61006  0.47057  0.29135  1.0000
  C   C818      1.0  0.57113  0.40424  0.38132  1.0000
  H   H993      1.0  0.95629  0.41967  0.42471  1.0000
  C   C819      1.0  0.82284  0.04730  0.23947  1.0000
  H   H994      1.0  0.92909  0.29351  0.40198  1.0000
  C   C820      1.0  0.65523  0.03448  0.32219  1.0000
  C   C821      1.0  0.95668  0.36097  0.45587  1.0000
  C   C822      1.0  0.00873  0.41030  0.45806  1.0000
  H   H995      1.0  0.56952  0.40422  0.31127  1.0000
  H   H996      1.0  0.74425  0.16535  0.28384  1.0000
  H   H997      1.0  0.99555  0.37899  0.41070  1.0000
  S   S227      1.0  0.58492  0.46999  0.32329  1.0000
  S   S228      1.0  0.65029  0.46396  0.23711  1.0000
  H   H998      1.0  0.78294  0.46848  0.23071  1.0000
  C   C823      1.0  0.68975  0.13158  0.33771  1.0000
  C   C824      1.0  0.67825  0.11820  0.31598  1.0000
  C   C825      1.0  0.72214  0.15707  0.33905  1.0000
  C   C826      1.0  0.69781  0.13023  0.29685  1.0000
  C   C827      1.0  0.74132  0.16911  0.31976  1.0000
  C   C828      1.0  0.98835  0.37817  0.46405  1.0000
  H   H999      1.0  0.97227  0.23062  0.25144  1.0000
  C   C829      1.0  0.01394  0.36138  0.35893  1.0000
  H   H1000     1.0  0.71586  0.03917  0.37113  1.0000
  H   H1001     1.0  0.94866  0.18763  0.25119  1.0000
  H   H1002     1.0  0.57850  0.37315  0.31846  1.0000
  C   C830      1.0  0.00889  0.38015  0.39573  1.0000
  H   H1003     1.0  0.70121  0.19962  0.42525  1.0000
  S   S229      1.0  0.69022  0.01812  0.22299  1.0000
  H   H1004     1.0  0.97158  0.22453  0.29340  1.0000
  H   H1005     1.0  0.57840  0.49862  0.36386  1.0000
  C   C831      1.0  0.64306  0.01717  0.34236  1.0000
  H   H1006     1.0  0.01249  0.17798  0.28053  1.0000
  H   H1007     1.0  0.01409  0.38059  0.26321  1.0000
  C   C832      1.0  0.53488  0.31319  0.24851  1.0000
  C   C833      1.0  0.64113  0.02043  0.30148  1.0000
  H   H1008     1.0  0.76813  0.15224  0.45982  1.0000
  H   H1009     1.0  0.52670  0.37841  0.25587  1.0000
  H   H1010     1.0  0.53431  0.44061  0.35954  1.0000
  C   C834      1.0  0.52813  0.49869  0.45597  1.0000
  H   H1011     1.0  0.55696  0.40197  0.21680  1.0000
  C   C835      1.0  0.63497  0.06407  0.55157  1.0000
  H   H1012     1.0  0.61198  0.45489  0.50696  1.0000
  C   C836      1.0  0.93374  0.35656  0.52481  1.0000
  S   S230      1.0  0.76469  0.01574  0.64571  1.0000
  H   H1013     1.0  0.89217  0.40527  0.49583  1.0000
  H   H1014     1.0  0.72164  0.19756  0.66167  1.0000
  N   N57       1.0  0.89018  0.36098  0.50457  1.0000
  Fe  Fe119     1.0  0.77723  0.30469  0.59254  1.0000
  S   S231      1.0  0.72489  0.28959  0.59568  1.0000
  S   S232      1.0  0.79780  0.31625  0.55749  1.0000
  Fe  Fe120     1.0  0.78542  0.30116  0.64244  1.0000
  S   S233      1.0  0.73401  0.28558  0.64926  1.0000
  S   S234      1.0  0.81470  0.30456  0.67286  1.0000
  Fe  Fe121     1.0  0.72340  0.25297  0.61977  1.0000
  S   S235      1.0  0.67989  0.20363  0.62352  1.0000
  Fe  Fe122     1.0  0.74072  0.32391  0.62482  1.0000
  S   S236      1.0  0.71931  0.35490  0.63488  1.0000
  S   S237      1.0  0.77453  0.26559  0.61458  1.0000
  S   S238      1.0  0.79339  0.34189  0.61999  1.0000
  H   H1015     1.0  0.64163  0.46254  0.48555  1.0000
  H   H1016     1.0  0.62526  0.20445  0.63986  1.0000
  H   H1017     1.0  0.84584  0.34943  0.52153  1.0000
  Fe  Fe123     1.0  0.69276  0.04486  0.60219  1.0000
  S   S239      1.0  0.74643  0.06749  0.60281  1.0000
  S   S240      1.0  0.66196  0.06481  0.61437  1.0000
  Fe  Fe124     1.0  0.73983  0.04360  0.56902  1.0000
  S   S241      1.0  0.77092  0.06704  0.53871  1.0000
  C   C837      1.0  0.81158  0.49705  0.65512  1.0000
  H   H1018     1.0  0.84708  0.26669  0.67425  1.0000
  H   H1019     1.0  0.59147  0.25603  0.64044  1.0000
  H   H1020     1.0  0.64942  0.10170  0.52707  1.0000
  H   H1021     1.0  0.59736  0.20292  0.66102  1.0000
  H   H1022     1.0  0.80084  0.16099  0.50658  1.0000
  H   H1023     1.0  0.84626  0.42567  0.65931  1.0000
  H   H1024     1.0  0.77997  0.18410  0.47925  1.0000
  H   H1025     1.0  0.84911  0.21318  0.71617  1.0000
  C   C838      1.0  0.70431  0.08958  0.66915  1.0000
  C   C839      1.0  0.67178  0.28952  0.67762  1.0000
  C   C840      1.0  0.75136  0.16149  0.70764  1.0000
  N   N58       1.0  0.65578  0.50010  0.51032  1.0000
  C   C841      1.0  0.74894  0.20659  0.69220  1.0000
  C   C842      1.0  0.81799  0.43860  0.70922  1.0000
  H   H1026     1.0  0.87720  0.31099  0.50556  1.0000
  C   C843      1.0  0.62067  0.03112  0.55519  1.0000
  S   S242      1.0  0.77289  0.49284  0.59095  1.0000
  H   H1027     1.0  0.75544  0.23158  0.69299  1.0000
  H   H1028     1.0  0.91640  0.27132  0.70423  1.0000
  C   C844      1.0  0.63823  0.07613  0.52978  1.0000
  H   H1029     1.0  0.88853  0.23928  0.68628  1.0000
  H   H1030     1.0  0.59335  0.21053  0.63187  1.0000
  C   C845      1.0  0.67783  0.16631  0.62046  1.0000
  C   C846      1.0  0.70424  0.16274  0.61471  1.0000
  C   C847      1.0  0.70021  0.13173  0.61248  1.0000
  C   C848      1.0  0.66985  0.10456  0.61619  1.0000
  C   C849      1.0  0.64398  0.10855  0.62219  1.0000
  C   C850      1.0  0.64790  0.13906  0.62424  1.0000
  H   H1031     1.0  0.72756  0.18373  0.61189  1.0000
  H   H1032     1.0  0.72049  0.12892  0.60810  1.0000
  H   H1033     1.0  0.62053  0.08780  0.62521  1.0000
  H   H1034     1.0  0.62742  0.14150  0.62876  1.0000
  C   C851      1.0  0.73378  0.39307  0.62245  1.0000
  C   C852      1.0  0.75819  0.40474  0.60624  1.0000
  C   C853      1.0  0.76954  0.43522  0.59678  1.0000
  C   C854      1.0  0.75662  0.45440  0.60328  1.0000
  C   C855      1.0  0.73232  0.44290  0.61965  1.0000
  C   C856      1.0  0.72099  0.41234  0.62921  1.0000
  H   H1035     1.0  0.76825  0.39020  0.60088  1.0000
  H   H1036     1.0  0.78840  0.44394  0.58418  1.0000
  H   H1037     1.0  0.72217  0.45742  0.62481  1.0000
  H   H1038     1.0  0.70209  0.40348  0.64175  1.0000
  C   C857      1.0  0.80323  0.28704  0.54388  1.0000
  C   C858      1.0  0.79489  0.28057  0.52111  1.0000
  C   C859      1.0  0.80339  0.26122  0.50878  1.0000
  C   C860      1.0  0.82151  0.24933  0.51883  1.0000
  C   C861      1.0  0.82852  0.25445  0.54193  1.0000
  C   C862      1.0  0.81926  0.27320  0.55450  1.0000
  H   H1039     1.0  0.78219  0.29095  0.51289  1.0000
  H   H1040     1.0  0.79609  0.25580  0.49145  1.0000
  H   H1041     1.0  0.84217  0.24493  0.54991  1.0000
  H   H1042     1.0  0.82594  0.27826  0.57207  1.0000
  H   H1043     1.0  0.65850  0.46772  0.53408  1.0000
  N   N59       1.0  0.75232  0.13707  0.49400  1.0000
  S   S243      1.0  0.68682  0.02463  0.56739  1.0000
  H   H1044     1.0  0.66625  0.29153  0.63051  1.0000
  C   C863      1.0  0.67415  0.48734  0.52224  1.0000
  H   H1045     1.0  0.76934  0.11585  0.70328  1.0000
  H   H1046     1.0  0.94499  0.41900  0.49121  1.0000
  C   C864      1.0  0.73075  0.01914  0.47067  1.0000
  H   H1047     1.0  0.89131  0.33034  0.47876  1.0000
  C   C865      1.0  0.75070  0.01831  0.67257  1.0000
  N   N60       1.0  0.72426  0.10744  0.68895  1.0000
  C   C866      1.0  0.80268  0.31905  0.69584  1.0000
  C   C867      1.0  0.78581  0.33525  0.69227  1.0000
  H   H1048     1.0  0.89925  0.36996  0.69614  1.0000
  H   H1049     1.0  0.87123  0.33970  0.53724  1.0000
  H   H1050     1.0  0.61908  0.48243  0.48438  1.0000
  H   H1051     1.0  0.70597  0.32141  0.70207  1.0000
  C   C868      1.0  0.61035  0.26371  0.65367  1.0000
  H   H1052     1.0  0.88153  0.38072  0.53455  1.0000
  C   C869      1.0  0.61107  0.21557  0.64559  1.0000
  H   H1053     1.0  0.70597  0.02113  0.52407  1.0000
  C   C870      1.0  0.75505  0.04829  0.51270  1.0000
  C   C871      1.0  0.92447  0.37402  0.51044  1.0000
  C   C872      1.0  0.73995  0.17473  0.51625  1.0000
  C   C873      1.0  0.72824  0.18191  0.53564  1.0000
  C   C874      1.0  0.71617  0.16028  0.55347  1.0000
  H   H1054     1.0  0.74939  0.19284  0.50327  1.0000
  H   H1055     1.0  0.01498  0.40628  0.52594  1.0000
  H   H1056     1.0  0.70704  0.16604  0.56836  1.0000
  C   C875      1.0  0.88467  0.38135  0.48854  1.0000
  C   C876      1.0  0.78225  0.13714  0.50008  1.0000
  H   H1057     1.0  0.73648  0.09841  0.46995  1.0000
  C   C877      1.0  0.75433  0.10595  0.68790  1.0000
  C   C878      1.0  0.65423  0.25791  0.66896  1.0000
  H   H1058     1.0  0.77017  0.50672  0.67955  1.0000
  C   C879      1.0  0.66046  0.23477  0.67890  1.0000
  C   C880      1.0  0.73988  0.14538  0.51420  1.0000
  H   H1059     1.0  0.82982  0.22692  0.68451  1.0000
  H   H1060     1.0  0.76238  0.35836  0.70784  1.0000
  C   C881      1.0  0.77572  0.05539  0.49423  1.0000
  C   C882      1.0  0.77154  0.02754  0.69109  1.0000
  H   H1061     1.0  0.68489  0.47752  0.51028  1.0000
  H   H1062     1.0  0.85173  0.31916  0.48869  1.0000
  C   C883      1.0  0.82940  0.42597  0.67135  1.0000
  C   C884      1.0  0.68192  0.24274  0.69695  1.0000
  C   C885      1.0  0.87152  0.35761  0.52534  1.0000
  H   H1063     1.0  0.00033  0.43828  0.50172  1.0000
  H   H1064     1.0  0.99698  0.36667  0.47546  1.0000
  H   H1065     1.0  0.66105  0.50829  0.55774  1.0000
  H   H1066     1.0  0.68061  0.08850  0.66918  1.0000
  C   C886      1.0  0.72995  0.18741  0.67454  1.0000
  C   C887      1.0  0.72213  0.02673  0.51003  1.0000
  H   H1067     1.0  0.82085  0.25482  0.69810  1.0000
  H   H1068     1.0  0.72359  0.08556  0.49790  1.0000
  C   C888      1.0  0.71646  0.13166  0.55225  1.0000
  C   C889      1.0  0.77544  0.34594  0.71068  1.0000
  H   H1069     1.0  0.70632  0.14168  0.65942  1.0000
  H   H1070     1.0  0.80121  0.07210  0.49617  1.0000
  H   H1071     1.0  0.59807  0.25586  0.67032  1.0000
  H   H1072     1.0  0.64363  0.08032  0.56586  1.0000
  H   H1073     1.0  0.73858  0.16147  0.46992  1.0000
  H   H1074     1.0  0.64969  0.21057  0.67269  1.0000
  H   H1075     1.0  0.62344  0.29029  0.65322  1.0000
  H   H1076     1.0  0.91606  0.33364  0.53168  1.0000
  C   C890      1.0  0.79713  0.41235  0.66545  1.0000
  N   N61       1.0  0.63192  0.25045  0.64971  1.0000
  H   H1077     1.0  0.70779  0.11517  0.56637  1.0000
  C   C891      1.0  0.75939  0.19355  0.70883  1.0000
  C   C892      1.0  0.72823  0.10477  0.48566  1.0000
  H   H1078     1.0  0.63538  0.26014  0.61393  1.0000
  C   C893      1.0  0.72839  0.12437  0.53303  1.0000
  H   H1079     1.0  0.74925  0.08088  0.68642  1.0000
  H   H1080     1.0  0.72898  0.20466  0.53696  1.0000
  C   C894      1.0  0.89503  0.26324  0.69310  1.0000
  H   H1081     1.0  0.75000  0.40103  0.67616  1.0000
  H   H1082     1.0  0.76923  0.11941  0.67308  1.0000
  C   C895      1.0  0.83982  0.43914  0.69281  1.0000
  H   H1083     1.0  0.67018  0.30896  0.66998  1.0000
  N   N62       1.0  0.86790  0.26234  0.70562  1.0000
  H   H1084     1.0  0.79626  0.03349  0.68873  1.0000
  H   H1085     1.0  0.79450  0.48531  0.64089  1.0000
  C   C896      1.0  0.88578  0.32048  0.69979  1.0000
  H   H1086     1.0  0.89779  0.38448  0.47237  1.0000
  H   H1087     1.0  0.88411  0.31718  0.68171  1.0000
  H   H1088     1.0  0.69476  0.50643  0.53186  1.0000
  C   C897      1.0  0.78527  0.42504  0.70249  1.0000
  C   C898      1.0  0.84032  0.25224  0.68999  1.0000
  C   C899      1.0  0.76368  0.04052  0.47335  1.0000
  H   H1089     1.0  0.90267  0.27996  0.67851  1.0000
  H   H1090     1.0  0.70485  0.10339  0.48189  1.0000
  H   H1091     1.0  0.80253  0.48043  0.66975  1.0000
  H   H1092     1.0  0.71677  0.10042  0.65294  1.0000
  C   C900      1.0  0.98152  0.41568  0.50847  1.0000
  C   C901      1.0  0.63105  0.47388  0.49623  1.0000
  H   H1093     1.0  0.79278  0.13126  0.48540  1.0000
  H   H1094     1.0  0.83461  0.49918  0.64948  1.0000
  C   C902      1.0  0.69287  0.29710  0.69580  1.0000
  C   C903      1.0  0.72147  0.15519  0.67335  1.0000
  H   H1095     1.0  0.68440  0.09278  0.71177  1.0000
  H   H1096     1.0  0.85876  0.37046  0.48404  1.0000
  H   H1097     1.0  0.69892  0.06432  0.66890  1.0000
  C   C904      1.0  0.62686  0.05524  0.51149  1.0000
  H   H1098     1.0  0.66737  0.25570  0.62544  1.0000
  C   C905      1.0  0.77518  0.41215  0.68088  1.0000
  C   C906      1.0  0.73228  0.14130  0.68979  1.0000
  H   H1099     1.0  0.61926  0.02365  0.57254  1.0000
  H   H1100     1.0  0.78898  0.40146  0.64899  1.0000
  H   H1101     1.0  0.72913  0.10237  0.53321  1.0000
  Fe  Fe125     1.0  0.73667  0.02021  0.61685  1.0000
  C   C907      1.0  0.87815  0.29463  0.71468  1.0000
  H   H1102     1.0  0.62912  0.06462  0.49451  1.0000
  H   H1103     1.0  0.78098  0.33986  0.67531  1.0000
  C   C908      1.0  0.70621  0.09060  0.70960  1.0000
  C   C909      1.0  0.65095  0.26511  0.62901  1.0000
  C   C910      1.0  0.96600  0.36814  0.53038  1.0000
  C   C911      1.0  0.87717  0.32904  0.49399  1.0000
  H   H1104     1.0  0.76679  0.42320  0.71378  1.0000
  S   S244      1.0  0.83731  0.22998  0.50248  1.0000
  C   C912      1.0  0.76072  0.02995  0.71260  1.0000
  H   H1105     1.0  0.86506  0.44921  0.69663  1.0000
  H   H1106     1.0  0.97261  0.35408  0.54095  1.0000
  C   C913      1.0  0.98986  0.39758  0.52212  1.0000
  C   C914      1.0  0.75996  0.15974  0.47498  1.0000
  H   H1107     1.0  0.68658  0.22486  0.70413  1.0000
  H   H1108     1.0  0.77817  0.11953  0.51352  1.0000
  C   C915      1.0  0.94941  0.40414  0.50249  1.0000
  H   H1109     1.0  0.69820  0.06465  0.70910  1.0000
  C   C916      1.0  0.69794  0.27378  0.70547  1.0000
  C   C917      1.0  0.89462  0.35096  0.70789  1.0000
  C   C918      1.0  0.61239  0.02224  0.51495  1.0000
  C   C919      1.0  0.72890  0.02275  0.71566  1.0000
  C   C920      1.0  0.64022  0.51241  0.52573  1.0000
  H   H1110     1.0  0.76595  0.51148  0.65013  1.0000
  H   H1111     1.0  0.83784  0.48750  0.86945  1.0000
  H   H1112     1.0  0.88011  0.26156  0.81051  1.0000
  C   C921      1.0  0.89642  0.02039  0.89529  1.0000
  Fe  Fe126     1.0  0.80349  0.36504  0.78452  1.0000
  H   H1113     1.0  0.71490  0.28005  0.71926  1.0000
  C   C922      1.0  0.88962  0.03405  0.93314  1.0000
  C   C923      1.0  0.85248  0.48669  0.73037  1.0000
  H   H1114     1.0  0.87749  0.24212  0.73514  1.0000
  H   H1115     1.0  0.74488  0.39428  0.80233  1.0000
  H   H1116     1.0  0.74821  0.37576  0.84057  1.0000
  S   S245      1.0  0.87052  0.08650  0.76193  1.0000
  C   C924      1.0  0.74565  0.39669  0.83855  1.0000
  Fe  Fe127     1.0  0.81590  0.37512  0.83470  1.0000
  S   S246      1.0  0.86798  0.39060  0.83065  1.0000
  S   S247      1.0  0.79765  0.37244  0.87000  1.0000
  S   S248      1.0  0.79807  0.33163  0.81263  1.0000
  S   S249      1.0  0.81531  0.40660  0.80715  1.0000
  Fe  Fe128     1.0  0.78360  0.08422  0.81037  1.0000
  S   S250      1.0  0.82937  0.12560  0.79693  1.0000
  S   S251      1.0  0.77972  0.08091  0.84823  1.0000
  Fe  Fe129     1.0  0.75645  0.06155  0.76364  1.0000
  C   C925      1.0  0.88111  0.30153  0.73818  1.0000
  H   H1117     1.0  0.87620  0.28370  0.75092  1.0000
  Fe  Fe130     1.0  0.82684  0.08925  0.77198  1.0000
  H   H1118     1.0  0.91783  0.07194  0.80913  1.0000
  Fe  Fe131     1.0  0.79745  0.13312  0.77315  1.0000
  S   S252      1.0  0.79630  0.17781  0.76262  1.0000
  S   S253      1.0  0.78365  0.04749  0.78727  1.0000
  S   S254      1.0  0.75164  0.09399  0.78830  1.0000
  C   C926      1.0  0.82763  0.46848  0.90332  1.0000
  H   H1119     1.0  0.87360  0.08225  0.81774  1.0000
  C   C927      1.0  0.85905  0.25462  0.80021  1.0000
  C   C928      1.0  0.84284  0.22394  0.79039  1.0000
  C   C929      1.0  0.81584  0.21497  0.77687  1.0000
  C   C930      1.0  0.80524  0.23689  0.77320  1.0000
  C   C931      1.0  0.82144  0.26753  0.78298  1.0000
  H   H1120     1.0  0.85176  0.20761  0.79277  1.0000
  C   C932      1.0  0.81765  0.44113  0.91652  1.0000
  H   H1121     1.0  0.76782  0.50545  0.89026  1.0000
  H   H1122     1.0  0.81293  0.45654  0.76496  1.0000
  H   H1123     1.0  0.81319  0.28427  0.77992  1.0000
  H   H1124     1.0  0.80029  0.39040  0.91638  1.0000
  C   C933      1.0  0.84639  0.43625  0.74234  1.0000
  H   H1125     1.0  0.81470  0.44207  0.93450  1.0000
  H   H1126     1.0  0.92246  0.03874  0.89629  1.0000
  C   C934      1.0  0.76119  0.03877  0.88331  1.0000
  C   C935      1.0  0.75844  0.04243  0.86013  1.0000
  C   C936      1.0  0.89515  0.05278  0.81555  1.0000
  S   S255      1.0  0.90447  0.47014  0.79388  1.0000
  H   H1127     1.0  0.78556  0.42116  0.74998  1.0000
  H   H1128     1.0  0.77586  0.05956  0.89363  1.0000
  H   H1129     1.0  0.93683  0.48364  0.85404  1.0000
  C   C937      1.0  0.92815  0.50035  0.84953  1.0000
  C   C938      1.0  0.84034  0.03358  0.82760  1.0000
  S   S256      1.0  0.77000  0.35534  0.75552  1.0000
  C   C939      1.0  0.83064  0.46667  0.87991  1.0000
  C   C940      1.0  0.82328  0.43760  0.86973  1.0000
  C   C941      1.0  0.81169  0.40991  0.88279  1.0000
  H   H1130     1.0  0.76120  0.44257  0.89999  1.0000
  H   H1131     1.0  0.89533  0.48898  0.88788  1.0000
  C   C942      1.0  0.73880  0.44348  0.89725  1.0000
  H   H1132     1.0  0.82503  0.43634  0.85164  1.0000
  C   C943      1.0  0.90560  0.02659  0.75737  1.0000
  H   H1133     1.0  0.82163  0.03926  0.83091  1.0000
  N   N63       1.0  0.79365  0.17503  0.84889  1.0000
  C   C944      1.0  0.77311  0.15554  0.82984  1.0000
  C   C945      1.0  0.82492  0.17601  0.84684  1.0000
  C   C946      1.0  0.77771  0.15820  0.87009  1.0000
  C   C947      1.0  0.79900  0.20798  0.84940  1.0000
  C   C948      1.0  0.78431  0.21912  0.83384  1.0000
  C   C949      1.0  0.81923  0.22999  0.86608  1.0000
  C   C950      1.0  0.78971  0.25033  0.83504  1.0000
  C   C951      1.0  0.82481  0.26128  0.86689  1.0000
  C   C952      1.0  0.81011  0.27143  0.85138  1.0000
  H   H1134     1.0  0.74860  0.15247  0.83072  1.0000
  H   H1135     1.0  0.78414  0.16628  0.81325  1.0000
  H   H1136     1.0  0.76961  0.13098  0.83003  1.0000
  H   H1137     1.0  0.83844  0.18999  0.83175  1.0000
  H   H1138     1.0  0.82159  0.15156  0.84519  1.0000
  H   H1139     1.0  0.84061  0.18696  0.86176  1.0000
  H   H1140     1.0  0.75440  0.15753  0.87249  1.0000
  H   H1141     1.0  0.77258  0.13298  0.87006  1.0000
  H   H1142     1.0  0.79276  0.16982  0.88519  1.0000
  H   H1143     1.0  0.76902  0.20451  0.82028  1.0000
  H   H1144     1.0  0.83110  0.22326  0.87854  1.0000
  H   H1145     1.0  0.77881  0.25860  0.82277  1.0000
  H   H1146     1.0  0.84090  0.27797  0.87942  1.0000
  H   H1147     1.0  0.81498  0.29590  0.85176  1.0000
  H   H1148     1.0  0.88358  0.03174  0.88747  1.0000
  C   C953      1.0  0.78229  0.34094  0.73269  1.0000
  H   H1149     1.0  0.86143  0.49764  0.74726  1.0000
  C   C954      1.0  0.84589  0.02064  0.76719  1.0000
  H   H1150     1.0  0.77362  0.49007  0.96304  1.0000
  H   H1151     1.0  0.93303  0.49159  0.89341  1.0000
  Fe  Fe132     1.0  0.85036  0.34914  0.80653  1.0000
  C   C955      1.0  0.84845  0.27654  0.79654  1.0000
  S   S257      1.0  0.86998  0.31518  0.80856  1.0000
  S   S258      1.0  0.85471  0.37976  0.77673  1.0000
  S   S259      1.0  0.79970  0.10109  0.74664  1.0000
  C   C956      1.0  0.80949  0.31398  0.71791  1.0000
  C   C957      1.0  0.70989  0.46081  0.87383  1.0000
  C   C958      1.0  0.92164  0.50603  0.88903  1.0000
  H   H1152     1.0  0.87962  0.02516  0.95035  1.0000
  C   C959      1.0  0.73955  0.01544  0.84687  1.0000
  Fe  Fe133     1.0  0.86618  0.41926  0.80147  1.0000
  H   H1153     1.0  0.71779  0.41879  0.89842  1.0000
  N   N64       1.0  0.73954  0.45860  0.87527  1.0000
  C   C960      1.0  0.76786  0.49136  0.87543  1.0000
  H   H1154     1.0  0.78450  0.23029  0.76264  1.0000
  C   C961      1.0  0.74066  0.45133  0.83331  1.0000
  H   H1155     1.0  0.74632  0.40372  0.87369  1.0000
  H   H1156     1.0  0.70652  0.47224  0.88909  1.0000
  C   C962      1.0  0.74447  0.41313  0.85760  1.0000
  C   C963      1.0  0.79945  0.32505  0.73631  1.0000
  H   H1157     1.0  0.91592  0.05071  0.93536  1.0000
  H   H1158     1.0  0.76923  0.50514  0.86017  1.0000
  H   H1159     1.0  0.73914  0.47261  0.83040  1.0000
  H   H1160     1.0  0.82294  0.01841  0.77121  1.0000
  H   H1161     1.0  0.73701  0.01811  0.82900  1.0000
  H   H1162     1.0  0.80453  0.32079  0.75330  1.0000
  C   C964      1.0  0.90189  0.05346  0.75679  1.0000
  C   C965      1.0  0.87228  0.05085  0.76189  1.0000
  C   C966      1.0  0.74403  0.40725  0.81700  1.0000
  C   C967      1.0  0.87016  0.05852  0.82040  1.0000
  C   C968      1.0  0.80928  0.41181  0.90622  1.0000
  H   H1163     1.0  0.87958  0.04872  0.92649  1.0000
  H   H1164     1.0  0.77368  0.20824  0.72283  1.0000
  H   H1165     1.0  0.84089  0.49921  0.72246  1.0000
  H   H1166     1.0  0.85285  0.44336  0.76029  1.0000
  C   C969      1.0  0.74176  0.43466  0.81438  1.0000
  H   H1167     1.0  0.72096  0.09993  0.72517  1.0000
  H   H1168     1.0  0.90335  0.38032  0.73728  1.0000
  H   H1169     1.0  0.77698  0.03724  0.72681  1.0000
  C   C970      1.0  0.74153  0.44086  0.85554  1.0000
  H   H1170     1.0  0.84882  0.47913  0.80353  1.0000
  H   H1171     1.0  0.92886  0.02925  0.75361  1.0000
  H   H1172     1.0  0.82219  0.30121  0.72086  1.0000
  H   H1173     1.0  0.73721  0.45732  0.91172  1.0000
  H   H1174     1.0  0.74085  0.44310  0.79762  1.0000
  H   H1175     1.0  0.90964  0.01749  0.81336  1.0000
  S   S260      1.0  0.71522  0.02714  0.74208  1.0000
  H   H1176     1.0  0.71038  0.47560  0.85929  1.0000
  C   C971      1.0  0.89026  0.33220  0.74607  1.0000
  S   S261      1.0  0.82997  0.50296  0.91510  1.0000
  C   C972      1.0  0.80346  0.44707  0.74781  1.0000
  H   H1177     1.0  0.79089  0.45978  0.74198  1.0000
  H   H1178     1.0  0.92235  0.07659  0.75266  1.0000
  H   H1179     1.0  0.83712  0.23569  0.73328  1.0000
  H   H1180     1.0  0.89204  0.33688  0.76405  1.0000
  H   H1181     1.0  0.68816  0.43670  0.87197  1.0000
  N   N65       1.0  0.82960  0.45183  0.73206  1.0000
  S   S262      1.0  0.89714  0.51078  0.95846  1.0000
  H   H1182     1.0  0.83093  0.40973  0.74189  1.0000
  C   C973      1.0  0.89677  0.35678  0.73099  1.0000
  H   H1183     1.0  0.79055  0.49073  0.87591  1.0000
  C   C974      1.0  0.89046  0.02208  0.81795  1.0000
  C   C975      1.0  0.85756  0.23739  0.72336  1.0000
  H   H1184     1.0  0.76003  0.15251  0.72096  1.0000
  H   H1185     1.0  0.94009  0.51175  0.83334  1.0000
  H   H1186     1.0  0.90186  0.48564  0.84600  1.0000
  H   H1187     1.0  0.86937  0.44259  0.73376  1.0000
  C   C976      1.0  0.89689  0.50197  0.78974  1.0000
  C   C977      1.0  0.86786  0.50050  0.79574  1.0000
  H   H1188     1.0  0.87413  0.49223  0.72024  1.0000
  Fe  Fe134     1.0  0.78013  0.82009  0.08232  1.0000
  S   S263      1.0  0.75369  0.77881  0.05887  1.0000
  S   S264      1.0  0.81677  0.86651  0.06691  1.0000
  Fe  Fe135     1.0  0.74364  0.78109  0.12285  1.0000
  S   S265      1.0  0.71385  0.73651  0.10243  1.0000
  S   S266      1.0  0.74072  0.78193  0.16064  1.0000
  Fe  Fe136     1.0  0.76117  0.75052  0.08561  1.0000
  S   S267      1.0  0.77581  0.71416  0.07717  1.0000
  Fe  Fe137     1.0  0.70976  0.76962  0.07793  1.0000
  S   S268      1.0  0.66706  0.76104  0.05689  1.0000
  S   S269      1.0  0.79100  0.79258  0.10757  1.0000
  S   S270      1.0  0.73569  0.81326  0.09970  1.0000
  H   H1189     1.0  0.71326  0.98722  0.07834  1.0000
  C   C978      1.0  0.55493  0.79512  0.19555  1.0000
  H   H1190     1.0  0.77229  0.93018  0.03436  1.0000
  C   C979      1.0  0.65347  0.81715  0.19374  1.0000
  C   C980      1.0  0.92222  0.83032  0.00074  1.0000
  C   C981      1.0  0.57201  0.51387  0.16873  1.0000
  S   S271      1.0  0.54426  0.81910  0.09249  1.0000
  S   S272      1.0  0.54766  0.74349  0.11315  1.0000
  H   H1191     1.0  0.53305  0.97115  0.97794  1.0000
  C   C982      1.0  0.54567  0.95820  0.97508  1.0000
  H   H1192     1.0  0.84238  0.62764  0.03703  1.0000
  H   H1193     1.0  0.87958  0.57962  0.01817  1.0000
  C   C983      1.0  0.77289  0.90785  0.03770  1.0000
  H   H1194     1.0  0.91328  0.66215  0.04331  1.0000
  S   S273      1.0  0.97977  0.54283  0.09999  1.0000
  H   H1195     1.0  0.98525  0.87983  0.03344  1.0000
  C   C984      1.0  0.59660  0.90950  0.02028  1.0000
  S   S274      1.0  0.98315  0.78616  0.12457  1.0000
  H   H1196     1.0  0.62400  0.92543  0.13010  1.0000
  H   H1197     1.0  0.96933  0.96558  0.02218  1.0000
  C   C985      1.0  0.54960  0.89816  0.16858  1.0000
  H   H1198     1.0  0.61376  0.92497  0.00707  1.0000
  S   S275      1.0  0.70218  0.60350  0.99150  1.0000
  H   H1199     1.0  0.61863  0.81840  0.02743  1.0000
  H   H1200     1.0  0.57530  0.61590  0.00861  1.0000
  C   C986      1.0  0.54635  0.88214  0.14820  1.0000
  C   C987      1.0  0.57331  0.89185  0.13437  1.0000
  C   C988      1.0  0.60328  0.91775  0.14087  1.0000
  H   H1201     1.0  0.92169  0.63853  0.02349  1.0000
  H   H1202     1.0  0.57097  0.87981  0.11856  1.0000
  H   H1203     1.0  0.57993  0.68861  0.98367  1.0000
  C   C989      1.0  0.55392  0.82714  0.01645  1.0000
  C   C990      1.0  0.56146  0.83830  0.99427  1.0000
  C   C991      1.0  0.58987  0.84299  0.98422  1.0000
  C   C992      1.0  0.61038  0.83564  0.99610  1.0000
  C   C993      1.0  0.60249  0.82363  0.01812  1.0000
  C   C994      1.0  0.57429  0.81951  0.02837  1.0000
  H   H1204     1.0  0.54572  0.84413  0.98500  1.0000
  C   C995      1.0  0.68950  0.97546  0.07083  1.0000
  C   C996      1.0  0.74641  0.52931  0.03747  1.0000
  H   H1205     1.0  0.56864  0.81101  0.04556  1.0000
  C   C997      1.0  0.64234  0.80196  0.15464  1.0000
  C   C998      1.0  0.86763  0.57037  0.07076  1.0000
  H   H1206     1.0  0.72030  0.92045  0.02810  1.0000
  H   H1207     1.0  0.70021  0.83131  0.06011  1.0000
  C   C999      1.0  0.95166  0.80367  0.02626  1.0000
  H   H1208     1.0  0.91840  0.56566  0.10845  1.0000
  H   H1209     1.0  0.91055  0.84043  0.99082  1.0000
  H   H1210     1.0  0.65298  0.82764  0.07742  1.0000
  H   H1211     1.0  0.95636  0.88458  0.06239  1.0000
  H   H1212     1.0  0.85953  0.68856  0.06105  1.0000
  C   C1000     1.0  0.66469  0.53683  0.20105  1.0000
  C   C1001     1.0  0.53627  0.62967  0.06748  1.0000
  C   C1002     1.0  0.60657  0.93351  0.16143  1.0000
  H   H1213     1.0  0.53158  0.60502  0.11075  1.0000
  C   C1003     1.0  0.75503  0.54845  0.01811  1.0000
  H   H1214     1.0  0.99733  0.78688  0.96671  1.0000
  H   H1215     1.0  0.79758  0.73762  0.00528  1.0000
  C   C1004     1.0  0.72273  0.55995  0.20140  1.0000
  H   H1216     1.0  0.86185  0.63687  0.06417  1.0000
  C   C1005     1.0  0.75311  0.75584  0.17104  1.0000
  C   C1006     1.0  0.76206  0.75687  0.19368  1.0000
  C   C1007     1.0  0.77386  0.73707  0.20122  1.0000
  C   C1008     1.0  0.77599  0.71588  0.18617  1.0000
  C   C1009     1.0  0.76614  0.71435  0.16385  1.0000
  C   C1010     1.0  0.75532  0.73459  0.15623  1.0000
  C   C1011     1.0  0.58643  0.85039  0.18414  1.0000
  H   H1217     1.0  0.63752  0.86846  0.06999  1.0000
  H   H1218     1.0  0.76736  0.69785  0.15226  1.0000
  H   H1219     1.0  0.74875  0.73365  0.13880  1.0000
  C   C1012     1.0  0.81643  0.72340  0.07747  1.0000
  C   C1013     1.0  0.84162  0.75173  0.08671  1.0000
  C   C1014     1.0  0.99373  0.90047  0.02175  1.0000
  S   S276      1.0  0.77268  0.97765  0.99889  1.0000
  C   C1015     1.0  0.74003  0.69415  0.99122  1.0000
  C   C1016     1.0  0.82327  0.70078  0.06841  1.0000
  H   H1220     1.0  0.83663  0.76935  0.09383  1.0000
  C   C1017     1.0  0.87825  0.55822  0.08799  1.0000
  H   H1221     1.0  0.53161  0.88255  0.96783  1.0000
  H   H1222     1.0  0.80413  0.67893  0.06119  1.0000
  C   C1018     1.0  0.63489  0.75796  0.07286  1.0000
  C   C1019     1.0  0.63212  0.75027  0.09578  1.0000
  C   C1020     1.0  0.60516  0.74581  0.10799  1.0000
  C   C1021     1.0  0.58156  0.75025  0.09757  1.0000
  C   C1022     1.0  0.58470  0.75875  0.07478  1.0000
  C   C1023     1.0  0.61116  0.76219  0.06239  1.0000
  H   H1223     1.0  0.65036  0.74696  0.10396  1.0000
  H   H1224     1.0  0.60265  0.73902  0.12560  1.0000
  H   H1225     1.0  0.56647  0.76207  0.06663  1.0000
  H   H1226     1.0  0.61350  0.76854  0.04475  1.0000
  C   C1024     1.0  0.82851  0.85727  0.04130  1.0000
  C   C1025     1.0  0.82675  0.82771  0.03840  1.0000
  C   C1026     1.0  0.83278  0.81896  0.01720  1.0000
  C   C1027     1.0  0.84124  0.84003  0.99901  1.0000
  C   C1028     1.0  0.84412  0.87005  0.00214  1.0000
  C   C1029     1.0  0.83794  0.87874  0.02328  1.0000
  H   H1227     1.0  0.82108  0.81168  0.05257  1.0000
  C   C1030     1.0  0.97804  0.79004  0.97456  1.0000
  C   C1031     1.0  0.54635  0.51681  0.03498  1.0000
  H   H1228     1.0  0.84009  0.90193  0.02551  1.0000
  N   N66       1.0  0.78338  0.63713  0.12673  1.0000
  C   C1032     1.0  0.80374  0.62316  0.13275  1.0000
  C   C1033     1.0  0.80385  0.67241  0.12796  1.0000
  C   C1034     1.0  0.75758  0.62626  0.14405  1.0000
  C   C1035     1.0  0.76907  0.62801  0.10391  1.0000
  C   C1036     1.0  0.74653  0.63685  0.09650  1.0000
  C   C1037     1.0  0.77776  0.61146  0.08816  1.0000
  C   C1038     1.0  0.73319  0.62920  0.07488  1.0000
  C   C1039     1.0  0.76453  0.60430  0.06649  1.0000
  H   H1229     1.0  0.52880  0.89092  0.17927  1.0000
  H   H1230     1.0  0.78993  0.59662  0.13137  1.0000
  H   H1231     1.0  0.82553  0.63261  0.12190  1.0000
  H   H1232     1.0  0.81243  0.62871  0.15051  1.0000
  H   H1233     1.0  0.82467  0.68134  0.11618  1.0000
  H   H1234     1.0  0.81328  0.68040  0.14535  1.0000
  H   H1235     1.0  0.79052  0.68476  0.12312  1.0000
  H   H1236     1.0  0.74039  0.60008  0.14261  1.0000
  H   H1237     1.0  0.76744  0.63073  0.16156  1.0000
  H   H1238     1.0  0.74370  0.63886  0.14293  1.0000
  H   H1239     1.0  0.73973  0.65062  0.10716  1.0000
  H   H1240     1.0  0.79468  0.60372  0.09210  1.0000
  H   H1241     1.0  0.71641  0.63669  0.06963  1.0000
  H   H1242     1.0  0.78228  0.70779  0.02637  1.0000
  H   H1243     1.0  0.88493  0.91235  0.06173  1.0000
  C   C1040     1.0  0.94887  0.90089  0.05629  1.0000
  H   H1244     1.0  0.87660  0.75982  0.20030  1.0000
  C   C1041     1.0  0.95075  0.53669  0.07961  1.0000
  H   H1245     1.0  0.85606  0.59671  0.00847  1.0000
  C   C1042     1.0  0.81136  0.95600  0.97960  1.0000
  H   H1246     1.0  0.79478  0.91076  0.02904  1.0000
  C   C1043     1.0  0.57869  0.92473  0.96848  1.0000
  Fe  Fe138     1.0  0.91386  0.94609  0.96750  1.0000
  H   H1247     1.0  0.72857  0.67693  0.03499  1.0000
  C   C1044     1.0  0.02119  0.93605  0.05278  1.0000
  C   C1045     1.0  0.87817  0.67678  0.97231  1.0000
  H   H1248     1.0  0.57273  0.88557  0.06063  1.0000
  H   H1249     1.0  0.58621  0.96651  0.04587  1.0000
  C   C1046     1.0  0.01871  0.78895  0.18004  1.0000
  H   H1250     1.0  0.78589  0.74581  0.03226  1.0000
  H   H1251     1.0  0.90417  0.87644  0.07484  1.0000
  H   H1252     1.0  0.79093  0.93990  0.96940  1.0000
  C   C1047     1.0  0.87345  0.75712  0.08683  1.0000
  C   C1048     1.0  0.65516  0.96621  0.03858  1.0000
  H   H1253     1.0  0.65158  0.54613  0.02646  1.0000
  C   C1049     1.0  0.87309  0.64591  0.96944  1.0000
  N   N67       1.0  0.74600  0.71545  0.01072  1.0000
  H   H1254     1.0  0.89281  0.77889  0.09398  1.0000
  H   H1255     1.0  0.95830  0.76602  0.97993  1.0000
  C   C1050     1.0  0.77932  0.72731  0.01895  1.0000
  C   C1051     1.0  0.74186  0.74243  0.00341  1.0000
  C   C1052     1.0  0.52837  0.92492  0.97299  1.0000
  C   C1053     1.0  0.73451  0.79405  0.98814  1.0000
  H   H1256     1.0  0.73801  0.55908  0.98753  1.0000
  S   S277      1.0  0.01253  0.79220  0.07376  1.0000
  H   H1257     1.0  0.72636  0.82829  0.02813  1.0000
  C   C1054     1.0  0.61552  0.75235  0.99492  1.0000
  H   H1258     1.0  0.85346  0.87072  0.13419  1.0000
  C   C1055     1.0  0.87301  0.80720  0.15905  1.0000
  C   C1056     1.0  0.89588  0.83345  0.14593  1.0000
  H   H1259     1.0  0.60397  0.89201  0.02548  1.0000
  H   H1260     1.0  0.74708  0.99387  0.18319  1.0000
  C   C1057     1.0  0.69246  0.53394  0.16771  1.0000
  C   C1058     1.0  0.66164  0.80812  0.17361  1.0000
  H   H1261     1.0  0.83433  0.74365  0.15652  1.0000
  H   H1262     1.0  0.91844  0.77360  0.17561  1.0000
  H   H1263     1.0  0.53169  0.79498  0.19611  1.0000
  H   H1264     1.0  0.84277  0.55620  0.06566  1.0000
  C   C1059     1.0  0.91393  0.79164  0.16732  1.0000
  H   H1265     1.0  0.54535  0.89334  0.04567  1.0000
  N   N68       1.0  0.57670  0.81705  0.17785  1.0000
  C   C1060     1.0  0.59610  0.95781  0.97170  1.0000
  C   C1061     1.0  0.60565  0.81378  0.17600  1.0000
  H   H1266     1.0  0.71281  0.99882  0.15568  1.0000
  H   H1267     1.0  0.69182  0.77355  0.00869  1.0000
  S   S278      1.0  0.92264  0.90915  0.98334  1.0000
  C   C1062     1.0  0.71189  0.77126  0.00276  1.0000
  H   H1268     1.0  0.69143  0.52577  0.15063  1.0000
  C   C1063     1.0  0.86747  0.97716  0.99079  1.0000
  C   C1064     1.0  0.73139  0.54412  0.00239  1.0000
  S   S279      1.0  0.71777  0.52191  0.10711  1.0000
  S   S280      1.0  0.93732  0.58165  0.98313  1.0000
  H   H1269     1.0  0.92936  0.81467  0.17628  1.0000
  N   N69       1.0  0.74336  0.87887  0.02980  1.0000
  H   H1270     1.0  0.83986  0.56583  0.02905  1.0000
  H   H1271     1.0  0.74106  0.90447  0.00054  1.0000
  C   C1065     1.0  0.74785  0.85099  0.03351  1.0000
  C   C1066     1.0  0.71492  0.87610  0.04167  1.0000
  C   C1067     1.0  0.69519  0.85020  0.05633  1.0000
  C   C1068     1.0  0.70603  0.89972  0.03858  1.0000
  C   C1069     1.0  0.66779  0.84778  0.06651  1.0000
  C   C1070     1.0  0.67833  0.89680  0.04859  1.0000
  C   C1071     1.0  0.65916  0.87083  0.06245  1.0000
  H   H1272     1.0  0.53628  0.81220  0.15867  1.0000
  S   S281      1.0  0.98393  0.85879  0.15050  1.0000
  H   H1273     1.0  0.97539  0.89370  0.00826  1.0000
  H   H1274     1.0  0.98779  0.54127  0.99100  1.0000
  C   C1072     1.0  0.55073  0.62088  0.97977  1.0000
  H   H1275     1.0  0.57272  0.89599  0.01188  1.0000
  H   H1276     1.0  0.73209  0.60724  0.04303  1.0000
  N   N70       1.0  0.59547  0.92798  0.03984  1.0000
  C   C1073     1.0  0.62595  0.82000  0.19498  1.0000
  H   H1277     1.0  0.56342  0.94038  0.02296  1.0000
  H   H1278     1.0  0.91937  0.83702  0.14213  1.0000
  S   S282      1.0  0.64426  0.96602  0.16925  1.0000
  H   H1279     1.0  0.93876  0.63980  0.06126  1.0000
  S   S283      1.0  0.77565  0.53481  0.05735  1.0000
  C   C1074     1.0  0.85473  0.70620  0.06839  1.0000
  H   H1280     1.0  0.54195  0.68186  0.08938  1.0000
  H   H1281     1.0  0.01146  0.59984  0.97260  1.0000
  H   H1282     1.0  0.85086  0.88660  0.98825  1.0000
  H   H1283     1.0  0.69804  0.68311  0.02332  1.0000
  H   H1284     1.0  0.59990  0.65684  0.07176  1.0000
  Fe  Fe139     1.0  0.89230  0.53497  0.98925  1.0000
  C   C1075     1.0  0.63200  0.93906  0.07389  1.0000
  H   H1285     1.0  0.98644  0.88867  0.19238  1.0000
  H   H1286     1.0  0.82337  0.78458  0.17096  1.0000
  H   H1287     1.0  0.75274  0.84873  0.05156  1.0000
  S   S284      1.0  0.90730  0.64132  0.96900  1.0000
  H   H1288     1.0  0.71673  0.86177  0.99881  1.0000
  C   C1076     1.0  0.55785  0.80949  0.15662  1.0000
  H   H1289     1.0  0.61933  0.77641  0.99921  1.0000
  C   C1077     1.0  0.57969  0.92342  0.17535  1.0000
  C   C1078     1.0  0.57637  0.62011  0.99062  1.0000
  C   C1079     1.0  0.56886  0.90524  0.05475  1.0000
  H   H1290     1.0  0.92266  0.79379  0.14967  1.0000
  H   H1291     1.0  0.01157  0.91537  0.06457  1.0000
  C   C1080     1.0  0.84252  0.80461  0.16215  1.0000
  H   H1292     1.0  0.75995  0.88165  0.99551  1.0000
  H   H1293     1.0  0.94066  0.56723  0.03046  1.0000
  C   C1081     1.0  0.88870  0.60003  0.06013  1.0000
  S   S285      1.0  0.63842  0.97856  0.97371  1.0000
  H   H1294     1.0  0.60356  0.86779  0.17162  1.0000
  N   N71       1.0  0.87948  0.78257  0.16839  1.0000
  H   H1295     1.0  0.53027  0.61773  0.98924  1.0000
  C   C1082     1.0  0.69942  0.51992  0.00566  1.0000
  C   C1083     1.0  0.55221  0.74183  0.00296  1.0000
  H   H1296     1.0  0.60060  0.79897  0.14042  1.0000
  H   H1297     1.0  0.74293  0.67350  0.99592  1.0000
  H   H1298     1.0  0.00241  0.95339  0.00162  1.0000
  H   H1299     1.0  0.77169  0.59201  0.05468  1.0000
  C   C1084     1.0  0.96358  0.81490  0.00415  1.0000
  C   C1085     1.0  0.66271  0.95450  0.08358  1.0000
  H   H1300     1.0  0.57070  0.75622  0.01496  1.0000
  H   H1301     1.0  0.91727  0.79717  0.05201  1.0000
  H   H1302     1.0  0.98887  0.77550  0.01545  1.0000
  C   C1086     1.0  0.88887  0.85614  0.13723  1.0000
  C   C1087     1.0  0.86980  0.77647  0.19248  1.0000
  H   H1303     1.0  0.59808  0.85725  0.20098  1.0000
  C   C1088     1.0  0.55613  0.62237  0.10438  1.0000
  C   C1089     1.0  0.58719  0.95194  0.03169  1.0000
  S   S286      1.0  0.91897  0.73887  0.07672  1.0000
  H   H1304     1.0  0.89277  0.65009  0.01707  1.0000
  H   H1305     1.0  0.64888  0.79498  0.13903  1.0000
  H   H1306     1.0  0.77832  0.80905  0.96956  1.0000
  C   C1090     1.0  0.62735  0.94439  0.05095  1.0000
  H   H1307     1.0  0.56574  0.91753  0.06959  1.0000
  H   H1308     1.0  0.76219  0.00722  0.14179  1.0000
  H   H1309     1.0  0.67156  0.91463  0.04530  1.0000
  C   C1091     1.0  0.88003  0.73427  0.07754  1.0000
  Fe  Fe140     1.0  0.99708  0.83773  0.12151  1.0000
  S   S287      1.0  0.68127  0.93089  0.99280  1.0000
  C   C1092     1.0  0.92605  0.80611  0.03520  1.0000
  C   C1093     1.0  0.91147  0.81954  0.02253  1.0000
  H   H1310     1.0  0.78454  0.76461  0.98177  1.0000
  H   H1311     1.0  0.60437  0.67980  0.09678  1.0000
  H   H1312     1.0  0.90683  0.87607  0.12741  1.0000
  H   H1313     1.0  0.95604  0.61779  0.09123  1.0000
  H   H1314     1.0  0.84343  0.76499  0.19495  1.0000
  C   C1094     1.0  0.96853  0.92609  0.04120  1.0000
  C   C1095     1.0  0.54106  0.66231  0.09976  1.0000
  H   H1315     1.0  0.62365  0.54054  0.10804  1.0000
  H   H1316     1.0  0.01512  0.81603  0.02501  1.0000
  C   C1096     1.0  0.74007  0.88172  0.00513  1.0000
  C   C1097     1.0  0.85193  0.61862  0.05051  1.0000
  H   H1317     1.0  0.61599  0.71120  0.96736  1.0000
  C   C1098     1.0  0.91905  0.89605  0.06356  1.0000
  C   C1099     1.0  0.76053  0.79128  0.98087  1.0000
  C   C1100     1.0  0.93124  0.60475  0.08555  1.0000
  H   H1318     1.0  0.76887  0.85325  0.02397  1.0000
  C   C1101     1.0  0.94785  0.82809  0.99161  1.0000
  H   H1319     1.0  0.77650  0.90658  0.05615  1.0000
  H   H1320     1.0  0.83161  0.79623  0.01501  1.0000
  C   C1102     1.0  0.58899  0.66856  0.08168  1.0000
  C   C1103     1.0  0.86058  0.75247  0.15559  1.0000
  H   H1321     1.0  0.96150  0.79270  0.03703  1.0000
  C   C1104     1.0  0.80864  0.97674  0.99483  1.0000
  H   H1322     1.0  0.88174  0.79906  0.20243  1.0000
  C   C1105     1.0  0.72177  0.54951  0.17923  1.0000
  H   H1323     1.0  0.72608  0.71075  0.04404  1.0000
  H   H1324     1.0  0.91753  0.95607  0.03503  1.0000
  H   H1325     1.0  0.81232  0.82500  0.15637  1.0000
  C   C1106     1.0  0.93519  0.55074  0.04426  1.0000
  C   C1107     1.0  0.91001  0.57537  0.09536  1.0000
  S   S288      1.0  0.97534  0.83202  0.08720  1.0000
  C   C1108     1.0  0.92662  0.94099  0.04125  1.0000
  C   C1109     1.0  0.90806  0.91617  0.05612  1.0000
  H   H1326     1.0  0.89163  0.82138  0.02954  1.0000
  C   C1110     1.0  0.74217  0.61293  0.05988  1.0000
  H   H1327     1.0  0.54877  0.78431  0.15126  1.0000
  H   H1328     1.0  0.83099  0.59684  0.05759  1.0000
  H   H1329     1.0  0.86744  0.75593  0.13742  1.0000
  C   C1111     1.0  0.86247  0.58750  0.02362  1.0000
  H   H1330     1.0  0.57088  0.63481  0.11949  1.0000
  S   S289      1.0  0.62850  0.52474  0.21552  1.0000
  C   C1112     1.0  0.92093  0.61705  0.06818  1.0000
  C   C1113     1.0  0.60328  0.62460  0.97824  1.0000
  C   C1114     1.0  0.00582  0.80043  0.00986  1.0000
  S   S290      1.0  0.63590  0.62507  0.99235  1.0000
  H   H1331     1.0  0.71519  0.68463  0.98459  1.0000
  C   C1115     1.0  0.72358  0.69584  0.02905  1.0000
  H   H1332     1.0  0.98038  0.58052  0.06142  1.0000
  C   C1116     1.0  0.71521  0.74563  0.01019  1.0000
  N   N72       1.0  0.87687  0.61203  0.04164  1.0000
  N   N73       1.0  0.99037  0.81236  0.99395  1.0000
  H   H1333     1.0  0.63468  0.55351  0.00246  1.0000
  C   C1117     1.0  0.83585  0.82759  0.15363  1.0000
  H   H1334     1.0  0.56680  0.60875  0.09672  1.0000
  C   C1118     1.0  0.69408  0.55281  0.21251  1.0000
  H   H1335     1.0  0.56320  0.53118  0.16864  1.0000
  C   C1119     1.0  0.95754  0.55839  0.06189  1.0000
  H   H1336     1.0  0.68295  0.80579  0.17271  1.0000
  Fe  Fe141     1.0  0.96515  0.78160  0.08914  1.0000
  C   C1120     1.0  0.90242  0.64198  0.03106  1.0000
  C   C1121     1.0  0.95651  0.94614  0.03392  1.0000
  S   S291      1.0  0.75662  0.55329  0.16671  1.0000
  S   S292      1.0  0.64647  0.84282  0.98367  1.0000
  H   H1337     1.0  0.58182  0.93562  0.19107  1.0000
  S   S293      1.0  0.66977  0.51395  0.98609  1.0000
  H   H1338     1.0  0.59093  0.68860  0.07134  1.0000
  C   C1122     1.0  0.68572  0.98132  0.04838  1.0000
  C   C1123     1.0  0.61464  0.80454  0.15570  1.0000
  H   H1339     1.0  0.57228  0.82591  0.14271  1.0000
  N   N74       1.0  0.55526  0.64521  0.08802  1.0000
  H   H1340     1.0  0.97767  0.52253  0.03948  1.0000
  H   H1341     1.0  0.61232  0.92316  0.08473  1.0000
  C   C1124     1.0  0.85895  0.85327  0.14112  1.0000
  C   C1125     1.0  0.01339  0.89547  0.16183  1.0000
  Fe  Fe142     1.0  0.66820  0.61325  0.97172  1.0000
  S   S294      1.0  0.90568  0.98019  0.98860  1.0000
  Fe  Fe143     1.0  0.72953  0.95459  0.97590  1.0000
  C   C1126     1.0  0.83519  0.99726  0.00801  1.0000
  H   H1342     1.0  0.60832  0.73724  0.01038  1.0000
  C   C1127     1.0  0.96631  0.51800  0.99559  1.0000
  H   H1343     1.0  0.55398  0.67366  0.11572  1.0000
  H   H1344     1.0  0.60492  0.96878  0.01924  1.0000
  H   H1345     1.0  0.86426  0.73306  0.16234  1.0000
  C   C1128     1.0  0.00853  0.90405  0.18341  1.0000
  C   C1129     1.0  0.01689  0.95699  0.01714  1.0000
  N   N75       1.0  0.59952  0.51952  0.02590  1.0000
  H   H1346     1.0  0.76050  0.77337  0.20521  1.0000
  C   C1130     1.0  0.55864  0.72962  0.98302  1.0000
  H   H1347     1.0  0.56529  0.85389  0.18501  1.0000
  H   H1348     1.0  0.69684  0.72895  0.02155  1.0000
  Fe  Fe144     1.0  0.68425  0.56048  0.96938  1.0000
  H   H1349     1.0  0.74539  0.57228  0.21034  1.0000
  C   C1131     1.0  0.76409  0.76578  0.98819  1.0000
  H   H1350     1.0  0.86189  0.53522  0.09551  1.0000
  H   H1351     1.0  0.73191  0.81390  0.98242  1.0000
  H   H1352     1.0  0.77984  0.56674  0.01533  1.0000
  S   S295      1.0  0.79251  0.69217  0.19389  1.0000
  S   S296      1.0  0.84978  0.82966  0.97261  1.0000
  H   H1353     1.0  0.85663  0.70632  0.97481  1.0000
  C   C1132     1.0  0.84071  0.95602  0.97772  1.0000
  C   C1133     1.0  0.86439  0.99767  0.00587  1.0000
  H   H1354     1.0  0.56533  0.80205  0.21276  1.0000
  H   H1355     1.0  0.65354  0.97162  0.02108  1.0000
  H   H1356     1.0  0.60097  0.53078  0.06118  1.0000
  C   C1134     1.0  0.90599  0.52163  0.04462  1.0000
  C   C1135     1.0  0.53357  0.64843  0.05012  1.0000
  C   C1136     1.0  0.85221  0.68221  0.97266  1.0000
  C   C1137     1.0  0.57952  0.97456  0.97467  1.0000
  H   H1357     1.0  0.95007  0.52386  0.00529  1.0000
  H   H1358     1.0  0.54910  0.77008  0.19241  1.0000
  C   C1138     1.0  0.54495  0.90831  0.96950  1.0000
  H   H1359     1.0  0.66577  0.95022  0.10111  1.0000
  N   N76       1.0  0.99958  0.93010  0.03329  1.0000
  H   H1360     1.0  0.01605  0.90352  0.01372  1.0000
  H   H1361     1.0  0.54559  0.67419  0.05140  1.0000
  Fe  Fe145     1.0  0.65218  0.97235  0.20689  1.0000
  C   C1139     1.0  0.61045  0.51468  0.10733  1.0000
  C   C1140     1.0  0.63083  0.54860  0.02081  1.0000
  Fe  Fe146     1.0  0.74261  0.51857  0.13803  1.0000
  H   H1362     1.0  0.58953  0.54236  0.98593  1.0000
  H   H1363     1.0  0.63257  0.57015  0.02899  1.0000
  C   C1141     1.0  0.57252  0.52470  0.02006  1.0000
  Fe  Fe147     1.0  0.66900  0.89162  0.96795  1.0000
  N   N77       1.0  0.59145  0.73688  0.97662  1.0000
  S   S297      1.0  0.55726  0.52059  0.10209  1.0000
  C   C1142     1.0  0.57095  0.53641  0.99840  1.0000
  H   H1364     1.0  0.00757  0.85342  0.97165  1.0000
  C   C1143     1.0  0.54532  0.54073  0.99229  1.0000
  H   H1365     1.0  0.95526  0.83689  0.97462  1.0000
  H   H1366     1.0  0.70657  0.99755  0.03838  1.0000
  H   H1367     1.0  0.62062  0.82712  0.21097  1.0000
  C   C1144     1.0  0.84149  0.62017  0.96715  1.0000
  H   H1368     1.0  0.59582  0.85220  0.96720  1.0000
  H   H1369     1.0  0.90240  0.69674  0.97419  1.0000
  H   H1370     1.0  0.75715  0.70663  0.97712  1.0000
  H   H1371     1.0  0.98002  0.74404  0.16793  1.0000
  C   C1145     1.0  0.97736  0.74855  0.20384  1.0000
  H   H1372     1.0  0.59290  0.00021  0.97710  1.0000
  S   S298      1.0  0.85893  0.54840  0.97261  1.0000
  C   C1146     1.0  0.01578  0.84418  0.98577  1.0000
  H   H1373     1.0  0.63960  0.75652  0.98982  1.0000
  C   C1147     1.0  0.81523  0.62565  0.96753  1.0000
  C   C1148     1.0  0.66410  0.52827  0.17845  1.0000
  C   C1149     1.0  0.82070  0.65685  0.97015  1.0000
  C   C1150     1.0  0.53219  0.71146  0.96840  1.0000
  H   H1374     1.0  0.64161  0.51607  0.16947  1.0000
  C   C1151     1.0  0.99259  0.51565  0.02922  1.0000
  C   C1152     1.0  0.99101  0.75902  0.18260  1.0000
  H   H1375     1.0  0.66856  0.82193  0.20848  1.0000
  H   H1376     1.0  0.95562  0.72554  0.20577  1.0000
  H   H1377     1.0  0.59551  0.52544  0.17763  1.0000
  S   S299      1.0  0.78946  0.66594  0.97013  1.0000
  C   C1153     1.0  0.59131  0.70710  0.97027  1.0000
  H   H1378     1.0  0.54509  0.55034  0.97579  1.0000
  H   H1379     1.0  0.79419  0.52064  0.19593  1.0000
  H   H1380     1.0  0.01518  0.53796  0.02466  1.0000
  C   C1154     1.0  0.00493  0.98004  0.40729  1.0000
  S   S300      1.0  0.54078  0.53598  0.41761  1.0000
  H   H1381     1.0  0.69169  0.93888  0.30051  1.0000
  C   C1155     1.0  0.52589  0.89946  0.45684  1.0000
  S   S301      1.0  0.67416  0.97470  0.26940  1.0000
  C   C1156     1.0  0.66938  0.53305  0.35256  1.0000
  C   C1157     1.0  0.75667  0.53080  0.27437  1.0000
  S   S302      1.0  0.59010  0.99633  0.42282  1.0000
  Fe  Fe148     1.0  0.63676  0.93313  0.24935  1.0000
  S   S303      1.0  0.60653  0.88385  0.26508  1.0000
  C   C1158     1.0  0.98494  0.84655  0.23844  1.0000
  S   S304      1.0  0.61558  0.96106  0.23442  1.0000
  H   H1382     1.0  0.72942  0.95351  0.32911  1.0000
  Fe  Fe149     1.0  0.81835  0.70245  0.22704  1.0000
  C   C1159     1.0  0.76242  0.72644  0.46506  1.0000
  C   C1160     1.0  0.97818  0.83003  0.36071  1.0000
  H   H1383     1.0  0.96393  0.80419  0.36229  1.0000
  Fe  Fe150     1.0  0.64716  0.64161  0.42338  1.0000
  S   S305      1.0  0.65710  0.69095  0.41421  1.0000
  C   C1161     1.0  0.72743  0.98371  0.38000  1.0000
  H   H1384     1.0  0.62274  0.92901  0.33625  1.0000
  S   S306      1.0  0.68509  0.63118  0.43502  1.0000
  H   H1385     1.0  0.53855  0.92439  0.42508  1.0000
  Fe  Fe151     1.0  0.82663  0.71643  0.27742  1.0000
  S   S307      1.0  0.87337  0.71664  0.27874  1.0000
  S   S308      1.0  0.80393  0.72405  0.30824  1.0000
  H   H1386     1.0  0.96016  0.78401  0.27463  1.0000
  H   H1387     1.0  0.93109  0.92340  0.45120  1.0000
  Fe  Fe152     1.0  0.84670  0.67262  0.25711  1.0000
  S   S309      1.0  0.84844  0.62799  0.26502  1.0000
  Fe  Fe153     1.0  0.88516  0.74472  0.24659  1.0000
  S   S310      1.0  0.92832  0.79050  0.23426  1.0000
  S   S311      1.0  0.79953  0.67113  0.25760  1.0000
  S   S312      1.0  0.84015  0.74797  0.24685  1.0000
  Fe  Fe154     1.0  0.66905  0.99723  0.43655  1.0000
  S   S313      1.0  0.86990  0.86612  0.43359  1.0000
  C   C1162     1.0  0.97374  0.84930  0.37600  1.0000
  Fe  Fe155     1.0  0.88896  0.80352  0.40964  1.0000
  S   S314      1.0  0.88174  0.83694  0.38761  1.0000
  S   S315      1.0  0.89637  0.76669  0.39216  1.0000
  Fe  Fe156     1.0  0.91248  0.87459  0.41278  1.0000
  S   S316      1.0  0.94913  0.92351  0.39957  1.0000
  Fe  Fe157     1.0  0.84004  0.82467  0.41060  1.0000
  S   S317      1.0  0.79271  0.81530  0.39633  1.0000
  S   S318      1.0  0.92346  0.84206  0.43304  1.0000
  S   S319      1.0  0.84534  0.78884  0.43109  1.0000
  C   C1163     1.0  0.82678  0.73155  0.33291  1.0000
  C   C1164     1.0  0.82247  0.74810  0.35064  1.0000
  C   C1165     1.0  0.84269  0.75723  0.36949  1.0000
  C   C1166     1.0  0.86772  0.75044  0.37053  1.0000
  C   C1167     1.0  0.87104  0.73252  0.35334  1.0000
  C   C1168     1.0  0.85020  0.72260  0.33474  1.0000
  H   H1388     1.0  0.80427  0.75494  0.34953  1.0000
  H   H1389     1.0  0.83919  0.77014  0.38297  1.0000
  H   H1390     1.0  0.89017  0.72697  0.35413  1.0000
  H   H1391     1.0  0.85239  0.70809  0.32192  1.0000
  C   C1169     1.0  0.69582  0.72438  0.40977  1.0000
  C   C1170     1.0  0.72435  0.72449  0.41496  1.0000
  C   C1171     1.0  0.75454  0.75212  0.41082  1.0000
  C   C1172     1.0  0.75609  0.77964  0.40168  1.0000
  C   C1173     1.0  0.72752  0.77908  0.39630  1.0000
  C   C1174     1.0  0.69766  0.75176  0.40040  1.0000
  H   H1392     1.0  0.72316  0.70357  0.42246  1.0000
  H   H1393     1.0  0.77650  0.75219  0.41476  1.0000
  H   H1394     1.0  0.72846  0.80011  0.38912  1.0000
  C   C1175     1.0  0.00549  0.82869  0.27683  1.0000
  C   C1176     1.0  0.69435  0.96922  0.38320  1.0000
  C   C1177     1.0  0.99217  0.88260  0.37432  1.0000
  H   H1395     1.0  0.99767  0.94821  0.28792  1.0000
  C   C1178     1.0  0.98436  0.94874  0.41496  1.0000
  N   N78       1.0  0.66136  0.91931  0.32986  1.0000
  C   C1179     1.0  0.83980  0.65917  0.37612  1.0000
  S   S320      1.0  0.62515  0.95267  0.42498  1.0000
  C   C1180     1.0  0.96496  0.81636  0.24798  1.0000
  H   H1396     1.0  0.65890  0.89920  0.29681  1.0000
  Fe  Fe158     1.0  0.62020  0.98476  0.40008  1.0000
  H   H1397     1.0  0.87359  0.84128  0.33136  1.0000
  H   H1398     1.0  0.93277  0.81381  0.32375  1.0000
  C   C1181     1.0  0.78235  0.58584  0.26095  1.0000
  C   C1182     1.0  0.81263  0.59061  0.26724  1.0000
  C   C1183     1.0  0.81472  0.56514  0.27649  1.0000
  S   S321      1.0  0.62531  0.60150  0.39837  1.0000
  H   H1399     1.0  0.88863  0.81755  0.27423  1.0000
  H   H1400     1.0  0.78048  0.60501  0.25320  1.0000
  H   H1401     1.0  0.83794  0.56851  0.28129  1.0000
  C   C1184     1.0  0.65938  0.54442  0.37072  1.0000
  C   C1185     1.0  0.56839  0.85717  0.25319  1.0000
  C   C1186     1.0  0.54910  0.82665  0.26271  1.0000
  H   H1402     1.0  0.97651  0.91426  0.44081  1.0000
  H   H1403     1.0  0.69472  0.54238  0.34951  1.0000
  H   H1404     1.0  0.87463  0.78344  0.29260  1.0000
  C   C1187     1.0  0.55724  0.86567  0.23415  1.0000
  H   H1405     1.0  0.55749  0.81984  0.27745  1.0000
  C   C1188     1.0  0.62650  0.53148  0.37494  1.0000
  C   C1189     1.0  0.86617  0.64852  0.34554  1.0000
  H   H1406     1.0  0.57172  0.88904  0.22664  1.0000
  H   H1407     1.0  0.62466  0.86954  0.32780  1.0000
  C   C1190     1.0  0.97518  0.80745  0.26734  1.0000
  H   H1408     1.0  0.64761  0.93801  0.37018  1.0000
  S   S322      1.0  0.75932  0.00371  0.24441  1.0000
  S   S323      1.0  0.86390  0.70064  0.22496  1.0000
  H   H1409     1.0  0.67581  0.75192  0.39629  1.0000
  C   C1191     1.0  0.86750  0.66162  0.36670  1.0000
  S   S324      1.0  0.61105  0.61252  0.45010  1.0000
  H   H1410     1.0  0.89243  0.79267  0.33353  1.0000
  C   C1192     1.0  0.00066  0.84401  0.34339  1.0000
  C   C1193     1.0  0.87082  0.82724  0.31577  1.0000
  H   H1411     1.0  0.69467  0.55955  0.22997  1.0000
  C   C1194     1.0  0.92345  0.88924  0.30476  1.0000
  C   C1195     1.0  0.67310  0.94866  0.36684  1.0000
  C   C1196     1.0  0.92856  0.94396  0.45684  1.0000
  H   H1412     1.0  0.65292  0.95606  0.31699  1.0000
  C   C1197     1.0  0.61487  0.98933  0.30096  1.0000
  H   H1413     1.0  0.78896  0.51620  0.28763  1.0000
  H   H1414     1.0  0.73102  0.55230  0.25975  1.0000
  H   H1415     1.0  0.61848  0.53961  0.38913  1.0000
  C   C1198     1.0  0.98329  0.89849  0.29143  1.0000
  C   C1199     1.0  0.94852  0.91984  0.29909  1.0000
  C   C1200     1.0  0.97828  0.92442  0.29227  1.0000
  H   H1416     1.0  0.94489  0.94021  0.29999  1.0000
  H   H1417     1.0  0.62352  0.91628  0.30835  1.0000
  Fe  Fe159     1.0  0.65594  0.00358  0.25217  1.0000
  C   C1201     1.0  0.99176  0.93851  0.43494  1.0000
  H   H1418     1.0  0.62731  0.88733  0.35467  1.0000
  Fe  Fe160     1.0  0.70667  0.98747  0.23951  1.0000
  H   H1419     1.0  0.65761  0.87803  0.34646  1.0000
  C   C1202     1.0  0.68445  0.94179  0.34668  1.0000
  C   C1203     1.0  0.91193  0.81668  0.32818  1.0000
  H   H1420     1.0  0.99948  0.98812  0.39177  1.0000
  S   S325      1.0  0.62688  0.55492  0.43840  1.0000
  C   C1204     1.0  0.75432  0.55592  0.26457  1.0000
  S   S326      1.0  0.65273  0.51390  0.27648  1.0000
  H   H1421     1.0  0.90109  0.88748  0.30996  1.0000
  S   S327      1.0  0.71602  0.00026  0.44456  1.0000
  C   C1205     1.0  0.95842  0.86783  0.29697  1.0000
  Fe  Fe161     1.0  0.66058  0.58855  0.41216  1.0000
  H   H1422     1.0  0.96346  0.84851  0.29587  1.0000
  H   H1423     1.0  0.84118  0.67011  0.39236  1.0000
  C   C1206     1.0  0.64194  0.88719  0.34017  1.0000
  N   N79       1.0  0.77784  0.61271  0.33005  1.0000
  C   C1207     1.0  0.78164  0.62955  0.30838  1.0000
  C   C1208     1.0  0.76983  0.57939  0.32531  1.0000
  C   C1209     1.0  0.74989  0.61107  0.34199  1.0000
  C   C1210     1.0  0.80829  0.62951  0.34294  1.0000
  C   C1211     1.0  0.81053  0.64338  0.36452  1.0000
  C   C1212     1.0  0.83709  0.63270  0.33378  1.0000
  C   C1213     1.0  0.60234  0.97241  0.32105  1.0000
  H   H1424     1.0  0.58188  0.94836  0.32050  1.0000
  Fe  Fe162     1.0  0.59291  0.57080  0.42637  1.0000
  H   H1425     1.0  0.75942  0.61740  0.29797  1.0000
  H   H1426     1.0  0.78759  0.65471  0.31125  1.0000
  H   H1427     1.0  0.80123  0.63058  0.29782  1.0000
  H   H1428     1.0  0.78843  0.57837  0.31485  1.0000
  H   H1429     1.0  0.74681  0.56578  0.31583  1.0000
  H   H1430     1.0  0.76744  0.56612  0.34122  1.0000
  H   H1431     1.0  0.74522  0.59824  0.35840  1.0000
  H   H1432     1.0  0.75350  0.63534  0.34499  1.0000
  H   H1433     1.0  0.72735  0.59779  0.33201  1.0000
  H   H1434     1.0  0.79013  0.64258  0.37279  1.0000
  H   H1435     1.0  0.83743  0.62318  0.31732  1.0000
  H   H1436     1.0  0.00654  0.90210  0.28630  1.0000
  H   H1437     1.0  0.89017  0.67424  0.37567  1.0000
  H   H1438     1.0  0.88784  0.65081  0.33806  1.0000
  H   H1439     1.0  0.95110  0.96609  0.45190  1.0000
  H   H1440     1.0  0.69247  0.90529  0.31336  1.0000
  S   S328      1.0  0.68777  0.57557  0.38765  1.0000
  N   N80       1.0  0.70233  0.66999  0.35131  1.0000
  C   C1214     1.0  0.70872  0.65824  0.37269  1.0000
  C   C1215     1.0  0.72952  0.70306  0.34772  1.0000
  C   C1216     1.0  0.67263  0.67182  0.35404  1.0000
  C   C1217     1.0  0.69780  0.64776  0.33261  1.0000
  C   C1218     1.0  0.67375  0.61492  0.33408  1.0000
  C   C1219     1.0  0.71600  0.65791  0.31228  1.0000
  C   C1220     1.0  0.66833  0.59366  0.31638  1.0000
  C   C1221     1.0  0.71032  0.63646  0.29466  1.0000
  C   C1222     1.0  0.68654  0.60442  0.29668  1.0000
  H   H1441     1.0  0.73078  0.65639  0.37148  1.0000
  H   H1442     1.0  0.71188  0.67432  0.38704  1.0000
  H   H1443     1.0  0.68871  0.63440  0.37764  1.0000
  H   H1444     1.0  0.73281  0.71892  0.36238  1.0000
  H   H1445     1.0  0.72555  0.71454  0.33276  1.0000
  H   H1446     1.0  0.75266  0.70338  0.34546  1.0000
  H   H1447     1.0  0.65163  0.64852  0.35914  1.0000
  H   H1448     1.0  0.67537  0.68929  0.36734  1.0000
  H   H1449     1.0  0.66621  0.67935  0.33807  1.0000
  H   H1450     1.0  0.65868  0.60536  0.34889  1.0000
  H   H1451     1.0  0.73458  0.68241  0.30940  1.0000
  H   H1452     1.0  0.64974  0.56870  0.31793  1.0000
  H   H1453     1.0  0.72429  0.64486  0.27921  1.0000
  H   H1454     1.0  0.68204  0.58796  0.28289  1.0000
  S   S329      1.0  0.60190  0.96259  0.36610  1.0000
  C   C1223     1.0  0.67698  0.91564  0.30933  1.0000
  H   H1455     1.0  0.85178  0.80214  0.31955  1.0000
  N   N81       1.0  0.90163  0.82928  0.30914  1.0000
  C   C1224     1.0  0.78695  0.53551  0.28012  1.0000
  H   H1456     1.0  0.91867  0.83270  0.34315  1.0000
  C   C1225     1.0  0.63931  0.93067  0.32257  1.0000
  H   H1457     1.0  0.95595  0.83828  0.38929  1.0000
  Fe  Fe163     1.0  0.59803  0.96690  0.44843  1.0000
  H   H1458     1.0  0.86115  0.83559  0.30197  1.0000
  Fe  Fe164     1.0  0.87869  0.83088  0.45231  1.0000
  H   H1459     1.0  0.98775  0.89648  0.38658  1.0000
  C   C1226     1.0  0.71843  0.95718  0.34383  1.0000
  C   C1227     1.0  0.61659  0.98609  0.34174  1.0000
  C   C1228     1.0  0.89495  0.80811  0.28931  1.0000
  C   C1229     1.0  0.73945  0.97784  0.36031  1.0000
  H   H1460     1.0  0.60400  0.97832  0.28501  1.0000
  H   H1461     1.0  0.91588  0.80552  0.28451  1.0000
  H   H1462     1.0  0.74368  0.99934  0.39296  1.0000
  C   C1230     1.0  0.92761  0.86214  0.30363  1.0000
  C   C1231     1.0  0.52743  0.84372  0.22453  1.0000
  Fe  Fe165     1.0  0.64762  0.59897  0.45993  1.0000
  H   H1463     1.0  0.55247  0.51544  0.46121  1.0000
  H   H1464     1.0  0.90872  0.94340  0.44683  1.0000
  C   C1232     1.0  0.01480  0.86791  0.24811  1.0000
  H   H1465     1.0  0.64801  0.68841  0.46592  1.0000
  H   H1466     1.0  0.76527  0.98908  0.35796  1.0000
  H   H1467     1.0  0.00008  0.93609  0.33572  1.0000
  H   H1468     1.0  0.00402  0.82896  0.33144  1.0000
  H   H1469     1.0  0.97730  0.85341  0.22335  1.0000
  H   H1470     1.0  0.78433  0.73195  0.45623  1.0000
  H   H1471     1.0  0.78126  0.73821  0.21857  1.0000
  S   S330      1.0  0.67162  0.94256  0.22116  1.0000
  C   C1233     1.0  0.01834  0.96013  0.44790  1.0000
  C   C1234     1.0  0.99150  0.76791  0.22260  1.0000
  H   H1472     1.0  0.68518  0.97378  0.39860  1.0000
  H   H1473     1.0  0.98040  0.75995  0.23903  1.0000
  C   C1235     1.0  0.01582  0.89772  0.35722  1.0000
  C   C1236     1.0  0.01914  0.87733  0.34147  1.0000
  H   H1474     1.0  0.76824  0.77285  0.45916  1.0000
  H   H1475     1.0  0.99632  0.94100  0.36520  1.0000
  C   C1237     1.0  0.01397  0.94626  0.35145  1.0000
  H   H1476     1.0  0.01372  0.82148  0.29144  1.0000
  S   S331      1.0  0.64274  0.00906  0.46233  1.0000
  H   H1477     1.0  0.82377  0.82730  0.46613  1.0000
  C   C1238     1.0  0.01937  0.79782  0.22025  1.0000
  H   H1478     1.0  0.75731  0.52815  0.21689  1.0000
  H   H1479     1.0  0.61552  0.91601  0.46634  1.0000
  H   H1480     1.0  0.91674  0.97087  0.50680  1.0000
  C   C1239     1.0  0.60936  0.88082  0.51685  1.0000
  H   H1481     1.0  0.70213  0.87656  0.63684  1.0000
  C   C1240     1.0  0.86241  0.75227  0.52331  1.0000
  C   C1241     1.0  0.71884  0.01078  0.67579  1.0000
  N   N82       1.0  0.69076  0.90058  0.66297  1.0000
  H   H1482     1.0  0.57474  0.88117  0.49398  1.0000
  Fe  Fe166     1.0  0.73323  0.80179  0.55812  1.0000
  S   S332      1.0  0.68003  0.77228  0.56342  1.0000
  S   S333      1.0  0.74788  0.82097  0.52305  1.0000
  Fe  Fe167     1.0  0.74745  0.79162  0.60575  1.0000
  S   S334      1.0  0.69543  0.76093  0.61479  1.0000
  S   S335      1.0  0.78398  0.80006  0.63220  1.0000
  Fe  Fe168     1.0  0.69145  0.73814  0.58115  1.0000
  S   S336      1.0  0.66105  0.68554  0.57328  1.0000
  Fe  Fe169     1.0  0.68984  0.79844  0.59625  1.0000
  S   S337      1.0  0.65832  0.81623  0.61087  1.0000
  S   S338      1.0  0.74406  0.76590  0.57350  1.0000
  S   S339      1.0  0.74240  0.83087  0.58963  1.0000
  C   C1242     1.0  0.72183  0.93754  0.49010  1.0000
  H   H1483     1.0  0.78451  0.97689  0.70365  1.0000
  S   S340      1.0  0.64570  0.93175  0.57299  1.0000
  Fe  Fe170     1.0  0.73073  0.57440  0.59987  1.0000
  S   S341      1.0  0.77415  0.62090  0.59099  1.0000
  S   S342      1.0  0.68585  0.57567  0.60898  1.0000
  Fe  Fe171     1.0  0.77954  0.59277  0.56310  1.0000
  S   S343      1.0  0.78765  0.61161  0.52766  1.0000
  Fe  Fe172     1.0  0.80024  0.60315  0.61213  1.0000
  S   S344      1.0  0.83642  0.63429  0.63799  1.0000
  H   H1484     1.0  0.84307  0.69130  0.53231  1.0000
  C   C1243     1.0  0.61962  0.52293  0.51700  1.0000
  H   H1485     1.0  0.68001  0.69757  0.63843  1.0000
  C   C1244     1.0  0.75171  0.60921  0.51879  1.0000
  C   C1245     1.0  0.74682  0.61322  0.49603  1.0000
  C   C1246     1.0  0.71745  0.61011  0.48905  1.0000
  N   N83       1.0  0.70040  0.92240  0.50987  1.0000
  C   C1247     1.0  0.69860  0.60038  0.52769  1.0000
  H   H1486     1.0  0.80393  0.54913  0.70299  1.0000
  H   H1487     1.0  0.76537  0.61794  0.48376  1.0000
  H   H1488     1.0  0.80906  0.76234  0.50890  1.0000
  H   H1489     1.0  0.92316  0.89402  0.50798  1.0000
  H   H1490     1.0  0.77066  0.61224  0.64936  1.0000
  H   H1491     1.0  0.70830  0.96694  0.52344  1.0000
  C   C1248     1.0  0.80217  0.96587  0.66173  1.0000
  C   C1249     1.0  0.83318  0.62771  0.68395  1.0000
  C   C1250     1.0  0.81656  0.62512  0.66399  1.0000
  C   C1251     1.0  0.78347  0.61360  0.66465  1.0000
  H   H1492     1.0  0.61770  0.97509  0.57136  1.0000
  H   H1493     1.0  0.85880  0.63655  0.68347  1.0000
  Fe  Fe173     1.0  0.68317  0.98120  0.58383  1.0000
  C   C1252     1.0  0.66966  0.65655  0.58405  1.0000
  C   C1253     1.0  0.70112  0.66318  0.58834  1.0000
  C   C1254     1.0  0.70672  0.63842  0.59522  1.0000
  C   C1255     1.0  0.68078  0.60732  0.59878  1.0000
  C   C1256     1.0  0.64946  0.60131  0.59535  1.0000
  C   C1257     1.0  0.64399  0.62548  0.58747  1.0000
  H   H1494     1.0  0.72106  0.68722  0.58614  1.0000
  H   H1495     1.0  0.73091  0.64367  0.59854  1.0000
  H   H1496     1.0  0.62926  0.57772  0.59862  1.0000
  H   H1497     1.0  0.61962  0.62014  0.58429  1.0000
  C   C1258     1.0  0.65614  0.84766  0.59762  1.0000
  C   C1259     1.0  0.62586  0.84462  0.59472  1.0000
  C   C1260     1.0  0.62309  0.87042  0.58685  1.0000
  C   C1261     1.0  0.65058  0.90008  0.58288  1.0000
  C   C1262     1.0  0.68107  0.90343  0.58597  1.0000
  C   C1263     1.0  0.68385  0.87699  0.59278  1.0000
  H   H1498     1.0  0.60439  0.82218  0.59869  1.0000
  H   H1499     1.0  0.59947  0.86756  0.58442  1.0000
  H   H1500     1.0  0.70250  0.92624  0.58297  1.0000
  H   H1501     1.0  0.70736  0.87961  0.59517  1.0000
  C   C1264     1.0  0.78416  0.82399  0.51443  1.0000
  C   C1265     1.0  0.79119  0.82604  0.49140  1.0000
  C   C1266     1.0  0.81933  0.82705  0.48398  1.0000
  C   C1267     1.0  0.84105  0.82697  0.49956  1.0000
  C   C1268     1.0  0.83444  0.82566  0.52268  1.0000
  C   C1269     1.0  0.80580  0.82382  0.53012  1.0000
  C   C1270     1.0  0.97200  0.91743  0.51775  1.0000
  H   H1502     1.0  0.71335  0.61229  0.47141  1.0000
  H   H1503     1.0  0.85116  0.82554  0.53483  1.0000
  H   H1504     1.0  0.80056  0.82248  0.54796  1.0000
  C   C1271     1.0  0.71408  0.68879  0.48502  1.0000
  H   H1505     1.0  0.63970  0.97640  0.53237  1.0000
  C   C1272     1.0  0.59996  0.88940  0.49711  1.0000
  H   H1506     1.0  0.78918  0.97023  0.62771  1.0000
  C   C1273     1.0  0.56139  0.95739  0.53098  1.0000
  H   H1507     1.0  0.65581  0.72253  0.52413  1.0000
  H   H1508     1.0  0.78967  0.72364  0.67652  1.0000
  H   H1509     1.0  0.73125  0.60045  0.55221  1.0000
  H   H1510     1.0  0.78613  0.75052  0.65754  1.0000
  C   C1274     1.0  0.74148  0.83105  0.67647  1.0000
  C   C1275     1.0  0.74920  0.82040  0.65671  1.0000
  C   C1276     1.0  0.77435  0.81371  0.65673  1.0000
  C   C1277     1.0  0.79147  0.81738  0.67659  1.0000
  C   C1278     1.0  0.80401  0.91778  0.66998  1.0000
  H   H1511     1.0  0.72198  0.83598  0.67641  1.0000
  H   H1512     1.0  0.73585  0.81772  0.64146  1.0000
  H   H1513     1.0  0.81075  0.81198  0.67677  1.0000
  C   C1279     1.0  0.69332  0.60358  0.50493  1.0000
  N   N84       1.0  0.78197  0.70814  0.64196  1.0000
  C   C1280     1.0  0.00662  0.97102  0.50405  1.0000
  H   H1514     1.0  0.68467  0.99502  0.48733  1.0000
  C   C1281     1.0  0.79030  0.72293  0.61919  1.0000
  C   C1282     1.0  0.74653  0.68925  0.64452  1.0000
  C   C1283     1.0  0.72761  0.70389  0.64109  1.0000
  C   C1284     1.0  0.72975  0.65613  0.65005  1.0000
  C   C1285     1.0  0.69401  0.68618  0.64209  1.0000
  C   C1286     1.0  0.69615  0.63873  0.65118  1.0000
  C   C1287     1.0  0.67831  0.65362  0.64696  1.0000
  C   C1288     1.0  0.77230  0.75094  0.71594  1.0000
  C   C1289     1.0  0.68762  0.92965  0.69725  1.0000
  C   C1290     1.0  0.82744  0.55175  0.70069  1.0000
  H   H1515     1.0  0.82222  0.74875  0.65778  1.0000
  N   N85       1.0  0.59476  0.97414  0.53985  1.0000
  H   H1516     1.0  0.78926  0.66928  0.63189  1.0000
  H   H1517     1.0  0.78260  0.74090  0.61670  1.0000
  H   H1518     1.0  0.63337  0.66812  0.51707  1.0000
  H   H1519     1.0  0.70241  0.00306  0.66186  1.0000
  S   S345      1.0  0.73430  0.54667  0.57057  1.0000
  H   H1520     1.0  0.74182  0.64272  0.65281  1.0000
  H   H1521     1.0  0.77867  0.70447  0.60578  1.0000
  H   H1522     1.0  0.56040  0.96131  0.51259  1.0000
  H   H1523     1.0  0.83199  0.57409  0.64494  1.0000
  C   C1291     1.0  0.67853  0.72841  0.51518  1.0000
  H   H1524     1.0  0.88448  0.91013  0.50407  1.0000
  H   H1525     1.0  0.68004  0.59546  0.54005  1.0000
  C   C1292     1.0  0.78194  0.52294  0.66496  1.0000
  H   H1526     1.0  0.86522  0.70207  0.50659  1.0000
  C   C1293     1.0  0.74524  0.70703  0.53848  1.0000
  H   H1527     1.0  0.71111  0.92771  0.63226  1.0000
  C   C1294     1.0  0.65573  0.92005  0.48529  1.0000
  H   H1528     1.0  0.64788  0.88489  0.53671  1.0000
  C   C1295     1.0  0.72464  0.74242  0.47751  1.0000
  C   C1296     1.0  0.76677  0.60373  0.68509  1.0000
  C   C1297     1.0  0.65653  0.88583  0.65628  1.0000
  H   H1529     1.0  0.67231  0.93559  0.47254  1.0000
  C   C1298     1.0  0.86872  0.54847  0.67936  1.0000
  H   H1530     1.0  0.72279  0.96014  0.48502  1.0000
  C   C1299     1.0  0.70407  0.71179  0.48704  1.0000
  C   C1300     1.0  0.72703  0.68565  0.71499  1.0000
  H   H1531     1.0  0.54634  0.96569  0.53962  1.0000
  H   H1532     1.0  0.69560  0.72939  0.52821  1.0000
  C   C1301     1.0  0.82827  0.54993  0.64110  1.0000
  H   H1533     1.0  0.84613  0.93682  0.70732  1.0000
  H   H1534     1.0  0.54964  0.93099  0.53319  1.0000
  C   C1302     1.0  0.00230  0.94481  0.51657  1.0000
  C   C1303     1.0  0.98071  0.96994  0.49260  1.0000
  C   C1304     1.0  0.69355  0.90621  0.68765  1.0000
  H   H1535     1.0  0.71389  0.92110  0.47534  1.0000
  H   H1536     1.0  0.91457  0.56706  0.69607  1.0000
  S   S346      1.0  0.75635  0.55798  0.62335  1.0000
  H   H1537     1.0  0.89814  0.96968  0.48019  1.0000
  H   H1538     1.0  0.59144  0.86598  0.52928  1.0000
  H   H1539     1.0  0.72790  0.88806  0.66091  1.0000
  N   N86       1.0  0.67311  0.70444  0.49752  1.0000
  H   H1540     1.0  0.67067  0.66951  0.52146  1.0000
  H   H1541     1.0  0.81674  0.73595  0.61617  1.0000
  C   C1305     1.0  0.76527  0.73508  0.52674  1.0000
  H   H1542     1.0  0.86079  0.77423  0.52085  1.0000
  H   H1543     1.0  0.73049  0.90255  0.51899  1.0000
  H   H1544     1.0  0.83803  0.75407  0.48358  1.0000
  H   H1545     1.0  0.74103  0.59433  0.68542  1.0000
  C   C1306     1.0  0.79515  0.90763  0.64770  1.0000
  H   H1546     1.0  0.80750  0.90182  0.68083  1.0000
  C   C1307     1.0  0.66608  0.91107  0.50504  1.0000
  H   H1547     1.0  0.84170  0.01008  0.69331  1.0000
  C   C1308     1.0  0.75888  0.83514  0.69628  1.0000
  N   N87       1.0  0.81483  0.52841  0.66089  1.0000
  H   H1548     1.0  0.68710  0.85416  0.66183  1.0000
  H   H1549     1.0  0.87072  0.91353  0.47668  1.0000
  H   H1550     1.0  0.73862  0.72905  0.63708  1.0000
  H   H1551     1.0  0.81747  0.71173  0.47788  1.0000
  H   H1552     1.0  0.57826  0.97088  0.57420  1.0000
  H   H1553     1.0  0.68379  0.61313  0.65423  1.0000
  C   C1309     1.0  0.70785  0.01262  0.69730  1.0000
  H   H1554     1.0  0.65225  0.63971  0.64686  1.0000
  H   H1555     1.0  0.88654  0.75800  0.51694  1.0000
  C   C1310     1.0  0.91937  0.97023  0.48817  1.0000
  H   H1556     1.0  0.82272  0.67495  0.50591  1.0000
  C   C1311     1.0  0.83801  0.73147  0.48709  1.0000
  C   C1312     1.0  0.61397  0.96300  0.52719  1.0000
  H   H1557     1.0  0.68050  0.94340  0.68690  1.0000
  H   H1558     1.0  0.86672  0.99231  0.69116  1.0000
  H   H1559     1.0  0.78312  0.91847  0.61523  1.0000
  H   H1560     1.0  0.80413  0.98843  0.66635  1.0000
  C   C1313     1.0  0.70464  0.89535  0.51725  1.0000
  H   H1561     1.0  0.65339  0.88108  0.63779  1.0000
  C   C1314     1.0  0.71130  0.94639  0.52821  1.0000
  H   H1562     1.0  0.74720  0.94439  0.49380  1.0000
  N   N88       1.0  0.83615  0.72422  0.51158  1.0000
  H   H1563     1.0  0.79594  0.82923  0.71176  1.0000
  H   H1564     1.0  0.73709  0.95597  0.53248  1.0000
  C   C1315     1.0  0.84195  0.69697  0.51424  1.0000
  C   C1316     1.0  0.80479  0.71775  0.52084  1.0000
  C   C1317     1.0  0.78412  0.68975  0.53339  1.0000
  C   C1318     1.0  0.79453  0.74036  0.51799  1.0000
  H   H1565     1.0  0.60517  0.93721  0.53027  1.0000
  H   H1566     1.0  0.73902  0.66267  0.55098  1.0000
  H   H1567     1.0  0.78999  0.67141  0.53692  1.0000
  H   H1568     1.0  0.74977  0.67807  0.47281  1.0000
  H   H1569     1.0  0.89055  0.89119  0.47985  1.0000
  C   C1319     1.0  0.70262  0.87901  0.65548  1.0000
  C   C1320     1.0  0.78988  0.92645  0.63248  1.0000
  H   H1570     1.0  0.79250  0.88501  0.64219  1.0000
  H   H1571     1.0  0.86167  0.74797  0.54180  1.0000
  C   C1321     1.0  0.84662  0.99192  0.70079  1.0000
  S   S347      1.0  0.81099  0.58023  0.58327  1.0000
  H   H1572     1.0  0.94060  0.99331  0.48301  1.0000
  H   H1573     1.0  0.69711  0.93623  0.54387  1.0000
  H   H1574     1.0  0.66217  0.72955  0.47201  1.0000
  C   C1322     1.0  0.59329  0.96426  0.56376  1.0000
  H   H1575     1.0  0.74155  0.75627  0.69211  1.0000
  S   S348      1.0  0.65591  0.59810  0.49688  1.0000
  H   H1576     1.0  0.72239  0.70270  0.54514  1.0000
  H   H1577     1.0  0.81201  0.54047  0.62620  1.0000
  H   H1578     1.0  0.64803  0.65281  0.49577  1.0000
  C   C1323     1.0  0.78344  0.82766  0.69637  1.0000
  H   H1579     1.0  0.61290  0.96570  0.50863  1.0000
  C   C1324     1.0  0.70960  0.93133  0.65066  1.0000
  H   H1580     1.0  0.68831  0.75298  0.50836  1.0000
  C   C1325     1.0  0.89005  0.56234  0.69740  1.0000
  H   H1581     1.0  0.79426  0.67826  0.66176  1.0000
  C   C1326     1.0  0.79556  0.73382  0.65919  1.0000
  S   S349      1.0  0.87581  0.82732  0.49013  1.0000
  C   C1327     1.0  0.75468  0.68448  0.54181  1.0000
  H   H1582     1.0  0.82457  0.70355  0.64222  1.0000
  C   C1328     1.0  0.81641  0.61778  0.70448  1.0000
  H   H1583     1.0  0.68310  0.00663  0.69966  1.0000
  C   C1329     1.0  0.64187  0.89159  0.52087  1.0000
  H   H1584     1.0  0.75806  0.75281  0.52420  1.0000
  H   H1585     1.0  0.77444  0.82606  0.47923  1.0000
  H   H1586     1.0  0.66668  0.53705  0.48550  1.0000
  H   H1587     1.0  0.58271  0.93790  0.56542  1.0000
  N   N89       1.0  0.92231  0.94225  0.48144  1.0000
  C   C1330     1.0  0.94936  0.94264  0.49368  1.0000
  C   C1331     1.0  0.78313  0.60543  0.70496  1.0000
  C   C1332     1.0  0.80820  0.94755  0.67762  1.0000
  C   C1333     1.0  0.94581  0.91617  0.50651  1.0000
  C   C1334     1.0  0.72761  0.60299  0.53457  1.0000
  H   H1588     1.0  0.63491  0.52914  0.58139  1.0000
  H   H1589     1.0  0.87767  0.54287  0.66434  1.0000
  H   H1590     1.0  0.69802  0.54592  0.50538  1.0000
  C   C1335     1.0  0.79802  0.68887  0.64459  1.0000
  H   H1591     1.0  0.70005  0.66488  0.49161  1.0000
  C   C1336     1.0  0.62310  0.90912  0.48148  1.0000
  C   C1337     1.0  0.65572  0.67238  0.50835  1.0000
  H   H1592     1.0  0.64151  0.86254  0.66502  1.0000
  N   N90       1.0  0.81784  0.95932  0.70100  1.0000
  H   H1593     1.0  0.69362  0.87523  0.50495  1.0000
  H   H1594     1.0  0.64635  0.90141  0.66036  1.0000
  H   H1595     1.0  0.69031  0.51800  0.48304  1.0000
  S   S350      1.0  0.68324  0.99900  0.61855  1.0000
  H   H1596     1.0  0.96881  0.89689  0.52726  1.0000
  C   C1338     1.0  0.74287  0.69616  0.47422  1.0000
  H   H1597     1.0  0.69886  0.94694  0.65195  1.0000
  C   C1339     1.0  0.79336  0.95551  0.63950  1.0000
  H   H1598     1.0  0.73453  0.94521  0.65731  1.0000
  C   C1340     1.0  0.79109  0.96066  0.71240  1.0000
  C   C1341     1.0  0.67857  0.52628  0.49535  1.0000
  H   H1599     1.0  0.69384  0.88578  0.53408  1.0000
  Fe  Fe174     1.0  0.76513  0.53551  0.59308  1.0000
  H   H1600     1.0  0.78230  0.54589  0.66797  1.0000
  H   H1601     1.0  0.62779  0.69913  0.48672  1.0000
  C   C1342     1.0  0.70133  0.88835  0.70286  1.0000
  H   H1602     1.0  0.86065  0.73482  0.47939  1.0000
  H   H1603     1.0  0.76916  0.93653  0.71305  1.0000
  C   C1343     1.0  0.83671  0.54270  0.68042  1.0000
  H   H1604     1.0  0.71841  0.76099  0.47790  1.0000
  C   C1344     1.0  0.63039  0.52702  0.56338  1.0000
  C   C1345     1.0  0.82591  0.93872  0.71483  1.0000
  C   C1346     1.0  0.74522  0.73971  0.70225  1.0000
  H   H1605     1.0  0.70552  0.86946  0.69737  1.0000
  C   C1347     1.0  0.65184  0.70548  0.47985  1.0000
  H   H1606     1.0  0.85178  0.55318  0.63553  1.0000
  S   S351      1.0  0.56011  0.92926  0.47125  1.0000
  H   H1607     1.0  0.60360  0.00695  0.50030  1.0000
  H   H1608     1.0  0.70184  0.69847  0.69088  1.0000
  C   C1348     1.0  0.64532  0.51497  0.54946  1.0000
  S   S352      1.0  0.73587  0.99875  0.58309  1.0000
  H   H1609     1.0  0.59025  0.54395  0.52384  1.0000
  C   C1349     1.0  0.72282  0.70711  0.70162  1.0000
  H   H1610     1.0  0.59942  0.54712  0.56499  1.0000
  H   H1611     1.0  0.70869  0.66076  0.71368  1.0000
  H   H1612     1.0  0.61559  0.52309  0.49909  1.0000
  C   C1350     1.0  0.61034  0.53712  0.55421  1.0000
  C   C1351     1.0  0.89072  0.91306  0.48580  1.0000
  H   H1613     1.0  0.98578  0.99049  0.48239  1.0000
  C   C1352     1.0  0.60497  0.53506  0.53107  1.0000
  C   C1353     1.0  0.60920  0.00914  0.53686  1.0000
  C   C1354     1.0  0.70998  0.01226  0.48905  1.0000
  C   C1355     1.0  0.75339  0.74954  0.46679  1.0000
  H   H1614     1.0  0.89105  0.73630  0.87158  1.0000
  C   C1356     1.0  0.70612  0.55769  0.88470  1.0000
  H   H1615     1.0  0.85856  0.97364  0.82580  1.0000
  C   C1357     1.0  0.55919  0.92131  0.88632  1.0000
  H   H1616     1.0  0.70852  0.63938  0.74918  1.0000
  S   S353      1.0  0.88724  0.59069  0.77831  1.0000
  C   C1358     1.0  0.76198  0.68605  0.76844  1.0000
  H   H1617     1.0  0.77573  0.92488  0.84397  1.0000
  C   C1359     1.0  0.89788  0.79255  0.83400  1.0000
  H   H1618     1.0  0.93719  0.57801  0.76930  1.0000
  Fe  Fe175     1.0  0.68801  0.59654  0.92736  1.0000
  H   H1619     1.0  0.81021  0.69894  0.73941  1.0000
  Fe  Fe176     1.0  0.80096  0.86189  0.79758  1.0000
  S   S354      1.0  0.85320  0.87904  0.79126  1.0000
  S   S355      1.0  0.78575  0.85748  0.83381  1.0000
  S   S356      1.0  0.78305  0.82225  0.77200  1.0000
  S   S357      1.0  0.79808  0.89699  0.77446  1.0000
  Fe  Fe177     1.0  0.78147  0.57357  0.80874  1.0000
  S   S358      1.0  0.83214  0.60928  0.81852  1.0000
  H   H1620     1.0  0.89770  0.74808  0.83073  1.0000
  Fe  Fe178     1.0  0.79014  0.59862  0.76119  1.0000
  S   S359      1.0  0.84151  0.63662  0.76669  1.0000
  S   S360      1.0  0.76117  0.59170  0.73002  1.0000
  Fe  Fe179     1.0  0.84465  0.59717  0.78484  1.0000
  C   C1360     1.0  0.61170  0.95162  0.90375  1.0000
  Fe  Fe180     1.0  0.82402  0.64506  0.79966  1.0000
  S   S361      1.0  0.83306  0.69149  0.81569  1.0000
  S   S362      1.0  0.79459  0.55872  0.77652  1.0000
  S   S363      1.0  0.77224  0.60995  0.79269  1.0000
  H   H1621     1.0  0.82879  0.00977  0.93368  1.0000
  Fe  Fe181     1.0  0.90409  0.59363  0.96417  1.0000
  H   H1622     1.0  0.85689  0.88316  0.89891  1.0000
  C   C1361     1.0  0.85273  0.72894  0.77735  1.0000
  C   C1362     1.0  0.83795  0.72343  0.79847  1.0000
  C   C1363     1.0  0.82785  0.74435  0.80641  1.0000
  C   C1364     1.0  0.83221  0.77044  0.79318  1.0000
  H   H1623     1.0  0.86097  0.71321  0.77119  1.0000
  H   H1624     1.0  0.81643  0.74026  0.82276  1.0000
  H   H1625     1.0  0.87011  0.76009  0.74835  1.0000
  C   C1365     1.0  0.96997  0.54466  0.87049  1.0000
  C   C1366     1.0  0.88900  0.55541  0.78256  1.0000
  C   C1367     1.0  0.69882  0.91823  0.73481  1.0000
  H   H1626     1.0  0.75664  0.92070  0.90691  1.0000
  C   C1368     1.0  0.69625  0.57720  0.87421  1.0000
  H   H1627     1.0  0.94796  0.56211  0.83005  1.0000
  H   H1628     1.0  0.62497  0.63355  0.94528  1.0000
  C   C1369     1.0  0.72629  0.55055  0.84896  1.0000
  C   C1370     1.0  0.71507  0.56880  0.83827  1.0000
  C   C1371     1.0  0.69997  0.58206  0.85088  1.0000
  H   H1629     1.0  0.88789  0.83277  0.80475  1.0000
  H   H1630     1.0  0.85569  0.00064  0.71814  1.0000
  H   H1631     1.0  0.71790  0.57266  0.82030  1.0000
  H   H1632     1.0  0.69186  0.59671  0.84266  1.0000
  C   C1372     1.0  0.83803  0.95447  0.90353  1.0000
  H   H1633     1.0  0.74040  0.68715  0.77391  1.0000
  C   C1373     1.0  0.85373  0.89063  0.88241  1.0000
  C   C1374     1.0  0.82410  0.87317  0.87125  1.0000
  C   C1375     1.0  0.82045  0.88188  0.84942  1.0000
  H   H1634     1.0  0.89502  0.94680  0.84217  1.0000
  H   H1635     1.0  0.71005  0.88050  0.73726  1.0000
  H   H1636     1.0  0.85528  0.94905  0.89620  1.0000
  H   H1637     1.0  0.80453  0.85219  0.87911  1.0000
  H   H1638     1.0  0.56199  0.97625  0.92393  1.0000
  C   C1376     1.0  0.74554  0.00828  0.89319  1.0000
  H   H1639     1.0  0.81370  0.98723  0.87208  1.0000
  H   H1640     1.0  0.88358  0.59675  0.84304  1.0000
  S   S364      1.0  0.98103  0.55555  0.93484  1.0000
  S   S365      1.0  0.72296  0.58454  0.94338  1.0000
  H   H1641     1.0  0.68630  0.95408  0.72737  1.0000
  N   N91       1.0  0.89621  0.84379  0.84041  1.0000
  C   C1377     1.0  0.73171  0.64121  0.74420  1.0000
  S   S366      1.0  0.92417  0.88433  0.93200  1.0000
  C   C1378     1.0  0.86391  0.52730  0.79214  1.0000
  Fe  Fe182     1.0  0.91725  0.92463  0.92064  1.0000
  Fe  Fe183     1.0  0.78641  0.85963  0.74789  1.0000
  H   H1642     1.0  0.77566  0.99466  0.82017  1.0000
  C   C1379     1.0  0.78845  0.67483  0.73817  1.0000
  C   C1380     1.0  0.89401  0.58248  0.84827  1.0000
  C   C1381     1.0  0.60435  0.62997  0.95500  1.0000
  H   H1643     1.0  0.92174  0.89479  0.84696  1.0000
  C   C1382     1.0  0.89225  0.75791  0.86529  1.0000
  C   C1383     1.0  0.88390  0.56476  0.86814  1.0000
  H   H1644     1.0  0.94343  0.87471  0.85422  1.0000
  H   H1645     1.0  0.90035  0.79589  0.81593  1.0000
  H   H1646     1.0  0.84292  0.91608  0.82260  1.0000
  H   H1647     1.0  0.91195  0.64197  0.89211  1.0000
  S   S367      1.0  0.88701  0.96416  0.76351  1.0000
  C   C1384     1.0  0.88938  0.77872  0.88009  1.0000
  C   C1385     1.0  0.92060  0.54409  0.86135  1.0000
  H   H1648     1.0  0.84172  0.57271  0.73387  1.0000
  H   H1649     1.0  0.98223  0.55699  0.85463  1.0000
  C   C1386     1.0  0.91762  0.55641  0.77654  1.0000
  H   H1650     1.0  0.70927  0.96402  0.84649  1.0000
  C   C1387     1.0  0.89630  0.76473  0.84231  1.0000
  H   H1651     1.0  0.61724  0.98738  0.92761  1.0000
  C   C1388     1.0  0.57922  0.63193  0.94439  1.0000
  S   S368      1.0  0.85521  0.80965  0.75555  1.0000
  C   C1389     1.0  0.83454  0.00187  0.82991  1.0000
  H   H1652     1.0  0.94407  0.53150  0.77559  1.0000
  H   H1653     1.0  0.98135  0.53066  0.87606  1.0000
  H   H1654     1.0  0.70213  0.55280  0.90250  1.0000
  H   H1655     1.0  0.88586  0.77322  0.89797  1.0000
  N   N92       1.0  0.80314  0.64806  0.88384  1.0000
  C   C1390     1.0  0.78030  0.63398  0.90303  1.0000
  C   C1391     1.0  0.81132  0.68185  0.88148  1.0000
  C   C1392     1.0  0.78600  0.63035  0.86323  1.0000
  C   C1393     1.0  0.83296  0.64652  0.88661  1.0000
  C   C1394     1.0  0.85677  0.65832  0.86940  1.0000
  C   C1395     1.0  0.83925  0.63325  0.90601  1.0000
  C   C1396     1.0  0.88482  0.65655  0.87134  1.0000
  C   C1397     1.0  0.86747  0.63174  0.90783  1.0000
  C   C1398     1.0  0.89016  0.64327  0.89054  1.0000
  H   H1656     1.0  0.79098  0.64693  0.91912  1.0000
  H   H1657     1.0  0.75791  0.63507  0.90026  1.0000
  H   H1658     1.0  0.77236  0.60821  0.90527  1.0000
  H   H1659     1.0  0.82528  0.69624  0.89632  1.0000
  H   H1660     1.0  0.78929  0.68386  0.88009  1.0000
  H   H1661     1.0  0.82571  0.69327  0.86603  1.0000
  H   H1662     1.0  0.78103  0.60528  0.86378  1.0000
  H   H1663     1.0  0.76266  0.62966  0.86113  1.0000
  H   H1664     1.0  0.79984  0.64134  0.84759  1.0000
  H   H1665     1.0  0.85368  0.66876  0.85417  1.0000
  H   H1666     1.0  0.82278  0.62388  0.92006  1.0000
  H   H1667     1.0  0.90246  0.66545  0.85784  1.0000
  H   H1668     1.0  0.87190  0.62167  0.92284  1.0000
  C   C1399     1.0  0.60238  0.75886  0.95700  1.0000
  H   H1669     1.0  0.78349  0.96850  0.80338  1.0000
  C   C1400     1.0  0.87525  0.92635  0.85038  1.0000
  C   C1401     1.0  0.69057  0.93574  0.72045  1.0000
  H   H1670     1.0  0.90813  0.87421  0.81098  1.0000
  C   C1402     1.0  0.90596  0.85114  0.81634  1.0000
  C   C1403     1.0  0.91746  0.58162  0.83498  1.0000
  S   S369      1.0  0.83780  0.87766  0.73829  1.0000
  C   C1404     1.0  0.85796  0.75555  0.76446  1.0000
  C   C1405     1.0  0.88021  0.57087  0.71699  1.0000
  C   C1406     1.0  0.89079  0.80653  0.87196  1.0000
  H   H1671     1.0  0.58078  0.63721  0.92654  1.0000
  Fe  Fe184     1.0  0.94007  0.55887  0.95080  1.0000
  H   H1672     1.0  0.79283  0.65873  0.74916  1.0000
  C   C1407     1.0  0.84775  0.77641  0.77230  1.0000
  H   H1673     1.0  0.88917  0.97877  0.94294  1.0000
  H   H1674     1.0  0.70091  0.92293  0.75279  1.0000
  C   C1408     1.0  0.02059  0.57560  0.94564  1.0000
  C   C1409     1.0  0.93039  0.56252  0.84123  1.0000
  H   H1675     1.0  0.84253  0.93984  0.96613  1.0000
  H   H1676     1.0  0.92640  0.52243  0.90355  1.0000
  H   H1677     1.0  0.82952  0.97030  0.77215  1.0000
  H   H1678     1.0  0.84550  0.81832  0.83307  1.0000
  H   H1679     1.0  0.60218  0.78130  0.96099  1.0000
  H   H1680     1.0  0.78317  0.71022  0.77089  1.0000
  S   S370      1.0  0.70925  0.94251  0.89166  1.0000
  C   C1410     1.0  0.89709  0.54602  0.87472  1.0000
  H   H1681     1.0  0.86279  0.86063  0.83654  1.0000
  S   S371      1.0  0.71818  0.91398  0.95257  1.0000
  H   H1682     1.0  0.86560  0.56533  0.87853  1.0000
  H   H1683     1.0  0.75334  0.95279  0.82530  1.0000
  S   S372      1.0  0.68121  0.59738  0.89003  1.0000
  H   H1684     1.0  0.57814  0.69652  0.95430  1.0000
  C   C1411     1.0  0.91909  0.87214  0.85387  1.0000
  Fe  Fe185     1.0  0.70009  0.93828  0.92924  1.0000
  H   H1685     1.0  0.72909  0.63026  0.72723  1.0000
  H   H1686     1.0  0.88766  0.82150  0.88404  1.0000
  C   C1412     1.0  0.84582  0.90886  0.83926  1.0000
  H   H1687     1.0  0.63619  0.95649  0.90585  1.0000
  S   S373      1.0  0.91161  0.57587  0.93105  1.0000
  C   C1413     1.0  0.87940  0.91696  0.87178  1.0000
  Fe  Fe186     1.0  0.84918  0.91217  0.76669  1.0000
  H   H1688     1.0  0.91110  0.87128  0.87158  1.0000
  S   S374      1.0  0.64917  0.91136  0.94225  1.0000
  C   C1414     1.0  0.84961  0.99340  0.76768  1.0000
  Fe  Fe187     1.0  0.83528  0.84216  0.76397  1.0000
  C   C1415     1.0  0.86359  0.83941  0.84279  1.0000
  H   H1689     1.0  0.54441  0.90251  0.87462  1.0000
  H   H1690     1.0  0.82381  0.78608  0.79919  1.0000
  S   S375      1.0  0.95520  0.96155  0.94321  1.0000
  C   C1416     1.0  0.89559  0.81459  0.84868  1.0000
  N   N93       1.0  0.80247  0.97577  0.83705  1.0000
  H   H1691     1.0  0.83365  0.94838  0.73213  1.0000
  C   C1417     1.0  0.77772  0.97282  0.82076  1.0000
  C   C1418     1.0  0.80012  0.94401  0.83852  1.0000
  H   H1692     1.0  0.72995  0.53047  0.88047  1.0000
  C   C1419     1.0  0.79109  0.96630  0.92091  1.0000
  H   H1693     1.0  0.83726  0.59619  0.96491  1.0000
  H   H1694     1.0  0.79746  0.96954  0.73005  1.0000
  S   S376      1.0  0.87585  0.91234  0.94383  1.0000
  S   S377      1.0  0.64763  0.56806  0.95158  1.0000
  C   C1420     1.0  0.79477  0.98322  0.85965  1.0000
  H   H1695     1.0  0.77143  0.96344  0.86614  1.0000
  H   H1696     1.0  0.89691  0.58205  0.73086  1.0000
  H   H1697     1.0  0.77274  0.97091  0.92749  1.0000
  H   H1698     1.0  0.92610  0.00909  0.93084  1.0000
  H   H1699     1.0  0.58665  0.74793  0.94203  1.0000
  H   H1700     1.0  0.92976  0.85319  0.81324  1.0000
  S   S378      1.0  0.91699  0.93842  0.88469  1.0000
  H   H1701     1.0  0.53515  0.70174  0.95273  1.0000
  H   H1702     1.0  0.85539  0.83579  0.86064  1.0000
  C   C1421     1.0  0.56931  0.96257  0.91363  1.0000
  S   S379      1.0  0.71547  0.98098  0.95154  1.0000
  H   H1703     1.0  0.76527  0.67011  0.78037  1.0000
  N   N94       1.0  0.75870  0.67484  0.74476  1.0000
  C   C1422     1.0  0.60098  0.96905  0.91596  1.0000
  H   H1704     1.0  0.78688  0.66633  0.72051  1.0000
  S   S380      1.0  0.74876  0.53726  0.83403  1.0000
  H   H1705     1.0  0.62733  0.76581  0.95182  1.0000
  C   C1423     1.0  0.78197  0.93796  0.90933  1.0000
  C   C1424     1.0  0.55231  0.62739  0.95673  1.0000
  H   H1706     1.0  0.52833  0.97186  0.87334  1.0000
  H   H1707     1.0  0.81731  0.94413  0.85109  1.0000
  H   H1708     1.0  0.84185  0.52645  0.79715  1.0000
  C   C1425     1.0  0.80540  0.93200  0.90071  1.0000
  C   C1426     1.0  0.72672  0.98121  0.88000  1.0000
  H   H1709     1.0  0.92528  0.59546  0.81951  1.0000
  C   C1427     1.0  0.72123  0.54446  0.87211  1.0000
  H   H1710     1.0  0.88823  0.53299  0.89028  1.0000
  C   C1428     1.0  0.92157  0.53004  0.78018  1.0000
  C   C1429     1.0  0.77678  0.72975  0.72931  1.0000
  H   H1711     1.0  0.79822  0.73984  0.73961  1.0000
  H   H1712     1.0  0.73574  0.62572  0.75609  1.0000
  C   C1430     1.0  0.75396  0.69650  0.72965  1.0000
  N   N95       1.0  0.93467  0.52405  0.86764  1.0000
  C   C1431     1.0  0.54746  0.93867  0.89859  1.0000
  H   H1713     1.0  0.80455  0.93625  0.82187  1.0000
  H   H1714     1.0  0.79821  0.90988  0.89171  1.0000
  C   C1432     1.0  0.84823  0.98338  0.91556  1.0000
  S   S381      1.0  0.70572  0.64279  0.94590  1.0000
  C   C1433     1.0  0.70395  0.89443  0.72606  1.0000
  C   C1434     1.0  0.82365  0.98868  0.92418  1.0000
  C   C1435     1.0  0.59086  0.92779  0.88899  1.0000
  C   C1436     1.0  0.87971  0.99651  0.76288  1.0000
  Fe  Fe188     1.0  0.95957  0.92033  0.95641  1.0000
  S   S382      1.0  0.52341  0.63431  0.94350  1.0000
  H   H1715     1.0  0.79262  0.00503  0.85959  1.0000
  C   C1437     1.0  0.72375  0.98488  0.85680  1.0000
  Fe  Fe189     1.0  0.86859  0.52923  0.94103  1.0000
  Fe  Fe190     1.0  0.88705  0.87624  0.95801  1.0000
  C   C1438     1.0  0.86067  0.99688  0.82500  1.0000
  H   H1716     1.0  0.90101  0.97409  0.91517  1.0000
  H   H1717     1.0  0.59938  0.91424  0.87960  1.0000
  C   C1439     1.0  0.90045  0.99155  0.92702  1.0000
  S   S383      1.0  0.75055  0.85068  0.72049  1.0000
  H   H1718     1.0  0.97566  0.56338  0.88356  1.0000
  Fe  Fe191     1.0  0.73783  0.62854  0.96379  1.0000
  H   H1719     1.0  0.89453  0.00160  0.88348  1.0000
  S   S384      1.0  0.00127  0.91278  0.96438  1.0000
  C   C1440     1.0  0.84900  0.56553  0.71865  1.0000
  N   N96       1.0  0.88298  0.00707  0.91784  1.0000
  H   H1720     1.0  0.00204  0.51538  0.96512  1.0000
  H   H1721     1.0  0.96828  0.79872  0.96105  1.0000
  H   H1722     1.0  0.82917  0.61904  0.71976  1.0000
  H   H1723     1.0  0.74878  0.00578  0.91089  1.0000
  H   H1724     1.0  0.79092  0.60586  0.96573  1.0000
  H   H1725     1.0  0.80480  0.91430  0.71705  1.0000
  H   H1726     1.0  0.52580  0.98144  0.90229  1.0000
  H   H1727     1.0  0.59119  0.91160  0.96600  1.0000
  Fe  Fe192     1.0  0.66565  0.95275  0.96601  1.0000
  H   H1728     1.0  0.78991  0.77629  0.71647  1.0000
