data_image0
_chemical_formula_structural       HC2H3C3H5C3H4CH2C4HCFeS2FeHCH2CS3CFeSFeHFeS2FeS2FeSFeS3FeS2CHS3CSCH3CFeS2FeS2FeSCFeSFeS4H3CHFeHCH2C2SHC6H6CH2C2H4C6H4C4HCH4C6H4CHCH2C6H7SH3NC4HCHCH4NS2H5CH2NC2HC2HCH8CHCHCH3NC9H15FeCH2CHC2FeH5CH4C2FeHC2H2CH2CSC4HSHC2HCHCH2NC7HFe2HCH5C2H4C3FeCHSC3H4C3HC2HC4HCH2SHNH2C2H2NHCH2CHNHCH8C3HC4SFeHCH2C4H2CHCH2CHFeCHC2SHFeH2CSHCHCH2CHSHC2SFeS2FeSHFeCFeS3HFeSHCFeS2FeS2FeSFeS3FeS2HFeCS2CH2C2H2FeS2FeS2FeSHFeSFeS3H2CHCHCH2SFeC2H2C6H5CH4C2H3C6H4C4HCH4C6H6CH2C6H7SCHCH2CHSC3SCHC2HCH2FeH2C3H2CHSH2SH3CN2C5HCHFeH6CNC4HCH8CHC3HC2NC8H8CHNC7H9C2H2NHFe2H3CNC4NHSHCNC9H14NC9H11CSCHSH5FeHCH2C2HC3HCH2SC2H2SH2C2H2C2H2CHC2H6CHCHSC2HCHNHFeCH2S2CH3CH2SHSCHC2HNC3HCH2CH2CHCH2CHFeHFeS2FeS2Fe2S4CFeS3H2SFeHCHC7H4C6H4C6SHNC4H9FeC2H3CNC7H5SH3CHNHCHC3HC2HCH2NH2CH2CHSH2C6HNC2HC2HCHC2H2CH3NH3CHCHCHS2CH2CHCH2C2H2C2H5CHC3HC2H3SC2HCSC4HCHCFeHC2H3SCHCFeCH3SC2H7C2H3CH3CFeHCHNH3CHCH2CH3CH2CFeS2FeS2FeHFeS3FeS2C3FeSFeS2CSHCHCH3FeHSC6H4SH2C2H4C6H4C6H5C3H5NC6HCHCSH2CH2CHNH3FeCHCFeNHC2SC2H2CHC9HCHC2HC2H4SCH2SCHCH2C2H2CH2CHC2HC2H3CSHC3HNC8H3CH6CH4NC7HSH9C3H3CH4CHCHCHCH3CH2CHC2H2CNCH3CH7CSCH2FeCSFeCSFeSHSCFeS2FeS2FeSFeS3FeS2FeS2FeSHSFeHFeS2FeHFeCS3FeHCH2CH4SC7H4C6H4C4H3C4SHCH3C6H4CH3NCHC2HC6HSH4CH2SH8C2SH6NCH3CSHSCHCHNH2C2NC9H14NC9H13CHC3HC5HC2H2NCHCH2CHCH2FeS2FeCSFeSCSCFeS2FeS2FeSFeS3FeS2FeS2FeSCSFeCFeS2FeHFeCS2CFeH3CH2C2HCHC6H4C6H2C6SCH2C3H2CH3C6H4CHCHC2SCH2C2HC3SCH4C3H3CHCH2CNHSH3NC8H15CH2SNH4CH4C3H2CHNC4HCH10SCHCNCH7SHCH2SCHCHCH3C2HC3H7NHCNH3C6S3FeS2FeSFe2SFeS4HSCS2HSHSHC3SCH3CFeS3C6H4CHC2HNH4FeH2C2SCFeHC7H4C2SH2CH2FeHC2HC3H3C2HC3H4C6H5NC6H15SH5C3HCNHC2H3CH2CHCSC2SHCNH2SHCHCSHCHC5HCHCH10C3H3N2C9H14CFe2C2NC8H2C2HCH2CH6NHC8H2CHSCHSHC3H2FeSH2C4FeHSHCHCSCHFeCHCSH2CHCHSHCH4SCHC3FeH2SH2C2FeHCH2C2HC2H2SH3CH3C3N2CH3SNHC2FeCH3C2H2CFeSHFeH2C3H3CHCH3FeCHCFeCSHCHCH2S3FeSCFeSHFeSFeS4H2CHSHCH3FeHFeSH4CFeS3C6H4NCH2SNHFeHC2H3CH3C8H4C2HSC2HC2HCHC4H3C3HC2H4C6H2CHCH2C4H2C2H2CHCHS2CH5C2SFeHNSHFe2C3H2SCFeCHCSHCH4SNC2HC3HCH7CH5SHNC6H2CH6CHCSHSHC2H5NSH2FeSFeCH2CHNC9H14NHC3HCHCH2C2H3CFeC3HCHNC9H8NC9H13CSCHSCFe2HCSFeSH2S2CHNHC4HCHCH2C4FeSH3C2HSH3CH2CHCHSHCHC2SCH3SNFeCH2CH2SH3FeC2H3CFeS2FeS2FeSFeSCFeS2FeSHFeSCS2C2H2S2FeS2FeS2FeSFeS3FeSFeSH3C7H4C6H4C2HCSCH4CSHC3HCSC4H4C6H4C8H2C6H3C2H4C2H2CH2C2HCH10CNC9H14C2H2CHCH4C2H6NH2C3HC2SNHC2H3CH2NHNC4H3C3HFeH3SHC2HCFeCHCH2NSCHC2SH5SCH3C2H5FeCNH3SCHCNC4H8SH3C2HC3HFeS2FeSHFeSFeSHFeS2FeSHFeSHSH5S2FeS2FeS2FeSFeS3FeSFeSH2C8H4C6H4C6H2CH2C2HCHC8H3C6H4C6H4C2HC3HCH2NC9H14SH2C4HNSC2SHSH7CHCNCH4C3HCNHC3HCNH4CHC2HC3H4CHCHC2FeSH4CHCHSH3C3NH2CH2SFeHCHNC9H14C2HNCH3CHC2H2FeSCH4CH2CHC2HC2HCH2SCH3FeS2FeS2FeHFeHS2H3FeSFeS3HCNH3CH2CHC2HC5NH5C7H4CSHC3HCH2C7H2CHC3H3SC4H2C2H2C2HCH2C2H2CSH5C2HC2HCH2CH2CH2SH3CHC2HCH3SHNHSH3CH2CFeHC2HC2H2CNHC2FeS2FeHSFeCFeCS2HC2FeSFeS3CH3C2H2CH3CHCHC3HCH3CH2NC4SH3CHSC3HSH2C6H4SHC3H2CHCH2CH2CH2SCNC6HCH8CH2SHCHC4HCHFeH2C2H4CHCH2SH5C2H2NHCNCSH3SCHCHCH4CHCSCHFeC2NH4CH3C2HC2HC2H2C3HC2SH2CNCHSHC3HC3SHCH4CHCH2SH2SCH3CSHCHCH3SC2H6CHNCH2SNCH2S2H3C2HCHCHSH9S2HSC3HC3H4C2FeH5CHCH2C2NCH2C4HCH5CSH3C3SHCH2CHCH3CH2CSCFeS2FeS2FeSFeS3CH2CFeSHC2FeS2FeS2FeSFeS3C6H3C7H4SH3CH3C6H4C2HC3H4C6H4C6H7CHC5SHNC4FeSH2C4H3N2C2HCHC2H2CH3CHC2H2NCH2CH2NHCHC7H3CH2CH7NHCNH8C4H5CH4CNCH3C4H3CHCH2CNCHCH2CH4C2H5C2Fe2HCHCH3C2HC3H2CH2CH2SH2CHCHC2H2CH2C2H2CH2CH2C3HC2SCH5CSH3CHC2HNHC4H3CH3CH3SC4HSCHFeHCH2C2HCHSFe2S2FeS2FeSFeS3C2HCFeSC3FeS2FeS2FeSFeS3C6H3FeC6H8SH3C6H4C6H4C6H4C6H6CFeH2CH2CH3N2C9H14CHC4H3N2C4H3C2H2CH2C2H2C4H5CH2SC2H2NHCHSCH3C2SCH2CHCH2CH3CHC2H2CH2CHSHCHNC4HCHCFeC3H4CH2C2HCH2CNH2C2HCH2NCHCNHCH2CH7CH2CH4C3H5CSCHCS2H2CH3CHCHCH2CH2C2H2CH3CH2SFe2SFe2HS2C3HSFeHCSHC2HC3HSCSC4H2CFeHCNHSCS2HC3HCH5CSH2CH4CSCHSCHCSCFeSFe2SFe2CS2C3HCHCHCHCH2C2HCHCH2FeCH2CHC3NSH2SC2H2SH3CSHCSHCH9CSHFeSFeS2FeS2FeSFeCS2FeS2FeS2FeSFeS3FeS4H2C3FeH3CSHC6H3C7H4C7H3C6H6CH3C4H5C2HC3SH2CH2CHFeH3CH3CH7CH5CH3CH3CHNC4HC2H6NH2CNH3CH2CHCHCHCNH5SCHC2H5CH4C3H3FeC2H2C3HC2H3SC2NCHC4HCHC2HNCH2C3HCHNCH3C4SHCSH3C2H2CFeC4HC2H2CH3CH2CH4SCH4C3H3CHC2HC2FeHCH2C3FeCSCFeSFeS2FeS2FeSFeCS2FeSHFeS2FeSFeS3FeS4HC4H6C7H4C6H4C6H4C6H4C2SC2HC4H5C3HC2H4CHNH5SCH3CHC9HC2H7FeCNH5CH2CH6CHFeH8SHCHCHSCHC2NC4H3SHC2H3CH3CH3CH3C2H4C3HFeC2H2C3H2C3NH2C3H8C2H2NHCHC2H4CFeHC2HCH2N2HNH2C2H3CHCH4SCHCHCH3CH2SH5FeS2CFeCFeCS2FeSCFeS2FeSFeS3FeS3FeSHFeS2FeSFeS3C6H4C6H4CSC3H5C6H7CHCNC4H2FeH2C3NCH2NC2NC9H16C3FeC6H8C3H5SH3C2HCH2CHFeCSC4HC2H2C2SHC2HCHCH3SH4CNCH2CH7SHC4SFeH3C2HC2H3CHCHCNH3CHCHFeHSFeH3CS2FeSCFeS2FeSFeS3FeS3FeSHFeS2FeSFeS3C6H4C6H5C5H4C6H4FeH3CHCH6C3HFeH5SHCHCH2C3H2CH2C3H2C2H3C2H2FeS2H3CHCH7CS3H2NC9H3CHCH4FeCSC3H6CFeHC2HNCHC3HNH3C3H2C2NH2SH3CHC4SHC
_chemical_formula_sum              "H2592 C2160 Fe288 S576 N144"
_cell_length_a       72.6536
_cell_length_b       77.1682
_cell_length_c       50.3386
_cell_angle_alpha    88.0431
_cell_angle_beta     88.2697
_cell_angle_gamma    105.253

_space_group_name_H-M_alt    "P 1"
_space_group_IT_number       1

loop_
  _space_group_symop_operation_xyz
  'x, y, z'

loop_
  _atom_site_type_symbol
  _atom_site_label
  _atom_site_symmetry_multiplicity
  _atom_site_fract_x
  _atom_site_fract_y
  _atom_site_fract_z
  _atom_site_occupancy
  H   H1        1.0  0.30291  0.03708  0.37450  1.0000
  C   C1        1.0  0.31495  0.01563  0.36275  1.0000
  C   C2        1.0  0.31446  0.03372  0.36353  1.0000
  H   H2        1.0  0.31249  0.01493  0.26970  1.0000
  H   H3        1.0  0.30527  0.00829  0.47262  1.0000
  H   H4        1.0  0.32768  0.06125  0.34985  1.0000
  C   C3        1.0  0.32859  0.04748  0.34979  1.0000
  C   C4        1.0  0.32796  0.02102  0.26474  1.0000
  C   C5        1.0  0.33000  0.01148  0.34863  1.0000
  H   H5        1.0  0.30503  0.00383  0.43784  1.0000
  H   H6        1.0  0.32924  0.01007  0.21430  1.0000
  H   H7        1.0  0.32890  0.03217  0.24970  1.0000
  H   H8        1.0  0.33009  0.02315  0.41177  1.0000
  H   H9        1.0  0.01375  0.23883  0.87770  1.0000
  C   C6        1.0  0.31593  0.03570  0.86276  1.0000
  C   C7        1.0  0.32135  0.01130  0.93826  1.0000
  C   C8        1.0  0.31508  0.01746  0.85962  1.0000
  H   H10       1.0  0.04640  0.24069  0.86047  1.0000
  H   H11       1.0  0.30530  0.03924  0.87543  1.0000
  H   H12       1.0  0.32775  0.01704  0.70735  1.0000
  H   H13       1.0  0.31166  0.02379  0.76196  1.0000
  C   C9        1.0  0.04428  0.24793  0.87790  1.0000
  H   H14       1.0  0.31862  0.02296  0.92687  1.0000
  H   H15       1.0  0.31686  0.01164  0.95953  1.0000
  C   C10       1.0  0.32333  0.00642  0.72354  1.0000
  C   C11       1.0  0.32744  0.02725  0.75840  1.0000
  C   C12       1.0  0.32896  0.01309  0.84321  1.0000
  C   C13       1.0  0.02588  0.24704  0.88751  1.0000
  H   H16       1.0  0.30757  0.00362  0.72705  1.0000
  C   C14       1.0  0.33024  0.04944  0.84927  1.0000
  Fe  Fe1       1.0  0.05882  0.43415  0.23883  1.0000
  S   S1        1.0  0.02869  0.42355  0.25447  1.0000
  S   S2        1.0  0.07263  0.41213  0.22945  1.0000
  Fe  Fe2       1.0  0.05807  0.47268  0.24760  1.0000
  H   H17       1.0  0.04183  0.28998  0.20960  1.0000
  C   C15       1.0  0.18529  0.36922  0.31743  1.0000
  H   H18       1.0  0.25809  0.35463  0.47088  1.0000
  H   H19       1.0  0.03838  0.49110  0.16687  1.0000
  C   C16       1.0  0.04152  0.34927  0.30507  1.0000
  S   S3        1.0  0.06752  0.45227  0.27262  1.0000
  S   S4        1.0  0.05296  0.45562  0.21189  1.0000
  S   S5        1.0  0.04105  0.44909  0.04666  1.0000
  C   C17       1.0  0.10262  0.41710  0.07543  1.0000
  Fe  Fe3       1.0  0.03005  0.42696  0.01831  1.0000
  S   S6        1.0  0.03191  0.39795  0.02444  1.0000
  Fe  Fe4       1.0  0.05016  0.46793  0.01040  1.0000
  H   H20       1.0  0.22224  0.38548  0.98678  1.0000
  Fe  Fe5       1.0  0.18123  0.38574  0.12997  1.0000
  S   S7        1.0  0.16439  0.35685  0.13033  1.0000
  S   S8        1.0  0.21342  0.39516  0.12634  1.0000
  Fe  Fe6       1.0  0.14549  0.39902  0.13301  1.0000
  S   S9        1.0  0.12593  0.37116  0.13358  1.0000
  S   S10       1.0  0.13300  0.42274  0.13353  1.0000
  Fe  Fe7       1.0  0.14628  0.36458  0.16273  1.0000
  S   S11       1.0  0.13687  0.34679  0.20032  1.0000
  Fe  Fe8       1.0  0.14589  0.36649  0.10121  1.0000
  S   S12       1.0  0.13456  0.35101  0.06485  1.0000
  S   S13       1.0  0.16453  0.39288  0.16426  1.0000
  S   S14       1.0  0.16402  0.39489  0.09863  1.0000
  Fe  Fe9       1.0  0.29384  0.35236  0.16496  1.0000
  S   S15       1.0  0.31050  0.38123  0.16177  1.0000
  S   S16       1.0  0.26170  0.34352  0.16906  1.0000
  C   C18       1.0  0.10324  0.43501  0.08003  1.0000
  H   H21       1.0  0.02280  0.49581  0.08091  1.0000
  S   S17       1.0  0.09135  0.30436  0.39264  1.0000
  S   S18       1.0  0.31082  0.34481  0.19787  1.0000
  S   S19       1.0  0.31094  0.34364  0.13264  1.0000
  C   C19       1.0  0.05241  0.33686  0.30517  1.0000
  S   S20       1.0  0.31701  0.39878  0.44215  1.0000
  C   C20       1.0  0.20579  0.38246  0.26489  1.0000
  H   H22       1.0  0.24625  0.36977  0.08466  1.0000
  H   H23       1.0  0.01343  0.42416  0.09644  1.0000
  H   H24       1.0  0.06009  0.37249  0.12393  1.0000
  C   C21       1.0  0.05042  0.36775  0.30504  1.0000
  Fe  Fe10      1.0  0.29731  0.39077  0.40808  1.0000
  S   S21       1.0  0.26878  0.39779  0.40494  1.0000
  S   S22       1.0  0.29769  0.36191  0.41010  1.0000
  Fe  Fe11      1.0  0.13569  0.36238  0.35244  1.0000
  S   S23       1.0  0.14027  0.33477  0.35209  1.0000
  S   S24       1.0  0.13570  0.37935  0.31476  1.0000
  Fe  Fe12      1.0  0.13389  0.36211  0.41370  1.0000
  S   S25       1.0  0.13879  0.33472  0.41710  1.0000
  C   C22       1.0  0.24224  0.38226  0.47629  1.0000
  Fe  Fe13      1.0  0.16110  0.34479  0.38414  1.0000
  S   S26       1.0  0.19061  0.33976  0.38306  1.0000
  Fe  Fe14      1.0  0.11743  0.32799  0.38494  1.0000
  S   S27       1.0  0.02239  0.47481  0.00706  1.0000
  S   S28       1.0  0.15760  0.37273  0.38278  1.0000
  S   S29       1.0  0.11148  0.35507  0.38319  1.0000
  S   S30       1.0  0.01027  0.45984  0.44019  1.0000
  H   H25       1.0  0.06513  0.38332  0.02974  1.0000
  H   H26       1.0  0.07042  0.30006  0.30032  1.0000
  H   H27       1.0  0.27395  0.33783  0.09698  1.0000
  C   C23       1.0  0.04789  0.34204  0.23272  1.0000
  H   H28       1.0  0.29117  0.34444  0.07018  1.0000
  Fe  Fe15      1.0  0.02333  0.44640  0.22967  1.0000
  H   H29       1.0  0.28241  0.36786  0.47459  1.0000
  C   C24       1.0  0.03552  0.38286  0.11858  1.0000
  H   H30       1.0  0.03850  0.44018  0.42650  1.0000
  H   H31       1.0  0.03022  0.26984  0.36005  1.0000
  C   C25       1.0  0.04796  0.32368  0.23140  1.0000
  C   C26       1.0  0.07985  0.30241  0.34065  1.0000
  S   S31       1.0  0.03471  0.43176  0.33056  1.0000
  H   H32       1.0  0.09368  0.31139  0.33516  1.0000
  C   C27       1.0  0.24718  0.38157  0.39840  1.0000
  C   C28       1.0  0.22998  0.38669  0.39825  1.0000
  C   C29       1.0  0.21253  0.37410  0.39362  1.0000
  C   C30       1.0  0.21211  0.35620  0.38908  1.0000
  C   C31       1.0  0.22931  0.35113  0.38905  1.0000
  C   C32       1.0  0.24673  0.36370  0.39371  1.0000
  H   H33       1.0  0.23014  0.40049  0.40179  1.0000
  H   H34       1.0  0.19946  0.37828  0.39361  1.0000
  H   H35       1.0  0.22919  0.33735  0.38545  1.0000
  H   H36       1.0  0.25977  0.35951  0.39350  1.0000
  H   H37       1.0  0.26034  0.38958  0.05170  1.0000
  H   H38       1.0  0.10350  0.37543  0.01639  1.0000
  C   C33       1.0  0.26758  0.38924  0.01046  1.0000
  H   H39       1.0  0.01272  0.33471  0.40359  1.0000
  H   H40       1.0  0.05994  0.40327  0.28325  1.0000
  C   C34       1.0  0.18509  0.35439  0.25135  1.0000
  C   C35       1.0  0.02783  0.39802  0.11971  1.0000
  H   H41       1.0  0.04117  0.37665  0.30469  1.0000
  H   H42       1.0  0.07585  0.42009  0.30102  1.0000
  H   H43       1.0  0.22731  0.39954  0.02982  1.0000
  H   H44       1.0  0.09035  0.35274  0.45327  1.0000
  C   C36       1.0  0.22654  0.38104  0.13978  1.0000
  C   C37       1.0  0.24652  0.38704  0.13912  1.0000
  C   C38       1.0  0.25744  0.37581  0.14871  1.0000
  C   C39       1.0  0.24844  0.35841  0.15865  1.0000
  C   C40       1.0  0.22845  0.35255  0.15986  1.0000
  C   C41       1.0  0.21751  0.36386  0.15053  1.0000
  H   H45       1.0  0.25356  0.40041  0.13105  1.0000
  H   H46       1.0  0.27278  0.38061  0.14809  1.0000
  H   H47       1.0  0.22138  0.33912  0.16766  1.0000
  H   H48       1.0  0.20212  0.35916  0.15133  1.0000
  C   C42       1.0  0.13767  0.36077  0.03212  1.0000
  C   C43       1.0  0.14732  0.37883  0.02672  1.0000
  C   C44       1.0  0.14926  0.38612  0.00042  1.0000
  C   C45       1.0  0.05750  0.28466  0.37404  1.0000
  H   H49       1.0  0.06870  0.42833  0.13833  1.0000
  C   C46       1.0  0.13007  0.35008  0.01098  1.0000
  H   H50       1.0  0.15334  0.38721  0.04273  1.0000
  H   H51       1.0  0.09600  0.30645  0.45335  1.0000
  H   H52       1.0  0.10787  0.39297  0.28630  1.0000
  H   H53       1.0  0.12254  0.33610  0.01498  1.0000
  C   C47       1.0  0.13708  0.35620  0.23193  1.0000
  C   C48       1.0  0.14011  0.37470  0.23471  1.0000
  C   C49       1.0  0.13976  0.38164  0.26018  1.0000
  C   C50       1.0  0.13642  0.37016  0.28309  1.0000
  C   C51       1.0  0.13335  0.35166  0.28031  1.0000
  C   C52       1.0  0.13371  0.34473  0.25486  1.0000
  H   H54       1.0  0.14253  0.38368  0.21723  1.0000
  H   H55       1.0  0.14210  0.39597  0.26207  1.0000
  H   H56       1.0  0.13040  0.34263  0.29769  1.0000
  H   H57       1.0  0.13124  0.33039  0.25287  1.0000
  C   C53       1.0  0.09529  0.39822  0.28266  1.0000
  H   H58       1.0  0.02609  0.34458  0.30478  1.0000
  C   C54       1.0  0.01375  0.36199  0.03502  1.0000
  H   H59       1.0  0.10963  0.41046  0.08960  1.0000
  H   H60       1.0  0.02779  0.35982  0.03231  1.0000
  C   C55       1.0  0.08971  0.41586  0.20311  1.0000
  C   C56       1.0  0.09328  0.43120  0.18609  1.0000
  C   C57       1.0  0.10678  0.43344  0.16479  1.0000
  C   C58       1.0  0.11678  0.42043  0.16073  1.0000
  C   C59       1.0  0.11335  0.40527  0.17802  1.0000
  C   C60       1.0  0.09978  0.40295  0.19905  1.0000
  H   H61       1.0  0.08560  0.44124  0.18927  1.0000
  H   H62       1.0  0.10952  0.44524  0.15152  1.0000
  H   H63       1.0  0.12119  0.39532  0.17530  1.0000
  H   H64       1.0  0.09718  0.39116  0.21224  1.0000
  H   H65       1.0  0.05664  0.48000  0.15916  1.0000
  H   H66       1.0  0.28396  0.36856  0.10878  1.0000
  H   H67       1.0  0.26689  0.33213  0.06393  1.0000
  S   S32       1.0  0.12998  0.37746  0.45016  1.0000
  H   H68       1.0  0.03569  0.49516  0.22755  1.0000
  H   H69       1.0  0.08016  0.39439  0.34766  1.0000
  H   H70       1.0  0.15673  0.40011  0.99643  1.0000
  N   N1        1.0  0.03474  0.32172  0.41327  1.0000
  C   C61       1.0  0.01433  0.32141  0.41074  1.0000
  C   C62       1.0  0.04401  0.32535  0.38619  1.0000
  C   C63       1.0  0.03544  0.30360  0.42309  1.0000
  C   C64       1.0  0.04503  0.33524  0.43163  1.0000
  H   H71       1.0  0.03857  0.28713  0.24554  1.0000
  C   C65       1.0  0.06493  0.33787  0.43483  1.0000
  H   H72       1.0  0.19607  0.33250  0.45648  1.0000
  C   C66       1.0  0.07504  0.35066  0.45176  1.0000
  H   H73       1.0  0.06460  0.37985  0.06509  1.0000
  H   H74       1.0  0.05890  0.32404  0.38561  1.0000
  H   H75       1.0  0.00724  0.31151  0.39611  1.0000
  H   H76       1.0  0.00600  0.31724  0.42991  1.0000
  N   N2        1.0  0.00770  0.39713  0.11399  1.0000
  S   S33       1.0  0.31306  0.35180  0.47995  1.0000
  S   S34       1.0  0.00127  0.43205  0.01483  1.0000
  H   H77       1.0  0.12354  0.33993  0.46860  1.0000
  H   H78       1.0  0.02895  0.30043  0.44361  1.0000
  H   H79       1.0  0.04451  0.26376  0.46168  1.0000
  H   H80       1.0  0.04871  0.49773  0.04695  1.0000
  H   H81       1.0  0.07293  0.33010  0.42413  1.0000
  C   C67       1.0  0.19686  0.36438  0.99995  1.0000
  H   H82       1.0  0.01238  0.32237  0.25234  1.0000
  H   H83       1.0  0.28562  0.34725  0.02645  1.0000
  N   N3        1.0  0.09288  0.38959  0.04719  1.0000
  C   C68       1.0  0.10257  0.38921  0.02092  1.0000
  C   C69       1.0  0.10242  0.38066  0.06715  1.0000
  H   H84       1.0  0.09569  0.38011  0.08741  1.0000
  C   C70       1.0  0.09348  0.40841  0.05305  1.0000
  C   C71       1.0  0.08496  0.41875  0.03580  1.0000
  H   H85       1.0  0.02361  0.27419  0.98489  1.0000
  C   C72       1.0  0.17577  0.36582  0.47225  1.0000
  H   H86       1.0  0.05811  0.49347  0.18768  1.0000
  H   H87       1.0  0.00778  0.30283  0.19964  1.0000
  H   H88       1.0  0.00040  0.40613  0.40606  1.0000
  H   H89       1.0  0.27901  0.38633  0.08888  1.0000
  H   H90       1.0  0.09509  0.39382  0.00425  1.0000
  H   H91       1.0  0.11793  0.38758  0.06793  1.0000
  H   H92       1.0  0.09662  0.36515  0.30567  1.0000
  H   H93       1.0  0.01866  0.28093  0.22483  1.0000
  C   C73       1.0  0.32780  0.34996  0.03757  1.0000
  H   H94       1.0  0.03101  0.31431  0.18576  1.0000
  C   C74       1.0  0.99955  0.44824  0.16742  1.0000
  H   H95       1.0  0.07761  0.41303  0.01849  1.0000
  C   C75       1.0  0.07273  0.37881  0.04637  1.0000
  H   H96       1.0  0.01146  0.45662  0.34273  1.0000
  H   H97       1.0  0.16983  0.37584  0.46266  1.0000
  H   H98       1.0  0.03474  0.34605  0.23197  1.0000
  N   N4        1.0  0.27315  0.37932  0.24307  1.0000
  C   C76       1.0  0.28529  0.39656  0.23123  1.0000
  C   C77       1.0  0.28093  0.36470  0.23307  1.0000
  C   C78       1.0  0.25355  0.37639  0.23317  1.0000
  C   C79       1.0  0.27280  0.38008  0.27247  1.0000
  C   C80       1.0  0.26469  0.39263  0.28525  1.0000
  C   C81       1.0  0.28107  0.36912  0.28911  1.0000
  C   C82       1.0  0.26482  0.39407  0.31291  1.0000
  C   C83       1.0  0.28113  0.37070  0.31672  1.0000
  C   C84       1.0  0.27308  0.38317  0.32857  1.0000
  H   H99       1.0  0.30003  0.39943  0.23876  1.0000
  H   H100      1.0  0.28662  0.39632  0.20913  1.0000
  H   H101      1.0  0.27957  0.40817  0.23588  1.0000
  H   H102      1.0  0.29614  0.36669  0.23804  1.0000
  H   H103      1.0  0.28066  0.36430  0.21100  1.0000
  H   H104      1.0  0.27247  0.35123  0.24103  1.0000
  H   H105      1.0  0.25330  0.37469  0.21124  1.0000
  H   H106      1.0  0.24373  0.36403  0.24269  1.0000
  H   H107      1.0  0.24740  0.38786  0.23671  1.0000
  H   H108      1.0  0.25863  0.40174  0.27387  1.0000
  H   H109      1.0  0.28798  0.35945  0.28137  1.0000
  H   H110      1.0  0.25888  0.40395  0.32233  1.0000
  H   H111      1.0  0.28785  0.36245  0.32900  1.0000
  H   H112      1.0  0.27354  0.38457  0.34993  1.0000
  H   H113      1.0  0.19828  0.38427  0.19844  1.0000
  Fe  Fe16      1.0  0.32913  0.37209  0.13168  1.0000
  C   C85       1.0  0.07107  0.28408  0.45549  1.0000
  H   H114      1.0  0.06446  0.36961  0.23510  1.0000
  H   H115      1.0  0.00195  0.46705  0.38600  1.0000
  C   C86       1.0  0.04042  0.41447  0.12683  1.0000
  H   H116      1.0  0.20548  0.38731  0.06863  1.0000
  C   C87       1.0  0.06484  0.35564  0.23457  1.0000
  C   C88       1.0  0.00957  0.40801  0.45665  1.0000
  Fe  Fe17      1.0  0.31843  0.37005  0.44257  1.0000
  H   H117      1.0  0.05420  0.27956  0.39436  1.0000
  H   H118      1.0  0.10103  0.41301  0.27890  1.0000
  H   H119      1.0  0.05083  0.48521  0.44834  1.0000
  H   H120      1.0  0.07365  0.37106  0.47919  1.0000
  H   H121      1.0  0.02671  0.50153  0.43868  1.0000
  C   C89       1.0  0.18458  0.35778  0.02270  1.0000
  H   H122      1.0  0.24875  0.35072  0.10335  1.0000
  H   H123      1.0  0.07573  0.27784  0.43844  1.0000
  H   H124      1.0  0.09074  0.49937  0.15040  1.0000
  H   H125      1.0  0.03006  0.50090  0.12742  1.0000
  C   C90       1.0  0.07223  0.34286  0.30531  1.0000
  C   C91       1.0  0.08585  0.43672  0.04042  1.0000
  Fe  Fe18      1.0  0.32296  0.37050  0.38127  1.0000
  H   H126      1.0  0.02070  0.40454  0.44379  1.0000
  C   C92       1.0  0.09493  0.44482  0.06253  1.0000
  C   C93       1.0  0.04189  0.50197  0.11331  1.0000
  H   H127      1.0  0.17874  0.32934  0.98791  1.0000
  H   H128      1.0  0.09566  0.45877  0.06595  1.0000
  C   C94       1.0  0.05524  0.49867  0.43922  1.0000
  H   H129      1.0  0.00455  0.41602  0.14353  1.0000
  H   H130      1.0  0.03561  0.42652  0.12818  1.0000
  C   C95       1.0  0.21246  0.37961  0.00329  1.0000
  S   S35       1.0  0.32145  0.39903  0.37731  1.0000
  C   C96       1.0  0.06603  0.31980  0.23250  1.0000
  C   C97       1.0  0.03578  0.34582  0.44715  1.0000
  C   C98       1.0  0.99797  0.40207  0.13780  1.0000
  C   C99       1.0  0.18333  0.35458  0.45672  1.0000
  H   H131      1.0  0.00276  0.29887  0.24947  1.0000
  S   S36       1.0  0.99866  0.44287  0.20211  1.0000
  H   H132      1.0  0.26312  0.40126  0.00552  1.0000
  C   C100      1.0  0.02104  0.31347  0.20330  1.0000
  C   C101      1.0  0.32928  0.36018  0.01361  1.0000
  H   H133      1.0  0.17210  0.34651  0.02217  1.0000
  C   C102      1.0  0.05354  0.27621  0.46856  1.0000
  H   H134      1.0  0.02711  0.36978  0.11333  1.0000
  C   C103      1.0  0.05405  0.49262  0.16652  1.0000
  H   H135      1.0  0.08504  0.49966  0.43833  1.0000
  H   H136      1.0  0.11054  0.44133  0.09712  1.0000
  N   N5        1.0  0.27054  0.36010  0.07203  1.0000
  C   C104      1.0  0.27586  0.34287  0.07577  1.0000
  C   C105      1.0  0.28345  0.37363  0.08792  1.0000
  C   C106      1.0  0.27204  0.36684  0.04390  1.0000
  C   C107      1.0  0.28005  0.35877  0.02306  1.0000
  C   C108      1.0  0.26601  0.38241  0.03680  1.0000
  C   C109      1.0  0.01945  0.45426  0.40942  1.0000
  C   C110      1.0  0.99810  0.45506  0.11186  1.0000
  H   H137      1.0  0.21324  0.39122  0.27964  1.0000
  Fe  Fe19      1.0  0.01277  0.45483  0.04174  1.0000
  Fe  Fe20      1.0  0.03692  0.44282  0.28742  1.0000
  H   H138      1.0  0.26887  0.37294  0.44809  1.0000
  C   C111      1.0  0.25063  0.35709  0.08288  1.0000
  H   H139      1.0  0.10168  0.36651  0.06227  1.0000
  H   H140      1.0  0.02861  0.45878  0.11092  1.0000
  H   H141      1.0  0.22000  0.35030  0.29600  1.0000
  H   H142      1.0  0.07958  0.44445  0.02667  1.0000
  H   H143      1.0  0.02980  0.45250  0.16005  1.0000
  C   C112      1.0  0.07066  0.37427  0.30514  1.0000
  C   C113      1.0  0.00715  0.40996  0.09157  1.0000
  H   H144      1.0  0.18361  0.36405  0.33854  1.0000
  H   H145      1.0  0.24353  0.38612  0.45464  1.0000
  H   H146      1.0  0.04710  0.42895  0.38357  1.0000
  H   H147      1.0  0.09834  0.41218  0.33086  1.0000
  C   C114      1.0  0.27530  0.38088  0.99048  1.0000
  C   C115      1.0  0.03255  0.44384  0.40842  1.0000
  C   C116      1.0  0.06664  0.29605  0.32100  1.0000
  Fe  Fe21      1.0  0.32991  0.33936  0.16530  1.0000
  C   C117      1.0  0.05455  0.38423  0.12450  1.0000
  H   H148      1.0  0.17809  0.36085  0.06408  1.0000
  S   S37       1.0  0.07767  0.49035  0.00539  1.0000
  C   C118      1.0  0.03749  0.43753  0.38397  1.0000
  C   C119      1.0  0.01640  0.45230  0.15121  1.0000
  C   C120      1.0  0.01567  0.45562  0.12337  1.0000
  H   H149      1.0  0.09657  0.33034  0.23424  1.0000
  H   H150      1.0  0.17096  0.36972  0.31082  1.0000
  H   H151      1.0  0.18715  0.32948  0.29244  1.0000
  H   H152      1.0  0.08081  0.33331  0.30500  1.0000
  C   C121      1.0  0.08123  0.36121  0.30549  1.0000
  C   C122      1.0  0.04855  0.28460  0.32795  1.0000
  C   C123      1.0  0.07533  0.29665  0.36724  1.0000
  H   H153      1.0  0.01679  0.32628  0.20364  1.0000
  C   C124      1.0  0.20701  0.38940  0.23863  1.0000
  C   C125      1.0  0.01153  0.37953  0.03210  1.0000
  H   H154      1.0  0.29833  0.37717  0.07928  1.0000
  C   C126      1.0  0.05941  0.41567  0.13263  1.0000
  C   C127      1.0  0.01219  0.45910  0.38549  1.0000
  C   C128      1.0  0.06783  0.40563  0.30196  1.0000
  C   C129      1.0  0.01757  0.45321  0.36090  1.0000
  H   H155      1.0  0.19426  0.38330  0.31748  1.0000
  C   C130      1.0  0.20325  0.38089  0.04969  1.0000
  H   H156      1.0  0.08114  0.40156  0.13640  1.0000
  H   H157      1.0  0.05733  0.40397  0.31904  1.0000
  S   S38       1.0  0.02794  0.46470  0.26448  1.0000
  H   H158      1.0  0.17876  0.35342  0.20971  1.0000
  N   N6        1.0  0.19357  0.35778  0.30012  1.0000
  H   H159      1.0  0.04454  0.33916  0.37846  1.0000
  H   H160      1.0  0.17596  0.34093  0.25478  1.0000
  C   C131      1.0  0.19477  0.36472  0.27210  1.0000
  C   C132      1.0  0.02997  0.44208  0.36009  1.0000
  H   H161      1.0  0.23116  0.36921  0.47903  1.0000
  H   H162      1.0  0.04554  0.32256  0.30499  1.0000
  N   N7        1.0  0.02989  0.30962  0.22825  1.0000
  H   H163      1.0  0.07167  0.36434  0.04353  1.0000
  C   C133      1.0  0.13205  0.35735  0.98469  1.0000
  H   H164      1.0  0.22238  0.37204  0.30948  1.0000
  H   H165      1.0  0.24029  0.34812  0.07017  1.0000
  C   C134      1.0  0.09053  0.39770  0.33033  1.0000
  H   H166      1.0  0.18331  0.35588  0.43520  1.0000
  N   N8        1.0  0.08073  0.39365  0.30497  1.0000
  H   H167      1.0  0.03634  0.31563  0.37173  1.0000
  C   C135      1.0  0.21294  0.35817  0.30912  1.0000
  H   H168      1.0  0.08922  0.39259  0.26383  1.0000
  H   H169      1.0  0.02067  0.34462  0.44641  1.0000
  H   H170      1.0  0.18095  0.33418  0.32553  1.0000
  H   H171      1.0  0.21240  0.35231  0.32980  1.0000
  H   H172      1.0  0.16646  0.33789  0.29905  1.0000
  H   H173      1.0  0.10132  0.38997  0.33335  1.0000
  H   H174      1.0  0.02758  0.29293  0.41013  1.0000
  H   H175      1.0  0.04234  0.49105  0.35335  1.0000
  C   C136      1.0  0.18151  0.33901  0.30429  1.0000
  C   C137      1.0  0.06646  0.40058  0.13153  1.0000
  C   C138      1.0  0.19748  0.37886  0.21878  1.0000
  H   H176      1.0  0.21509  0.40312  0.23360  1.0000
  C   C139      1.0  0.01641  0.30950  0.25103  1.0000
  C   C140      1.0  0.18656  0.36142  0.22515  1.0000
  C   C141      1.0  0.03247  0.29117  0.22698  1.0000
  C   C142      1.0  0.08231  0.35138  0.23522  1.0000
  S   S39       1.0  0.03230  0.27709  0.30278  1.0000
  Fe  Fe22      1.0  0.00056  0.26886  0.31303  1.0000
  H   H177      1.0  0.09550  0.36190  0.23628  1.0000
  C   C143      1.0  0.18785  0.36595  0.04713  1.0000
  H   H178      1.0  0.11742  0.39808  0.02027  1.0000
  H   H179      1.0  0.02266  0.30681  0.27016  1.0000
  C   C144      1.0  0.06565  0.36100  0.46635  1.0000
  C   C145      1.0  0.04394  0.27903  0.35460  1.0000
  C   C146      1.0  0.21553  0.38772  0.02781  1.0000
  C   C147      1.0  0.04604  0.35852  0.46419  1.0000
  H   H180      1.0  0.27732  0.40352  0.46218  1.0000
  H   H181      1.0  0.06765  0.30631  0.23174  1.0000
  C   C148      1.0  0.08288  0.33352  0.23421  1.0000
  H   H182      1.0  0.01282  0.42294  0.45662  1.0000
  C   C149      1.0  0.99791  0.34714  0.04145  1.0000
  H   H183      1.0  0.00280  0.37449  0.08867  1.0000
  H   H184      1.0  0.05033  0.30238  0.42355  1.0000
  C   C150      1.0  0.26780  0.36846  0.46945  1.0000
  H   H185      1.0  0.01525  0.40732  0.07373  1.0000
  Fe  Fe23      1.0  0.32861  0.37323  0.19285  1.0000
  C   C151      1.0  0.28155  0.36573  0.99681  1.0000
  H   H186      1.0  0.03880  0.36662  0.47566  1.0000
  C   C152      1.0  0.08251  0.30022  0.46400  1.0000
  C   C153      1.0  0.03758  0.49916  0.08666  1.0000
  S   S40       1.0  0.07474  0.50171  0.24412  1.0000
  H   H187      1.0  0.05758  0.50129  0.30883  1.0000
  Fe  Fe24      1.0  0.02249  0.45627  0.48056  1.0000
  H   H188      1.0  0.32410  0.33543  0.03729  1.0000
  H   H189      1.0  0.99849  0.39307  0.15537  1.0000
  C   C154      1.0  0.05211  0.50017  0.06754  1.0000
  S   S41       1.0  0.32600  0.35436  0.34530  1.0000
  H   H190      1.0  0.99985  0.33375  0.04369  1.0000
  C   C155      1.0  0.32897  0.36464  0.31295  1.0000
  H   H191      1.0  0.32615  0.33956  0.29388  1.0000
  C   C156      1.0  0.32830  0.35391  0.29084  1.0000
  H   H192      1.0  0.01127  0.40339  0.47740  1.0000
  H   H193      1.0  0.00182  0.26349  0.44419  1.0000
  C   C157      1.0  0.19051  0.34138  0.46883  1.0000
  H   H194      1.0  0.32996  0.35328  0.24802  1.0000
  S   S42       1.0  0.32494  0.34898  0.98343  1.0000
  H   H195      1.0  0.33005  0.35034  0.08018  1.0000
  C   C158      1.0  0.33033  0.36164  0.26483  1.0000
  C   C159      1.0  0.12710  0.36671  0.48217  1.0000
  S   S43       1.0  0.04321  0.44500  0.98258  1.0000
  Fe  Fe25      1.0  0.06274  0.43763  0.74376  1.0000
  S   S44       1.0  0.03205  0.42431  0.75412  1.0000
  S   S45       1.0  0.08035  0.41799  0.73837  1.0000
  Fe  Fe26      1.0  0.05743  0.47459  0.75399  1.0000
  S   S46       1.0  0.02637  0.46379  0.76578  1.0000
  H   H196      1.0  0.03867  0.38922  0.58663  1.0000
  Fe  Fe27      1.0  0.03564  0.44219  0.78909  1.0000
  C   C160      1.0  0.01727  0.38375  0.53469  1.0000
  Fe  Fe28      1.0  0.02637  0.44715  0.72962  1.0000
  S   S47       1.0  0.06677  0.45441  0.77951  1.0000
  S   S48       1.0  0.05691  0.45917  0.71675  1.0000
  S   S49       1.0  0.04714  0.45271  0.54732  1.0000
  H   H197      1.0  0.28796  0.35947  0.98132  1.0000
  Fe  Fe29      1.0  0.03559  0.43092  0.51886  1.0000
  S   S50       1.0  0.03743  0.40199  0.52562  1.0000
  H   H198      1.0  0.02840  0.42675  0.60628  1.0000
  C   C161      1.0  0.21099  0.35047  0.96506  1.0000
  Fe  Fe30      1.0  0.16797  0.37510  0.62476  1.0000
  S   S51       1.0  0.14943  0.34690  0.62932  1.0000
  S   S52       1.0  0.19975  0.38178  0.61593  1.0000
  Fe  Fe31      1.0  0.13399  0.39096  0.62957  1.0000
  S   S53       1.0  0.11281  0.36391  0.63406  1.0000
  S   S54       1.0  0.12325  0.41569  0.62842  1.0000
  Fe  Fe32      1.0  0.13399  0.35749  0.66195  1.0000
  S   S55       1.0  0.12505  0.34185  0.70132  1.0000
  Fe  Fe33      1.0  0.13038  0.35640  0.60103  1.0000
  S   S56       1.0  0.11911  0.33966  0.56589  1.0000
  S   S57       1.0  0.15418  0.38511  0.65943  1.0000
  S   S58       1.0  0.14991  0.38404  0.59454  1.0000
  Fe  Fe34      1.0  0.27883  0.34304  0.66826  1.0000
  S   S59       1.0  0.29592  0.37188  0.66723  1.0000
  S   S60       1.0  0.24668  0.33437  0.67434  1.0000
  H   H199      1.0  0.05854  0.28859  0.55073  1.0000
  Fe  Fe35      1.0  0.31277  0.36391  0.63357  1.0000
  C   C162      1.0  0.32601  0.36804  0.76295  1.0000
  S   S61       1.0  0.29700  0.33378  0.69816  1.0000
  S   S62       1.0  0.29430  0.33563  0.63283  1.0000
  C   C163      1.0  0.07670  0.30838  0.48597  1.0000
  H   H200      1.0  0.03945  0.32510  0.49968  1.0000
  H   H201      1.0  0.08286  0.38642  0.63941  1.0000
  C   C164      1.0  0.01746  0.41445  0.60090  1.0000
  C   C165      1.0  0.32344  0.35360  0.81571  1.0000
  H   H202      1.0  0.03454  0.28272  0.71770  1.0000
  H   H203      1.0  0.19063  0.38502  0.69745  1.0000
  Fe  Fe36      1.0  0.30221  0.38474  0.91139  1.0000
  S   S63       1.0  0.27404  0.39247  0.90901  1.0000
  S   S64       1.0  0.30138  0.35567  0.91594  1.0000
  Fe  Fe37      1.0  0.14293  0.36519  0.84965  1.0000
  S   S65       1.0  0.14381  0.33633  0.85186  1.0000
  S   S66       1.0  0.14322  0.38090  0.81058  1.0000
  Fe  Fe38      1.0  0.14229  0.36753  0.91094  1.0000
  S   S67       1.0  0.14283  0.33884  0.91668  1.0000
  H   H204      1.0  0.03567  0.45662  0.66019  1.0000
  Fe  Fe39      1.0  0.16542  0.34538  0.88352  1.0000
  S   S68       1.0  0.19360  0.33780  0.88705  1.0000
  Fe  Fe40      1.0  0.12115  0.33334  0.88461  1.0000
  S   S69       1.0  0.03105  0.47979  0.50706  1.0000
  S   S70       1.0  0.16582  0.37436  0.87914  1.0000
  S   S71       1.0  0.11938  0.36194  0.88090  1.0000
  H   H205      1.0  0.20857  0.34286  0.94651  1.0000
  H   H206      1.0  0.02912  0.30307  0.70644  1.0000
  C   C166      1.0  0.04682  0.29495  0.54623  1.0000
  H   H207      1.0  0.21542  0.37115  0.69235  1.0000
  C   C167      1.0  0.18917  0.38104  0.71908  1.0000
  H   H208      1.0  0.16675  0.32771  0.57205  1.0000
  C   C168      1.0  0.04974  0.28281  0.83326  1.0000
  H   H209      1.0  0.09940  0.46016  0.52277  1.0000
  H   H210      1.0  0.09706  0.47598  0.55958  1.0000
  S   S72       1.0  0.32178  0.34404  0.84838  1.0000
  Fe  Fe41      1.0  0.05783  0.47122  0.51125  1.0000
  C   C169      1.0  0.02240  0.45556  0.65039  1.0000
  C   C170      1.0  0.05676  0.30212  0.87084  1.0000
  H   H211      1.0  0.02830  0.28968  0.85810  1.0000
  H   H212      1.0  0.05184  0.30842  0.88742  1.0000
  C   C171      1.0  0.25166  0.37697  0.90384  1.0000
  C   C172      1.0  0.23561  0.38352  0.89968  1.0000
  C   C173      1.0  0.21783  0.37178  0.89416  1.0000
  C   C174      1.0  0.21582  0.35329  0.89297  1.0000
  C   C175      1.0  0.23184  0.34673  0.89729  1.0000
  C   C176      1.0  0.24961  0.35846  0.90282  1.0000
  H   H213      1.0  0.23699  0.39781  0.90032  1.0000
  H   H214      1.0  0.20573  0.37712  0.89077  1.0000
  H   H215      1.0  0.23047  0.33244  0.89660  1.0000
  H   H216      1.0  0.26169  0.35311  0.90620  1.0000
  H   H217      1.0  0.10914  0.42023  0.57757  1.0000
  C   C177      1.0  0.05914  0.30042  0.50028  1.0000
  H   H218      1.0  0.03389  0.28405  0.54220  1.0000
  H   H219      1.0  0.06010  0.47119  0.88742  1.0000
  H   H220      1.0  0.05219  0.48780  0.80804  1.0000
  H   H221      1.0  0.99899  0.37230  0.62846  1.0000
  C   C178      1.0  0.07643  0.30401  0.86687  1.0000
  C   C179      1.0  0.27475  0.39877  0.48349  1.0000
  H   H222      1.0  0.24334  0.38781  0.57496  1.0000
  H   H223      1.0  0.17410  0.38014  0.72520  1.0000
  H   H224      1.0  0.06524  0.39597  0.67639  1.0000
  C   C180      1.0  0.21258  0.36835  0.63199  1.0000
  C   C181      1.0  0.23245  0.37472  0.63311  1.0000
  C   C182      1.0  0.24307  0.36425  0.64568  1.0000
  C   C183      1.0  0.23385  0.34738  0.65733  1.0000
  C   C184      1.0  0.21396  0.34098  0.65617  1.0000
  C   C185      1.0  0.20334  0.35140  0.64343  1.0000
  H   H225      1.0  0.23967  0.38789  0.62452  1.0000
  H   H226      1.0  0.25837  0.36934  0.64653  1.0000
  H   H227      1.0  0.20676  0.32789  0.66508  1.0000
  H   H228      1.0  0.18807  0.34627  0.64239  1.0000
  C   C186      1.0  0.12230  0.35036  0.53388  1.0000
  C   C187      1.0  0.12530  0.36897  0.53040  1.0000
  C   C188      1.0  0.12760  0.37709  0.50464  1.0000
  C   C189      1.0  0.05295  0.29174  0.95339  1.0000
  H   H229      1.0  0.17544  0.33423  0.95367  1.0000
  C   C190      1.0  0.12165  0.33996  0.51144  1.0000
  H   H230      1.0  0.12557  0.37709  0.54753  1.0000
  H   H231      1.0  0.12986  0.39149  0.50208  1.0000
  H   H232      1.0  0.18679  0.36355  0.93421  1.0000
  H   H233      1.0  0.11940  0.32556  0.51396  1.0000
  C   C191      1.0  0.12956  0.35289  0.73162  1.0000
  C   C192      1.0  0.13485  0.37165  0.73229  1.0000
  C   C193      1.0  0.13901  0.38003  0.75660  1.0000
  C   C194      1.0  0.13782  0.36976  0.78048  1.0000
  C   C195      1.0  0.13218  0.35100  0.77987  1.0000
  C   C196      1.0  0.12804  0.34262  0.75555  1.0000
  H   H234      1.0  0.13574  0.37974  0.71410  1.0000
  H   H235      1.0  0.14316  0.39456  0.75688  1.0000
  H   H236      1.0  0.13102  0.34292  0.79810  1.0000
  H   H237      1.0  0.12385  0.32809  0.75525  1.0000
  H   H238      1.0  0.26692  0.34360  0.55990  1.0000
  H   H239      1.0  0.25656  0.33930  0.73037  1.0000
  C   C197      1.0  0.01940  0.36615  0.53632  1.0000
  H   H240      1.0  0.02746  0.29890  0.91915  1.0000
  H   H241      1.0  0.27673  0.38631  0.97010  1.0000
  C   C198      1.0  0.09310  0.41846  0.70819  1.0000
  C   C199      1.0  0.09417  0.43188  0.68836  1.0000
  C   C200      1.0  0.10402  0.43137  0.66405  1.0000
  C   C201      1.0  0.11232  0.41724  0.65943  1.0000
  C   C202      1.0  0.11130  0.40394  0.67936  1.0000
  C   C203      1.0  0.10190  0.40466  0.70378  1.0000
  H   H242      1.0  0.08761  0.44269  0.69184  1.0000
  H   H243      1.0  0.10528  0.44192  0.64891  1.0000
  H   H244      1.0  0.11770  0.39302  0.67601  1.0000
  H   H245      1.0  0.10135  0.39438  0.71916  1.0000
  H   H246      1.0  0.03325  0.36392  0.53200  1.0000
  H   H247      1.0  0.30749  0.29968  0.59299  1.0000
  H   H248      1.0  0.04095  0.42400  0.88491  1.0000
  S   S73       1.0  0.14416  0.38513  0.94656  1.0000
  C   C204      1.0  0.18046  0.34971  0.70994  1.0000
  H   H249      1.0  0.28878  0.39833  0.49152  1.0000
  C   C205      1.0  0.19009  0.33933  0.49661  1.0000
  H   H250      1.0  0.12595  0.34901  0.96864  1.0000
  H   H251      1.0  0.12395  0.42827  0.54871  1.0000
  C   C206      1.0  0.05102  0.49621  0.88450  1.0000
  H   H252      1.0  0.25354  0.36132  0.59131  1.0000
  S   S74       1.0  0.00323  0.44279  0.69936  1.0000
  C   C207      1.0  0.03342  0.39636  0.62730  1.0000
  C   C208      1.0  0.03586  0.31511  0.51677  1.0000
  C   C209      1.0  0.26409  0.35982  0.52525  1.0000
  S   S75       1.0  0.32264  0.38185  0.59634  1.0000
  C   C210      1.0  0.06152  0.38716  0.61094  1.0000
  H   H253      1.0  0.05535  0.48927  0.95206  1.0000
  C   C211      1.0  0.06946  0.28544  0.82843  1.0000
  C   C212      1.0  0.05575  0.48608  0.93063  1.0000
  H   H254      1.0  0.06930  0.38285  0.59485  1.0000
  C   C213      1.0  0.03866  0.26841  0.92180  1.0000
  H   H255      1.0  0.16884  0.37288  0.51069  1.0000
  H   H256      1.0  0.12128  0.46515  0.54068  1.0000
  Fe  Fe42      1.0  0.32440  0.36203  0.88350  1.0000
  H   H257      1.0  0.06789  0.43513  0.63649  1.0000
  H   H258      1.0  0.01660  0.48391  0.69747  1.0000
  C   C214      1.0  0.00564  0.45378  0.88575  1.0000
  C   C215      1.0  0.26211  0.35495  0.55243  1.0000
  C   C216      1.0  0.02768  0.49614  0.68980  1.0000
  H   H259      1.0  0.23679  0.39271  0.48604  1.0000
  H   H260      1.0  0.27054  0.35172  0.51277  1.0000
  C   C217      1.0  0.25088  0.38493  0.53383  1.0000
  H   H261      1.0  0.06803  0.46721  0.63559  1.0000
  S   S76       1.0  0.00751  0.43741  0.51453  1.0000
  H   H262      1.0  0.07050  0.48507  0.92598  1.0000
  H   H263      1.0  0.06314  0.28446  0.96122  1.0000
  S   S77       1.0  0.03348  0.26794  0.81346  1.0000
  H   H264      1.0  0.07465  0.43188  0.53284  1.0000
  H   H265      1.0  0.28378  0.36626  0.73213  1.0000
  H   H266      1.0  0.20341  0.38110  0.94986  1.0000
  C   C218      1.0  0.31945  0.37344  0.56404  1.0000
  N   N9        1.0  0.05259  0.30856  0.52380  1.0000
  N   N10       1.0  0.10055  0.44058  0.55398  1.0000
  C   C219      1.0  0.10991  0.45414  0.53269  1.0000
  C   C220      1.0  0.11537  0.43250  0.56472  1.0000
  C   C221      1.0  0.08596  0.42636  0.54144  1.0000
  C   C222      1.0  0.09143  0.44815  0.57587  1.0000
  C   C223      1.0  0.08267  0.43704  0.59829  1.0000
  H   H267      1.0  0.19533  0.32857  0.50506  1.0000
  C   C224      1.0  0.05994  0.25858  0.89020  1.0000
  H   H268      1.0  0.03371  0.27774  0.49968  1.0000
  Fe  Fe43      1.0  0.31526  0.36211  0.69479  1.0000
  H   H269      1.0  0.12542  0.44211  0.57707  1.0000
  H   H270      1.0  0.06036  0.30125  0.93683  1.0000
  H   H271      1.0  0.08063  0.31995  0.53866  1.0000
  H   H272      1.0  0.09230  0.42020  0.52503  1.0000
  H   H273      1.0  0.07871  0.41522  0.55581  1.0000
  H   H274      1.0  0.08284  0.42310  0.60001  1.0000
  C   C225      1.0  0.24897  0.37992  0.56095  1.0000
  N   N11       1.0  0.18174  0.34780  0.54245  1.0000
  C   C226      1.0  0.17513  0.36170  0.55674  1.0000
  C   C227      1.0  0.16831  0.33013  0.55003  1.0000
  C   C228      1.0  0.20094  0.34808  0.55210  1.0000
  C   C229      1.0  0.18255  0.35061  0.51311  1.0000
  H   H275      1.0  0.03505  0.36308  0.75121  1.0000
  C   C230      1.0  0.05689  0.47829  0.84727  1.0000
  H   H276      1.0  0.00647  0.37861  0.59457  1.0000
  H   H277      1.0  0.03507  0.50279  0.70725  1.0000
  H   H278      1.0  0.03060  0.32160  0.53378  1.0000
  H   H279      1.0  0.16018  0.36142  0.55218  1.0000
  H   H280      1.0  0.15378  0.32938  0.54275  1.0000
  H   H281      1.0  0.20103  0.34738  0.57429  1.0000
  H   H282      1.0  0.20611  0.33657  0.54538  1.0000
  H   H283      1.0  0.21162  0.36072  0.54520  1.0000
  C   C231      1.0  0.04397  0.39082  0.60651  1.0000
  H   H284      1.0  0.02026  0.48848  0.91650  1.0000
  C   C232      1.0  0.12409  0.34810  0.48568  1.0000
  C   C233      1.0  0.19062  0.36959  0.95375  1.0000
  C   C234      1.0  0.01218  0.44875  0.86126  1.0000
  H   H285      1.0  0.17968  0.35394  0.68873  1.0000
  C   C235      1.0  0.00373  0.35136  0.54356  1.0000
  C   C236      1.0  0.02474  0.43778  0.86083  1.0000
  N   N12       1.0  0.04252  0.30464  0.74413  1.0000
  C   C237      1.0  0.05670  0.29688  0.75751  1.0000
  C   C238      1.0  0.02408  0.29794  0.75957  1.0000
  C   C239      1.0  0.04938  0.32453  0.74199  1.0000
  C   C240      1.0  0.06812  0.33313  0.73166  1.0000
  C   C241      1.0  0.03753  0.33591  0.74874  1.0000
  C   C242      1.0  0.07476  0.35187  0.72911  1.0000
  C   C243      1.0  0.04430  0.35465  0.74593  1.0000
  C   C244      1.0  0.06287  0.36260  0.73624  1.0000
  H   H286      1.0  0.06020  0.30284  0.77717  1.0000
  H   H287      1.0  0.07024  0.29886  0.74555  1.0000
  H   H288      1.0  0.01983  0.28299  0.76221  1.0000
  H   H289      1.0  0.02505  0.30324  0.77990  1.0000
  H   H290      1.0  0.23628  0.32776  0.77084  1.0000
  H   H291      1.0  0.07783  0.32550  0.72512  1.0000
  H   H292      1.0  0.02293  0.33067  0.75610  1.0000
  H   H293      1.0  0.08920  0.35805  0.72129  1.0000
  C   C245      1.0  0.02306  0.25698  0.90925  1.0000
  H   H294      1.0  0.06796  0.37713  0.73397  1.0000
  N   N13       1.0  0.19397  0.36371  0.72443  1.0000
  C   C246      1.0  0.21366  0.36577  0.71336  1.0000
  C   C247      1.0  0.19276  0.35817  0.75306  1.0000
  C   C248      1.0  0.19795  0.34240  0.76146  1.0000
  C   C249      1.0  0.18598  0.36774  0.77318  1.0000
  C   C250      1.0  0.19668  0.33672  0.78833  1.0000
  C   C251      1.0  0.18481  0.36194  0.79997  1.0000
  C   C252      1.0  0.19017  0.34650  0.80755  1.0000
  H   H295      1.0  0.18453  0.33680  0.71000  1.0000
  H   H296      1.0  0.19875  0.39219  0.72952  1.0000
  H   H297      1.0  0.21765  0.35281  0.71304  1.0000
  H   H298      1.0  0.22438  0.37516  0.72506  1.0000
  H   H299      1.0  0.20276  0.33421  0.74721  1.0000
  H   H300      1.0  0.18115  0.37959  0.76884  1.0000
  H   H301      1.0  0.20045  0.32451  0.79430  1.0000
  H   H302      1.0  0.17934  0.36932  0.81493  1.0000
  H   H303      1.0  0.18897  0.34197  0.82834  1.0000
  C   C253      1.0  0.32437  0.37872  0.51581  1.0000
  C   C254      1.0  0.31515  0.36071  0.51196  1.0000
  H   H304      1.0  0.02212  0.41035  0.58141  1.0000
  H   H305      1.0  0.30020  0.33539  0.53136  1.0000
  N   N14       1.0  0.26078  0.38087  0.48657  1.0000
  H   H306      1.0  0.01202  0.30142  0.74942  1.0000
  Fe  Fe44      1.0  0.00145  0.26440  0.81779  1.0000
  Fe  Fe45      1.0  0.31436  0.32945  0.66257  1.0000
  H   H307      1.0  0.16573  0.34685  0.71900  1.0000
  H   H308      1.0  0.01961  0.29863  0.95348  1.0000
  H   H309      1.0  0.03034  0.43379  0.92781  1.0000
  C   C255      1.0  0.00499  0.44943  0.66513  1.0000
  N   N15       1.0  0.03526  0.27912  0.94445  1.0000
  C   C256      1.0  0.07422  0.46189  0.61889  1.0000
  C   C257      1.0  0.03982  0.29767  0.71707  1.0000
  C   C258      1.0  0.09098  0.46648  0.57582  1.0000
  C   C259      1.0  0.07408  0.44382  0.61932  1.0000
  N   N16       1.0  0.01480  0.40003  0.62208  1.0000
  H   H310      1.0  0.00759  0.28169  0.93263  1.0000
  S   S78       1.0  0.03153  0.42910  0.83100  1.0000
  H   H311      1.0  0.02361  0.30398  0.51108  1.0000
  C   C260      1.0  0.17531  0.36393  0.50002  1.0000
  N   N17       1.0  0.08531  0.39237  0.81053  1.0000
  C   C261      1.0  0.07205  0.40403  0.80769  1.0000
  C   C262      1.0  0.09633  0.39757  0.83466  1.0000
  C   C263      1.0  0.09874  0.39622  0.78696  1.0000
  C   C264      1.0  0.07554  0.37290  0.81264  1.0000
  C   C265      1.0  0.05531  0.36610  0.81313  1.0000
  C   C266      1.0  0.08636  0.36005  0.81439  1.0000
  C   C267      1.0  0.04665  0.34759  0.81504  1.0000
  C   C268      1.0  0.07756  0.34160  0.81623  1.0000
  C   C269      1.0  0.05775  0.33539  0.81647  1.0000
  H   H312      1.0  0.06215  0.40271  0.82542  1.0000
  H   H313      1.0  0.07986  0.41854  0.80532  1.0000
  H   H314      1.0  0.06351  0.40099  0.78961  1.0000
  H   H315      1.0  0.08691  0.39419  0.85298  1.0000
  H   H316      1.0  0.10348  0.41224  0.83409  1.0000
  H   H317      1.0  0.10789  0.39063  0.83681  1.0000
  H   H318      1.0  0.09144  0.39079  0.76877  1.0000
  H   H319      1.0  0.10508  0.41092  0.78301  1.0000
  H   H320      1.0  0.11094  0.39028  0.78929  1.0000
  H   H321      1.0  0.04586  0.37480  0.81211  1.0000
  H   H322      1.0  0.10177  0.36420  0.81450  1.0000
  H   H323      1.0  0.03121  0.34266  0.81550  1.0000
  H   H324      1.0  0.08619  0.33210  0.81778  1.0000
  H   H325      1.0  0.05098  0.32109  0.81801  1.0000
  N   N18       1.0  0.27137  0.37279  0.82301  1.0000
  C   C270      1.0  0.25453  0.37878  0.83221  1.0000
  C   C271      1.0  0.27517  0.35985  0.84325  1.0000
  C   C272      1.0  0.28812  0.38880  0.82156  1.0000
  C   C273      1.0  0.26747  0.36395  0.79735  1.0000
  C   C274      1.0  0.25188  0.34849  0.79556  1.0000
  C   C275      1.0  0.27881  0.37020  0.77366  1.0000
  C   C276      1.0  0.24801  0.33975  0.77165  1.0000
  C   C277      1.0  0.27472  0.36142  0.74983  1.0000
  C   C278      1.0  0.25942  0.34621  0.74883  1.0000
  H   H326      1.0  0.25020  0.38728  0.81656  1.0000
  H   H327      1.0  0.24194  0.36733  0.83778  1.0000
  H   H328      1.0  0.25755  0.38688  0.85022  1.0000
  H   H329      1.0  0.28675  0.35396  0.83613  1.0000
  H   H330      1.0  0.26242  0.34850  0.84835  1.0000
  H   H331      1.0  0.27970  0.36639  0.86224  1.0000
  H   H332      1.0  0.28609  0.39935  0.80718  1.0000
  H   H333      1.0  0.29060  0.39513  0.84119  1.0000
  H   H334      1.0  0.30146  0.38510  0.81584  1.0000
  H   H335      1.0  0.24271  0.34295  0.81280  1.0000
  H   H336      1.0  0.29117  0.38165  0.77296  1.0000
  C   C279      1.0  0.05922  0.39451  0.65686  1.0000
  S   S79       1.0  0.09200  0.31340  0.89213  1.0000
  C   C280      1.0  0.31472  0.34296  0.79513  1.0000
  H   H337      1.0  0.03582  0.46524  0.61156  1.0000
  S   S80       1.0  0.32427  0.39081  0.87748  1.0000
  H   H338      1.0  0.05334  0.30142  0.70468  1.0000
  H   H339      1.0  0.18455  0.37544  0.55203  1.0000
  H   H340      1.0  0.17299  0.31876  0.54170  1.0000
  H   H341      1.0  0.31708  0.27171  0.60173  1.0000
  H   H342      1.0  0.03476  0.40221  0.66988  1.0000
  Fe  Fe46      1.0  0.01978  0.46003  0.54148  1.0000
  H   H343      1.0  0.11680  0.44812  0.51668  1.0000
  C   C281      1.0  0.02248  0.46020  0.62286  1.0000
  H   H344      1.0  0.03605  0.25827  0.97357  1.0000
  H   H345      1.0  0.17873  0.37521  0.96050  1.0000
  C   C282      1.0  0.00520  0.45899  0.61026  1.0000
  C   C283      1.0  0.04344  0.29156  0.85418  1.0000
  H   H346      1.0  0.17512  0.35946  0.57870  1.0000
  C   C284      1.0  0.02516  0.43796  0.90944  1.0000
  C   C285      1.0  0.08252  0.47317  0.59712  1.0000
  C   C286      1.0  0.03123  0.43249  0.88505  1.0000
  H   H347      1.0  0.03819  0.49110  0.67801  1.0000
  C   C287      1.0  0.02196  0.29004  0.93707  1.0000
  H   H348      1.0  0.01508  0.41830  0.65364  1.0000
  H   H349      1.0  0.33017  0.38773  0.49888  1.0000
  S   S81       1.0  0.32444  0.39371  0.94226  1.0000
  C   C288      1.0  0.25462  0.36498  0.57022  1.0000
  C   C289      1.0  0.01196  0.44828  0.90997  1.0000
  H   H350      1.0  0.09786  0.29714  0.84205  1.0000
  H   H351      1.0  0.26990  0.40928  0.49404  1.0000
  S   S82       1.0  0.00232  0.45381  0.94039  1.0000
  H   H352      1.0  0.06248  0.32928  0.55200  1.0000
  H   H353      1.0  0.30691  0.32910  0.79955  1.0000
  C   C290      1.0  0.02657  0.26677  0.96733  1.0000
  C   C291      1.0  0.06743  0.32396  0.53358  1.0000
  H   H354      1.0  0.01265  0.25751  0.96260  1.0000
  H   H355      1.0  0.31795  0.31873  0.50608  1.0000
  C   C292      1.0  0.08277  0.29602  0.84512  1.0000
  C   C293      1.0  0.31008  0.35548  0.56010  1.0000
  H   H356      1.0  0.04554  0.47264  0.92896  1.0000
  H   H357      1.0  0.05125  0.28206  0.76127  1.0000
  C   C294      1.0  0.32649  0.38505  0.54177  1.0000
  H   H358      1.0  0.02978  0.50184  0.94382  1.0000
  C   C295      1.0  0.04755  0.28428  0.49048  1.0000
  C   C296      1.0  0.31593  0.35016  0.76887  1.0000
  H   H359      1.0  0.00852  0.25575  0.91597  1.0000
  H   H360      1.0  0.22366  0.36204  0.96057  1.0000
  H   H361      1.0  0.04308  0.30096  0.56479  1.0000
  H   H362      1.0  0.07447  0.27869  0.81233  1.0000
  H   H363      1.0  0.24678  0.39690  0.52774  1.0000
  H   H364      1.0  0.30897  0.34188  0.75330  1.0000
  C   C297      1.0  0.30780  0.34921  0.53418  1.0000
  H   H365      1.0  0.07136  0.33550  0.51876  1.0000
  C   C298      1.0  0.06916  0.38908  0.63605  1.0000
  H   H366      1.0  0.00502  0.41591  0.96057  1.0000
  S   S83       1.0  0.08662  0.49186  0.50862  1.0000
  C   C299      1.0  0.25844  0.37499  0.51508  1.0000
  C   C300      1.0  0.04161  0.39810  0.65274  1.0000
  H   H367      1.0  0.06078  0.46657  0.84010  1.0000
  C   C301      1.0  0.05185  0.49012  0.82916  1.0000
  H   H368      1.0  0.32299  0.30001  0.49015  1.0000
  N   N19       1.0  0.05065  0.49992  0.91319  1.0000
  H   H369      1.0  0.30452  0.34644  0.57701  1.0000
  Fe  Fe47      1.0  0.32483  0.36472  0.94458  1.0000
  C   C302      1.0  0.05644  0.48115  0.87457  1.0000
  H   H370      1.0  0.08252  0.48722  0.59678  1.0000
  H   H371      1.0  0.08625  0.32088  0.49133  1.0000
  S   S84       1.0  0.00418  0.46729  0.57727  1.0000
  S   S85       1.0  0.32683  0.30568  0.66144  1.0000
  C   C303      1.0  0.03121  0.50079  0.92187  1.0000
  H   H372      1.0  0.02313  0.49653  0.63697  1.0000
  H   H373      1.0  0.00554  0.33791  0.54473  1.0000
  H   H374      1.0  0.00697  0.45283  0.84278  1.0000
  C   C304      1.0  0.99929  0.38642  0.54058  1.0000
  H   H375      1.0  0.01651  0.40078  0.94471  1.0000
  H   H376      1.0  0.03363  0.50190  0.76838  1.0000
  S   S86       1.0  0.32818  0.37766  0.73025  1.0000
  H   H377      1.0  0.07012  0.27697  0.91984  1.0000
  S   S87       1.0  0.04996  0.44847  0.48331  1.0000
  C   C305      1.0  0.05729  0.26864  0.91189  1.0000
  H   H378      1.0  0.00400  0.41840  0.59745  1.0000
  C   C306      1.0  0.01184  0.50004  0.64940  1.0000
  C   C307      1.0  0.00573  0.40590  0.64578  1.0000
  H   H379      1.0  0.99869  0.25925  0.68532  1.0000
  N   N20       1.0  0.19384  0.35619  0.97369  1.0000
  C   C308      1.0  0.32248  0.27996  0.58387  1.0000
  C   C309      1.0  0.31709  0.29575  0.57891  1.0000
  C   C310      1.0  0.00429  0.40146  0.95814  1.0000
  H   H380      1.0  0.07425  0.25956  0.88229  1.0000
  C   C311      1.0  0.32453  0.30680  0.55643  1.0000
  H   H381      1.0  0.31991  0.31888  0.55361  1.0000
  H   H382      1.0  0.00664  0.39588  0.97802  1.0000
  C   C312      1.0  0.17718  0.34016  0.97365  1.0000
  H   H383      1.0  0.16362  0.34368  0.97860  1.0000
  H   H384      1.0  0.03795  0.50063  0.57621  1.0000
  C   C313      1.0  0.00129  0.38349  0.61311  1.0000
  H   H385      1.0  0.00230  0.39530  0.66210  1.0000
  C   C314      1.0  0.14165  0.37542  0.97929  1.0000
  H   H386      1.0  0.00049  0.48732  0.65382  1.0000
  H   H387      1.0  0.21485  0.34158  0.98058  1.0000
  C   C315      1.0  0.32951  0.31390  0.49644  1.0000
  H   H388      1.0  0.04991  0.30003  0.96980  1.0000
  Fe  Fe48      1.0  0.01492  0.45119  0.98065  1.0000
  H   H389      1.0  0.99738  0.39985  0.53965  1.0000
  Fe  Fe49      1.0  0.06355  0.61178  0.24654  1.0000
  S   S88       1.0  0.03243  0.59741  0.25012  1.0000
  S   S89       1.0  0.08202  0.61408  0.28241  1.0000
  Fe  Fe50      1.0  0.06259  0.61826  0.18574  1.0000
  S   S90       1.0  0.03143  0.60432  0.18539  1.0000
  S   S91       1.0  0.07999  0.63002  0.14811  1.0000
  Fe  Fe51      1.0  0.02906  0.61942  0.22201  1.0000
  Fe  Fe52      1.0  0.03840  0.58389  0.21330  1.0000
  S   S92       1.0  0.02576  0.55432  0.20820  1.0000
  S   S93       1.0  0.05989  0.63494  0.22075  1.0000
  S   S94       1.0  0.06987  0.59677  0.21129  1.0000
  S   S95       1.0  0.06422  0.63162  0.46289  1.0000
  C   C316      1.0  0.07564  0.74624  0.13014  1.0000
  Fe  Fe53      1.0  0.06553  0.60920  0.43637  1.0000
  S   S96       1.0  0.04674  0.60354  0.40078  1.0000
  S   S97       1.0  0.04538  0.61469  0.03410  1.0000
  S   S98       1.0  0.09749  0.61643  0.43281  1.0000
  H   H390      1.0  0.08369  0.54011  0.23946  1.0000
  H   H391      1.0  0.07266  0.54101  0.36304  1.0000
  S   S99       1.0  0.03926  0.72709  0.11791  1.0000
  Fe  Fe54      1.0  0.00908  0.72852  0.10843  1.0000
  H   H392      1.0  0.09200  0.57807  0.40904  1.0000
  C   C317      1.0  0.04723  0.52536  0.42206  1.0000
  H   H393      1.0  0.02874  0.65682  0.39959  1.0000
  C   C318      1.0  0.05745  0.56060  0.39715  1.0000
  C   C319      1.0  0.07004  0.62612  0.11653  1.0000
  C   C320      1.0  0.05078  0.61730  0.11389  1.0000
  C   C321      1.0  0.04339  0.61401  0.08853  1.0000
  C   C322      1.0  0.05517  0.61949  0.06554  1.0000
  C   C323      1.0  0.07439  0.62855  0.06810  1.0000
  C   C324      1.0  0.08178  0.63184  0.09352  1.0000
  H   H394      1.0  0.04155  0.61285  0.13131  1.0000
  H   H395      1.0  0.02850  0.60704  0.08672  1.0000
  H   H396      1.0  0.08353  0.63315  0.05052  1.0000
  H   H397      1.0  0.09667  0.63882  0.09535  1.0000
  C   C325      1.0  0.07200  0.61199  0.31514  1.0000
  C   C326      1.0  0.05248  0.60989  0.32026  1.0000
  C   C327      1.0  0.04492  0.60748  0.34661  1.0000
  C   C328      1.0  0.05685  0.60745  0.36803  1.0000
  C   C329      1.0  0.07640  0.60988  0.36292  1.0000
  C   C330      1.0  0.08391  0.61206  0.33659  1.0000
  H   H398      1.0  0.04322  0.61020  0.30394  1.0000
  H   H399      1.0  0.02979  0.60577  0.35040  1.0000
  H   H400      1.0  0.08575  0.60983  0.37915  1.0000
  H   H401      1.0  0.09904  0.61377  0.33278  1.0000
  C   C331      1.0  0.07833  0.74453  0.05177  1.0000
  C   C332      1.0  0.02200  0.54668  0.28232  1.0000
  C   C333      1.0  0.03148  0.52129  0.21874  1.0000
  C   C334      1.0  0.03961  0.53989  0.21797  1.0000
  C   C335      1.0  0.05839  0.54663  0.22569  1.0000
  C   C336      1.0  0.06909  0.53483  0.23378  1.0000
  S   S100      1.0  0.00614  0.73146  0.41578  1.0000
  H   H402      1.0  0.06474  0.56091  0.22543  1.0000
  N   N21       1.0  0.03904  0.67210  0.15025  1.0000
  C   C337      1.0  0.04126  0.65454  0.16063  1.0000
  C   C338      1.0  0.04822  0.67543  0.12310  1.0000
  C   C339      1.0  0.04960  0.68650  0.16713  1.0000
  C   C340      1.0  0.01857  0.67183  0.15103  1.0000
  H   H403      1.0  0.11235  0.51532  0.98948  1.0000
  H   H404      1.0  0.05982  0.55794  0.27930  1.0000
  H   H405      1.0  0.03637  0.65157  0.18183  1.0000
  H   H406      1.0  0.03293  0.64327  0.14905  1.0000
  H   H407      1.0  0.06343  0.67498  0.12313  1.0000
  H   H408      1.0  0.13575  0.70798  0.35462  1.0000
  H   H409      1.0  0.06515  0.68737  0.16666  1.0000
  H   H410      1.0  0.04790  0.69986  0.16021  1.0000
  H   H411      1.0  0.15812  0.72018  0.33918  1.0000
  Fe  Fe55      1.0  0.09636  0.63840  0.46090  1.0000
  C   C341      1.0  0.12498  0.70441  0.44269  1.0000
  C   C342      1.0  0.06166  0.68395  0.39286  1.0000
  H   H412      1.0  0.08075  0.56523  0.43824  1.0000
  H   H413      1.0  0.05032  0.56281  0.41620  1.0000
  H   H414      1.0  0.09563  0.54600  0.37755  1.0000
  C   C343      1.0  0.05508  0.66101  0.36006  1.0000
  N   N22       1.0  0.07866  0.57131  0.05843  1.0000
  C   C344      1.0  0.08630  0.55558  0.05380  1.0000
  C   C345      1.0  0.06619  0.57330  0.03637  1.0000
  C   C346      1.0  0.09512  0.58758  0.05719  1.0000
  C   C347      1.0  0.06742  0.56856  0.08403  1.0000
  C   C348      1.0  0.05127  0.55353  0.08828  1.0000
  C   C349      1.0  0.07181  0.58062  0.10512  1.0000
  C   C350      1.0  0.02503  0.56327  0.32207  1.0000
  H   H415      1.0  0.07483  0.54308  0.05118  1.0000
  H   H416      1.0  0.09493  0.55305  0.07068  1.0000
  H   H417      1.0  0.05449  0.56096  0.03391  1.0000
  H   H418      1.0  0.07435  0.57642  0.01692  1.0000
  H   H419      1.0  0.05940  0.58442  0.03989  1.0000
  S   S101      1.0  0.06282  0.58941  0.47108  1.0000
  H   H420      1.0  0.10331  0.58923  0.03774  1.0000
  H   H421      1.0  0.09029  0.60005  0.05918  1.0000
  H   H422      1.0  0.04697  0.54387  0.07310  1.0000
  C   C351      1.0  0.05696  0.74707  0.12495  1.0000
  H   H423      1.0  0.08690  0.56393  0.36443  1.0000
  N   N23       1.0  0.05892  0.66456  0.38842  1.0000
  H   H424      1.0  0.01467  0.70640  0.18021  1.0000
  C   C352      1.0  0.08247  0.55066  0.37559  1.0000
  H   H425      1.0  0.03596  0.53182  0.41868  1.0000
  C   C353      1.0  0.06098  0.50574  0.12166  1.0000
  C   C354      1.0  0.07103  0.50406  0.07494  1.0000
  C   C355      1.0  0.07866  0.69497  0.40309  1.0000
  H   H426      1.0  0.10121  0.73671  0.34715  1.0000
  C   C356      1.0  0.04235  0.65389  0.40510  1.0000
  C   C357      1.0  0.06675  0.53391  0.41525  1.0000
  H   H427      1.0  0.09068  0.68987  0.40806  1.0000
  C   C358      1.0  0.08715  0.56420  0.41820  1.0000
  H   H428      1.0  0.04660  0.55259  0.38422  1.0000
  H   H429      1.0  0.10026  0.55967  0.42129  1.0000
  N   N24       1.0  0.07318  0.55200  0.40182  1.0000
  H   H430      1.0  0.06282  0.57411  0.38700  1.0000
  H   H431      1.0  0.05381  0.51660  0.99936  1.0000
  C   C359      1.0  0.08021  0.52410  0.42144  1.0000
  H   H432      1.0  0.03148  0.73802  0.17464  1.0000
  H   H433      1.0  0.02393  0.57572  0.31103  1.0000
  C   C360      1.0  0.04754  0.52520  0.30683  1.0000
  H   H434      1.0  0.05880  0.69705  0.31008  1.0000
  S   S102      1.0  0.10741  0.66917  0.45761  1.0000
  H   H435      1.0  0.04160  0.66401  0.35399  1.0000
  H   H436      1.0  0.14190  0.72453  0.28375  1.0000
  C   C361      1.0  0.02797  0.52944  0.34458  1.0000
  C   C362      1.0  0.09824  0.72557  0.33408  1.0000
  C   C363      1.0  0.11294  0.71940  0.32132  1.0000
  C   C364      1.0  0.01539  0.67048  0.29668  1.0000
  C   C365      1.0  0.13837  0.71861  0.42862  1.0000
  C   C366      1.0  0.12443  0.68632  0.43856  1.0000
  H   H437      1.0  0.06684  0.66932  0.34678  1.0000
  N   N25       1.0  0.13353  0.72779  0.32461  1.0000
  C   C367      1.0  0.07895  0.71749  0.33001  1.0000
  C   C368      1.0  0.00897  0.67562  0.12821  1.0000
  H   H438      1.0  0.03352  0.68486  0.37956  1.0000
  C   C369      1.0  0.04684  0.69230  0.38747  1.0000
  C   C370      1.0  0.04872  0.71038  0.39250  1.0000
  H   H439      1.0  0.03700  0.71633  0.38872  1.0000
  C   C371      1.0  0.08046  0.71311  0.40777  1.0000
  H   H440      1.0  0.13709  0.66878  0.41635  1.0000
  C   C372      1.0  0.13728  0.68259  0.41974  1.0000
  C   C373      1.0  0.07569  0.65787  0.39515  1.0000
  H   H441      1.0  0.03505  0.64071  0.26559  1.0000
  H   H442      1.0  0.09473  0.52357  0.14563  1.0000
  C   C374      1.0  0.06549  0.72076  0.40264  1.0000
  H   H443      1.0  0.09347  0.72118  0.41587  1.0000
  H   H444      1.0  0.07901  0.65958  0.41652  1.0000
  H   H445      1.0  0.13103  0.75034  0.07957  1.0000
  N   N26       1.0  0.03424  0.55223  0.30520  1.0000
  H   H446      1.0  0.11120  0.73517  0.06606  1.0000
  H   H447      1.0  0.05164  0.57696  0.28605  1.0000
  H   H448      1.0  0.09045  0.50967  0.10592  1.0000
  C   C375      1.0  0.02818  0.66020  0.29100  1.0000
  H   H449      1.0  0.08355  0.59263  0.10375  1.0000
  C   C376      1.0  0.02526  0.64878  0.26957  1.0000
  H   H450      1.0  0.04031  0.66094  0.30323  1.0000
  C   C377      1.0  0.07374  0.70312  0.31335  1.0000
  H   H451      1.0  0.04821  0.68897  0.11462  1.0000
  S   S103      1.0  0.01945  0.68451  0.32380  1.0000
  S   S104      1.0  0.16917  0.73236  0.39273  1.0000
  C   C378      1.0  0.02850  0.73430  0.24266  1.0000
  H   H452      1.0  0.01689  0.51598  0.21300  1.0000
  H   H453      1.0  0.07310  0.64324  0.39182  1.0000
  C   C379      1.0  0.08775  0.69663  0.30079  1.0000
  H   H454      1.0  0.01010  0.55602  0.32836  1.0000
  C   C380      1.0  0.04959  0.50933  0.31911  1.0000
  H   H455      1.0  0.05644  0.65403  0.15955  1.0000
  H   H456      1.0  0.06792  0.72245  0.33970  1.0000
  C   C381      1.0  0.00962  0.64771  0.25362  1.0000
  C   C382      1.0  0.07448  0.50677  0.43330  1.0000
  H   H457      1.0  0.13875  0.73241  0.43238  1.0000
  H   H458      1.0  0.04098  0.66497  0.10938  1.0000
  C   C383      1.0  0.01938  0.71590  0.24541  1.0000
  C   C384      1.0  0.06095  0.51623  0.23458  1.0000
  H   H459      1.0  0.13123  0.73816  0.36347  1.0000
  H   H460      1.0  0.08388  0.73327  0.04713  1.0000
  H   H461      1.0  0.04439  0.65669  0.42653  1.0000
  H   H462      1.0  0.16097  0.69376  0.39179  1.0000
  H   H463      1.0  0.04021  0.63917  0.40305  1.0000
  C   C385      1.0  0.04000  0.55098  0.11187  1.0000
  H   H464      1.0  0.04371  0.52286  0.15805  1.0000
  C   C386      1.0  0.15157  0.71490  0.41035  1.0000
  C   C387      1.0  0.03684  0.53589  0.31926  1.0000
  C   C388      1.0  0.15082  0.69681  0.40583  1.0000
  H   H465      1.0  0.06677  0.73473  0.40671  1.0000
  C   C389      1.0  0.14277  0.71415  0.33531  1.0000
  C   C390      1.0  0.10707  0.70462  0.30464  1.0000
  H   H466      1.0  0.09533  0.52980  0.41735  1.0000
  H   H467      1.0  0.02794  0.53827  0.26882  1.0000
  H   H468      1.0  0.07902  0.73341  0.13010  1.0000
  S   S105      1.0  0.00602  0.63368  0.22651  1.0000
  C   C391      1.0  0.04166  0.50795  0.43372  1.0000
  C   C392      1.0  0.03014  0.51352  0.35674  1.0000
  H   H469      1.0  0.01617  0.67934  0.10897  1.0000
  C   C393      1.0  0.01869  0.71412  0.19771  1.0000
  S   S106      1.0  0.01291  0.73029  0.33869  1.0000
  C   C394      1.0  0.00155  0.73613  0.99349  1.0000
  C   C395      1.0  0.05299  0.56402  0.29519  1.0000
  C   C396      1.0  0.08246  0.51356  0.99531  1.0000
  C   C397      1.0  0.01437  0.70586  0.22301  1.0000
  H   H470      1.0  0.06314  0.56750  0.31150  1.0000
  C   C398      1.0  0.05941  0.52465  0.15842  1.0000
  H   H471      1.0  0.05354  0.64663  0.35581  1.0000
  C   C399      1.0  0.14284  0.73510  0.29847  1.0000
  Fe  Fe56      1.0  0.06489  0.61780  0.99743  1.0000
  H   H472      1.0  0.01594  0.70944  0.26512  1.0000
  C   C400      1.0  0.08556  0.51117  0.15595  1.0000
  C   C401      1.0  0.00760  0.66777  0.17534  1.0000
  H   H473      1.0  0.08359  0.68541  0.28783  1.0000
  H   H474      1.0  0.11741  0.69921  0.29424  1.0000
  H   H475      1.0  0.03337  0.56767  0.33996  1.0000
  S   S107      1.0  0.11014  0.57595  0.47588  1.0000
  C   C402      1.0  0.06057  0.57780  0.12875  1.0000
  H   H476      1.0  0.04454  0.68419  0.18836  1.0000
  C   C403      1.0  0.11545  0.74804  0.07633  1.0000
  Fe  Fe57      1.0  0.09465  0.59783  0.46951  1.0000
  C   C404      1.0  0.03311  0.74317  0.21709  1.0000
  H   H477      1.0  0.08862  0.66490  0.38277  1.0000
  H   H478      1.0  0.02303  0.50860  0.37585  1.0000
  H   H479      1.0  0.05398  0.52871  0.28709  1.0000
  S   S108      1.0  0.09620  0.62015  0.99880  1.0000
  C   C405      1.0  0.13728  0.74282  0.34308  1.0000
  C   C406      1.0  0.06857  0.52333  0.99416  1.0000
  H   H480      1.0  0.02039  0.55844  0.27001  1.0000
  H   H481      1.0  0.09566  0.55767  0.03536  1.0000
  H   H482      1.0  0.01898  0.53625  0.35515  1.0000
  H   H483      1.0  0.06649  0.53666  0.14541  1.0000
  H   H484      1.0  0.00707  0.69168  0.22533  1.0000
  H   H485      1.0  0.14240  0.70316  0.32151  1.0000
  H   H486      1.0  0.06349  0.52797  0.17908  1.0000
  C   C407      1.0  0.04208  0.50948  0.22721  1.0000
  C   C408      1.0  0.00474  0.73467  0.47001  1.0000
  H   H487      1.0  0.10537  0.58697  0.07294  1.0000
  H   H488      1.0  0.04956  0.72938  0.04452  1.0000
  H   H489      1.0  0.10801  0.74605  0.09622  1.0000
  C   C409      1.0  0.05868  0.74223  0.04975  1.0000
  H   H490      1.0  0.01638  0.72834  0.46989  1.0000
  H   H491      1.0  0.02741  0.53970  0.11439  1.0000
  H   H492      1.0  0.06327  0.54940  0.98531  1.0000
  C   C410      1.0  0.04462  0.56312  0.13204  1.0000
  Fe  Fe58      1.0  0.99904  0.70150  0.33106  1.0000
  H   H493      1.0  0.06398  0.58740  0.14434  1.0000
  C   C411      1.0  0.02813  0.73240  0.19472  1.0000
  H   H494      1.0  0.00746  0.53852  0.28894  1.0000
  N   N27       1.0  0.06509  0.50850  0.15006  1.0000
  H   H495      1.0  0.11512  0.70748  0.45718  1.0000
  H   H496      1.0  0.03572  0.56131  0.15018  1.0000
  H   H497      1.0  0.00869  0.73387  0.01132  1.0000
  C   C412      1.0  0.07552  0.50686  0.10157  1.0000
  H   H498      1.0  0.15833  0.74170  0.30026  1.0000
  C   C413      1.0  0.10146  0.52256  0.98860  1.0000
  H   H499      1.0  0.01399  0.66514  0.19361  1.0000
  H   H500      1.0  0.13621  0.74538  0.28975  1.0000
  C   C414      1.0  0.07395  0.54196  0.98629  1.0000
  H   H501      1.0  0.15287  0.74869  0.34526  1.0000
  H   H502      1.0  0.03147  0.74129  0.26092  1.0000
  H   H503      1.0  0.08798  0.51280  0.17766  1.0000
  C   C415      1.0  0.99971  0.66940  0.28076  1.0000
  H   H504      1.0  0.08224  0.50464  0.05990  1.0000
  H   H505      1.0  0.11298  0.75154  0.02289  1.0000
  C   C416      1.0  0.04096  0.50353  0.34407  1.0000
  Fe  Fe59      1.0  0.06654  0.61984  0.74944  1.0000
  S   S109      1.0  0.03487  0.60847  0.75497  1.0000
  S   S110      1.0  0.08515  0.63047  0.78398  1.0000
  Fe  Fe60      1.0  0.06508  0.61518  0.68859  1.0000
  S   S111      1.0  0.03335  0.60367  0.69044  1.0000
  S   S112      1.0  0.08245  0.61949  0.64955  1.0000
  Fe  Fe61      1.0  0.03328  0.62550  0.71874  1.0000
  H   H506      1.0  0.12171  0.51794  0.49814  1.0000
  Fe  Fe62      1.0  0.03872  0.58787  0.72647  1.0000
  S   S113      1.0  0.02315  0.55868  0.73525  1.0000
  S   S114      1.0  0.06471  0.63823  0.71459  1.0000
  S   S115      1.0  0.07066  0.59809  0.72302  1.0000
  Fe  Fe63      1.0  0.09930  0.64085  0.96469  1.0000
  S   S116      1.0  0.06796  0.63941  0.96544  1.0000
  S   S117      1.0  0.11838  0.66949  0.96780  1.0000
  C   C417      1.0  0.05367  0.66108  0.56617  1.0000
  C   C418      1.0  0.10672  0.54083  0.98064  1.0000
  C   C419      1.0  0.08143  0.53875  0.81280  1.0000
  Fe  Fe64      1.0  0.06603  0.61761  0.93658  1.0000
  S   S118      1.0  0.04777  0.61426  0.90076  1.0000
  Fe  Fe65      1.0  0.06537  0.61282  0.49746  1.0000
  S   S119      1.0  0.04673  0.60878  0.53545  1.0000
  S   S120      1.0  0.09741  0.61991  0.93386  1.0000
  C   C420      1.0  0.99990  0.73611  0.94485  1.0000
  S   S121      1.0  0.16248  0.73377  0.88681  1.0000
  H   H507      1.0  0.08244  0.53950  0.73048  1.0000
  C   C421      1.0  0.03415  0.52562  0.66713  1.0000
  H   H508      1.0  0.12157  0.54736  0.97552  1.0000
  C   C422      1.0  0.07920  0.67593  0.92181  1.0000
  H   H509      1.0  0.10489  0.56341  0.53444  1.0000
  H   H510      1.0  0.00454  0.73750  0.51267  1.0000
  H   H511      1.0  0.02960  0.71173  0.76067  1.0000
  Fe  Fe66      1.0  0.00052  0.70523  0.82770  1.0000
  H   H512      1.0  0.04204  0.70090  0.56210  1.0000
  S   S122      1.0  0.09729  0.62063  0.49737  1.0000
  C   C423      1.0  0.12926  0.68726  0.94420  1.0000
  C   C424      1.0  0.13259  0.68429  0.91741  1.0000
  C   C425      1.0  0.14253  0.69871  0.90002  1.0000
  C   C426      1.0  0.14893  0.71629  0.90904  1.0000
  C   C427      1.0  0.14487  0.71936  0.93553  1.0000
  C   C428      1.0  0.13531  0.70490  0.95302  1.0000
  H   H513      1.0  0.12818  0.67080  0.91034  1.0000
  H   H514      1.0  0.14566  0.69613  0.87962  1.0000
  H   H515      1.0  0.14976  0.73276  0.94282  1.0000
  H   H516      1.0  0.05444  0.51266  0.64897  1.0000
  S   S123      1.0  0.01353  0.73396  0.83638  1.0000
  H   H517      1.0  0.08406  0.59157  0.53863  1.0000
  H   H518      1.0  0.07999  0.52932  0.79702  1.0000
  C   C429      1.0  0.04750  0.51409  0.57430  1.0000
  C   C430      1.0  0.08020  0.69195  0.93426  1.0000
  H   H519      1.0  0.01881  0.54467  0.68196  1.0000
  H   H520      1.0  0.06481  0.52051  0.93912  1.0000
  H   H521      1.0  0.11259  0.59535  0.85182  1.0000
  H   H522      1.0  0.14880  0.72295  0.77633  1.0000
  C   C431      1.0  0.07200  0.61686  0.61818  1.0000
  C   C432      1.0  0.05271  0.60810  0.61553  1.0000
  C   C433      1.0  0.04511  0.60582  0.59007  1.0000
  C   C434      1.0  0.05672  0.61220  0.56709  1.0000
  C   C435      1.0  0.07597  0.62101  0.56980  1.0000
  C   C436      1.0  0.08355  0.62334  0.59522  1.0000
  H   H523      1.0  0.04368  0.60294  0.63301  1.0000
  H   H524      1.0  0.03018  0.59903  0.58814  1.0000
  H   H525      1.0  0.08501  0.62625  0.55235  1.0000
  H   H526      1.0  0.09846  0.63022  0.59711  1.0000
  C   C437      1.0  0.07464  0.62642  0.81645  1.0000
  C   C438      1.0  0.05628  0.61512  0.82111  1.0000
  C   C439      1.0  0.04816  0.61181  0.84700  1.0000
  C   C440      1.0  0.05854  0.61933  0.86866  1.0000
  C   C441      1.0  0.07700  0.63059  0.86426  1.0000
  C   C442      1.0  0.08497  0.63425  0.83814  1.0000
  H   H527      1.0  0.04832  0.60870  0.80485  1.0000
  H   H528      1.0  0.03386  0.60312  0.85024  1.0000
  H   H529      1.0  0.08511  0.63654  0.88087  1.0000
  H   H530      1.0  0.09925  0.64295  0.83476  1.0000
  H   H531      1.0  0.01536  0.65397  0.92716  1.0000
  C   C443      1.0  0.02950  0.65554  0.76332  1.0000
  C   C444      1.0  0.03115  0.66571  0.78606  1.0000
  C   C445      1.0  0.07317  0.55307  0.81071  1.0000
  H   H532      1.0  0.09253  0.69793  0.94566  1.0000
  H   H533      1.0  0.05694  0.64843  0.64447  1.0000
  H   H534      1.0  0.03904  0.64714  0.76000  1.0000
  H   H535      1.0  0.04181  0.66490  0.80022  1.0000
  H   H536      1.0  0.02540  0.63281  0.63046  1.0000
  N   N28       1.0  0.03051  0.66636  0.89108  1.0000
  C   C446      1.0  0.05925  0.51912  0.74954  1.0000
  C   C447      1.0  0.04007  0.51473  0.75831  1.0000
  C   C448      1.0  0.02918  0.52708  0.75422  1.0000
  C   C449      1.0  0.03742  0.54388  0.74144  1.0000
  C   C450      1.0  0.05666  0.54830  0.73299  1.0000
  C   C451      1.0  0.06759  0.53602  0.73724  1.0000
  H   H537      1.0  0.00702  0.64261  0.89731  1.0000
  C   C452      1.0  0.10512  0.68003  0.79490  1.0000
  H   H538      1.0  0.06305  0.56097  0.72256  1.0000
  C   C453      1.0  0.09381  0.54886  0.85539  1.0000
  S   S124      1.0  0.05920  0.59560  0.96854  1.0000
  H   H539      1.0  0.04718  0.65586  0.67348  1.0000
  H   H540      1.0  0.02720  0.51249  0.91265  1.0000
  C   C454      1.0  0.03984  0.73742  0.70309  1.0000
  H   H541      1.0  0.05568  0.68092  0.53442  1.0000
  H   H542      1.0  0.03219  0.69273  0.60799  1.0000
  C   C455      1.0  0.06591  0.51680  0.56326  1.0000
  H   H543      1.0  0.02347  0.73973  0.77655  1.0000
  N   N29       1.0  0.03426  0.66135  0.63725  1.0000
  H   H544      1.0  0.07579  0.66762  0.78725  1.0000
  H   H545      1.0  0.02159  0.66953  0.67254  1.0000
  H   H546      1.0  0.09506  0.59182  0.58550  1.0000
  Fe  Fe67      1.0  0.09060  0.59898  0.96804  1.0000
  C   C456      1.0  0.04120  0.52876  0.58212  1.0000
  H   H547      1.0  0.13070  0.55021  0.48534  1.0000
  C   C457      1.0  0.11061  0.52470  0.49502  1.0000
  Fe  Fe68      1.0  0.00664  0.73285  0.60314  1.0000
  N   N30       1.0  0.12892  0.72953  0.80461  1.0000
  H   H548      1.0  0.07605  0.73724  0.62637  1.0000
  C   C458      1.0  0.01901  0.67679  0.79056  1.0000
  C   C459      1.0  0.09153  0.53653  0.83518  1.0000
  S   S125      1.0  0.02236  0.69006  0.81857  1.0000
  C   C460      1.0  0.05101  0.65933  0.65200  1.0000
  C   C461      1.0  0.05143  0.67715  0.55509  1.0000
  H   H549      1.0  0.10915  0.66747  0.79378  1.0000
  H   H550      1.0  0.07148  0.54978  0.48421  1.0000
  C   C462      1.0  0.12113  0.74521  0.80928  1.0000
  H   H551      1.0  0.01054  0.68088  0.90496  1.0000
  C   C463      1.0  0.04917  0.69213  0.91804  1.0000
  C   C464      1.0  0.07663  0.74118  0.88051  1.0000
  C   C465      1.0  0.09309  0.73701  0.89061  1.0000
  C   C466      1.0  0.06555  0.72870  0.86319  1.0000
  C   C467      1.0  0.09840  0.72163  0.88328  1.0000
  C   C468      1.0  0.07095  0.71331  0.85611  1.0000
  C   C469      1.0  0.08735  0.70979  0.86607  1.0000
  C   C470      1.0  0.06522  0.70004  0.93237  1.0000
  C   C471      1.0  0.02831  0.73916  0.75609  1.0000
  H   H552      1.0  0.02472  0.69062  0.87533  1.0000
  C   C472      1.0  0.01725  0.67776  0.88619  1.0000
  H   H553      1.0  0.02885  0.64078  0.91106  1.0000
  C   C473      1.0  0.00891  0.73310  0.96829  1.0000
  C   C474      1.0  0.11573  0.54309  0.48771  1.0000
  H   H554      1.0  0.07059  0.50541  0.55643  1.0000
  C   C475      1.0  0.06313  0.66775  0.90781  1.0000
  C   C476      1.0  0.07726  0.52416  0.49427  1.0000
  H   H555      1.0  0.05254  0.73038  0.85498  1.0000
  H   H556      1.0  0.11099  0.71871  0.89146  1.0000
  H   H557      1.0  0.06221  0.70400  0.84292  1.0000
  H   H558      1.0  0.09136  0.69773  0.86073  1.0000
  S   S126      1.0  0.01016  0.73270  0.91354  1.0000
  C   C477      1.0  0.99808  0.73987  0.49430  1.0000
  H   H559      1.0  0.11067  0.74247  0.82652  1.0000
  H   H560      1.0  0.01432  0.52362  0.76095  1.0000
  S   S127      1.0  0.03722  0.73144  0.60986  1.0000
  C   C478      1.0  0.14028  0.72733  0.82795  1.0000
  H   H561      1.0  0.09072  0.66949  0.92380  1.0000
  C   C479      1.0  0.11399  0.71268  0.80059  1.0000
  H   H562      1.0  0.04448  0.73613  0.68280  1.0000
  H   H563      1.0  0.07916  0.51733  0.91101  1.0000
  C   C480      1.0  0.09144  0.51503  0.49839  1.0000
  C   C481      1.0  0.08098  0.69619  0.79187  1.0000
  H   H564      1.0  0.01433  0.63935  0.65907  1.0000
  H   H565      1.0  0.04157  0.51967  0.87142  1.0000
  C   C482      1.0  0.09460  0.71231  0.79636  1.0000
  H   H566      1.0  0.14914  0.71778  0.82486  1.0000
  H   H567      1.0  0.06265  0.65486  0.89973  1.0000
  C   C483      1.0  0.04018  0.66710  0.60919  1.0000
  H   H568      1.0  0.04572  0.67192  0.85299  1.0000
  C   C484      1.0  0.00340  0.66736  0.74949  1.0000
  C   C485      1.0  0.00290  0.51135  0.69025  1.0000
  H   H569      1.0  0.03636  0.68765  0.65233  1.0000
  C   C486      1.0  0.01994  0.65025  0.90733  1.0000
  C   C487      1.0  0.04373  0.68833  0.57064  1.0000
  H   H570      1.0  0.02672  0.52667  0.59017  1.0000
  H   H571      1.0  0.06237  0.51692  0.49688  1.0000
  H   H572      1.0  0.02339  0.65520  0.85255  1.0000
  C   C488      1.0  0.01969  0.64375  0.63827  1.0000
  S   S128      1.0  0.01358  0.64351  0.71647  1.0000
  H   H573      1.0  0.13416  0.73619  0.76264  1.0000
  C   C489      1.0  0.03734  0.72245  0.72065  1.0000
  C   C490      1.0  0.03811  0.68343  0.59726  1.0000
  C   C491      1.0  0.04826  0.65616  0.59284  1.0000
  H   H574      1.0  0.13338  0.69527  0.80145  1.0000
  N   N31       1.0  0.08872  0.57769  0.87393  1.0000
  C   C492      1.0  0.09858  0.59550  0.86129  1.0000
  C   C493      1.0  0.06992  0.57849  0.88536  1.0000
  C   C494      1.0  0.10036  0.57433  0.89636  1.0000
  C   C495      1.0  0.08592  0.56388  0.85360  1.0000
  C   C496      1.0  0.02592  0.67423  0.65153  1.0000
  C   C497      1.0  0.07530  0.56546  0.83078  1.0000
  C   C498      1.0  0.10183  0.55239  0.48378  1.0000
  C   C499      1.0  0.04768  0.67567  0.90520  1.0000
  H   H575      1.0  0.10188  0.74549  0.90458  1.0000
  H   H576      1.0  0.09012  0.59975  0.84550  1.0000
  H   H577      1.0  0.10123  0.60629  0.87593  1.0000
  C   C500      1.0  0.03601  0.66054  0.86480  1.0000
  H   H578      1.0  0.06084  0.58257  0.87026  1.0000
  H   H579      1.0  0.07148  0.58854  0.90109  1.0000
  H   H580      1.0  0.06179  0.56527  0.89446  1.0000
  H   H581      1.0  0.11501  0.57419  0.88941  1.0000
  H   H582      1.0  0.10226  0.58505  0.91112  1.0000
  H   H583      1.0  0.09349  0.56151  0.90771  1.0000
  C   C501      1.0  0.04618  0.55854  0.66637  1.0000
  H   H584      1.0  0.06885  0.57651  0.82796  1.0000
  H   H585      1.0  0.01281  0.67591  0.64205  1.0000
  H   H586      1.0  0.09783  0.52527  0.83659  1.0000
  H   H587      1.0  0.10208  0.54649  0.87191  1.0000
  N   N32       1.0  0.08417  0.56812  0.56309  1.0000
  C   C502      1.0  0.10416  0.56924  0.55419  1.0000
  C   C503      1.0  0.07574  0.57732  0.54228  1.0000
  C   C504      1.0  0.08506  0.57812  0.58791  1.0000
  C   C505      1.0  0.07209  0.54946  0.56763  1.0000
  C   C506      1.0  0.05321  0.54620  0.57875  1.0000
  C   C507      1.0  0.07810  0.53417  0.55995  1.0000
  C   C508      1.0  0.03159  0.72333  0.74710  1.0000
  H   H588      1.0  0.00718  0.64446  0.62646  1.0000
  S   S129      1.0  0.10184  0.57396  0.96927  1.0000
  H   H589      1.0  0.11132  0.56232  0.56879  1.0000
  H   H590      1.0  0.11293  0.58345  0.55149  1.0000
  H   H591      1.0  0.07534  0.57058  0.52303  1.0000
  H   H592      1.0  0.04418  0.57147  0.67156  1.0000
  H   H593      1.0  0.06087  0.57757  0.54777  1.0000
  H   H594      1.0  0.09005  0.57096  0.60460  1.0000
  H   H595      1.0  0.07109  0.58037  0.59410  1.0000
  H   H596      1.0  0.04739  0.55718  0.58424  1.0000
  H   H597      1.0  0.09196  0.53527  0.55058  1.0000
  C   C509      1.0  0.14192  0.73389  0.78064  1.0000
  C   C510      1.0  0.01561  0.65630  0.74499  1.0000
  C   C511      1.0  0.11884  0.69603  0.79943  1.0000
  H   H598      1.0  0.06528  0.55472  0.79320  1.0000
  H   H599      1.0  0.06600  0.71244  0.94227  1.0000
  H   H600      1.0  0.07963  0.54033  0.63920  1.0000
  C   C512      1.0  0.08624  0.68009  0.79116  1.0000
  H   H601      1.0  0.06080  0.52881  0.90693  1.0000
  H   H602      1.0  0.05959  0.65233  0.55402  1.0000
  H   H603      1.0  0.15064  0.74021  0.83269  1.0000
  H   H604      1.0  0.09791  0.73858  0.54581  1.0000
  C   C513      1.0  0.05169  0.52523  0.65422  1.0000
  H   H605      1.0  0.03805  0.69906  0.91756  1.0000
  C   C514      1.0  0.06346  0.55764  0.65467  1.0000
  H   H606      1.0  0.04214  0.51392  0.82401  1.0000
  C   C515      1.0  0.06616  0.54102  0.64831  1.0000
  H   H607      1.0  0.04313  0.64949  0.86655  1.0000
  C   C516      1.0  0.03165  0.54286  0.67241  1.0000
  H   H608      1.0  0.05043  0.64366  0.60056  1.0000
  H   H609      1.0  0.03979  0.71005  0.71373  1.0000
  H   H610      1.0  0.06274  0.67199  0.65059  1.0000
  C   C517      1.0  0.09319  0.55078  0.97949  1.0000
  H   H611      1.0  0.08960  0.72430  0.79622  1.0000
  H   H612      1.0  0.07479  0.56991  0.65089  1.0000
  C   C518      1.0  0.08245  0.54285  0.48707  1.0000
  H   H613      1.0  0.13097  0.72255  0.84609  1.0000
  C   C519      1.0  0.00503  0.67754  0.77236  1.0000
  C   C520      1.0  0.06443  0.51742  0.91768  1.0000
  H   H614      1.0  0.06627  0.69618  0.78857  1.0000
  H   H615      1.0  0.02171  0.72847  0.96698  1.0000
  C   C521      1.0  0.04593  0.50799  0.86544  1.0000
  N   N33       1.0  0.01934  0.50867  0.67413  1.0000
  C   C522      1.0  0.04623  0.50486  0.83824  1.0000
  H   H616      1.0  0.09509  0.74870  0.57670  1.0000
  H   H617      1.0  0.15365  0.74625  0.78300  1.0000
  H   H618      1.0  0.13290  0.70735  0.97371  1.0000
  C   C523      1.0  0.10381  0.75045  0.55777  1.0000
  H   H619      1.0  0.00524  0.67098  0.87374  1.0000
  H   H620      1.0  0.00555  0.50905  0.63697  1.0000
  H   H621      1.0  0.05276  0.74309  0.92114  1.0000
  H   H622      1.0  0.11432  0.74918  0.79137  1.0000
  H   H623      1.0  0.00768  0.51820  0.70893  1.0000
  H   H624      1.0  0.04169  0.75037  0.87782  1.0000
  H   H625      1.0  0.04327  0.74457  0.51059  1.0000
  C   C524      1.0  0.07350  0.75030  0.62275  1.0000
  S   S130      1.0  0.07318  0.50385  0.75390  1.0000
  C   C525      1.0  0.05565  0.75142  0.61393  1.0000
  H   H626      1.0  0.07619  0.74375  0.51752  1.0000
  H   H627      1.0  0.11849  0.74986  0.56281  1.0000
  Fe  Fe69      1.0  0.31087  0.94890  0.16066  1.0000
  C   C526      1.0  0.28399  0.90588  0.99898  1.0000
  S   S131      1.0  0.29992  0.95912  0.19792  1.0000
  Fe  Fe70      1.0  0.31409  0.94997  0.09942  1.0000
  C   C527      1.0  0.32360  0.94630  0.23096  1.0000
  S   S132      1.0  0.30654  0.96207  0.06084  1.0000
  Fe  Fe71      1.0  0.30457  0.91440  0.13116  1.0000
  S   S133      1.0  0.28605  0.88552  0.13090  1.0000
  H   H628      1.0  0.07082  0.77855  0.19787  1.0000
  S   S134      1.0  0.29051  0.93682  0.12939  1.0000
  C   C528      1.0  0.20951  0.82564  0.02177  1.0000
  Fe  Fe72      1.0  0.17660  0.83016  0.14048  1.0000
  S   S135      1.0  0.19068  0.80765  0.14019  1.0000
  S   S136      1.0  0.19473  0.85938  0.14029  1.0000
  Fe  Fe73      1.0  0.13596  0.80317  0.14079  1.0000
  S   S137      1.0  0.14823  0.77942  0.14051  1.0000
  S   S138      1.0  0.10360  0.79913  0.13981  1.0000
  Fe  Fe74      1.0  0.16789  0.79407  0.17113  1.0000
  S   S139      1.0  0.17584  0.78100  0.20878  1.0000
  Fe  Fe75      1.0  0.16935  0.79598  0.10970  1.0000
  S   S140      1.0  0.17772  0.78452  0.07152  1.0000
  S   S141      1.0  0.15467  0.81719  0.17298  1.0000
  S   S142      1.0  0.15620  0.81914  0.10841  1.0000
  Fe  Fe76      1.0  0.15925  0.79040  0.36161  1.0000
  S   S143      1.0  0.18572  0.78088  0.35994  1.0000
  S   S144      1.0  0.14480  0.79493  0.32372  1.0000
  Fe  Fe77      1.0  0.16008  0.79237  0.42250  1.0000
  S   S145      1.0  0.18651  0.78262  0.42423  1.0000
  S   S146      1.0  0.14736  0.80129  0.45942  1.0000
  Fe  Fe78      1.0  0.19688  0.80224  0.38924  1.0000
  S   S147      1.0  0.22636  0.82226  0.38536  1.0000
  H   H629      1.0  0.18448  0.77074  0.26127  1.0000
  S   S148      1.0  0.17107  0.81276  0.38890  1.0000
  Fe  Fe79      1.0  0.29611  0.96903  0.37886  1.0000
  H   H630      1.0  0.32000  0.98770  0.28271  1.0000
  Fe  Fe80      1.0  0.27355  0.92852  0.38052  1.0000
  S   S149      1.0  0.30063  0.91977  0.38007  1.0000
  S   S150      1.0  0.24421  0.90813  0.38224  1.0000
  Fe  Fe81      1.0  0.31017  0.94105  0.41009  1.0000
  H   H631      1.0  0.20499  0.82127  0.06431  1.0000
  Fe  Fe82      1.0  0.31112  0.94208  0.34865  1.0000
  C   C529      1.0  0.20631  0.83081  0.04752  1.0000
  S   S151      1.0  0.28264  0.94885  0.41203  1.0000
  S   S152      1.0  0.28347  0.94981  0.34746  1.0000
  S   S153      1.0  0.14473  0.77129  0.39529  1.0000
  Fe  Fe83      1.0  0.17175  0.76246  0.39495  1.0000
  H   H632      1.0  0.11767  0.77558  0.02151  1.0000
  C   C530      1.0  0.30999  0.00006  0.45741  1.0000
  H   H633      1.0  0.08984  0.78824  0.07047  1.0000
  H   H634      1.0  0.29803  0.88712  0.03911  1.0000
  C   C531      1.0  0.09051  0.76102  0.05958  1.0000
  H   H635      1.0  0.03849  0.76466  0.12219  1.0000
  H   H636      1.0  0.20129  0.85165  0.07176  1.0000
  H   H637      1.0  0.16860  0.77618  0.47761  1.0000
  H   H638      1.0  0.06215  0.75780  0.18204  1.0000
  S   S154      1.0  0.00283  0.75492  0.09824  1.0000
  C   C532      1.0  0.29441  0.89762  0.05128  1.0000
  C   C533      1.0  0.23099  0.84613  0.38455  1.0000
  C   C534      1.0  0.25002  0.85671  0.38298  1.0000
  C   C535      1.0  0.25434  0.87567  0.38230  1.0000
  C   C536      1.0  0.23965  0.88429  0.38312  1.0000
  C   C537      1.0  0.22062  0.87370  0.38460  1.0000
  C   C538      1.0  0.21629  0.85476  0.38531  1.0000
  H   H639      1.0  0.26153  0.85022  0.38233  1.0000
  H   H640      1.0  0.26906  0.88358  0.38112  1.0000
  H   H641      1.0  0.20912  0.88022  0.38521  1.0000
  H   H642      1.0  0.20158  0.84692  0.38642  1.0000
  C   C539      1.0  0.16707  0.78504  0.24057  1.0000
  C   C540      1.0  0.17398  0.77832  0.26342  1.0000
  C   C541      1.0  0.16741  0.78138  0.28900  1.0000
  C   C542      1.0  0.15374  0.79107  0.29196  1.0000
  C   C543      1.0  0.14675  0.79768  0.26913  1.0000
  C   C544      1.0  0.15342  0.79475  0.24356  1.0000
  H   H643      1.0  0.13612  0.80513  0.27120  1.0000
  H   H644      1.0  0.14785  0.79988  0.22621  1.0000
  H   H645      1.0  0.13153  0.75409  0.33581  1.0000
  H   H646      1.0  0.19688  0.84776  0.44894  1.0000
  C   C545      1.0  0.17291  0.78087  0.01798  1.0000
  C   C546      1.0  0.17002  0.79042  0.04028  1.0000
  C   C547      1.0  0.16037  0.80381  0.03741  1.0000
  C   C548      1.0  0.15293  0.80705  0.01282  1.0000
  H   H647      1.0  0.01803  0.77011  0.20271  1.0000
  H   H648      1.0  0.05444  0.76711  0.25259  1.0000
  H   H649      1.0  0.15839  0.81155  0.05416  1.0000
  C   C549      1.0  0.21735  0.81505  0.46890  1.0000
  C   C550      1.0  0.08593  0.77872  0.13493  1.0000
  C   C551      1.0  0.06712  0.77941  0.13061  1.0000
  C   C552      1.0  0.04539  0.77225  0.23850  1.0000
  S   S155      1.0  0.32414  0.96220  0.37863  1.0000
  H   H650      1.0  0.17274  0.77602  0.30633  1.0000
  C   C553      1.0  0.15534  0.79716  0.99075  1.0000
  H   H651      1.0  0.06369  0.79224  0.13061  1.0000
  H   H652      1.0  0.29713  0.89443  0.07235  1.0000
  H   H653      1.0  0.27970  0.92604  0.05761  1.0000
  C   C554      1.0  0.22014  0.86638  0.13765  1.0000
  C   C555      1.0  0.22948  0.88486  0.13707  1.0000
  C   C556      1.0  0.24960  0.89097  0.13501  1.0000
  C   C557      1.0  0.26065  0.87862  0.13366  1.0000
  C   C558      1.0  0.25132  0.86017  0.13422  1.0000
  C   C559      1.0  0.23122  0.85407  0.13619  1.0000
  H   H654      1.0  0.22107  0.89451  0.13813  1.0000
  H   H655      1.0  0.25647  0.90521  0.13448  1.0000
  H   H656      1.0  0.25968  0.85047  0.13315  1.0000
  H   H657      1.0  0.22432  0.83983  0.13663  1.0000
  C   C560      1.0  0.31194  0.95508  0.02905  1.0000
  H   H658      1.0  0.29310  0.95050  0.46571  1.0000
  H   H659      1.0  0.18034  0.77047  0.01999  1.0000
  H   H660      1.0  0.23665  0.84248  0.43940  1.0000
  N   N34       1.0  0.04329  0.76249  0.21333  1.0000
  C   C561      1.0  0.30309  0.96024  0.00682  1.0000
  H   H661      1.0  0.13517  0.76495  0.03368  1.0000
  C   C562      1.0  0.27716  0.90504  0.47549  1.0000
  C   C563      1.0  0.11962  0.76386  0.03357  1.0000
  H   H662      1.0  0.29273  0.96792  0.00951  1.0000
  C   C564      1.0  0.30734  0.95268  0.22892  1.0000
  C   C565      1.0  0.08184  0.77521  0.06438  1.0000
  C   C566      1.0  0.06266  0.76421  0.20153  1.0000
  C   C567      1.0  0.31942  0.94420  0.27939  1.0000
  C   C568      1.0  0.30312  0.95047  0.27722  1.0000
  C   C569      1.0  0.29714  0.95473  0.25213  1.0000
  H   H663      1.0  0.18473  0.82537  0.46068  1.0000
  S   S156      1.0  0.32741  0.92692  0.09963  1.0000
  H   H664      1.0  0.29517  0.95226  0.29480  1.0000
  H   H665      1.0  0.28458  0.95971  0.25075  1.0000
  H   H666      1.0  0.14519  0.81723  0.01096  1.0000
  H   H667      1.0  0.03218  0.76664  0.17468  1.0000
  C   C570      1.0  0.23213  0.84634  0.45920  1.0000
  H   H668      1.0  0.24656  0.88065  0.06044  1.0000
  H   H669      1.0  0.26584  0.87677  0.07831  1.0000
  S   S157      1.0  0.32796  0.93969  0.31071  1.0000
  H   H670      1.0  0.30462  0.91085  0.04582  1.0000
  H   H671      1.0  0.26016  0.90541  0.32621  1.0000
  H   H672      1.0  0.10434  0.76114  0.13914  1.0000
  H   H673      1.0  0.11513  0.78092  0.09386  1.0000
  H   H674      1.0  0.07111  0.75767  0.21475  1.0000
  H   H675      1.0  0.25715  0.90509  0.44484  1.0000
  H   H676      1.0  0.20923  0.86481  0.98818  1.0000
  H   H677      1.0  0.20093  0.82909  0.43218  1.0000
  C   C571      1.0  0.25098  0.90176  0.01359  1.0000
  C   C572      1.0  0.09004  0.76196  0.13517  1.0000
  S   S158      1.0  0.29693  0.99871  0.38034  1.0000
  H   H678      1.0  0.28935  0.90757  0.46150  1.0000
  H   H679      1.0  0.12121  0.79234  0.06161  1.0000
  H   H680      1.0  0.03121  0.77116  0.24857  1.0000
  H   H681      1.0  0.22073  0.81178  0.44819  1.0000
  H   H682      1.0  0.25573  0.91299  0.06546  1.0000
  H   H683      1.0  0.21053  0.81200  0.02010  1.0000
  N   N35       1.0  0.11136  0.76330  0.06095  1.0000
  C   C573      1.0  0.03290  0.77174  0.19506  1.0000
  H   H684      1.0  0.24413  0.84702  0.47271  1.0000
  H   H685      1.0  0.26279  0.86969  0.04478  1.0000
  H   H686      1.0  0.31166  0.99439  0.23534  1.0000
  C   C574      1.0  0.27088  0.91252  0.06495  1.0000
  S   S159      1.0  0.32376  0.92565  0.16427  1.0000
  H   H687      1.0  0.05240  0.78686  0.23495  1.0000
  S   S160      1.0  0.32525  0.93703  0.44781  1.0000
  C   C575      1.0  0.06221  0.77282  0.06195  1.0000
  H   H688      1.0  0.30218  0.98573  0.46190  1.0000
  C   C576      1.0  0.32957  0.94203  0.25612  1.0000
  H   H689      1.0  0.05585  0.78370  0.06627  1.0000
  N   N36       1.0  0.27431  0.89822  0.04804  1.0000
  H   H690      1.0  0.23041  0.86016  0.45623  1.0000
  H   H691      1.0  0.20332  0.87322  0.03349  1.0000
  C   C577      1.0  0.16553  0.78416  0.99334  1.0000
  C   C578      1.0  0.32534  0.94518  0.02531  1.0000
  N   N37       1.0  0.21103  0.83229  0.30190  1.0000
  C   C579      1.0  0.22780  0.84652  0.30987  1.0000
  C   C580      1.0  0.19473  0.83153  0.32076  1.0000
  C   C581      1.0  0.21596  0.81482  0.30481  1.0000
  C   C582      1.0  0.20588  0.83645  0.27458  1.0000
  C   C583      1.0  0.20464  0.82433  0.25361  1.0000
  C   C584      1.0  0.20166  0.85306  0.26837  1.0000
  C   C585      1.0  0.19966  0.82873  0.22810  1.0000
  C   C586      1.0  0.19664  0.85729  0.24277  1.0000
  C   C587      1.0  0.19569  0.84515  0.22265  1.0000
  H   H692      1.0  0.23992  0.84852  0.29501  1.0000
  H   H693      1.0  0.22453  0.85966  0.31226  1.0000
  H   H694      1.0  0.23300  0.84303  0.32943  1.0000
  H   H695      1.0  0.19103  0.84459  0.32165  1.0000
  H   H696      1.0  0.19788  0.82787  0.34141  1.0000
  H   H697      1.0  0.18168  0.82134  0.31501  1.0000
  H   H698      1.0  0.22828  0.81445  0.29137  1.0000
  H   H699      1.0  0.22000  0.81221  0.32550  1.0000
  H   H700      1.0  0.20360  0.80335  0.30068  1.0000
  H   H701      1.0  0.20709  0.81119  0.25637  1.0000
  H   H702      1.0  0.20185  0.86273  0.28345  1.0000
  H   H703      1.0  0.19846  0.81913  0.21252  1.0000
  H   H704      1.0  0.19305  0.86986  0.23857  1.0000
  H   H705      1.0  0.19155  0.84831  0.20287  1.0000
  N   N38       1.0  0.26459  0.90015  0.21937  1.0000
  C   C588      1.0  0.28409  0.90147  0.20816  1.0000
  C   C589      1.0  0.25204  0.88269  0.21162  1.0000
  C   C590      1.0  0.25800  0.91498  0.20674  1.0000
  C   C591      1.0  0.26370  0.90139  0.24869  1.0000
  C   C592      1.0  0.28021  0.90494  0.26425  1.0000
  C   C593      1.0  0.24587  0.89940  0.26254  1.0000
  C   C594      1.0  0.27881  0.90619  0.29188  1.0000
  C   C595      1.0  0.24466  0.90076  0.29017  1.0000
  C   C596      1.0  0.26110  0.90412  0.30481  1.0000
  H   H706      1.0  0.29004  0.89071  0.21673  1.0000
  H   H707      1.0  0.28419  0.90002  0.18618  1.0000
  H   H708      1.0  0.29405  0.91482  0.21155  1.0000
  H   H709      1.0  0.23667  0.88145  0.21602  1.0000
  H   H710      1.0  0.25580  0.87120  0.22203  1.0000
  H   H711      1.0  0.25333  0.88083  0.18986  1.0000
  H   H712      1.0  0.26671  0.92831  0.21283  1.0000
  H   H713      1.0  0.25921  0.91500  0.18461  1.0000
  H   H714      1.0  0.24283  0.91410  0.21214  1.0000
  H   H715      1.0  0.29447  0.90713  0.25560  1.0000
  H   H716      1.0  0.23277  0.89711  0.25199  1.0000
  H   H717      1.0  0.29163  0.90917  0.30333  1.0000
  H   H718      1.0  0.23098  0.89955  0.30037  1.0000
  C   C597      1.0  0.20866  0.85505  0.00432  1.0000
  H   H719      1.0  0.27455  0.91047  0.08595  1.0000
  C   C598      1.0  0.26990  0.90189  0.02017  1.0000
  C   C599      1.0  0.26181  0.88061  0.05820  1.0000
  C   C600      1.0  0.31746  0.94239  0.47942  1.0000
  H   H720      1.0  0.23965  0.89929  0.02876  1.0000
  C   C601      1.0  0.25903  0.90368  0.46607  1.0000
  C   C602      1.0  0.20536  0.86003  0.03016  1.0000
  C   C603      1.0  0.20417  0.84792  0.05173  1.0000
  C   C604      1.0  0.05276  0.76373  0.12572  1.0000
  C   C605      1.0  0.21079  0.83766  0.99929  1.0000
  H   H721      1.0  0.03985  0.78643  0.19265  1.0000
  C   C606      1.0  0.12143  0.78007  0.07373  1.0000
  C   C607      1.0  0.19859  0.83398  0.45225  1.0000
  H   H722      1.0  0.13674  0.78081  0.07645  1.0000
  H   H723      1.0  0.29885  0.90675  0.00195  1.0000
  N   N39       1.0  0.21438  0.83336  0.46998  1.0000
  C   C608      1.0  0.32730  0.99981  0.23097  1.0000
  H   H724      1.0  0.22941  0.90016  0.47655  1.0000
  C   C609      1.0  0.05064  0.75634  0.05485  1.0000
  H   H725      1.0  0.20425  0.80454  0.47593  1.0000
  H   H726      1.0  0.22950  0.81370  0.48099  1.0000
  C   C610      1.0  0.24643  0.90516  0.98743  1.0000
  H   H727      1.0  0.03537  0.75446  0.05357  1.0000
  C   C611      1.0  0.33002  0.94074  0.99951  1.0000
  H   H728      1.0  0.33020  0.97710  0.44038  1.0000
  H   H729      1.0  0.23196  0.90524  0.98287  1.0000
  Fe  Fe84      1.0  0.30681  0.95139  0.66118  1.0000
  S   S161      1.0  0.31987  0.92843  0.66700  1.0000
  S   S162      1.0  0.29693  0.96311  0.69784  1.0000
  Fe  Fe85      1.0  0.30962  0.94977  0.60022  1.0000
  C   C612      1.0  0.03643  0.75373  0.71154  1.0000
  S   S163      1.0  0.29997  0.95923  0.56111  1.0000
  Fe  Fe86      1.0  0.30076  0.91554  0.63492  1.0000
  S   S164      1.0  0.28300  0.88640  0.63829  1.0000
  C   C613      1.0  0.26654  0.90199  0.74859  1.0000
  S   S165      1.0  0.28634  0.93763  0.63111  1.0000
  C   C614      1.0  0.16657  0.78430  0.49395  1.0000
  Fe  Fe87      1.0  0.17396  0.83186  0.64022  1.0000
  S   S166      1.0  0.18746  0.80894  0.64196  1.0000
  S   S167      1.0  0.19185  0.86101  0.64092  1.0000
  Fe  Fe88      1.0  0.13341  0.80584  0.63647  1.0000
  S   S168      1.0  0.14476  0.78155  0.63836  1.0000
  S   S169      1.0  0.10187  0.80322  0.63012  1.0000
  Fe  Fe89      1.0  0.16299  0.79574  0.67071  1.0000
  S   S170      1.0  0.16895  0.78195  0.70895  1.0000
  Fe  Fe90      1.0  0.16766  0.79764  0.60951  1.0000
  S   S171      1.0  0.17709  0.78556  0.57269  1.0000
  S   S172      1.0  0.15030  0.81928  0.67063  1.0000
  S   S173      1.0  0.15551  0.82137  0.60606  1.0000
  Fe  Fe91      1.0  0.15640  0.79343  0.86130  1.0000
  S   S174      1.0  0.18245  0.78332  0.85839  1.0000
  S   S175      1.0  0.14159  0.79912  0.82423  1.0000
  Fe  Fe92      1.0  0.15753  0.79342  0.92245  1.0000
  S   S176      1.0  0.18355  0.78300  0.92281  1.0000
  S   S177      1.0  0.14496  0.80098  0.96056  1.0000
  Fe  Fe93      1.0  0.19415  0.80364  0.88899  1.0000
  S   S178      1.0  0.22371  0.82364  0.88546  1.0000
  C   C615      1.0  0.15686  0.79756  0.49026  1.0000
  S   S179      1.0  0.16871  0.81472  0.89005  1.0000
  Fe  Fe94      1.0  0.29559  0.97071  0.87735  1.0000
  C   C616      1.0  0.11439  0.76869  0.51752  1.0000
  Fe  Fe95      1.0  0.27292  0.93015  0.88244  1.0000
  S   S180      1.0  0.29997  0.92140  0.88048  1.0000
  S   S181      1.0  0.24359  0.90965  0.88696  1.0000
  Fe  Fe96      1.0  0.31096  0.94358  0.90869  1.0000
  H   H730      1.0  0.20312  0.80388  0.97741  1.0000
  Fe  Fe97      1.0  0.30915  0.94281  0.84753  1.0000
  C   C617      1.0  0.24343  0.90087  0.48399  1.0000
  S   S182      1.0  0.28350  0.95145  0.91228  1.0000
  S   S183      1.0  0.28149  0.95053  0.84794  1.0000
  C   C618      1.0  0.20202  0.85880  0.72999  1.0000
  Fe  Fe98      1.0  0.16828  0.76400  0.89239  1.0000
  H   H731      1.0  0.27344  0.91005  0.68149  1.0000
  H   H732      1.0  0.25704  0.91168  0.94685  1.0000
  H   H733      1.0  0.18388  0.82530  0.96488  1.0000
  C   C619      1.0  0.24591  0.89939  0.51138  1.0000
  H   H734      1.0  0.29468  0.90524  0.76595  1.0000
  H   H735      1.0  0.29029  0.91249  0.95710  1.0000
  C   C620      1.0  0.29169  0.89707  0.71749  1.0000
  C   C621      1.0  0.20135  0.85995  0.52673  1.0000
  H   H736      1.0  0.16883  0.77966  0.80614  1.0000
  C   C622      1.0  0.32110  0.94583  0.97728  1.0000
  H   H737      1.0  0.01864  0.78122  0.71107  1.0000
  C   C623      1.0  0.22887  0.84755  0.88571  1.0000
  C   C624      1.0  0.24792  0.85789  0.88183  1.0000
  C   C625      1.0  0.25270  0.87686  0.88217  1.0000
  C   C626      1.0  0.23846  0.88576  0.88644  1.0000
  C   C627      1.0  0.21942  0.87541  0.89034  1.0000
  C   C628      1.0  0.21463  0.85646  0.89001  1.0000
  H   H738      1.0  0.25910  0.85120  0.87860  1.0000
  H   H739      1.0  0.26742  0.88457  0.87915  1.0000
  H   H740      1.0  0.20826  0.88213  0.89361  1.0000
  H   H741      1.0  0.19991  0.84883  0.89298  1.0000
  C   C629      1.0  0.16169  0.78760  0.74064  1.0000
  C   C630      1.0  0.16909  0.78129  0.76333  1.0000
  C   C631      1.0  0.16322  0.78490  0.78897  1.0000
  C   C632      1.0  0.14985  0.79490  0.79220  1.0000
  C   C633      1.0  0.14256  0.80135  0.76950  1.0000
  C   C634      1.0  0.14850  0.79780  0.74380  1.0000
  H   H742      1.0  0.13221  0.80910  0.77173  1.0000
  H   H743      1.0  0.14265  0.80270  0.72649  1.0000
  C   C635      1.0  0.30751  0.95551  0.98109  1.0000
  C   C636      1.0  0.32636  0.94426  0.75450  1.0000
  C   C637      1.0  0.17298  0.78094  0.51922  1.0000
  C   C638      1.0  0.16966  0.79076  0.54098  1.0000
  C   C639      1.0  0.16035  0.80432  0.53705  1.0000
  C   C640      1.0  0.15389  0.80763  0.51185  1.0000
  S   S184      1.0  0.14171  0.77355  0.89392  1.0000
  C   C641      1.0  0.25908  0.88038  0.71390  1.0000
  H   H744      1.0  0.15798  0.81220  0.55340  1.0000
  H   H745      1.0  0.14644  0.81797  0.50913  1.0000
  C   C642      1.0  0.08474  0.78298  0.62328  1.0000
  C   C643      1.0  0.06697  0.78404  0.61429  1.0000
  C   C644      1.0  0.20433  0.83169  0.54536  1.0000
  H   H746      1.0  0.20652  0.87117  0.76693  1.0000
  H   H747      1.0  0.32912  0.98091  0.48604  1.0000
  C   C645      1.0  0.03388  0.78499  0.70404  1.0000
  H   H748      1.0  0.06428  0.79708  0.61098  1.0000
  H   H749      1.0  0.25209  0.91286  0.82079  1.0000
  H   H750      1.0  0.20135  0.87108  0.71939  1.0000
  C   C646      1.0  0.21719  0.86774  0.64007  1.0000
  C   C647      1.0  0.22663  0.88618  0.63934  1.0000
  C   C648      1.0  0.24672  0.89211  0.63872  1.0000
  C   C649      1.0  0.25764  0.87964  0.63892  1.0000
  C   C650      1.0  0.24822  0.86121  0.63975  1.0000
  C   C651      1.0  0.22812  0.85528  0.64028  1.0000
  H   H751      1.0  0.21831  0.89594  0.63921  1.0000
  H   H752      1.0  0.25366  0.90633  0.63814  1.0000
  H   H753      1.0  0.25650  0.85142  0.63993  1.0000
  H   H754      1.0  0.22111  0.84105  0.64088  1.0000
  C   C652      1.0  0.30666  0.95207  0.53013  1.0000
  H   H755      1.0  0.11476  0.78141  0.50605  1.0000
  C   C653      1.0  0.05265  0.75516  0.52120  1.0000
  H   H756      1.0  0.24391  0.88057  0.71248  1.0000
  C   C654      1.0  0.26886  0.91214  0.70219  1.0000
  C   C655      1.0  0.29611  0.95394  0.50780  1.0000
  S   S185      1.0  0.32429  0.93931  0.80875  1.0000
  C   C656      1.0  0.19753  0.83378  0.95558  1.0000
  H   H757      1.0  0.02779  0.76592  0.74715  1.0000
  H   H758      1.0  0.28380  0.95927  0.50998  1.0000
  C   C657      1.0  0.30442  0.95614  0.72849  1.0000
  C   C658      1.0  0.26054  0.90886  0.96711  1.0000
  H   H759      1.0  0.22862  0.81235  0.98107  1.0000
  C   C659      1.0  0.31619  0.94567  0.77810  1.0000
  C   C660      1.0  0.30010  0.95235  0.77673  1.0000
  C   C661      1.0  0.29421  0.95752  0.75203  1.0000
  S   S186      1.0  0.29685  0.00060  0.87709  1.0000
  C   C662      1.0  0.27926  0.90925  0.97290  1.0000
  H   H760      1.0  0.29210  0.95353  0.79460  1.0000
  H   H761      1.0  0.28168  0.96259  0.75119  1.0000
  H   H762      1.0  0.06903  0.77898  0.70130  1.0000
  H   H763      1.0  0.25372  0.91257  0.70145  1.0000
  C   C663      1.0  0.20602  0.85512  0.50134  1.0000
  C   C664      1.0  0.20880  0.82662  0.52004  1.0000
  C   C665      1.0  0.08805  0.76601  0.62727  1.0000
  H   H764      1.0  0.20324  0.82242  0.56244  1.0000
  H   H765      1.0  0.10163  0.76496  0.63435  1.0000
  H   H766      1.0  0.30195  0.91020  0.72126  1.0000
  C   C666      1.0  0.20049  0.84824  0.54871  1.0000
  H   H767      1.0  0.09387  0.77487  0.86420  1.0000
  C   C667      1.0  0.32063  0.94965  0.72984  1.0000
  H   H768      1.0  0.19798  0.87268  0.52936  1.0000
  H   H769      1.0  0.06278  0.78775  0.67036  1.0000
  C   C668      1.0  0.27984  0.90370  0.50284  1.0000
  N   N40       1.0  0.03931  0.76944  0.69263  1.0000
  H   H770      1.0  0.24405  0.84572  0.97204  1.0000
  S   S187      1.0  0.32337  0.92698  0.60269  1.0000
  H   H771      1.0  0.03922  0.76962  0.60221  1.0000
  H   H772      1.0  0.17936  0.77347  0.76102  1.0000
  H   H773      1.0  0.19888  0.82905  0.93513  1.0000
  N   N41       1.0  0.20811  0.84156  0.80072  1.0000
  C   C669      1.0  0.21135  0.85925  0.81315  1.0000
  C   C670      1.0  0.19100  0.82922  0.81432  1.0000
  C   C671      1.0  0.22492  0.83460  0.80598  1.0000
  C   C672      1.0  0.20530  0.84243  0.77169  1.0000
  C   C673      1.0  0.20493  0.85859  0.75739  1.0000
  C   C674      1.0  0.20256  0.82670  0.75684  1.0000
  C   C675      1.0  0.19983  0.82712  0.72946  1.0000
  C   C676      1.0  0.19950  0.84310  0.71607  1.0000
  H   H774      1.0  0.19876  0.86484  0.81143  1.0000
  H   H775      1.0  0.21372  0.85815  0.83482  1.0000
  H   H776      1.0  0.22430  0.86912  0.80430  1.0000
  H   H777      1.0  0.17775  0.83327  0.80976  1.0000
  H   H778      1.0  0.19218  0.82883  0.83634  1.0000
  H   H779      1.0  0.18877  0.81514  0.80827  1.0000
  H   H780      1.0  0.23800  0.84305  0.79526  1.0000
  H   H781      1.0  0.22784  0.83438  0.82761  1.0000
  H   H782      1.0  0.22289  0.82054  0.79987  1.0000
  H   H783      1.0  0.20221  0.81382  0.76632  1.0000
  H   H784      1.0  0.19760  0.81488  0.71857  1.0000
  H   H785      1.0  0.19700  0.84326  0.69490  1.0000
  H   H786      1.0  0.12944  0.76827  0.52004  1.0000
  H   H787      1.0  0.11696  0.79584  0.54924  1.0000
  H   H788      1.0  0.02917  0.77601  0.65456  1.0000
  C   C677      1.0  0.24773  0.90295  0.75538  1.0000
  H   H789      1.0  0.07678  0.75348  0.93026  1.0000
  H   H790      1.0  0.04290  0.79043  0.72089  1.0000
  S   S188      1.0  0.32359  0.96380  0.87544  1.0000
  N   N42       1.0  0.10396  0.76767  0.54356  1.0000
  H   H791      1.0  0.22828  0.90788  0.78574  1.0000
  H   H792      1.0  0.30053  0.95956  0.96423  1.0000
  H   H793      1.0  0.05239  0.79371  0.55138  1.0000
  H   H794      1.0  0.23344  0.89744  0.52452  1.0000
  C   C678      1.0  0.08411  0.76849  0.53922  1.0000
  H   H795      1.0  0.29497  0.89383  0.69672  1.0000
  H   H796      1.0  0.08516  0.79373  0.55893  1.0000
  H   H797      1.0  0.27735  0.92568  0.70766  1.0000
  H   H798      1.0  0.12953  0.78099  0.56342  1.0000
  C   C679      1.0  0.27457  0.90889  0.79487  1.0000
  C   C680      1.0  0.07672  0.78269  0.54824  1.0000
  C   C681      1.0  0.23156  0.84522  0.95954  1.0000
  H   H799      1.0  0.18017  0.77042  0.52206  1.0000
  H   H800      1.0  0.25973  0.86951  0.72866  1.0000
  C   C682      1.0  0.02771  0.76438  0.66892  1.0000
  H   H801      1.0  0.23694  0.90102  0.74063  1.0000
  N   N43       1.0  0.26643  0.89931  0.55081  1.0000
  C   C683      1.0  0.28636  0.90062  0.55831  1.0000
  C   C684      1.0  0.26034  0.91398  0.56381  1.0000
  C   C685      1.0  0.25434  0.88176  0.56180  1.0000
  C   C686      1.0  0.26421  0.90076  0.52169  1.0000
  H   H802      1.0  0.06048  0.76692  0.92450  1.0000
  C   C687      1.0  0.32785  0.94029  0.50184  1.0000
  H   H803      1.0  0.19653  0.85182  0.56836  1.0000
  H   H804      1.0  0.29190  0.88984  0.54955  1.0000
  H   H805      1.0  0.29610  0.91396  0.55207  1.0000
  H   H806      1.0  0.28747  0.89917  0.58029  1.0000
  H   H807      1.0  0.26855  0.92739  0.55522  1.0000
  H   H808      1.0  0.26271  0.91389  0.58558  1.0000
  H   H809      1.0  0.24495  0.91300  0.56161  1.0000
  H   H810      1.0  0.25775  0.87038  0.55150  1.0000
  H   H811      1.0  0.25652  0.87978  0.58339  1.0000
  H   H812      1.0  0.23883  0.88049  0.56010  1.0000
  S   S189      1.0  0.00030  0.75955  0.59660  1.0000
  C   C688      1.0  0.24260  0.90681  0.78112  1.0000
  H   H813      1.0  0.10797  0.78257  0.57942  1.0000
  C   C689      1.0  0.20975  0.83822  0.49715  1.0000
  N   N44       1.0  0.27159  0.89796  0.72114  1.0000
  C   C690      1.0  0.05262  0.76841  0.60944  1.0000
  H   H814      1.0  0.29438  0.90537  0.50863  1.0000
  H   H815      1.0  0.28509  0.91157  0.81013  1.0000
  H   H816      1.0  0.06452  0.76512  0.67315  1.0000
  H   H817      1.0  0.32559  0.99382  0.71576  1.0000
  H   H818      1.0  0.32857  0.99913  0.84073  1.0000
  H   H819      1.0  0.20638  0.86456  0.48486  1.0000
  H   H820      1.0  0.08362  0.78625  0.88887  1.0000
  S   S190      1.0  0.32769  0.94025  0.94515  1.0000
  H   H821      1.0  0.23514  0.84108  0.93945  1.0000
  C   C691      1.0  0.27989  0.90518  0.76917  1.0000
  H   H822      1.0  0.03563  0.79633  0.68904  1.0000
  H   H823      1.0  0.21097  0.81333  0.51899  1.0000
  S   S191      1.0  0.32844  0.96650  0.62998  1.0000
  C   C692      1.0  0.05975  0.77556  0.68400  1.0000
  H   H824      1.0  0.29474  0.88641  0.73075  1.0000
  C   C693      1.0  0.25599  0.90971  0.80086  1.0000
  H   H825      1.0  0.26338  0.87638  0.69406  1.0000
  C   C694      1.0  0.21624  0.81413  0.96985  1.0000
  H   H826      1.0  0.21878  0.81087  0.94885  1.0000
  H   H827      1.0  0.05858  0.76253  0.85202  1.0000
  H   H828      1.0  0.19605  0.84771  0.95321  1.0000
  C   C695      1.0  0.32822  0.99682  0.76827  1.0000
  C   C696      1.0  0.08770  0.77360  0.88495  1.0000
  H   H829      1.0  0.03182  0.75379  0.65763  1.0000
  C   C697      1.0  0.05781  0.78288  0.54400  1.0000
  C   C698      1.0  0.11498  0.78244  0.55955  1.0000
  C   C699      1.0  0.32246  0.94506  0.52712  1.0000
  H   H830      1.0  0.09935  0.77342  0.89866  1.0000
  H   H831      1.0  0.05182  0.77375  0.87983  1.0000
  H   H832      1.0  0.03111  0.76930  0.52751  1.0000
  H   H833      1.0  0.16719  0.77620  0.97665  1.0000
  H   H834      1.0  0.10785  0.75739  0.50482  1.0000
  H   H835      1.0  0.13256  0.75741  0.81385  1.0000
  H   H836      1.0  0.31258  0.99312  0.77318  1.0000
  N   N45       1.0  0.21399  0.83266  0.97167  1.0000
  H   H837      1.0  0.31150  0.99911  0.93033  1.0000
  C   C700      1.0  0.07152  0.75482  0.52533  1.0000
  N   N46       1.0  0.07118  0.75746  0.88884  1.0000
  H   H838      1.0  0.32903  0.94912  0.71199  1.0000
  H   H839      1.0  0.23016  0.85916  0.95662  1.0000
  H   H840      1.0  0.01231  0.75916  0.67462  1.0000
  C   C701      1.0  0.05519  0.76112  0.87384  1.0000
  C   C702      1.0  0.04578  0.76912  0.53063  1.0000
  C   C703      1.0  0.03080  0.75421  0.73876  1.0000
  C   C704      1.0  0.06511  0.75514  0.91742  1.0000
  C   C705      1.0  0.30140  0.94902  0.48261  1.0000
  C   C706      1.0  0.40984  0.16695  0.15025  1.0000
  S   S192      1.0  0.40686  0.13816  0.31442  1.0000
  S   S193      1.0  0.42206  0.11932  0.38151  1.0000
  S   S194      1.0  0.42282  0.12119  0.24732  1.0000
  Fe  Fe99      1.0  0.40364  0.10980  0.03466  1.0000
  S   S195      1.0  0.43524  0.12151  0.03002  1.0000
  S   S196      1.0  0.51404  0.01485  0.42200  1.0000
  Fe  Fe100     1.0  0.40445  0.11030  0.09610  1.0000
  S   S197      1.0  0.43613  0.12212  0.09537  1.0000
  Fe  Fe101     1.0  0.40305  0.11612  0.34615  1.0000
  Fe  Fe102     1.0  0.43085  0.13987  0.06181  1.0000
  S   S198      1.0  0.44553  0.16936  0.05663  1.0000
  Fe  Fe103     1.0  0.43694  0.10243  0.06386  1.0000
  S   S199      1.0  0.45573  0.08344  0.06502  1.0000
  S   S200      1.0  0.39898  0.12945  0.06442  1.0000
  S   S201      1.0  0.40548  0.08932  0.06658  1.0000
  S   S202      1.0  0.39281  0.22259  0.06011  1.0000
  H   H841      1.0  0.36111  0.04269  0.26066  1.0000
  S   S203      1.0  0.48794  0.03189  0.20693  1.0000
  C   C707      1.0  0.43263  0.03457  0.34447  1.0000
  S   S204      1.0  0.66139  0.03079  0.44941  1.0000
  S   S205      1.0  0.50741  0.05363  0.40144  1.0000
  H   H842      1.0  0.57316  0.03860  0.37193  1.0000
  S   S206      1.0  0.61286  0.02059  0.99978  1.0000
  H   H843      1.0  0.55975  0.04061  0.25045  1.0000
  S   S207      1.0  0.47433  0.02471  0.43776  1.0000
  H   H844      1.0  0.61212  0.06227  0.29803  1.0000
  C   C708      1.0  0.66264  0.04379  0.35516  1.0000
  C   C709      1.0  0.44154  0.23272  0.16963  1.0000
  C   C710      1.0  0.41583  0.20101  0.46894  1.0000
  S   S208      1.0  0.65361  0.09062  0.26742  1.0000
  C   C711      1.0  0.49882  0.00383  0.28055  1.0000
  H   H845      1.0  0.40861  0.21761  0.12274  1.0000
  H   H846      1.0  0.47028  0.02781  0.30770  1.0000
  H   H847      1.0  0.38327  0.22961  0.48175  1.0000
  C   C712      1.0  0.34335  0.04323  0.33514  1.0000
  Fe  Fe104     1.0  0.63241  0.08235  0.23527  1.0000
  S   S209      1.0  0.60198  0.08397  0.24336  1.0000
  S   S210      1.0  0.63521  0.05420  0.23481  1.0000
  S   S211      1.0  0.53436  0.06493  0.16262  1.0000
  C   C713      1.0  0.58368  0.07834  0.22019  1.0000
  C   C714      1.0  0.58755  0.07802  0.19281  1.0000
  C   C715      1.0  0.57239  0.07394  0.17519  1.0000
  C   C716      1.0  0.55329  0.06938  0.18492  1.0000
  C   C717      1.0  0.54949  0.06934  0.21232  1.0000
  C   C718      1.0  0.56460  0.07431  0.22970  1.0000
  H   H848      1.0  0.60221  0.08144  0.18521  1.0000
  H   H849      1.0  0.57547  0.07440  0.15400  1.0000
  H   H850      1.0  0.53487  0.06627  0.22000  1.0000
  H   H851      1.0  0.56151  0.07511  0.25067  1.0000
  C   C719      1.0  0.34729  0.04883  0.42133  1.0000
  H   H852      1.0  0.52581  0.03893  0.32419  1.0000
  C   C720      1.0  0.38363  0.23032  0.46015  1.0000
  C   C721      1.0  0.40239  0.21624  0.98828  1.0000
  H   H853      1.0  0.54398  0.02394  0.23118  1.0000
  N   N47       1.0  0.60172  0.06001  0.33907  1.0000
  H   H854      1.0  0.33422  0.02689  0.28334  1.0000
  H   H855      1.0  0.35558  0.02184  0.32391  1.0000
  H   H856      1.0  0.44751  0.19599  0.37805  1.0000
  H   H857      1.0  0.56887  0.05276  0.00085  1.0000
  Fe  Fe105     1.0  0.49821  0.01825  0.46018  1.0000
  H   H858      1.0  0.33768  0.17749  0.30522  1.0000
  H   H859      1.0  0.36189  0.17011  0.25076  1.0000
  C   C722      1.0  0.59564  0.03447  0.18860  1.0000
  C   C723      1.0  0.39874  0.19753  0.99146  1.0000
  S   S212      1.0  0.48866  0.02871  0.14252  1.0000
  C   C724      1.0  0.34412  0.02522  0.33501  1.0000
  Fe  Fe106     1.0  0.50989  0.04043  0.17307  1.0000
  H   H860      1.0  0.59684  0.06467  0.38053  1.0000
  C   C725      1.0  0.57877  0.01936  0.45988  1.0000
  C   C726      1.0  0.40713  0.20754  0.05781  1.0000
  C   C727      1.0  0.40059  0.19026  0.06979  1.0000
  C   C728      1.0  0.41222  0.17834  0.06933  1.0000
  C   C729      1.0  0.43032  0.18360  0.05659  1.0000
  C   C730      1.0  0.43671  0.20075  0.04423  1.0000
  C   C731      1.0  0.42513  0.21267  0.04481  1.0000
  H   H861      1.0  0.38668  0.18624  0.07995  1.0000
  H   H862      1.0  0.40737  0.16533  0.07954  1.0000
  H   H863      1.0  0.45066  0.20484  0.03421  1.0000
  H   H864      1.0  0.43010  0.22571  0.03488  1.0000
  C   C732      1.0  0.46757  0.08356  0.03408  1.0000
  C   C733      1.0  0.47408  0.09951  0.01856  1.0000
  S   S213      1.0  0.65714  0.04544  0.30184  1.0000
  H   H865      1.0  0.56463  0.01680  0.29431  1.0000
  H   H866      1.0  0.65763  0.02937  0.35354  1.0000
  C   C734      1.0  0.47077  0.06760  0.02499  1.0000
  H   H867      1.0  0.47195  0.11193  0.02567  1.0000
  H   H868      1.0  0.54726  0.05815  0.28969  1.0000
  Fe  Fe107     1.0  0.49178  0.02454  0.39996  1.0000
  H   H869      1.0  0.46550  0.05517  0.03674  1.0000
  C   C735      1.0  0.41247  0.11626  0.21622  1.0000
  C   C736      1.0  0.60506  0.04605  0.45347  1.0000
  H   H870      1.0  0.59633  0.05778  0.11953  1.0000
  C   C737      1.0  0.39702  0.10808  0.16589  1.0000
  C   C738      1.0  0.41582  0.11850  0.16774  1.0000
  C   C739      1.0  0.42352  0.12252  0.19280  1.0000
  H   H871      1.0  0.53906  0.02928  0.36507  1.0000
  H   H872      1.0  0.42445  0.12360  0.14994  1.0000
  H   H873      1.0  0.43810  0.13053  0.19404  1.0000
  C   C740      1.0  0.41194  0.11639  0.41421  1.0000
  C   C741      1.0  0.42395  0.11769  0.43578  1.0000
  H   H874      1.0  0.36876  0.12850  0.22589  1.0000
  C   C742      1.0  0.40848  0.16105  0.39119  1.0000
  C   C743      1.0  0.38472  0.11173  0.44535  1.0000
  C   C744      1.0  0.39227  0.11318  0.41909  1.0000
  H   H875      1.0  0.43919  0.11992  0.43222  1.0000
  H   H876      1.0  0.58449  0.01892  0.05726  1.0000
  H   H877      1.0  0.38516  0.10053  0.23226  1.0000
  H   H878      1.0  0.38285  0.11209  0.40273  1.0000
  C   C745      1.0  0.37579  0.21364  0.29140  1.0000
  C   C746      1.0  0.35686  0.20343  0.29538  1.0000
  C   C747      1.0  0.35249  0.18502  0.30226  1.0000
  C   C748      1.0  0.36690  0.17619  0.30498  1.0000
  C   C749      1.0  0.38606  0.18624  0.30091  1.0000
  C   C750      1.0  0.39051  0.20500  0.29423  1.0000
  H   H879      1.0  0.34536  0.20983  0.29319  1.0000
  H   H880      1.0  0.63520  0.07318  0.07015  1.0000
  H   H881      1.0  0.39737  0.17961  0.30291  1.0000
  H   H882      1.0  0.40523  0.21269  0.29112  1.0000
  H   H883      1.0  0.57130  0.03943  0.20752  1.0000
  N   N48       1.0  0.52451  0.05641  0.06926  1.0000
  C   C751      1.0  0.53216  0.04359  0.08535  1.0000
  C   C752      1.0  0.52579  0.07248  0.08525  1.0000
  C   C753      1.0  0.50414  0.04770  0.06493  1.0000
  C   C754      1.0  0.53471  0.06177  0.04310  1.0000
  C   C755      1.0  0.52945  0.07444  0.02581  1.0000
  C   C756      1.0  0.54933  0.05411  0.03348  1.0000
  H   H884      1.0  0.45595  0.07515  0.39209  1.0000
  H   H885      1.0  0.60298  0.03698  0.36431  1.0000
  H   H886      1.0  0.42857  0.23371  0.09109  1.0000
  H   H887      1.0  0.52452  0.04011  0.10513  1.0000
  H   H888      1.0  0.53046  0.03062  0.07546  1.0000
  H   H889      1.0  0.54747  0.04942  0.08933  1.0000
  H   H890      1.0  0.54094  0.07993  0.08782  1.0000
  H   H891      1.0  0.51902  0.06876  0.10556  1.0000
  H   H892      1.0  0.51846  0.08202  0.07610  1.0000
  H   H893      1.0  0.50271  0.03658  0.05095  1.0000
  H   H894      1.0  0.49613  0.04198  0.08378  1.0000
  H   H895      1.0  0.49671  0.05727  0.05622  1.0000
  H   H896      1.0  0.51801  0.08037  0.03128  1.0000
  H   H897      1.0  0.55391  0.04396  0.04475  1.0000
  H   H898      1.0  0.48156  0.01987  0.26390  1.0000
  S   S214      1.0  0.66027  0.04866  0.16695  1.0000
  H   H899      1.0  0.57179  0.01233  0.00171  1.0000
  H   H900      1.0  0.36261  0.20787  0.36853  1.0000
  H   H901      1.0  0.62897  0.07431  0.32040  1.0000
  H   H902      1.0  0.42578  0.11726  0.47852  1.0000
  H   H903      1.0  0.41779  0.16921  0.13130  1.0000
  C   C757      1.0  0.38415  0.23228  0.40362  1.0000
  C   C758      1.0  0.37764  0.21562  0.41832  1.0000
  C   C759      1.0  0.55267  0.07161  0.99187  1.0000
  H   H904      1.0  0.37723  0.16147  0.99633  1.0000
  C   C760      1.0  0.55211  0.02615  0.24972  1.0000
  N   N49       1.0  0.33752  0.00756  0.25473  1.0000
  H   H905      1.0  0.42725  0.19051  0.16743  1.0000
  C   C761      1.0  0.39915  0.22495  0.36361  1.0000
  C   C762      1.0  0.40217  0.22125  0.16334  1.0000
  H   H906      1.0  0.39443  0.05410  0.24728  1.0000
  H   H907      1.0  0.43426  0.23659  0.21042  1.0000
  H   H908      1.0  0.35343  0.22701  0.37445  1.0000
  C   C763      1.0  0.42607  0.20265  0.42239  1.0000
  H   H909      1.0  0.37285  0.20311  0.40843  1.0000
  H   H910      1.0  0.55245  0.02063  0.44230  1.0000
  C   C764      1.0  0.60913  0.02457  0.18841  1.0000
  H   H911      1.0  0.40001  0.14549  0.24336  1.0000
  C   C765      1.0  0.56708  0.02778  0.44541  1.0000
  S   S215      1.0  0.37955  0.23702  0.28334  1.0000
  C   C766      1.0  0.38598  0.10177  0.18933  1.0000
  C   C767      1.0  0.39675  0.11342  0.46692  1.0000
  S   S216      1.0  0.37222  0.10997  0.28385  1.0000
  H   H912      1.0  0.38538  0.15289  0.26749  1.0000
  C   C768      1.0  0.41674  0.03420  0.32947  1.0000
  N   N50       1.0  0.44790  0.22844  0.12048  1.0000
  H   H913      1.0  0.61387  0.07618  0.08551  1.0000
  H   H914      1.0  0.37280  0.13636  0.18094  1.0000
  S   S217      1.0  0.55990  0.05637  0.41753  1.0000
  H   H915      1.0  0.44289  0.02739  0.33824  1.0000
  C   C769      1.0  0.54112  0.04273  0.32659  1.0000
  H   H916      1.0  0.36148  0.17468  0.21560  1.0000
  C   C770      1.0  0.57300  0.05902  0.31057  1.0000
  S   S218      1.0  0.35945  0.15264  0.31283  1.0000
  H   H917      1.0  0.39044  0.14246  0.13873  1.0000
  C   C771      1.0  0.39272  0.15617  0.24752  1.0000
  H   H918      1.0  0.62510  0.04886  0.34887  1.0000
  C   C772      1.0  0.61348  0.07033  0.31616  1.0000
  C   C773      1.0  0.42409  0.16357  0.98616  1.0000
  C   C774      1.0  0.41640  0.11626  0.46206  1.0000
  C   C775      1.0  0.38731  0.04013  0.24418  1.0000
  C   C776      1.0  0.48383  0.09954  0.99407  1.0000
  H   H919      1.0  0.60740  0.03491  0.32926  1.0000
  C   C777      1.0  0.41478  0.22176  0.14159  1.0000
  H   H920      1.0  0.37189  0.20192  0.45706  1.0000
  C   C778      1.0  0.42262  0.21111  0.44550  1.0000
  H   H921      1.0  0.43137  0.21132  0.40500  1.0000
  H   H922      1.0  0.41460  0.02683  0.31139  1.0000
  H   H923      1.0  0.54119  0.02313  0.26646  1.0000
  H   H924      1.0  0.42506  0.22561  0.44521  1.0000
  H   H925      1.0  0.62042  0.02730  0.17303  1.0000
  H   H926      1.0  0.44843  0.04453  0.37805  1.0000
  H   H927      1.0  0.39705  0.16784  0.38710  1.0000
  H   H928      1.0  0.36813  0.05972  0.48005  1.0000
  H   H929      1.0  0.41064  0.15365  0.37322  1.0000
  H   H930      1.0  0.54757  0.01263  0.12654  1.0000
  C   C779      1.0  0.60950  0.04448  0.34563  1.0000
  C   C780      1.0  0.43488  0.22773  0.14397  1.0000
  C   C781      1.0  0.37718  0.21475  0.44617  1.0000
  H   H931      1.0  0.40008  0.22580  0.34142  1.0000
  H   H932      1.0  0.61686  0.02578  0.05498  1.0000
  H   H933      1.0  0.45448  0.17343  0.41019  1.0000
  N   N51       1.0  0.56555  0.01464  0.25162  1.0000
  N   N52       1.0  0.43217  0.06409  0.14494  1.0000
  C   C782      1.0  0.43138  0.08130  0.13162  1.0000
  C   C783      1.0  0.44581  0.05688  0.12897  1.0000
  C   C784      1.0  0.41308  0.05113  0.14422  1.0000
  C   C785      1.0  0.43745  0.06715  0.17292  1.0000
  C   C786      1.0  0.45396  0.06333  0.18353  1.0000
  C   C787      1.0  0.42601  0.07441  0.19046  1.0000
  C   C788      1.0  0.45882  0.06699  0.20984  1.0000
  C   C789      1.0  0.43099  0.07796  0.21672  1.0000
  C   C790      1.0  0.44741  0.07437  0.22634  1.0000
  H   H934      1.0  0.42833  0.07970  0.11019  1.0000
  H   H935      1.0  0.41997  0.08677  0.14035  1.0000
  H   H936      1.0  0.44520  0.09173  0.13278  1.0000
  H   H937      1.0  0.44145  0.05491  0.10800  1.0000
  H   H938      1.0  0.44665  0.04355  0.13715  1.0000
  H   H939      1.0  0.46034  0.06635  0.12779  1.0000
  H   H940      1.0  0.41293  0.03822  0.15493  1.0000
  H   H941      1.0  0.40164  0.05637  0.15346  1.0000
  H   H942      1.0  0.40891  0.04809  0.12342  1.0000
  H   H943      1.0  0.46344  0.05762  0.17188  1.0000
  H   H944      1.0  0.41329  0.07774  0.18381  1.0000
  H   H945      1.0  0.47169  0.06435  0.21736  1.0000
  H   H946      1.0  0.42231  0.08395  0.22954  1.0000
  H   H947      1.0  0.45142  0.07755  0.24654  1.0000
  C   C791      1.0  0.36533  0.22261  0.36479  1.0000
  Fe  Fe108     1.0  0.64320  0.03545  0.98842  1.0000
  Fe  Fe109     1.0  0.46806  0.01668  0.17670  1.0000
  C   C792      1.0  0.38830  0.01107  0.22907  1.0000
  C   C793      1.0  0.59346  0.05440  0.43874  1.0000
  N   N53       1.0  0.42580  0.06387  0.40137  1.0000
  C   C794      1.0  0.44275  0.07942  0.39670  1.0000
  C   C795      1.0  0.40951  0.07088  0.41009  1.0000
  C   C796      1.0  0.42947  0.05228  0.42369  1.0000
  C   C797      1.0  0.42235  0.05366  0.37680  1.0000
  C   C798      1.0  0.43556  0.04430  0.36759  1.0000
  C   C799      1.0  0.40636  0.05314  0.36086  1.0000
  C   C800      1.0  0.48048  0.06761  0.00047  1.0000
  C   C801      1.0  0.35156  0.03311  0.47080  1.0000
  H   H948      1.0  0.45328  0.00468  0.23218  1.0000
  H   H949      1.0  0.44073  0.08839  0.37984  1.0000
  C   C802      1.0  0.47097  0.07952  0.47831  1.0000
  C   C803      1.0  0.40917  0.22653  0.18810  1.0000
  H   H950      1.0  0.41232  0.07803  0.42902  1.0000
  C   C804      1.0  0.56825  0.04261  0.35321  1.0000
  H   H951      1.0  0.40691  0.08091  0.39527  1.0000
  H   H952      1.0  0.44296  0.04827  0.42051  1.0000
  C   C805      1.0  0.58013  0.01803  0.22947  1.0000
  H   H953      1.0  0.41763  0.03981  0.42674  1.0000
  H   H954      1.0  0.43614  0.17850  0.35705  1.0000
  H   H955      1.0  0.39575  0.06019  0.36568  1.0000
  H   H956      1.0  0.58389  0.00867  0.28181  1.0000
  H   H957      1.0  0.43601  0.15371  0.42028  1.0000
  H   H958      1.0  0.48287  0.05523  0.99357  1.0000
  N   N54       1.0  0.61093  0.04987  0.06995  1.0000
  H   H959      1.0  0.38953  0.14467  0.00255  1.0000
  C   C806      1.0  0.62365  0.03787  0.06605  1.0000
  C   C807      1.0  0.60558  0.05566  0.04352  1.0000
  C   C808      1.0  0.59352  0.04005  0.08569  1.0000
  C   C809      1.0  0.58809  0.04580  0.11063  1.0000
  C   C810      1.0  0.58134  0.02412  0.07610  1.0000
  C   C811      1.0  0.57162  0.03600  0.12503  1.0000
  C   C812      1.0  0.56498  0.01441  0.09074  1.0000
  C   C813      1.0  0.56023  0.02026  0.11523  1.0000
  H   H960      1.0  0.41346  0.23222  0.37048  1.0000
  H   H961      1.0  0.61965  0.05321  0.45649  1.0000
  C   C814      1.0  0.55812  0.05906  0.00822  1.0000
  H   H962      1.0  0.62794  0.03310  0.08544  1.0000
  S   S219      1.0  0.35987  0.05933  0.31418  1.0000
  C   C815      1.0  0.39741  0.02907  0.23262  1.0000
  H   H963      1.0  0.59583  0.06455  0.04551  1.0000
  S   S220      1.0  0.64988  0.06552  0.98533  1.0000
  H   H964      1.0  0.59830  0.04411  0.03170  1.0000
  C   C816      1.0  0.44090  0.16420  0.40410  1.0000
  C   C817      1.0  0.58110  0.05370  0.33389  1.0000
  C   C818      1.0  0.44582  0.21002  0.11126  1.0000
  H   H965      1.0  0.48011  0.24119  0.47292  1.0000
  H   H966      1.0  0.58481  0.03203  0.27689  1.0000
  Fe  Fe110     1.0  0.40402  0.11643  0.28494  1.0000
  S   S221      1.0  0.38686  0.10251  0.13481  1.0000
  H   H967      1.0  0.59823  0.08352  0.35823  1.0000
  H   H968      1.0  0.42316  0.19368  0.36837  1.0000
  C   C819      1.0  0.36797  0.03335  0.25172  1.0000
  C   C820      1.0  0.57437  0.04539  0.43507  1.0000
  C   C821      1.0  0.39367  0.10580  0.21440  1.0000
  C   C822      1.0  0.36007  0.05143  0.46509  1.0000
  Fe  Fe111     1.0  0.37502  0.13062  0.31521  1.0000
  H   H969      1.0  0.45653  0.23764  0.17350  1.0000
  S   S222      1.0  0.40395  0.09529  0.31656  1.0000
  H   H970      1.0  0.43126  0.05942  0.44271  1.0000
  C   C823      1.0  0.48653  0.01503  0.28195  1.0000
  H   H971      1.0  0.44964  0.20120  0.12690  1.0000
  C   C824      1.0  0.40369  0.04353  0.33759  1.0000
  S   S223      1.0  0.52108  0.01631  0.17765  1.0000
  C   C825      1.0  0.59765  0.02865  0.46455  1.0000
  H   H972      1.0  0.41231  0.03448  0.22636  1.0000
  Fe  Fe112     1.0  0.37194  0.08966  0.31741  1.0000
  C   C826      1.0  0.39439  0.15189  0.15445  1.0000
  H   H973      1.0  0.39147  0.04348  0.32569  1.0000
  C   C827      1.0  0.42879  0.23214  0.19125  1.0000
  S   S224      1.0  0.47426  0.07336  0.44566  1.0000
  H   H974      1.0  0.56754  0.04060  0.14391  1.0000
  H   H975      1.0  0.44574  0.08772  0.41455  1.0000
  C   C828      1.0  0.33865  0.03056  0.42690  1.0000
  H   H976      1.0  0.58152  0.06774  0.29494  1.0000
  C   C829      1.0  0.54860  0.03724  0.34954  1.0000
  H   H977      1.0  0.47351  0.22794  0.14093  1.0000
  S   S225      1.0  0.38492  0.10309  0.99914  1.0000
  H   H978      1.0  0.41303  0.15925  0.44801  1.0000
  C   C830      1.0  0.39150  0.15952  0.00063  1.0000
  H   H979      1.0  0.38772  0.19106  0.00618  1.0000
  H   H980      1.0  0.43100  0.20358  0.10569  1.0000
  H   H981      1.0  0.36949  0.10947  0.44899  1.0000
  H   H982      1.0  0.40287  0.15054  0.40718  1.0000
  S   S226      1.0  0.65451  0.09279  0.20193  1.0000
  C   C831      1.0  0.42279  0.18362  0.42223  1.0000
  H   H983      1.0  0.44484  0.24864  0.40934  1.0000
  C   C832      1.0  0.38429  0.14854  0.17902  1.0000
  C   C833      1.0  0.41584  0.17377  0.44649  1.0000
  C   C834      1.0  0.58123  0.03123  0.20863  1.0000
  Fe  Fe113     1.0  0.49137  0.05327  0.44020  1.0000
  H   H984      1.0  0.47768  0.23702  0.10751  1.0000
  H   H985      1.0  0.34542  0.05497  0.40222  1.0000
  S   S227      1.0  0.37107  0.10957  0.34900  1.0000
  H   H986      1.0  0.45982  0.00609  0.05438  1.0000
  H   H987      1.0  0.39641  0.21055  0.36996  1.0000
  C   C835      1.0  0.41243  0.18238  0.46940  1.0000
  C   C836      1.0  0.37079  0.17257  0.23190  1.0000
  Fe  Fe114     1.0  0.52845  0.04416  0.42586  1.0000
  H   H988      1.0  0.62755  0.06275  0.10218  1.0000
  C   C837      1.0  0.35810  0.01514  0.24768  1.0000
  H   H989      1.0  0.37146  0.09360  0.18808  1.0000
  H   H990      1.0  0.38187  0.18541  0.23407  1.0000
  C   C838      1.0  0.38935  0.16044  0.20018  1.0000
  C   C839      1.0  0.41513  0.17888  0.17055  1.0000
  H   H991      1.0  0.35217  0.14074  0.21435  1.0000
  C   C840      1.0  0.36898  0.00413  0.23656  1.0000
  C   C841      1.0  0.36336  0.14056  0.22889  1.0000
  H   H992      1.0  0.39938  0.22650  0.20482  1.0000
  H   H993      1.0  0.40398  0.16891  0.24929  1.0000
  S   S228      1.0  0.43612  0.01462  0.17724  1.0000
  H   H994      1.0  0.38689  0.21699  0.16080  1.0000
  H   H995      1.0  0.45520  0.21000  0.09332  1.0000
  H   H996      1.0  0.45315  0.24149  0.08116  1.0000
  C   C842      1.0  0.46837  0.23619  0.12577  1.0000
  H   H997      1.0  0.61835  0.06311  0.03109  1.0000
  H   H998      1.0  0.36435  0.07349  0.43626  1.0000
  H   H999      1.0  0.60956  0.08305  0.31125  1.0000
  C   C843      1.0  0.60424  0.07183  0.36204  1.0000
  C   C844      1.0  0.40500  0.17581  0.19507  1.0000
  C   C845      1.0  0.57514  0.01815  0.27726  1.0000
  N   N55       1.0  0.37914  0.15736  0.22655  1.0000
  N   N56       1.0  0.42641  0.17411  0.39834  1.0000
  C   C846      1.0  0.55327  0.05356  0.30716  1.0000
  H   H1000     1.0  0.59919  0.06802  0.43074  1.0000
  H   H1001     1.0  0.35610  0.13859  0.24906  1.0000
  H   H1002     1.0  0.40966  0.18546  0.21016  1.0000
  S   S229      1.0  0.51411  0.04694  0.46512  1.0000
  N   N57       1.0  0.38413  0.23294  0.37414  1.0000
  H   H1003     1.0  0.39620  0.05982  0.41348  1.0000
  C   C847      1.0  0.44295  0.23962  0.09865  1.0000
  C   C848      1.0  0.43360  0.18621  0.37453  1.0000
  Fe  Fe115     1.0  0.65845  0.06492  0.20333  1.0000
  C   C849      1.0  0.62225  0.06618  0.08265  1.0000
  H   H1004     1.0  0.39576  0.16484  0.02046  1.0000
  H   H1005     1.0  0.44422  0.15699  0.38650  1.0000
  H   H1006     1.0  0.61958  0.07711  0.36656  1.0000
  C   C850      1.0  0.39074  0.24680  0.44634  1.0000
  C   C851      1.0  0.48020  0.01955  0.30685  1.0000
  H   H1007     1.0  0.63690  0.04483  0.05424  1.0000
  H   H1008     1.0  0.36431  0.22444  0.34286  1.0000
  C   C852      1.0  0.35794  0.05926  0.44042  1.0000
  Fe  Fe116     1.0  0.65759  0.06301  0.26484  1.0000
  S   S230      1.0  0.47615  0.01739  0.36138  1.0000
  H   H1009     1.0  0.43042  0.17078  0.00385  1.0000
  Fe  Fe117     1.0  0.49919  0.00422  0.14833  1.0000
  H   H1010     1.0  0.39433  0.22334  0.00033  1.0000
  H   H1011     1.0  0.59661  0.04497  0.17340  1.0000
  C   C853      1.0  0.34061  0.02206  0.45170  1.0000
  C   C854      1.0  0.53836  0.07927  0.00064  1.0000
  C   C855      1.0  0.39113  0.24785  0.41851  1.0000
  H   H1012     1.0  0.44796  0.09099  0.46803  1.0000
  H   H1013     1.0  0.53369  0.08861  0.98751  1.0000
  H   H1014     1.0  0.57312  0.00566  0.46751  1.0000
  C   C856      1.0  0.38790  0.25150  0.36230  1.0000
  H   H1015     1.0  0.43001  0.00802  0.23755  1.0000
  C   C857      1.0  0.48659  0.01346  0.33063  1.0000
  H   H1016     1.0  0.38643  0.25146  0.34032  1.0000
  H   H1017     1.0  0.39540  0.00602  0.17057  1.0000
  H   H1018     1.0  0.42173  0.14894  0.99093  1.0000
  Fe  Fe118     1.0  0.49817  0.00697  0.20982  1.0000
  C   C858      1.0  0.48705  0.08360  0.98501  1.0000
  H   H1019     1.0  0.47092  0.25013  0.13261  1.0000
  C   C859      1.0  0.60835  0.01142  0.20835  1.0000
  Fe  Fe119     1.0  0.40723  0.25197  0.05117  1.0000
  C   C860      1.0  0.59412  0.00817  0.22863  1.0000
  S   S231      1.0  0.43454  0.25195  0.28443  1.0000
  H   H1020     1.0  0.44602  0.00995  0.26445  1.0000
  C   C861      1.0  0.47364  0.00337  0.05487  1.0000
  H   H1021     1.0  0.61909  0.00396  0.20831  1.0000
  C   C862      1.0  0.57702  0.01924  0.98282  1.0000
  H   H1022     1.0  0.44303  0.25318  0.10543  1.0000
  H   H1023     1.0  0.58594  0.05871  0.51189  1.0000
  S   S232      1.0  0.40295  0.14215  0.81521  1.0000
  S   S233      1.0  0.41963  0.12560  0.88184  1.0000
  S   S234      1.0  0.42230  0.12985  0.74805  1.0000
  Fe  Fe120     1.0  0.40594  0.11881  0.53427  1.0000
  S   S235      1.0  0.43695  0.13374  0.52964  1.0000
  C   C863      1.0  0.55456  0.06078  0.63373  1.0000
  Fe  Fe121     1.0  0.40680  0.11705  0.59563  1.0000
  S   S236      1.0  0.43775  0.13153  0.59504  1.0000
  H   H1024     1.0  0.40954  0.02686  0.72356  1.0000
  Fe  Fe122     1.0  0.43045  0.14959  0.56359  1.0000
  S   S237      1.0  0.44128  0.17946  0.56779  1.0000
  Fe  Fe123     1.0  0.44060  0.11388  0.56154  1.0000
  S   S238      1.0  0.46238  0.09792  0.56190  1.0000
  S   S239      1.0  0.39908  0.13616  0.56611  1.0000
  S   S240      1.0  0.40998  0.09796  0.56415  1.0000
  S   S241      1.0  0.38209  0.22367  0.54041  1.0000
  H   H1025     1.0  0.43127  0.02200  0.59325  1.0000
  H   H1026     1.0  0.39264  0.01174  0.65457  1.0000
  C   C864      1.0  0.62420  0.05322  0.54409  1.0000
  H   H1027     1.0  0.52186  0.03738  0.78569  1.0000
  S   S242      1.0  0.51176  0.05027  0.90500  1.0000
  H   H1028     1.0  0.45324  0.18223  0.72049  1.0000
  C   C865      1.0  0.59044  0.03647  0.93358  1.0000
  H   H1029     1.0  0.57802  0.08332  0.63765  1.0000
  H   H1030     1.0  0.41505  0.08525  0.90978  1.0000
  H   H1031     1.0  0.49472  0.02627  0.53355  1.0000
  Fe  Fe124     1.0  0.48867  0.01707  0.96372  1.0000
  H   H1032     1.0  0.57957  0.03170  0.86547  1.0000
  Fe  Fe125     1.0  0.65063  0.06220  0.76400  1.0000
  S   S243      1.0  0.65297  0.09180  0.76087  1.0000
  H   H1033     1.0  0.36666  0.22050  0.88626  1.0000
  H   H1034     1.0  0.42396  0.11812  0.97794  1.0000
  H   H1035     1.0  0.44835  0.04946  0.51774  1.0000
  H   H1036     1.0  0.56089  0.03555  0.49822  1.0000
  C   C866      1.0  0.60473  0.06434  0.82158  1.0000
  Fe  Fe126     1.0  0.63439  0.08479  0.72546  1.0000
  S   S244      1.0  0.61054  0.09753  0.71512  1.0000
  S   S245      1.0  0.63050  0.05515  0.73035  1.0000
  S   S246      1.0  0.52317  0.07336  0.68381  1.0000
  C   C867      1.0  0.58612  0.08925  0.70747  1.0000
  C   C868      1.0  0.57681  0.10192  0.69839  1.0000
  C   C869      1.0  0.55768  0.09667  0.69145  1.0000
  C   C870      1.0  0.54732  0.07860  0.69342  1.0000
  C   C871      1.0  0.55649  0.06568  0.70252  1.0000
  C   C872      1.0  0.57589  0.07101  0.70958  1.0000
  H   H1037     1.0  0.58447  0.11601  0.69673  1.0000
  H   H1038     1.0  0.55084  0.10677  0.68453  1.0000
  H   H1039     1.0  0.54868  0.05167  0.70415  1.0000
  H   H1040     1.0  0.58280  0.06106  0.71685  1.0000
  N   N58       1.0  0.33384  0.01188  0.74807  1.0000
  C   C873      1.0  0.38715  0.03625  0.74238  1.0000
  H   H1041     1.0  0.55122  0.03846  0.85800  1.0000
  H   H1042     1.0  0.38537  0.10856  0.73149  1.0000
  S   S247      1.0  0.46909  0.02574  0.86603  1.0000
  N   N59       1.0  0.40609  0.16811  0.97947  1.0000
  H   H1043     1.0  0.63933  0.05964  0.54520  1.0000
  Fe  Fe127     1.0  0.65684  0.06006  0.70330  1.0000
  H   H1044     1.0  0.33044  0.06340  0.85140  1.0000
  C   C874      1.0  0.42743  0.21688  0.95546  1.0000
  C   C875      1.0  0.34327  0.02682  0.82981  1.0000
  H   H1045     1.0  0.61858  0.03791  0.94737  1.0000
  H   H1046     1.0  0.63841  0.03244  0.85761  1.0000
  H   H1047     1.0  0.46039  0.08021  0.94163  1.0000
  C   C876      1.0  0.44131  0.20895  0.73931  1.0000
  H   H1048     1.0  0.40078  0.15635  0.87655  1.0000
  H   H1049     1.0  0.59569  0.04302  0.91448  1.0000
  H   H1050     1.0  0.41003  0.25000  0.85256  1.0000
  C   C877      1.0  0.38133  0.19185  0.87024  1.0000
  C   C878      1.0  0.45317  0.02320  0.52188  1.0000
  C   C879      1.0  0.39745  0.21064  0.54991  1.0000
  C   C880      1.0  0.39493  0.19331  0.54064  1.0000
  C   C881      1.0  0.40822  0.18353  0.54636  1.0000
  C   C882      1.0  0.42388  0.19097  0.56166  1.0000
  C   C883      1.0  0.42602  0.20805  0.57165  1.0000
  C   C884      1.0  0.41288  0.21789  0.56573  1.0000
  H   H1051     1.0  0.38300  0.18766  0.52841  1.0000
  H   H1052     1.0  0.40661  0.17045  0.53829  1.0000
  H   H1053     1.0  0.43789  0.21373  0.58391  1.0000
  H   H1054     1.0  0.41469  0.23111  0.57347  1.0000
  C   C885      1.0  0.46545  0.09047  0.52992  1.0000
  C   C886      1.0  0.45386  0.09354  0.50956  1.0000
  H   H1055     1.0  0.60463  0.04145  0.86115  1.0000
  S   S248      1.0  0.43184  0.01963  0.66943  1.0000
  C   C887      1.0  0.48223  0.07594  0.49880  1.0000
  C   C888      1.0  0.47952  0.08150  0.52460  1.0000
  H   H1056     1.0  0.44272  0.10008  0.51361  1.0000
  C   C889      1.0  0.55420  0.03506  0.51849  1.0000
  C   C890      1.0  0.39445  0.02378  0.72913  1.0000
  H   H1057     1.0  0.48846  0.07904  0.54033  1.0000
  C   C891      1.0  0.41312  0.12390  0.71657  1.0000
  H   H1058     1.0  0.45091  0.23196  0.66092  1.0000
  C   C892      1.0  0.43922  0.03708  0.55654  1.0000
  C   C893      1.0  0.39926  0.11453  0.66575  1.0000
  C   C894      1.0  0.41797  0.12507  0.66827  1.0000
  C   C895      1.0  0.42484  0.12976  0.69358  1.0000
  H   H1059     1.0  0.39569  0.14506  0.95574  1.0000
  H   H1060     1.0  0.42727  0.12940  0.65087  1.0000
  H   H1061     1.0  0.43941  0.13768  0.69539  1.0000
  C   C896      1.0  0.40966  0.11915  0.91421  1.0000
  C   C897      1.0  0.42176  0.12166  0.93572  1.0000
  C   C898      1.0  0.39727  0.20633  0.87576  1.0000
  H   H1062     1.0  0.60341  0.07725  0.81236  1.0000
  C   C899      1.0  0.57075  0.03081  0.93954  1.0000
  C   C900      1.0  0.39013  0.11126  0.91890  1.0000
  H   H1063     1.0  0.43692  0.12764  0.93228  1.0000
  H   H1064     1.0  0.34619  0.02320  0.89575  1.0000
  H   H1065     1.0  0.55519  0.01702  0.63431  1.0000
  H   H1066     1.0  0.43994  0.21558  0.71976  1.0000
  C   C901      1.0  0.37263  0.21383  0.79548  1.0000
  C   C902      1.0  0.38676  0.20446  0.79778  1.0000
  C   C903      1.0  0.38149  0.18559  0.80334  1.0000
  C   C904      1.0  0.36210  0.17612  0.80668  1.0000
  C   C905      1.0  0.34826  0.18566  0.80460  1.0000
  C   C906      1.0  0.35344  0.20425  0.79900  1.0000
  H   H1067     1.0  0.40164  0.21162  0.79486  1.0000
  H   H1068     1.0  0.39232  0.17838  0.80499  1.0000
  C   C907      1.0  0.44364  0.00688  0.56505  1.0000
  H   H1069     1.0  0.41980  0.24046  0.96869  1.0000
  C   C908      1.0  0.60341  0.03360  0.95220  1.0000
  H   H1070     1.0  0.46245  0.21868  0.49963  1.0000
  H   H1071     1.0  0.38499  0.07296  0.88848  1.0000
  C   C909      1.0  0.44702  0.03769  0.53080  1.0000
  C   C910      1.0  0.48609  0.00496  0.83446  1.0000
  C   C911      1.0  0.38266  0.17408  0.87080  1.0000
  C   C912      1.0  0.47696  0.01880  0.83541  1.0000
  H   H1072     1.0  0.39447  0.22578  0.91771  1.0000
  H   H1073     1.0  0.39244  0.06846  0.97270  1.0000
  C   C913      1.0  0.39978  0.17015  0.87663  1.0000
  C   C914      1.0  0.38223  0.05689  0.96525  1.0000
  H   H1074     1.0  0.36757  0.10027  0.94849  1.0000
  H   H1075     1.0  0.36775  0.19386  0.86479  1.0000
  C   C915      1.0  0.39446  0.11338  0.71401  1.0000
  H   H1076     1.0  0.44956  0.18469  0.77044  1.0000
  C   C916      1.0  0.59100  0.03856  0.85051  1.0000
  H   H1077     1.0  0.37713  0.24214  0.87028  1.0000
  S   S249      1.0  0.35388  0.15255  0.81368  1.0000
  S   S250      1.0  0.65971  0.08941  0.69669  1.0000
  C   C917      1.0  0.47772  0.02053  0.78669  1.0000
  H   H1078     1.0  0.58191  0.06093  0.78366  1.0000
  H   H1079     1.0  0.45623  0.09882  0.87329  1.0000
  H   H1080     1.0  0.42737  0.21215  0.88527  1.0000
  H   H1081     1.0  0.55912  0.07498  0.97200  1.0000
  H   H1082     1.0  0.45688  0.21053  0.74144  1.0000
  C   C918      1.0  0.37519  0.02807  0.94473  1.0000
  C   C919      1.0  0.38274  0.10615  0.94499  1.0000
  S   S251      1.0  0.40426  0.10029  0.81583  1.0000
  Fe  Fe128     1.0  0.40094  0.11999  0.84620  1.0000
  H   H1083     1.0  0.38067  0.10912  0.90251  1.0000
  N   N60       1.0  0.56424  0.02661  0.53841  1.0000
  S   S252      1.0  0.47301  0.03427  0.94173  1.0000
  H   H1084     1.0  0.34239  0.21125  0.79735  1.0000
  Fe  Fe129     1.0  0.46310  0.02114  0.67588  1.0000
  Fe  Fe130     1.0  0.48973  0.01024  0.71450  1.0000
  C   C920      1.0  0.41441  0.11633  0.96172  1.0000
  C   C921      1.0  0.35527  0.02661  0.94609  1.0000
  C   C922      1.0  0.58566  0.06733  0.85994  1.0000
  H   H1085     1.0  0.57419  0.06082  0.87501  1.0000
  H   H1086     1.0  0.35386  0.02331  0.81705  1.0000
  S   S253      1.0  0.66250  0.02843  0.51466  1.0000
  C   C923      1.0  0.61601  0.03718  0.55850  1.0000
  Fe  Fe131     1.0  0.48591  0.02696  0.90385  1.0000
  C   C924      1.0  0.36282  0.05593  0.96686  1.0000
  H   H1087     1.0  0.43508  0.16701  0.96966  1.0000
  C   C925      1.0  0.53503  0.03728  0.82337  1.0000
  S   S254      1.0  0.64418  0.04632  0.80360  1.0000
  H   H1088     1.0  0.36300  0.04282  0.75932  1.0000
  C   C926      1.0  0.36761  0.03253  0.74899  1.0000
  H   H1089     1.0  0.54448  0.06896  0.63343  1.0000
  H   H1090     1.0  0.43235  0.19172  0.94614  1.0000
  H   H1091     1.0  0.40355  0.04382  0.95291  1.0000
  H   H1092     1.0  0.36026  0.00765  0.90232  1.0000
  S   S255      1.0  0.55498  0.03406  0.91527  1.0000
  N   N61       1.0  0.44917  0.07676  0.90241  1.0000
  C   C927      1.0  0.44679  0.07426  0.93179  1.0000
  C   C928      1.0  0.46498  0.06905  0.89378  1.0000
  H   H1093     1.0  0.43455  0.04850  0.56325  1.0000
  C   C929      1.0  0.43081  0.06850  0.89015  1.0000
  C   C930      1.0  0.41444  0.07466  0.89611  1.0000
  C   C931      1.0  0.42856  0.05443  0.87196  1.0000
  H   H1094     1.0  0.54883  0.01792  0.96894  1.0000
  C   C932      1.0  0.58476  0.03595  0.54002  1.0000
  H   H1095     1.0  0.56009  0.01916  0.58040  1.0000
  H   H1096     1.0  0.44224  0.05973  0.93801  1.0000
  H   H1097     1.0  0.42909  0.18087  0.88593  1.0000
  H   H1098     1.0  0.63421  0.06876  0.61597  1.0000
  H   H1099     1.0  0.47852  0.07533  0.90365  1.0000
  H   H1100     1.0  0.46815  0.07109  0.87195  1.0000
  H   H1101     1.0  0.46162  0.05441  0.89892  1.0000
  C   C933      1.0  0.46030  0.22304  0.52000  1.0000
  H   H1102     1.0  0.37312  0.10051  0.68700  1.0000
  H   H1103     1.0  0.43467  0.18559  0.69962  1.0000
  H   H1104     1.0  0.41062  0.16404  0.93765  1.0000
  H   H1105     1.0  0.44011  0.04869  0.86631  1.0000
  H   H1106     1.0  0.33362  0.03141  0.77786  1.0000
  S   S256      1.0  0.51585  0.02158  0.68779  1.0000
  H   H1107     1.0  0.61950  0.07310  0.51610  1.0000
  N   N62       1.0  0.60828  0.06654  0.63950  1.0000
  C   C934      1.0  0.61867  0.06188  0.61614  1.0000
  C   C935      1.0  0.61360  0.08647  0.64055  1.0000
  C   C936      1.0  0.61505  0.05940  0.66399  1.0000
  C   C937      1.0  0.58750  0.05845  0.63745  1.0000
  C   C938      1.0  0.58018  0.03951  0.63640  1.0000
  C   C939      1.0  0.57403  0.06889  0.63617  1.0000
  H   H1108     1.0  0.49724  0.22981  0.50457  1.0000
  H   H1109     1.0  0.61305  0.06589  0.59722  1.0000
  C   C940      1.0  0.43750  0.02192  0.57348  1.0000
  H   H1110     1.0  0.48895  0.11194  0.98220  1.0000
  H   H1111     1.0  0.60970  0.09291  0.62221  1.0000
  H   H1112     1.0  0.62924  0.09209  0.64263  1.0000
  H   H1113     1.0  0.60664  0.09091  0.65812  1.0000
  H   H1114     1.0  0.61304  0.04462  0.66425  1.0000
  H   H1115     1.0  0.63059  0.06533  0.66619  1.0000
  C   C941      1.0  0.56063  0.03154  0.63437  1.0000
  H   H1116     1.0  0.58952  0.03070  0.63754  1.0000
  C   C942      1.0  0.47248  0.24146  0.55612  1.0000
  S   S257      1.0  0.66130  0.03296  0.95238  1.0000
  H   H1117     1.0  0.46941  0.10284  0.90327  1.0000
  S   S258      1.0  0.49902  0.08381  0.95417  1.0000
  H   H1118     1.0  0.65543  0.02597  0.61770  1.0000
  C   C943      1.0  0.65408  0.05331  0.88204  1.0000
  C   C944      1.0  0.34945  0.04108  0.95740  1.0000
  H   H1119     1.0  0.44511  0.10357  0.90332  1.0000
  H   H1120     1.0  0.62489  0.03109  0.57068  1.0000
  H   H1121     1.0  0.43677  0.21670  0.75537  1.0000
  H   H1122     1.0  0.40145  0.24770  0.90109  1.0000
  H   H1123     1.0  0.59086  0.01629  0.56827  1.0000
  N   N63       1.0  0.39654  0.22536  0.87496  1.0000
  S   S259      1.0  0.51507  0.03949  0.96831  1.0000
  H   H1124     1.0  0.43620  0.08086  0.94025  1.0000
  H   H1125     1.0  0.40470  0.23025  0.83343  1.0000
  Fe  Fe132     1.0  0.37207  0.09209  0.81626  1.0000
  S   S260      1.0  0.36892  0.11091  0.84852  1.0000
  Fe  Fe133     1.0  0.50000  0.05597  0.94420  1.0000
  C   C945      1.0  0.59672  0.02475  0.97669  1.0000
  H   H1126     1.0  0.46569  0.03721  0.81190  1.0000
  H   H1127     1.0  0.59902  0.07152  0.87109  1.0000
  C   C946      1.0  0.45522  0.09631  0.89527  1.0000
  H   H1128     1.0  0.37042  0.16328  0.86597  1.0000
  N   N64       1.0  0.44067  0.07529  0.64295  1.0000
  C   C947      1.0  0.44023  0.09199  0.62790  1.0000
  C   C948      1.0  0.45202  0.06583  0.62656  1.0000
  C   C949      1.0  0.42087  0.06353  0.64609  1.0000
  C   C950      1.0  0.44853  0.07991  0.66939  1.0000
  C   C951      1.0  0.46633  0.07727  0.67710  1.0000
  C   C952      1.0  0.43856  0.08785  0.68810  1.0000
  C   C953      1.0  0.47350  0.08222  0.70201  1.0000
  C   C954      1.0  0.44586  0.09273  0.71296  1.0000
  C   C955      1.0  0.46329  0.08991  0.71990  1.0000
  H   H1129     1.0  0.45479  0.10138  0.62531  1.0000
  H   H1130     1.0  0.43475  0.08913  0.60766  1.0000
  H   H1131     1.0  0.43080  0.09923  0.63787  1.0000
  H   H1132     1.0  0.46674  0.07445  0.62179  1.0000
  H   H1133     1.0  0.44568  0.06245  0.60693  1.0000
  H   H1134     1.0  0.45283  0.05303  0.63672  1.0000
  H   H1135     1.0  0.42026  0.05162  0.65951  1.0000
  H   H1136     1.0  0.41066  0.07064  0.65440  1.0000
  H   H1137     1.0  0.41516  0.05856  0.62669  1.0000
  H   H1138     1.0  0.47514  0.07154  0.66426  1.0000
  H   H1139     1.0  0.42512  0.09057  0.68352  1.0000
  H   H1140     1.0  0.48720  0.08022  0.70734  1.0000
  H   H1141     1.0  0.43805  0.09893  0.72683  1.0000
  H   H1142     1.0  0.46900  0.09384  0.73909  1.0000
  N   N65       1.0  0.58753  0.05516  0.83840  1.0000
  H   H1143     1.0  0.35818  0.06685  0.97554  1.0000
  C   C956      1.0  0.56403  0.02240  0.96432  1.0000
  C   C957      1.0  0.39711  0.06763  0.88413  1.0000
  C   C958      1.0  0.56973  0.05052  0.82350  1.0000
  H   H1144     1.0  0.38070  0.01772  0.93611  1.0000
  C   C959      1.0  0.55204  0.04184  0.83689  1.0000
  H   H1145     1.0  0.55623  0.04062  0.57123  1.0000
  C   C960      1.0  0.55214  0.04967  0.78234  1.0000
  H   H1146     1.0  0.39666  0.04899  0.74743  1.0000
  H   H1147     1.0  0.53895  0.02739  0.51709  1.0000
  C   C961      1.0  0.41569  0.18400  0.88197  1.0000
  C   C962      1.0  0.56927  0.05435  0.79567  1.0000
  H   H1148     1.0  0.44626  0.22633  0.52108  1.0000
  H   H1149     1.0  0.65004  0.04532  0.90037  1.0000
  H   H1150     1.0  0.43879  0.22450  0.94188  1.0000
  C   C963      1.0  0.37719  0.22770  0.87044  1.0000
  Fe  Fe134     1.0  0.52447  0.03150  0.92869  1.0000
  C   C964      1.0  0.40946  0.23543  0.85308  1.0000
  C   C965      1.0  0.39484  0.10880  0.96654  1.0000
  C   C966      1.0  0.38230  0.00732  0.72303  1.0000
  H   H1151     1.0  0.52174  0.03069  0.83413  1.0000
  C   C967      1.0  0.40945  0.18790  0.97662  1.0000
  H   H1152     1.0  0.45910  0.21100  0.53345  1.0000
  N   N66       1.0  0.43020  0.18974  0.74110  1.0000
  C   C968      1.0  0.43755  0.18043  0.71954  1.0000
  C   C969      1.0  0.43399  0.18200  0.76715  1.0000
  C   C970      1.0  0.40937  0.18709  0.73874  1.0000
  C   C971      1.0  0.39677  0.16954  0.74154  1.0000
  C   C972      1.0  0.40095  0.20157  0.73416  1.0000
  C   C973      1.0  0.37698  0.16674  0.74093  1.0000
  C   C974      1.0  0.38113  0.19857  0.73329  1.0000
  C   C975      1.0  0.36917  0.18123  0.73696  1.0000
  C   C976      1.0  0.39547  0.05408  0.86608  1.0000
  H   H1153     1.0  0.40981  0.03689  0.84610  1.0000
  H   H1154     1.0  0.43095  0.16566  0.72080  1.0000
  H   H1155     1.0  0.42829  0.16712  0.76886  1.0000
  H   H1156     1.0  0.42738  0.18766  0.78388  1.0000
  H   H1157     1.0  0.40205  0.15785  0.74512  1.0000
  H   H1158     1.0  0.40926  0.21542  0.73214  1.0000
  H   H1159     1.0  0.36762  0.15330  0.74464  1.0000
  H   H1160     1.0  0.35380  0.17907  0.73766  1.0000
  N   N67       1.0  0.39679  0.17114  0.64217  1.0000
  C   C977      1.0  0.38896  0.16125  0.66759  1.0000
  C   C978      1.0  0.38120  0.17626  0.62810  1.0000
  C   C979      1.0  0.40353  0.15849  0.62524  1.0000
  C   C980      1.0  0.41196  0.18751  0.64758  1.0000
  C   C981      1.0  0.40766  0.20113  0.66302  1.0000
  C   C982      1.0  0.43115  0.19060  0.63769  1.0000
  C   C983      1.0  0.42158  0.21698  0.66771  1.0000
  C   C984      1.0  0.44497  0.20643  0.64266  1.0000
  C   C985      1.0  0.44019  0.21961  0.65752  1.0000
  H   H1161     1.0  0.38194  0.16917  0.68060  1.0000
  H   H1162     1.0  0.37804  0.14843  0.66417  1.0000
  H   H1163     1.0  0.40042  0.15761  0.67898  1.0000
  H   H1164     1.0  0.37386  0.18429  0.64041  1.0000
  H   H1165     1.0  0.36998  0.16423  0.62242  1.0000
  H   H1166     1.0  0.38683  0.18440  0.60942  1.0000
  H   H1167     1.0  0.41508  0.15375  0.63456  1.0000
  H   H1168     1.0  0.39189  0.14620  0.62182  1.0000
  H   H1169     1.0  0.40886  0.16479  0.60531  1.0000
  H   H1170     1.0  0.39339  0.19972  0.67123  1.0000
  H   H1171     1.0  0.43585  0.18116  0.62557  1.0000
  H   H1172     1.0  0.41793  0.22743  0.67898  1.0000
  H   H1173     1.0  0.45943  0.20862  0.63448  1.0000
  C   C986      1.0  0.47276  0.02650  0.81139  1.0000
  S   S261      1.0  0.37081  0.11237  0.78324  1.0000
  C   C987      1.0  0.53507  0.04110  0.79613  1.0000
  H   H1174     1.0  0.61762  0.04726  0.61597  1.0000
  S   S262      1.0  0.36107  0.06150  0.81278  1.0000
  C   C988      1.0  0.56198  0.00767  0.53120  1.0000
  Fe  Fe135     1.0  0.50386  0.04522  0.68273  1.0000
  Fe  Fe136     1.0  0.37127  0.13209  0.81536  1.0000
  H   H1175     1.0  0.37494  0.20988  0.73115  1.0000
  C   C989      1.0  0.34382  0.04504  0.83239  1.0000
  S   S263      1.0  0.38666  0.11191  0.49950  1.0000
  Fe  Fe137     1.0  0.40265  0.12143  0.78485  1.0000
  S   S264      1.0  0.38995  0.10805  0.63450  1.0000
  H   H1176     1.0  0.38210  0.04891  0.85644  1.0000
  H   H1177     1.0  0.49954  0.02599  0.58263  1.0000
  S   S265      1.0  0.47849  0.03452  0.71096  1.0000
  S   S266      1.0  0.48699  0.03528  0.64683  1.0000
  C   C990      1.0  0.55453  0.02666  0.56470  1.0000
  H   H1178     1.0  0.61786  0.06765  0.83333  1.0000
  N   N68       1.0  0.47594  0.23853  0.52756  1.0000
  H   H1179     1.0  0.53901  0.02011  0.56412  1.0000
  C   C991      1.0  0.38757  0.10876  0.68872  1.0000
  C   C992      1.0  0.66158  0.04025  0.61384  1.0000
  C   C993      1.0  0.41453  0.20183  0.88156  1.0000
  C   C994      1.0  0.59358  0.05235  0.52556  1.0000
  H   H1180     1.0  0.47167  0.22919  0.56891  1.0000
  C   C995      1.0  0.64743  0.04605  0.85775  1.0000
  H   H1181     1.0  0.55408  0.04894  0.52360  1.0000
  C   C996      1.0  0.41111  0.04741  0.86018  1.0000
  H   H1182     1.0  0.45867  0.24494  0.55951  1.0000
  H   H1183     1.0  0.60749  0.06253  0.68201  1.0000
  C   C997      1.0  0.49431  0.23363  0.52504  1.0000
  C   C998      1.0  0.35471  0.01609  0.74222  1.0000
  C   C999      1.0  0.40291  0.23369  0.90043  1.0000
  C   C1000     1.0  0.54789  0.04218  0.63283  1.0000
  Fe  Fe138     1.0  0.64253  0.03371  0.48397  1.0000
  S   S267      1.0  0.65805  0.04267  0.66796  1.0000
  H   H1184     1.0  0.59185  0.02877  0.83506  1.0000
  H   H1185     1.0  0.41826  0.23490  0.90351  1.0000
  H   H1186     1.0  0.38659  0.16393  0.94749  1.0000
  C   C1001     1.0  0.39950  0.16000  0.95398  1.0000
  C   C1002     1.0  0.65244  0.05623  0.83371  1.0000
  H   H1187     1.0  0.37200  0.22288  0.85070  1.0000
  S   S268      1.0  0.37750  0.23739  0.78838  1.0000
  H   H1188     1.0  0.60750  0.05562  0.80556  1.0000
  H   H1189     1.0  0.49443  0.22193  0.53859  1.0000
  H   H1190     1.0  0.53274  0.03597  0.63141  1.0000
  C   C1003     1.0  0.61299  0.06081  0.52776  1.0000
  H   H1191     1.0  0.47454  0.02671  0.76847  1.0000
  H   H1192     1.0  0.58225  0.07966  0.85179  1.0000
  C   C1004     1.0  0.49795  0.01481  0.54344  1.0000
  H   H1193     1.0  0.50645  0.24509  0.53005  1.0000
  C   C1005     1.0  0.38842  0.04300  0.95418  1.0000
  H   H1194     1.0  0.45953  0.02383  0.50194  1.0000
  S   S269      1.0  0.61139  0.01871  0.48534  1.0000
  H   H1195     1.0  0.42439  0.23456  0.85497  1.0000
  C   C1006     1.0  0.59656  0.02874  0.55680  1.0000
  H   H1196     1.0  0.55207  0.05270  0.76113  1.0000
  C   C1007     1.0  0.50043  0.01455  0.57132  1.0000
  C   C1008     1.0  0.41679  0.22591  0.97052  1.0000
  S   S270      1.0  0.43282  0.24964  0.78745  1.0000
  C   C1009     1.0  0.42375  0.19815  0.95824  1.0000
  H   H1197     1.0  0.49324  0.06923  0.49469  1.0000
  H   H1198     1.0  0.33468  0.04134  0.95910  1.0000
  H   H1199     1.0  0.40711  0.17449  0.48764  1.0000
  S   S271      1.0  0.65324  0.06380  0.48413  1.0000
  N   N69       1.0  0.34165  0.01089  0.93520  1.0000
  Fe  Fe139     1.0  0.49768  0.01093  0.65336  1.0000
  C   C1010     1.0  0.34616  0.01028  0.90638  1.0000
  H   H1200     1.0  0.33329  0.17857  0.80719  1.0000
  H   H1201     1.0  0.42258  0.00964  0.78911  1.0000
  C   C1011     1.0  0.45143  0.00794  0.53856  1.0000
  H   H1202     1.0  0.44213  0.01069  0.75438  1.0000
  H   H1203     1.0  0.39316  0.01337  0.80987  1.0000
  S   S272      1.0  0.49918  0.00741  0.92542  1.0000
  H   H1204     1.0  0.35357  0.02802  0.49044  1.0000
  H   H1205     1.0  0.41303  0.20760  0.48676  1.0000
  H   H1206     1.0  0.57128  0.00701  0.51351  1.0000
  Fe  Fe140     1.0  0.39800  0.25259  0.54336  1.0000
  C   C1012     1.0  0.48637  0.00634  0.78573  1.0000
  C   C1013     1.0  0.45674  0.08825  0.48377  1.0000
  H   H1207     1.0  0.33138  0.03913  0.74416  1.0000
  H   H1208     1.0  0.44574  0.00568  0.61956  1.0000
  H   H1209     1.0  0.48408  0.25238  0.56385  1.0000
  C   C1014     1.0  0.36277  0.00341  0.72965  1.0000
  Fe  Fe141     1.0  0.44057  0.27335  0.31471  1.0000
  S   S273      1.0  0.41282  0.28052  0.31082  1.0000
  S   S274      1.0  0.44690  0.26273  0.35542  1.0000
  Fe  Fe142     1.0  0.44629  0.27395  0.25312  1.0000
  S   S275      1.0  0.41828  0.27997  0.24659  1.0000
  S   S276      1.0  0.46576  0.27149  0.21818  1.0000
  Fe  Fe143     1.0  0.42778  0.30031  0.27793  1.0000
  S   S277      1.0  0.42428  0.32878  0.27102  1.0000
  Fe  Fe144     1.0  0.40718  0.25934  0.28025  1.0000
  S   S278      1.0  0.45620  0.29467  0.28385  1.0000
  C   C1015     1.0  0.52580  0.50145  0.06427  1.0000
  Fe  Fe145     1.0  0.43933  0.28249  0.06679  1.0000
  S   S279      1.0  0.40994  0.27097  0.08462  1.0000
  S   S280      1.0  0.46439  0.28973  0.09386  1.0000
  Fe  Fe146     1.0  0.42537  0.28131  0.00863  1.0000
  S   S281      1.0  0.39514  0.26912  0.02349  1.0000
  H   H1210     1.0  0.43286  0.28001  0.13532  1.0000
  Fe  Fe147     1.0  0.40126  0.28939  0.05496  1.0000
  S   S282      1.0  0.38368  0.30918  0.05906  1.0000
  C   C1016     1.0  0.42097  0.32368  0.12148  1.0000
  S   S283      1.0  0.43095  0.30246  0.03933  1.0000
  S   S284      1.0  0.43727  0.26258  0.03437  1.0000
  C   C1017     1.0  0.37429  0.34235  0.25302  1.0000
  C   C1018     1.0  0.42017  0.44386  0.33603  1.0000
  H   H1211     1.0  0.43004  0.43563  0.33040  1.0000
  H   H1212     1.0  0.42599  0.45774  0.32717  1.0000
  S   S285      1.0  0.36981  0.42478  0.40430  1.0000
  S   S286      1.0  0.34389  0.37520  0.41396  1.0000
  Fe  Fe148     1.0  0.49450  0.42774  0.24306  1.0000
  S   S287      1.0  0.46682  0.43537  0.24341  1.0000
  S   S288      1.0  0.49473  0.39842  0.25061  1.0000
  Fe  Fe149     1.0  0.51830  0.46802  0.23749  1.0000
  S   S289      1.0  0.49180  0.47753  0.23802  1.0000
  S   S290      1.0  0.54770  0.48824  0.23448  1.0000
  Fe  Fe150     1.0  0.48129  0.45656  0.27106  1.0000
  S   S291      1.0  0.46657  0.46179  0.30913  1.0000
  Fe  Fe151     1.0  0.48085  0.45521  0.21012  1.0000
  S   S292      1.0  0.46669  0.46173  0.17289  1.0000
  S   S293      1.0  0.50848  0.44822  0.27218  1.0000
  S   S294      1.0  0.50793  0.44647  0.20801  1.0000
  Fe  Fe152     1.0  0.48742  0.45562  0.01990  1.0000
  S   S295      1.0  0.48971  0.43979  0.05801  1.0000
  Fe  Fe153     1.0  0.49178  0.46135  0.45716  1.0000
  S   S296      1.0  0.50112  0.44939  0.42039  1.0000
  H   H1213     1.0  0.37818  0.41146  0.33877  1.0000
  H   H1214     1.0  0.39312  0.36524  0.30751  1.0000
  H   H1215     1.0  0.52471  0.48737  0.41335  1.0000
  C   C1019     1.0  0.39905  0.43386  0.29857  1.0000
  C   C1020     1.0  0.47325  0.45551  0.14111  1.0000
  C   C1021     1.0  0.48367  0.44275  0.13823  1.0000
  C   C1022     1.0  0.48855  0.43805  0.11267  1.0000
  C   C1023     1.0  0.48331  0.44621  0.08975  1.0000
  C   C1024     1.0  0.47300  0.45905  0.09265  1.0000
  C   C1025     1.0  0.46791  0.46358  0.11821  1.0000
  H   H1216     1.0  0.48772  0.43629  0.15566  1.0000
  H   H1217     1.0  0.49646  0.42805  0.11063  1.0000
  H   H1218     1.0  0.46882  0.46541  0.07526  1.0000
  H   H1219     1.0  0.45988  0.47349  0.12024  1.0000
  C   C1026     1.0  0.47663  0.45890  0.33996  1.0000
  C   C1027     1.0  0.49179  0.45095  0.34170  1.0000
  C   C1028     1.0  0.49922  0.44826  0.36645  1.0000
  C   C1029     1.0  0.49155  0.45346  0.38978  1.0000
  C   C1030     1.0  0.47631  0.46135  0.38817  1.0000
  C   C1031     1.0  0.46888  0.46406  0.36332  1.0000
  H   H1220     1.0  0.49759  0.44646  0.32418  1.0000
  H   H1221     1.0  0.51089  0.44201  0.36759  1.0000
  H   H1222     1.0  0.47010  0.46519  0.40606  1.0000
  H   H1223     1.0  0.45712  0.47019  0.36228  1.0000
  C   C1032     1.0  0.38554  0.43409  0.42950  1.0000
  C   C1033     1.0  0.37931  0.43389  0.45611  1.0000
  H   H1224     1.0  0.33828  0.32146  0.25529  1.0000
  C   C1034     1.0  0.41113  0.45146  0.46766  1.0000
  S   S297      1.0  0.34330  0.31635  0.16925  1.0000
  C   C1035     1.0  0.40469  0.44267  0.42226  1.0000
  H   H1225     1.0  0.36456  0.42748  0.46193  1.0000
  H   H1226     1.0  0.51561  0.48812  0.18457  1.0000
  H   H1227     1.0  0.40010  0.42288  0.01774  1.0000
  H   H1228     1.0  0.40958  0.44307  0.40178  1.0000
  C   C1036     1.0  0.40042  0.42884  0.03761  1.0000
  S   S298      1.0  0.47597  0.47981  0.02021  1.0000
  H   H1229     1.0  0.43558  0.42731  0.02226  1.0000
  C   C1037     1.0  0.41346  0.43058  0.08131  1.0000
  C   C1038     1.0  0.34698  0.32040  0.23714  1.0000
  C   C1039     1.0  0.52538  0.48417  0.10543  1.0000
  H   H1230     1.0  0.55047  0.48856  0.17649  1.0000
  C   C1040     1.0  0.42416  0.39401  0.05140  1.0000
  S   S299      1.0  0.51235  0.46850  0.99168  1.0000
  C   C1041     1.0  0.36300  0.32401  0.09285  1.0000
  C   C1042     1.0  0.37235  0.31046  0.08984  1.0000
  C   C1043     1.0  0.37290  0.29868  0.11138  1.0000
  C   C1044     1.0  0.36397  0.30047  0.13592  1.0000
  H   H1231     1.0  0.40055  0.32894  0.14961  1.0000
  H   H1232     1.0  0.36238  0.33303  0.07620  1.0000
  H   H1233     1.0  0.38007  0.28817  0.10910  1.0000
  H   H1234     1.0  0.48681  0.34072  0.16210  1.0000
  C   C1045     1.0  0.44394  0.34808  0.26537  1.0000
  C   C1046     1.0  0.46278  0.34721  0.26807  1.0000
  C   C1047     1.0  0.47807  0.36272  0.26337  1.0000
  C   C1048     1.0  0.47478  0.37936  0.25601  1.0000
  C   C1049     1.0  0.45591  0.38030  0.25341  1.0000
  C   C1050     1.0  0.44059  0.36473  0.25805  1.0000
  H   H1235     1.0  0.46565  0.33460  0.27391  1.0000
  H   H1236     1.0  0.49257  0.36183  0.26554  1.0000
  H   H1237     1.0  0.45313  0.39296  0.24759  1.0000
  H   H1238     1.0  0.42609  0.36558  0.25580  1.0000
  C   C1051     1.0  0.44133  0.27138  0.38595  1.0000
  C   C1052     1.0  0.33322  0.38020  0.26075  1.0000
  C   C1053     1.0  0.43764  0.26820  0.43458  1.0000
  C   C1054     1.0  0.43408  0.28513  0.43552  1.0000
  C   C1055     1.0  0.43370  0.29490  0.41154  1.0000
  C   C1056     1.0  0.43706  0.28798  0.38686  1.0000
  C   C1057     1.0  0.41969  0.37524  0.05457  1.0000
  C   C1058     1.0  0.36895  0.33367  0.01010  1.0000
  H   H1239     1.0  0.43102  0.30803  0.41208  1.0000
  H   H1240     1.0  0.43696  0.29578  0.36861  1.0000
  C   C1059     1.0  0.46399  0.27736  0.18414  1.0000
  C   C1060     1.0  0.48084  0.28179  0.16826  1.0000
  C   C1061     1.0  0.48057  0.28602  0.14101  1.0000
  C   C1062     1.0  0.46334  0.28513  0.12876  1.0000
  C   C1063     1.0  0.44628  0.28060  0.14447  1.0000
  C   C1064     1.0  0.44663  0.27696  0.17222  1.0000
  H   H1241     1.0  0.49431  0.28207  0.17713  1.0000
  H   H1242     1.0  0.49383  0.28954  0.12918  1.0000
  H   H1243     1.0  0.43051  0.36824  0.05038  1.0000
  C   C1065     1.0  0.45246  0.32554  0.13759  1.0000
  C   C1066     1.0  0.37300  0.35758  0.23725  1.0000
  H   H1244     1.0  0.34422  0.32989  0.22165  1.0000
  H   H1245     1.0  0.36722  0.35616  0.21765  1.0000
  H   H1246     1.0  0.47852  0.31719  0.17259  1.0000
  H   H1247     1.0  0.37288  0.44116  0.33424  1.0000
  C   C1067     1.0  0.37943  0.42429  0.26006  1.0000
  C   C1068     1.0  0.40144  0.36546  0.06343  1.0000
  H   H1248     1.0  0.44400  0.31877  0.09778  1.0000
  H   H1249     1.0  0.38485  0.31099  0.26625  1.0000
  C   C1069     1.0  0.53066  0.50002  0.12006  1.0000
  H   H1250     1.0  0.38392  0.33503  0.29180  1.0000
  H   H1251     1.0  0.38999  0.39114  0.27924  1.0000
  C   C1070     1.0  0.38587  0.37769  0.27193  1.0000
  C   C1071     1.0  0.42791  0.33122  0.16705  1.0000
  H   H1252     1.0  0.38062  0.39937  0.07135  1.0000
  C   C1072     1.0  0.47872  0.26796  0.46444  1.0000
  H   H1253     1.0  0.39403  0.42850  0.22162  1.0000
  H   H1254     1.0  0.37706  0.38626  0.23442  1.0000
  H   H1255     1.0  0.53327  0.47947  0.36951  1.0000
  H   H1256     1.0  0.43638  0.44706  0.04003  1.0000
  H   H1257     1.0  0.46779  0.36201  0.17642  1.0000
  H   H1258     1.0  0.36826  0.42164  0.29998  1.0000
  H   H1259     1.0  0.38886  0.31136  0.99442  1.0000
  H   H1260     1.0  0.41110  0.32120  0.10545  1.0000
  H   H1261     1.0  0.36559  0.41850  0.25197  1.0000
  H   H1262     1.0  0.52272  0.47097  0.11514  1.0000
  C   C1073     1.0  0.41325  0.43749  0.25304  1.0000
  N   N70       1.0  0.45853  0.39428  0.33660  1.0000
  C   C1074     1.0  0.47749  0.39701  0.34855  1.0000
  C   C1075     1.0  0.45350  0.37594  0.32605  1.0000
  C   C1076     1.0  0.46031  0.40738  0.31379  1.0000
  C   C1077     1.0  0.44428  0.39713  0.35654  1.0000
  C   C1078     1.0  0.44806  0.41314  0.37085  1.0000
  C   C1079     1.0  0.42632  0.38443  0.36217  1.0000
  C   C1080     1.0  0.43514  0.41598  0.39030  1.0000
  C   C1081     1.0  0.41340  0.38747  0.38155  1.0000
  C   C1082     1.0  0.41788  0.40313  0.39575  1.0000
  H   H1263     1.0  0.47652  0.38831  0.36695  1.0000
  H   H1264     1.0  0.48822  0.39386  0.33451  1.0000
  H   H1265     1.0  0.48373  0.41112  0.35390  1.0000
  H   H1266     1.0  0.45165  0.36538  0.34229  1.0000
  H   H1267     1.0  0.46490  0.37397  0.31211  1.0000
  H   H1268     1.0  0.44031  0.37333  0.31447  1.0000
  H   H1269     1.0  0.46474  0.42152  0.31997  1.0000
  H   H1270     1.0  0.47123  0.40592  0.29855  1.0000
  H   H1271     1.0  0.44655  0.40557  0.30372  1.0000
  H   H1272     1.0  0.46118  0.42356  0.36739  1.0000
  H   H1273     1.0  0.42200  0.37194  0.35216  1.0000
  H   H1274     1.0  0.43868  0.42816  0.40144  1.0000
  H   H1275     1.0  0.39987  0.37756  0.38584  1.0000
  H   H1276     1.0  0.40789  0.40536  0.41092  1.0000
  C   C1083     1.0  0.53055  0.49250  0.37110  1.0000
  C   C1084     1.0  0.39645  0.32594  0.99189  1.0000
  H   H1277     1.0  0.43346  0.27337  0.18419  1.0000
  H   H1278     1.0  0.40424  0.32935  0.01053  1.0000
  C   C1085     1.0  0.38113  0.42619  0.28749  1.0000
  H   H1279     1.0  0.37391  0.30917  0.20980  1.0000
  C   C1086     1.0  0.44149  0.26147  0.40990  1.0000
  H   H1280     1.0  0.47375  0.35583  0.20909  1.0000
  H   H1281     1.0  0.34737  0.33658  0.11950  1.0000
  H   H1282     1.0  0.41690  0.44555  0.08041  1.0000
  H   H1283     1.0  0.42566  0.44206  0.23953  1.0000
  C   C1087     1.0  0.38754  0.37440  0.06914  1.0000
  C   C1088     1.0  0.39360  0.41775  0.34149  1.0000
  H   H1284     1.0  0.40179  0.40839  0.33435  1.0000
  H   H1285     1.0  0.37645  0.33225  0.20186  1.0000
  H   H1286     1.0  0.42083  0.44508  0.35793  1.0000
  H   H1287     1.0  0.39240  0.46067  0.32631  1.0000
  H   H1288     1.0  0.44954  0.35458  0.20229  1.0000
  H   H1289     1.0  0.42935  0.44567  0.28677  1.0000
  N   N71       1.0  0.46026  0.33349  0.18549  1.0000
  H   H1290     1.0  0.48900  0.33355  0.19571  1.0000
  H   H1291     1.0  0.42281  0.33470  0.18599  1.0000
  C   C1089     1.0  0.39200  0.44276  0.47502  1.0000
  C   C1090     1.0  0.38758  0.36310  0.28781  1.0000
  C   C1091     1.0  0.35461  0.31407  0.13883  1.0000
  H   H1292     1.0  0.43881  0.32316  0.21712  1.0000
  C   C1092     1.0  0.37869  0.37494  0.24664  1.0000
  C   C1093     1.0  0.33580  0.37714  0.06261  1.0000
  S   S300      1.0  0.47929  0.48497  0.45417  1.0000
  N   N72       1.0  0.40043  0.43571  0.32769  1.0000
  H   H1293     1.0  0.54737  0.50020  0.99241  1.0000
  C   C1094     1.0  0.41511  0.32806  0.14640  1.0000
  C   C1095     1.0  0.51474  0.48853  0.16252  1.0000
  H   H1294     1.0  0.44917  0.30676  0.20289  1.0000
  H   H1295     1.0  0.36420  0.29126  0.15251  1.0000
  H   H1296     1.0  0.39408  0.32581  0.22153  1.0000
  C   C1096     1.0  0.43956  0.32242  0.11712  1.0000
  H   H1297     1.0  0.43216  0.45781  0.43533  1.0000
  H   H1298     1.0  0.46655  0.32411  0.13269  1.0000
  N   N73       1.0  0.53644  0.50033  0.32133  1.0000
  H   H1299     1.0  0.46232  0.32260  0.22513  1.0000
  N   N74       1.0  0.41455  0.42342  0.05453  1.0000
  C   C1097     1.0  0.36962  0.30953  0.26176  1.0000
  C   C1098     1.0  0.39545  0.42990  0.24289  1.0000
  C   C1099     1.0  0.38200  0.34567  0.27857  1.0000
  C   C1100     1.0  0.35434  0.32594  0.11735  1.0000
  H   H1300     1.0  0.42379  0.42665  0.09467  1.0000
  H   H1301     1.0  0.33438  0.32273  0.47821  1.0000
  H   H1302     1.0  0.39710  0.26104  0.40918  1.0000
  C   C1101     1.0  0.43383  0.43218  0.04247  1.0000
  C   C1102     1.0  0.46290  0.35225  0.19364  1.0000
  C   C1103     1.0  0.54220  0.48325  0.31989  1.0000
  H   H1303     1.0  0.39898  0.42555  0.09104  1.0000
  Fe  Fe154     1.0  0.49987  0.49211  0.98999  1.0000
  H   H1304     1.0  0.43866  0.40073  0.04481  1.0000
  H   H1305     1.0  0.43796  0.26058  0.45292  1.0000
  H   H1306     1.0  0.51046  0.47430  0.15679  1.0000
  S   S301      1.0  0.33925  0.38817  0.09299  1.0000
  H   H1307     1.0  0.39813  0.35094  0.06615  1.0000
  C   C1104     1.0  0.41027  0.40354  0.05697  1.0000
  C   C1105     1.0  0.37852  0.32282  0.21798  1.0000
  H   H1308     1.0  0.38570  0.42475  0.04662  1.0000
  C   C1106     1.0  0.47946  0.33114  0.17853  1.0000
  Fe  Fe155     1.0  0.34140  0.40362  0.41145  1.0000
  C   C1107     1.0  0.44698  0.32997  0.16333  1.0000
  H   H1309     1.0  0.36435  0.29599  0.25344  1.0000
  C   C1108     1.0  0.39185  0.39313  0.06610  1.0000
  H   H1310     1.0  0.44545  0.42997  0.05505  1.0000
  H   H1311     1.0  0.37579  0.33906  0.02861  1.0000
  N   N75       1.0  0.36754  0.32406  0.24286  1.0000
  S   S302      1.0  0.46919  0.44249  0.98703  1.0000
  C   C1109     1.0  0.41752  0.45105  0.44127  1.0000
  H   H1312     1.0  0.40392  0.44372  0.03410  1.0000
  C   C1110     1.0  0.45226  0.32101  0.20858  1.0000
  C   C1111     1.0  0.38832  0.44726  0.33702  1.0000
  S   S303      1.0  0.43107  0.29520  0.46594  1.0000
  H   H1313     1.0  0.50282  0.49449  0.15744  1.0000
  H   H1314     1.0  0.36130  0.30934  0.28074  1.0000
  H   H1315     1.0  0.39506  0.41863  0.36338  1.0000
  H   H1316     1.0  0.52255  0.49473  0.28410  1.0000
  H   H1317     1.0  0.36233  0.31901  0.01399  1.0000
  S   S304      1.0  0.34925  0.36733  0.16253  1.0000
  C   C1112     1.0  0.41514  0.43949  0.28044  1.0000
  H   H1318     1.0  0.38959  0.44950  0.35876  1.0000
  H   H1319     1.0  0.47987  0.26680  0.44307  1.0000
  H   H1320     1.0  0.35698  0.33981  0.00683  1.0000
  C   C1113     1.0  0.52313  0.48495  0.07796  1.0000
  C   C1114     1.0  0.52564  0.49689  0.39663  1.0000
  H   H1321     1.0  0.37336  0.36684  0.07632  1.0000
  H   H1322     1.0  0.51903  0.47264  0.06723  1.0000
  H   H1323     1.0  0.54363  0.47500  0.14877  1.0000
  H   H1324     1.0  0.47614  0.29512  0.46107  1.0000
  H   H1325     1.0  0.55480  0.48352  0.33205  1.0000
  Fe  Fe156     1.0  0.45884  0.46733  0.98580  1.0000
  C   C1115     1.0  0.33765  0.38738  0.03862  1.0000
  N   N76       1.0  0.38301  0.33723  0.98728  1.0000
  H   H1326     1.0  0.39611  0.25888  0.45729  1.0000
  H   H1327     1.0  0.53030  0.47145  0.32659  1.0000
  H   H1328     1.0  0.50699  0.48839  0.31323  1.0000
  S   S305      1.0  0.42663  0.46256  0.98669  1.0000
  C   C1116     1.0  0.47679  0.28401  0.47451  1.0000
  H   H1329     1.0  0.38610  0.44777  0.98399  1.0000
  C   C1117     1.0  0.39246  0.35676  0.98448  1.0000
  N   N77       1.0  0.53303  0.49877  0.14915  1.0000
  C   C1118     1.0  0.51968  0.49872  0.30456  1.0000
  C   C1119     1.0  0.33106  0.35839  0.06196  1.0000
  C   C1120     1.0  0.54782  0.48918  0.15481  1.0000
  C   C1121     1.0  0.33181  0.38319  0.30880  1.0000
  H   H1330     1.0  0.54620  0.48069  0.29907  1.0000
  H   H1331     1.0  0.34139  0.40190  0.03892  1.0000
  H   H1332     1.0  0.34133  0.30674  0.22936  1.0000
  H   H1333     1.0  0.40278  0.25954  0.36543  1.0000
  H   H1334     1.0  0.52373  0.50193  0.04302  1.0000
  H   H1335     1.0  0.33241  0.39161  0.32556  1.0000
  H   H1336     1.0  0.37771  0.25866  0.37052  1.0000
  H   H1337     1.0  0.33578  0.40523  0.27987  1.0000
  S   S306      1.0  0.33626  0.39049  0.22843  1.0000
  H   H1338     1.0  0.56165  0.49599  0.14424  1.0000
  H   H1339     1.0  0.42214  0.35555  0.98876  1.0000
  H   H1340     1.0  0.33579  0.38699  0.99592  1.0000
  C   C1122     1.0  0.33438  0.37894  0.01421  1.0000
  C   C1123     1.0  0.33387  0.39091  0.28282  1.0000
  H   H1341     1.0  0.43629  0.38774  0.98374  1.0000
  C   C1124     1.0  0.41256  0.36397  0.98569  1.0000
  C   C1125     1.0  0.47868  0.25336  0.48172  1.0000
  C   C1126     1.0  0.42093  0.38252  0.98284  1.0000
  H   H1342     1.0  0.36643  0.31846  0.48192  1.0000
  Fe  Fe157     1.0  0.44181  0.27311  0.81391  1.0000
  S   S307      1.0  0.41429  0.28100  0.81184  1.0000
  S   S308      1.0  0.45361  0.26711  0.85367  1.0000
  Fe  Fe158     1.0  0.44373  0.26922  0.75283  1.0000
  S   S309      1.0  0.41626  0.27651  0.74769  1.0000
  H   H1343     1.0  0.36522  0.33397  0.53609  1.0000
  Fe  Fe159     1.0  0.42815  0.29851  0.77590  1.0000
  S   S310      1.0  0.42529  0.32698  0.76623  1.0000
  Fe  Fe160     1.0  0.40605  0.25822  0.78404  1.0000
  S   S311      1.0  0.45635  0.29190  0.77954  1.0000
  H   H1344     1.0  0.45308  0.43328  0.55476  1.0000
  Fe  Fe161     1.0  0.43326  0.27559  0.56620  1.0000
  S   S312      1.0  0.40277  0.26758  0.58116  1.0000
  S   S313      1.0  0.45791  0.27542  0.59273  1.0000
  Fe  Fe162     1.0  0.42306  0.28287  0.50787  1.0000
  S   S314      1.0  0.39180  0.27517  0.51914  1.0000
  H   H1345     1.0  0.44426  0.40975  0.55994  1.0000
  Fe  Fe163     1.0  0.39997  0.29112  0.55547  1.0000
  S   S315      1.0  0.38680  0.31365  0.56513  1.0000
  H   H1346     1.0  0.43021  0.43972  0.84021  1.0000
  S   S316      1.0  0.43098  0.30028  0.54298  1.0000
  H   H1347     1.0  0.39114  0.36437  0.57968  1.0000
  H   H1348     1.0  0.33206  0.32614  0.72982  1.0000
  H   H1349     1.0  0.38688  0.44313  0.49534  1.0000
  H   H1350     1.0  0.43384  0.43079  0.51315  1.0000
  H   H1351     1.0  0.50478  0.49442  0.61138  1.0000
  S   S317      1.0  0.37620  0.41527  0.90097  1.0000
  S   S318      1.0  0.34783  0.36752  0.91266  1.0000
  Fe  Fe164     1.0  0.49578  0.42708  0.74352  1.0000
  S   S319      1.0  0.46848  0.43538  0.74380  1.0000
  S   S320      1.0  0.49544  0.39763  0.75227  1.0000
  Fe  Fe165     1.0  0.52034  0.46730  0.73810  1.0000
  S   S321      1.0  0.49409  0.47728  0.73875  1.0000
  S   S322      1.0  0.55009  0.48714  0.73665  1.0000
  Fe  Fe166     1.0  0.48311  0.45632  0.77179  1.0000
  S   S323      1.0  0.46852  0.46118  0.81052  1.0000
  Fe  Fe167     1.0  0.48293  0.45516  0.71053  1.0000
  S   S324      1.0  0.46844  0.46140  0.67326  1.0000
  S   S325      1.0  0.51000  0.44742  0.77266  1.0000
  S   S326      1.0  0.50969  0.44580  0.70863  1.0000
  Fe  Fe168     1.0  0.48959  0.46011  0.51856  1.0000
  S   S327      1.0  0.49642  0.44698  0.55670  1.0000
  Fe  Fe169     1.0  0.49251  0.45828  0.95876  1.0000
  S   S328      1.0  0.50247  0.44698  0.92178  1.0000
  H   H1352     1.0  0.33499  0.26774  0.72142  1.0000
  H   H1353     1.0  0.40845  0.42594  0.82776  1.0000
  C   C1127     1.0  0.35656  0.27145  0.75054  1.0000
  C   C1128     1.0  0.42113  0.44255  0.55614  1.0000
  C   C1129     1.0  0.47633  0.45728  0.64095  1.0000
  C   C1130     1.0  0.46859  0.46368  0.61853  1.0000
  C   C1131     1.0  0.47469  0.46079  0.59259  1.0000
  C   C1132     1.0  0.48851  0.45133  0.58884  1.0000
  C   C1133     1.0  0.49618  0.44490  0.61122  1.0000
  C   C1134     1.0  0.49019  0.44790  0.63712  1.0000
  H   H1354     1.0  0.45786  0.47096  0.62130  1.0000
  H   H1355     1.0  0.46859  0.46578  0.57558  1.0000
  H   H1356     1.0  0.50683  0.43753  0.60854  1.0000
  H   H1357     1.0  0.49621  0.44281  0.65409  1.0000
  C   C1135     1.0  0.47792  0.45698  0.84147  1.0000
  C   C1136     1.0  0.49441  0.45093  0.84281  1.0000
  C   C1137     1.0  0.50180  0.44797  0.86751  1.0000
  C   C1138     1.0  0.49274  0.45095  0.89122  1.0000
  C   C1139     1.0  0.47604  0.45672  0.89005  1.0000
  C   C1140     1.0  0.46869  0.45971  0.86526  1.0000
  H   H1358     1.0  0.50150  0.44841  0.82495  1.0000
  H   H1359     1.0  0.51464  0.44339  0.86829  1.0000
  H   H1360     1.0  0.46877  0.45883  0.90824  1.0000
  H   H1361     1.0  0.45584  0.46417  0.86468  1.0000
  C   C1141     1.0  0.39001  0.42618  0.92700  1.0000
  C   C1142     1.0  0.41006  0.43078  0.92417  1.0000
  C   C1143     1.0  0.42144  0.44145  0.94277  1.0000
  C   C1144     1.0  0.41287  0.44782  0.96424  1.0000
  C   C1145     1.0  0.37117  0.30225  0.76124  1.0000
  C   C1146     1.0  0.38147  0.43193  0.94908  1.0000
  H   H1362     1.0  0.41690  0.42653  0.90717  1.0000
  H   H1363     1.0  0.43684  0.44524  0.94002  1.0000
  C   C1147     1.0  0.38979  0.41433  0.57764  1.0000
  H   H1364     1.0  0.33974  0.26299  0.57054  1.0000
  H   H1365     1.0  0.48720  0.26603  0.67577  1.0000
  C   C1148     1.0  0.35940  0.30877  0.74355  1.0000
  C   C1149     1.0  0.51432  0.49680  0.85889  1.0000
  H   H1366     1.0  0.55590  0.48738  0.56095  1.0000
  C   C1150     1.0  0.34696  0.33282  0.72264  1.0000
  H   H1367     1.0  0.36610  0.36480  0.97911  1.0000
  C   C1151     1.0  0.53526  0.49777  0.60127  1.0000
  C   C1152     1.0  0.34419  0.30813  0.63553  1.0000
  C   C1153     1.0  0.34818  0.32320  0.61802  1.0000
  C   C1154     1.0  0.36160  0.32487  0.59689  1.0000
  C   C1155     1.0  0.37089  0.31136  0.59283  1.0000
  C   C1156     1.0  0.36714  0.29635  0.61054  1.0000
  C   C1157     1.0  0.35385  0.29479  0.63198  1.0000
  C   C1158     1.0  0.40626  0.41008  0.56666  1.0000
  H   H1368     1.0  0.36442  0.33651  0.58336  1.0000
  H   H1369     1.0  0.37425  0.28587  0.60753  1.0000
  H   H1370     1.0  0.36097  0.33769  0.95940  1.0000
  C   C1159     1.0  0.44492  0.34653  0.76252  1.0000
  C   C1160     1.0  0.44169  0.36304  0.75411  1.0000
  C   C1161     1.0  0.45693  0.37878  0.75064  1.0000
  C   C1162     1.0  0.47563  0.37822  0.75569  1.0000
  C   C1163     1.0  0.47881  0.36170  0.76408  1.0000
  C   C1164     1.0  0.46360  0.34598  0.76748  1.0000
  H   H1371     1.0  0.42733  0.36366  0.75007  1.0000
  H   H1372     1.0  0.45424  0.39132  0.74392  1.0000
  H   H1373     1.0  0.49319  0.36108  0.76811  1.0000
  H   H1374     1.0  0.46637  0.33346  0.77412  1.0000
  C   C1165     1.0  0.44504  0.27292  0.88465  1.0000
  C   C1166     1.0  0.43280  0.28416  0.88594  1.0000
  C   C1167     1.0  0.42690  0.28916  0.91078  1.0000
  C   C1168     1.0  0.43289  0.28281  0.93465  1.0000
  C   C1169     1.0  0.44464  0.27108  0.93344  1.0000
  C   C1170     1.0  0.45079  0.26627  0.90852  1.0000
  H   H1375     1.0  0.42837  0.28950  0.86782  1.0000
  H   H1376     1.0  0.41790  0.29832  0.91147  1.0000
  H   H1377     1.0  0.44963  0.26633  0.95162  1.0000
  H   H1378     1.0  0.43381  0.45252  0.54666  1.0000
  C   C1171     1.0  0.45798  0.26619  0.68369  1.0000
  C   C1172     1.0  0.47415  0.26742  0.66719  1.0000
  H   H1379     1.0  0.56643  0.49239  0.64910  1.0000
  C   C1173     1.0  0.45691  0.27174  0.62783  1.0000
  C   C1174     1.0  0.44049  0.27040  0.64417  1.0000
  C   C1175     1.0  0.44109  0.26784  0.67216  1.0000
  H   H1380     1.0  0.37293  0.30881  0.51180  1.0000
  C   C1176     1.0  0.55320  0.49330  0.64047  1.0000
  H   H1381     1.0  0.42744  0.27148  0.63531  1.0000
  H   H1382     1.0  0.41619  0.47687  0.91860  1.0000
  N   N78       1.0  0.46193  0.32384  0.68802  1.0000
  C   C1177     1.0  0.46527  0.34286  0.69532  1.0000
  C   C1178     1.0  0.45490  0.31204  0.71208  1.0000
  C   C1179     1.0  0.48066  0.32097  0.67959  1.0000
  C   C1180     1.0  0.44756  0.31995  0.66725  1.0000
  C   C1181     1.0  0.45180  0.31516  0.64117  1.0000
  C   C1182     1.0  0.42868  0.32133  0.67266  1.0000
  C   C1183     1.0  0.43796  0.31191  0.62192  1.0000
  C   C1184     1.0  0.41493  0.31795  0.65325  1.0000
  C   C1185     1.0  0.41960  0.31328  0.62793  1.0000
  H   H1383     1.0  0.46988  0.35220  0.67758  1.0000
  H   H1384     1.0  0.45226  0.34566  0.70435  1.0000
  H   H1385     1.0  0.47653  0.34656  0.71022  1.0000
  H   H1386     1.0  0.44175  0.31435  0.72129  1.0000
  H   H1387     1.0  0.46560  0.31432  0.72784  1.0000
  H   H1388     1.0  0.45165  0.29761  0.70731  1.0000
  H   H1389     1.0  0.48742  0.33014  0.66241  1.0000
  H   H1390     1.0  0.49100  0.32364  0.69582  1.0000
  H   H1391     1.0  0.47912  0.30679  0.67415  1.0000
  H   H1392     1.0  0.46560  0.31352  0.63509  1.0000
  H   H1393     1.0  0.42445  0.32506  0.69197  1.0000
  H   H1394     1.0  0.44147  0.30804  0.60227  1.0000
  H   H1395     1.0  0.40055  0.31894  0.65775  1.0000
  H   H1396     1.0  0.40897  0.31070  0.61288  1.0000
  S   S329      1.0  0.51283  0.47292  0.48796  1.0000
  H   H1397     1.0  0.35077  0.28309  0.64549  1.0000
  H   H1398     1.0  0.43764  0.48553  0.82347  1.0000
  C   C1186     1.0  0.47368  0.27036  0.63965  1.0000
  C   C1187     1.0  0.51016  0.49677  0.88622  1.0000
  C   C1188     1.0  0.37492  0.38299  0.58979  1.0000
  C   C1189     1.0  0.33789  0.30249  0.53833  1.0000
  H   H1399     1.0  0.56563  0.49903  0.60124  1.0000
  N   N79       1.0  0.53496  0.50158  0.57223  1.0000
  S   S330      1.0  0.42631  0.46346  0.49157  1.0000
  C   C1190     1.0  0.44084  0.42263  0.56394  1.0000
  C   C1191     1.0  0.47538  0.28569  0.50188  1.0000
  S   S331      1.0  0.47025  0.44559  0.48782  1.0000
  H   H1400     1.0  0.41042  0.47097  0.79914  1.0000
  S   S332      1.0  0.42607  0.29087  0.96505  1.0000
  H   H1401     1.0  0.38266  0.33439  0.94492  1.0000
  H   H1402     1.0  0.41798  0.38729  0.55904  1.0000
  H   H1403     1.0  0.38021  0.43953  0.82181  1.0000
  H   H1404     1.0  0.42842  0.26674  0.68464  1.0000
  H   H1405     1.0  0.37847  0.27912  0.77872  1.0000
  H   H1406     1.0  0.42952  0.46000  0.80153  1.0000
  H   H1407     1.0  0.48644  0.27139  0.62735  1.0000
  C   C1192     1.0  0.41167  0.46600  0.87969  1.0000
  H   H1408     1.0  0.50965  0.48338  0.80742  1.0000
  C   C1193     1.0  0.52147  0.49571  0.80288  1.0000
  N   N80       1.0  0.34537  0.31433  0.51445  1.0000
  C   C1194     1.0  0.40965  0.39437  0.97874  1.0000
  H   H1409     1.0  0.40657  0.44767  0.79227  1.0000
  H   H1410     1.0  0.36975  0.33487  0.78070  1.0000
  H   H1411     1.0  0.35797  0.34985  0.76529  1.0000
  H   H1412     1.0  0.38115  0.39695  0.97414  1.0000
  C   C1195     1.0  0.54236  0.49624  0.89549  1.0000
  C   C1196     1.0  0.41719  0.46776  0.85223  1.0000
  C   C1197     1.0  0.41435  0.43701  0.84124  1.0000
  H   H1413     1.0  0.33378  0.39897  0.54464  1.0000
  C   C1198     1.0  0.36957  0.28385  0.76481  1.0000
  N   N81       1.0  0.53781  0.49647  0.82028  1.0000
  H   H1414     1.0  0.38225  0.46165  0.83386  1.0000
  C   C1199     1.0  0.39081  0.37835  0.57916  1.0000
  C   C1200     1.0  0.55255  0.49703  0.61314  1.0000
  C   C1201     1.0  0.54510  0.48062  0.81488  1.0000
  H   H1415     1.0  0.53168  0.47383  0.56371  1.0000
  C   C1202     1.0  0.35824  0.33548  0.76695  1.0000
  N   N82       1.0  0.42235  0.42377  0.55317  1.0000
  H   H1416     1.0  0.42044  0.44582  0.57746  1.0000
  H   H1417     1.0  0.39186  0.33616  0.74284  1.0000
  H   H1418     1.0  0.54786  0.47947  0.79319  1.0000
  H   H1419     1.0  0.40862  0.44512  0.54600  1.0000
  C   C1203     1.0  0.37276  0.33123  0.96278  1.0000
  H   H1420     1.0  0.34446  0.32775  0.77682  1.0000
  C   C1204     1.0  0.44068  0.49596  0.86185  1.0000
  C   C1205     1.0  0.35350  0.33316  0.52209  1.0000
  H   H1421     1.0  0.34278  0.33908  0.53170  1.0000
  C   C1206     1.0  0.47560  0.27127  0.51937  1.0000
  C   C1207     1.0  0.43497  0.49369  0.88871  1.0000
  C   C1208     1.0  0.38721  0.44926  0.83664  1.0000
  H   H1422     1.0  0.40068  0.45456  0.88768  1.0000
  H   H1423     1.0  0.35544  0.25720  0.75339  1.0000
  H   H1424     1.0  0.38324  0.33231  0.70998  1.0000
  H   H1425     1.0  0.38212  0.35242  0.72632  1.0000
  C   C1209     1.0  0.38043  0.33772  0.72948  1.0000
  H   H1426     1.0  0.36604  0.31646  0.96385  1.0000
  C   C1210     1.0  0.34289  0.28614  0.54385  1.0000
  H   H1427     1.0  0.50668  0.48832  0.65851  1.0000
  C   C1211     1.0  0.39286  0.44282  0.96751  1.0000
  C   C1212     1.0  0.51870  0.49457  0.61848  1.0000
  Fe  Fe170     1.0  0.34651  0.39625  0.90879  1.0000
  S   S333      1.0  0.48116  0.48258  0.95543  1.0000
  H   H1428     1.0  0.55302  0.49559  0.90985  1.0000
  H   H1429     1.0  0.53979  0.48926  0.53567  1.0000
  H   H1430     1.0  0.38827  0.42788  0.57745  1.0000
  H   H1431     1.0  0.52568  0.49539  0.78147  1.0000
  C   C1213     1.0  0.34506  0.27740  0.73265  1.0000
  H   H1432     1.0  0.42505  0.40716  0.52024  1.0000
  C   C1214     1.0  0.43204  0.48321  0.84377  1.0000
  H   H1433     1.0  0.36282  0.37269  0.59846  1.0000
  S   S334      1.0  0.47700  0.48355  0.51920  1.0000
  H   H1434     1.0  0.40932  0.43178  0.86179  1.0000
  H   H1435     1.0  0.36606  0.42868  0.95135  1.0000
  H   H1436     1.0  0.34898  0.32883  0.70190  1.0000
  C   C1215     1.0  0.53674  0.49032  0.65677  1.0000
  C   C1216     1.0  0.40622  0.39164  0.56762  1.0000
  C   C1217     1.0  0.38144  0.36926  0.98032  1.0000
  N   N83       1.0  0.40839  0.45346  0.83405  1.0000
  H   H1437     1.0  0.53465  0.46794  0.82223  1.0000
  H   H1438     1.0  0.53721  0.48724  0.67792  1.0000
  C   C1218     1.0  0.54090  0.48745  0.55756  1.0000
  H   H1439     1.0  0.44098  0.42428  0.58584  1.0000
  H   H1440     1.0  0.55883  0.48119  0.82436  1.0000
  S   S335      1.0  0.42873  0.25907  0.52963  1.0000
  Fe  Fe171     1.0  0.49928  0.49575  0.48683  1.0000
  H   H1441     1.0  0.40871  0.42085  0.51563  1.0000
  C   C1219     1.0  0.42250  0.42041  0.52436  1.0000
  H   H1442     1.0  0.47435  0.27356  0.54030  1.0000
  N   N84       1.0  0.46007  0.39650  0.83363  1.0000
  C   C1220     1.0  0.47269  0.40394  0.85550  1.0000
  C   C1221     1.0  0.46402  0.37925  0.82669  1.0000
  C   C1222     1.0  0.46556  0.40936  0.81033  1.0000
  C   C1223     1.0  0.43946  0.39346  0.84062  1.0000
  C   C1224     1.0  0.43249  0.39668  0.86624  1.0000
  C   C1225     1.0  0.42559  0.38681  0.82156  1.0000
  C   C1226     1.0  0.41288  0.39332  0.87220  1.0000
  C   C1227     1.0  0.40603  0.38362  0.82772  1.0000
  C   C1228     1.0  0.39970  0.38686  0.85300  1.0000
  H   H1443     1.0  0.47027  0.39449  0.87324  1.0000
  H   H1444     1.0  0.48810  0.40659  0.84939  1.0000
  H   H1445     1.0  0.47052  0.41700  0.86167  1.0000
  H   H1446     1.0  0.46010  0.36914  0.84363  1.0000
  H   H1447     1.0  0.47940  0.38105  0.82108  1.0000
  H   H1448     1.0  0.45593  0.37320  0.80942  1.0000
  H   H1449     1.0  0.46207  0.42226  0.81424  1.0000
  H   H1450     1.0  0.48115  0.41249  0.80509  1.0000
  H   H1451     1.0  0.45831  0.40405  0.79207  1.0000
  H   H1452     1.0  0.44184  0.40168  0.88214  1.0000
  H   H1453     1.0  0.42979  0.38385  0.80178  1.0000
  H   H1454     1.0  0.40778  0.39566  0.89191  1.0000
  H   H1455     1.0  0.39570  0.37841  0.81291  1.0000
  H   H1456     1.0  0.38452  0.38429  0.85787  1.0000
  C   C1229     1.0  0.42049  0.47874  0.89760  1.0000
  C   C1230     1.0  0.41398  0.45833  0.80556  1.0000
  H   H1457     1.0  0.38143  0.44283  0.85634  1.0000
  N   N85       1.0  0.36110  0.32831  0.74057  1.0000
  C   C1231     1.0  0.37443  0.40091  0.58902  1.0000
  H   H1458     1.0  0.40697  0.32715  0.97491  1.0000
  H   H1459     1.0  0.34820  0.34754  0.72136  1.0000
  H   H1460     1.0  0.38174  0.31133  0.77247  1.0000
  C   C1232     1.0  0.33341  0.37151  0.80983  1.0000
  H   H1461     1.0  0.33695  0.29934  0.71500  1.0000
  C   C1233     1.0  0.34635  0.29575  0.72914  1.0000
  C   C1234     1.0  0.51956  0.49099  0.64580  1.0000
  H   H1462     1.0  0.36189  0.40438  0.59710  1.0000
  H   H1463     1.0  0.34063  0.33342  0.62035  1.0000
  Fe  Fe172     1.0  0.45864  0.46979  0.48663  1.0000
  S   S336      1.0  0.45962  0.26100  0.71801  1.0000
  C   C1235     1.0  0.51587  0.50208  0.56299  1.0000
  H   H1464     1.0  0.47375  0.29819  0.50960  1.0000
  H   H1465     1.0  0.35945  0.34227  0.50449  1.0000
  H   H1466     1.0  0.50523  0.48883  0.56662  1.0000
  H   H1467     1.0  0.46039  0.25769  0.90772  1.0000
  C   C1236     1.0  0.36064  0.30894  0.49915  1.0000
  H   H1468     1.0  0.34255  0.39251  0.77912  1.0000
  H   H1469     1.0  0.50267  0.49660  0.84598  1.0000
  C   C1237     1.0  0.53281  0.49656  0.84903  1.0000
  H   H1470     1.0  0.34032  0.37978  0.82548  1.0000
  C   C1238     1.0  0.54675  0.49645  0.86821  1.0000
  C   C1239     1.0  0.33471  0.37867  0.78355  1.0000
  H   H1471     1.0  0.56110  0.49626  0.86225  1.0000
  C   C1240     1.0  0.38994  0.38775  0.97750  1.0000
  C   C1241     1.0  0.33528  0.27512  0.56633  1.0000
  H   H1472     1.0  0.52064  0.49585  0.92566  1.0000
  C   C1242     1.0  0.52410  0.49638  0.90447  1.0000
  H   H1473     1.0  0.49586  0.49649  0.89341  1.0000
  H   H1474     1.0  0.41620  0.40871  0.97636  1.0000
  S   S337      1.0  0.33401  0.35724  0.66110  1.0000
  C   C1243     1.0  0.47669  0.25443  0.50975  1.0000
  H   H1475     1.0  0.35301  0.28173  0.53149  1.0000
  H   H1476     1.0  0.35531  0.29545  0.49083  1.0000
  H   H1477     1.0  0.54610  0.50308  0.48623  1.0000
  Fe  Fe173     1.0  0.59882  0.59374  0.23983  1.0000
  S   S338      1.0  0.62530  0.58407  0.24023  1.0000
  S   S339      1.0  0.56907  0.57385  0.24308  1.0000
  Fe  Fe174     1.0  0.62278  0.63398  0.23512  1.0000
  S   S340      1.0  0.65036  0.62627  0.23554  1.0000
  S   S341      1.0  0.62337  0.66381  0.23366  1.0000
  Fe  Fe175     1.0  0.63632  0.60520  0.20742  1.0000
  H   H1478     1.0  0.66203  0.66700  0.21081  1.0000
  Fe  Fe176     1.0  0.63608  0.60626  0.26835  1.0000
  H   H1479     1.0  0.65775  0.72538  0.08241  1.0000
  S   S342      1.0  0.60918  0.61377  0.20531  1.0000
  S   S343      1.0  0.60908  0.61506  0.26977  1.0000
  H   H1480     1.0  0.54563  0.55523  0.99621  1.0000
  H   H1481     1.0  0.58091  0.56482  0.99880  1.0000
  H   H1482     1.0  0.57663  0.57284  0.42385  1.0000
  Fe  Fe177     1.0  0.63721  0.60869  0.02053  1.0000
  S   S344      1.0  0.62888  0.62209  0.05645  1.0000
  Fe  Fe178     1.0  0.63785  0.60916  0.45841  1.0000
  S   S345      1.0  0.62810  0.62081  0.42112  1.0000
  S   S346      1.0  0.64987  0.58525  0.02476  1.0000
  S   S347      1.0  0.64937  0.58504  0.45713  1.0000
  H   H1483     1.0  0.61165  0.62318  0.37059  1.0000
  C   C1244     1.0  0.59203  0.57323  0.42331  1.0000
  N   N86       1.0  0.59640  0.55918  0.40672  1.0000
  H   H1484     1.0  0.59594  0.57174  0.44435  1.0000
  H   H1485     1.0  0.57345  0.54075  0.07196  1.0000
  H   H1486     1.0  0.62452  0.55263  0.05730  1.0000
  C   C1245     1.0  0.65606  0.71515  0.21908  1.0000
  H   H1487     1.0  0.56191  0.55942  0.38608  1.0000
  H   H1488     1.0  0.52789  0.52410  0.15931  1.0000
  C   C1246     1.0  0.64932  0.60670  0.38531  1.0000
  H   H1489     1.0  0.53697  0.52945  0.11484  1.0000
  C   C1247     1.0  0.58381  0.56926  0.32504  1.0000
  C   C1248     1.0  0.59614  0.56168  0.10853  1.0000
  H   H1490     1.0  0.64166  0.74294  0.14215  1.0000
  C   C1249     1.0  0.55370  0.54527  0.99589  1.0000
  C   C1250     1.0  0.53889  0.51652  0.16148  1.0000
  C   C1251     1.0  0.64290  0.68245  0.22357  1.0000
  C   C1252     1.0  0.64091  0.69995  0.22629  1.0000
  C   C1253     1.0  0.64337  0.67373  0.30243  1.0000
  N   N87       1.0  0.60129  0.55756  0.08117  1.0000
  H   H1491     1.0  0.63557  0.67175  0.32214  1.0000
  H   H1492     1.0  0.63177  0.56914  0.08150  1.0000
  H   H1493     1.0  0.62753  0.70176  0.23413  1.0000
  H   H1494     1.0  0.64706  0.74131  0.09648  1.0000
  H   H1495     1.0  0.60811  0.58532  0.06769  1.0000
  C   C1254     1.0  0.64950  0.60635  0.09069  1.0000
  C   C1255     1.0  0.64413  0.60610  0.33758  1.0000
  C   C1256     1.0  0.52213  0.52527  0.37921  1.0000
  C   C1257     1.0  0.66008  0.74186  0.31314  1.0000
  C   C1258     1.0  0.63403  0.61429  0.38938  1.0000
  C   C1259     1.0  0.62357  0.61739  0.36756  1.0000
  C   C1260     1.0  0.62845  0.61312  0.34181  1.0000
  H   H1496     1.0  0.58609  0.53055  0.40341  1.0000
  H   H1497     1.0  0.62392  0.54550  0.09157  1.0000
  H   H1498     1.0  0.51747  0.51642  0.42057  1.0000
  H   H1499     1.0  0.62025  0.61558  0.32523  1.0000
  C   C1261     1.0  0.64551  0.60587  0.13903  1.0000
  S   S348      1.0  0.65767  0.62316  0.98771  1.0000
  H   H1500     1.0  0.65426  0.72846  0.22162  1.0000
  C   C1262     1.0  0.63563  0.61582  0.08800  1.0000
  C   C1263     1.0  0.62688  0.62045  0.11089  1.0000
  C   C1264     1.0  0.63179  0.61550  0.13629  1.0000
  H   H1501     1.0  0.65262  0.65246  0.13474  1.0000
  C   C1265     1.0  0.65280  0.66654  0.13295  1.0000
  H   H1502     1.0  0.61623  0.62789  0.10900  1.0000
  H   H1503     1.0  0.62506  0.61932  0.15367  1.0000
  C   C1266     1.0  0.64128  0.72847  0.14527  1.0000
  C   C1267     1.0  0.57243  0.52215  0.23395  1.0000
  C   C1268     1.0  0.57754  0.54102  0.23586  1.0000
  C   C1269     1.0  0.56345  0.55011  0.24001  1.0000
  C   C1270     1.0  0.54420  0.54004  0.24200  1.0000
  C   C1271     1.0  0.53908  0.52118  0.24000  1.0000
  C   C1272     1.0  0.64275  0.67376  0.15164  1.0000
  H   H1504     1.0  0.59241  0.54851  0.23425  1.0000
  H   H1505     1.0  0.53316  0.54693  0.24507  1.0000
  C   C1273     1.0  0.61660  0.55928  0.41079  1.0000
  H   H1506     1.0  0.54074  0.51502  0.18326  1.0000
  C   C1274     1.0  0.66030  0.68036  0.21336  1.0000
  C   C1275     1.0  0.57206  0.56656  0.14080  1.0000
  C   C1276     1.0  0.53146  0.50452  0.34872  1.0000
  H   H1507     1.0  0.56482  0.51788  0.32323  1.0000
  H   H1508     1.0  0.62429  0.56532  0.12600  1.0000
  H   H1509     1.0  0.60355  0.56967  0.04153  1.0000
  S   S349      1.0  0.60967  0.54421  0.99837  1.0000
  C   C1277     1.0  0.60248  0.56993  0.33153  1.0000
  C   C1278     1.0  0.59915  0.57197  0.06222  1.0000
  C   C1279     1.0  0.60946  0.56515  0.12912  1.0000
  C   C1280     1.0  0.58849  0.54020  0.07361  1.0000
  H   H1510     1.0  0.63506  0.69660  0.16505  1.0000
  H   H1511     1.0  0.56657  0.56073  0.10031  1.0000
  C   C1281     1.0  0.64773  0.72704  0.09863  1.0000
  C   C1282     1.0  0.58542  0.56968  0.16058  1.0000
  H   H1512     1.0  0.58064  0.57205  0.30462  1.0000
  H   H1513     1.0  0.55771  0.56758  0.14535  1.0000
  C   C1283     1.0  0.57352  0.56209  0.37129  1.0000
  C   C1284     1.0  0.60682  0.56677  0.35786  1.0000
  H   H1514     1.0  0.64587  0.72686  0.16592  1.0000
  C   C1285     1.0  0.57463  0.51977  0.99520  1.0000
  H   H1515     1.0  0.58420  0.57299  0.06159  1.0000
  H   H1516     1.0  0.56887  0.54084  0.41805  1.0000
  C   C1286     1.0  0.62124  0.55614  0.07791  1.0000
  C   C1287     1.0  0.53083  0.51728  0.07796  1.0000
  H   H1517     1.0  0.62095  0.54902  0.39890  1.0000
  H   H1518     1.0  0.61901  0.55617  0.43202  1.0000
  C   C1288     1.0  0.57375  0.55075  0.99729  1.0000
  S   S350      1.0  0.51871  0.52088  0.99191  1.0000
  H   H1519     1.0  0.62611  0.72069  0.14393  1.0000
  H   H1520     1.0  0.63480  0.66523  0.16802  1.0000
  H   H1521     1.0  0.58806  0.53775  0.43694  1.0000
  H   H1522     1.0  0.65680  0.69728  0.33580  1.0000
  H   H1523     1.0  0.62648  0.57274  0.40560  1.0000
  C   C1289     1.0  0.59239  0.56262  0.37860  1.0000
  C   C1290     1.0  0.60406  0.56901  0.15471  1.0000
  H   H1524     1.0  0.62169  0.56799  0.36142  1.0000
  C   C1291     1.0  0.58436  0.53802  0.99677  1.0000
  C   C1292     1.0  0.52697  0.52101  0.35357  1.0000
  H   H1525     1.0  0.55493  0.56524  0.33983  1.0000
  C   C1293     1.0  0.54398  0.52702  0.99402  1.0000
  H   H1526     1.0  0.58879  0.52917  0.08828  1.0000
  H   H1527     1.0  0.60011  0.58692  0.41568  1.0000
  C   C1294     1.0  0.58429  0.54134  0.41657  1.0000
  H   H1528     1.0  0.59279  0.53621  0.05374  1.0000
  H   H1529     1.0  0.64508  0.68775  0.29450  1.0000
  C   C1295     1.0  0.56936  0.56537  0.34490  1.0000
  H   H1530     1.0  0.58144  0.57294  0.18041  1.0000
  H   H1531     1.0  0.52421  0.51374  0.24146  1.0000
  S   S351      1.0  0.61496  0.59569  0.99208  1.0000
  H   H1532     1.0  0.58266  0.50977  0.99496  1.0000
  H   H1533     1.0  0.63371  0.66486  0.28873  1.0000
  H   H1534     1.0  0.58352  0.51531  0.23096  1.0000
  C   C1296     1.0  0.55260  0.51497  0.30978  1.0000
  H   H1535     1.0  0.61379  0.57335  0.31611  1.0000
  C   C1297     1.0  0.55321  0.51209  0.23612  1.0000
  C   C1298     1.0  0.65323  0.70346  0.12832  1.0000
  H   H1536     1.0  0.63332  0.71828  0.09474  1.0000
  C   C1299     1.0  0.57729  0.56264  0.11514  1.0000
  H   H1537     1.0  0.64747  0.64125  0.30086  1.0000
  H   H1538     1.0  0.61456  0.57189  0.16998  1.0000
  H   H1539     1.0  0.54857  0.52772  0.30568  1.0000
  S   S352      1.0  0.65213  0.59954  0.17063  1.0000
  H   H1540     1.0  0.51852  0.53783  0.38243  1.0000
  N   N88       1.0  0.65385  0.72279  0.12543  1.0000
  H   H1541     1.0  0.65247  0.64826  0.33420  1.0000
  S   S353      1.0  0.65186  0.60208  0.30528  1.0000
  H   H1542     1.0  0.64580  0.74196  0.31999  1.0000
  H   H1543     1.0  0.55287  0.52481  0.15291  1.0000
  H   H1544     1.0  0.55802  0.51142  0.29033  1.0000
  C   C1300     1.0  0.65441  0.60274  0.35947  1.0000
  H   H1545     1.0  0.52691  0.53060  0.33744  1.0000
  H   H1546     1.0  0.65679  0.60319  0.07328  1.0000
  C   C1301     1.0  0.64296  0.69194  0.14957  1.0000
  Fe  Fe179     1.0  0.62862  0.57295  0.99438  1.0000
  H   H1547     1.0  0.65759  0.60438  0.40192  1.0000
  C   C1302     1.0  0.53330  0.51670  0.10546  1.0000
  C   C1303     1.0  0.52148  0.51323  0.40072  1.0000
  H   H1548     1.0  0.65250  0.73804  0.27245  1.0000
  C   C1304     1.0  0.55458  0.51429  0.99376  1.0000
  C   C1305     1.0  0.65435  0.60133  0.11612  1.0000
  H   H1549     1.0  0.53253  0.53002  0.06707  1.0000
  H   H1550     1.0  0.51554  0.51156  0.30234  1.0000
  C   C1306     1.0  0.65816  0.65023  0.31320  1.0000
  N   N89       1.0  0.66206  0.66934  0.30392  1.0000
  H   H1551     1.0  0.66078  0.66300  0.26262  1.0000
  C   C1307     1.0  0.66312  0.67745  0.11203  1.0000
  C   C1308     1.0  0.66345  0.69566  0.10976  1.0000
  Fe  Fe180     1.0  0.59985  0.59349  0.73690  1.0000
  S   S354      1.0  0.62611  0.58373  0.73870  1.0000
  S   S355      1.0  0.57050  0.57326  0.73522  1.0000
  Fe  Fe181     1.0  0.62415  0.63372  0.73337  1.0000
  H   H1552     1.0  0.63307  0.73042  0.59690  1.0000
  S   S356      1.0  0.62383  0.66328  0.72739  1.0000
  Fe  Fe182     1.0  0.63822  0.60490  0.70653  1.0000
  C   C1309     1.0  0.57360  0.52198  0.48980  1.0000
  Fe  Fe183     1.0  0.63625  0.60565  0.76747  1.0000
  C   C1310     1.0  0.64864  0.59537  0.85953  1.0000
  S   S357      1.0  0.61137  0.61363  0.70297  1.0000
  S   S358      1.0  0.60923  0.61461  0.76742  1.0000
  H   H1553     1.0  0.62921  0.62375  0.82372  1.0000
  C   C1311     1.0  0.64955  0.60408  0.59004  1.0000
  C   C1312     1.0  0.64287  0.67495  0.60669  1.0000
  Fe  Fe184     1.0  0.63910  0.60959  0.51943  1.0000
  S   S359      1.0  0.63297  0.62392  0.55589  1.0000
  Fe  Fe185     1.0  0.63705  0.60721  0.95946  1.0000
  S   S360      1.0  0.62882  0.61926  0.92127  1.0000
  S   S361      1.0  0.65032  0.58515  0.52192  1.0000
  S   S362      1.0  0.64973  0.58376  0.96010  1.0000
  C   C1313     1.0  0.64789  0.73192  0.58885  1.0000
  H   H1554     1.0  0.56352  0.51947  0.56798  1.0000
  H   H1555     1.0  0.62136  0.63166  0.86938  1.0000
  H   H1556     1.0  0.63913  0.71113  0.65644  1.0000
  C   C1314     1.0  0.60200  0.56478  0.56645  1.0000
  C   C1315     1.0  0.64646  0.73669  0.80580  1.0000
  H   H1557     1.0  0.58114  0.56715  0.49375  1.0000
  H   H1558     1.0  0.56109  0.54583  0.90877  1.0000
  C   C1316     1.0  0.60025  0.54831  0.57983  1.0000
  H   H1559     1.0  0.60600  0.54630  0.88293  1.0000
  H   H1560     1.0  0.58834  0.59265  0.92356  1.0000
  H   H1561     1.0  0.56994  0.54469  0.94153  1.0000
  C   C1317     1.0  0.55357  0.54820  0.49049  1.0000
  H   H1562     1.0  0.51620  0.50522  0.54115  1.0000
  C   C1318     1.0  0.55548  0.51108  0.73592  1.0000
  H   H1563     1.0  0.58076  0.53627  0.91446  1.0000
  C   C1319     1.0  0.64338  0.68252  0.72011  1.0000
  C   C1320     1.0  0.63952  0.69920  0.71483  1.0000
  C   C1321     1.0  0.54842  0.51930  0.56481  1.0000
  H   H1564     1.0  0.61449  0.55138  0.83537  1.0000
  C   C1322     1.0  0.58779  0.58222  0.87037  1.0000
  H   H1565     1.0  0.54587  0.55845  0.49094  1.0000
  H   H1566     1.0  0.62486  0.70000  0.71543  1.0000
  H   H1567     1.0  0.64829  0.59292  0.90235  1.0000
  C   C1323     1.0  0.54343  0.53010  0.48846  1.0000
  H   H1568     1.0  0.58914  0.59547  0.83159  1.0000
  H   H1569     1.0  0.62728  0.65619  0.63741  1.0000
  N   N90       1.0  0.58770  0.56530  0.91488  1.0000
  C   C1324     1.0  0.63261  0.68345  0.64914  1.0000
  C   C1325     1.0  0.63431  0.61288  0.88912  1.0000
  C   C1326     1.0  0.62895  0.62147  0.86672  1.0000
  C   C1327     1.0  0.63337  0.61702  0.84082  1.0000
  S   S363      1.0  0.64951  0.59811  0.80502  1.0000
  H   H1570     1.0  0.66250  0.58907  0.61730  1.0000
  H   H1571     1.0  0.58100  0.59174  0.87883  1.0000
  H   H1572     1.0  0.61217  0.55538  0.92450  1.0000
  C   C1328     1.0  0.64706  0.60504  0.63833  1.0000
  H   H1573     1.0  0.54502  0.53015  0.57646  1.0000
  S   S364      1.0  0.51815  0.52447  0.48715  1.0000
  C   C1329     1.0  0.63837  0.61622  0.58736  1.0000
  C   C1330     1.0  0.63153  0.62272  0.61026  1.0000
  C   C1331     1.0  0.63599  0.61730  0.63566  1.0000
  H   H1574     1.0  0.59519  0.58960  0.61805  1.0000
  S   S365      1.0  0.65955  0.62391  0.48636  1.0000
  H   H1575     1.0  0.62265  0.63190  0.60824  1.0000
  H   H1576     1.0  0.63099  0.62273  0.65308  1.0000
  C   C1332     1.0  0.60188  0.55704  0.87242  1.0000
  C   C1333     1.0  0.57451  0.52115  0.73846  1.0000
  C   C1334     1.0  0.57934  0.54013  0.73874  1.0000
  C   C1335     1.0  0.56520  0.54932  0.73610  1.0000
  C   C1336     1.0  0.54620  0.53923  0.73352  1.0000
  C   C1337     1.0  0.54134  0.52026  0.73351  1.0000
  H   H1577     1.0  0.58560  0.51423  0.74044  1.0000
  H   H1578     1.0  0.59403  0.54762  0.74082  1.0000
  H   H1579     1.0  0.53512  0.54616  0.73145  1.0000
  H   H1580     1.0  0.52664  0.51280  0.73146  1.0000
  S   S366      1.0  0.65315  0.59805  0.66984  1.0000
  H   H1581     1.0  0.60862  0.58513  0.65911  1.0000
  C   C1338     1.0  0.59236  0.58454  0.84304  1.0000
  C   C1339     1.0  0.60181  0.57335  0.83050  1.0000
  C   C1340     1.0  0.65934  0.74469  0.76139  1.0000
  H   H1582     1.0  0.64569  0.72803  0.82415  1.0000
  H   H1583     1.0  0.55978  0.55859  0.64632  1.0000
  C   C1341     1.0  0.64329  0.60396  0.83712  1.0000
  H   H1584     1.0  0.64433  0.74158  0.75498  1.0000
  C   C1342     1.0  0.60661  0.55967  0.84516  1.0000
  H   H1585     1.0  0.56795  0.56390  0.67918  1.0000
  H   H1586     1.0  0.58131  0.51173  0.48934  1.0000
  C   C1343     1.0  0.59243  0.56832  0.88594  1.0000
  H   H1587     1.0  0.60245  0.56481  0.95139  1.0000
  H   H1588     1.0  0.56483  0.57838  0.91714  1.0000
  C   C1344     1.0  0.63377  0.67018  0.63164  1.0000
  H   H1589     1.0  0.57557  0.57626  0.94806  1.0000
  H   H1590     1.0  0.65629  0.58522  0.85681  1.0000
  S   S367      1.0  0.65167  0.62579  0.73526  1.0000
  C   C1345     1.0  0.65712  0.71508  0.78049  1.0000
  N   N91       1.0  0.58934  0.55942  0.65134  1.0000
  C   C1346     1.0  0.60574  0.57065  0.66508  1.0000
  C   C1347     1.0  0.57221  0.56586  0.65758  1.0000
  C   C1348     1.0  0.58552  0.54073  0.66274  1.0000
  C   C1349     1.0  0.59367  0.56096  0.62224  1.0000
  C   C1350     1.0  0.59610  0.54629  0.60731  1.0000
  C   C1351     1.0  0.59601  0.57765  0.60799  1.0000
  H   H1591     1.0  0.61602  0.57932  0.92510  1.0000
  C   C1352     1.0  0.59987  0.57940  0.58049  1.0000
  H   H1592     1.0  0.60323  0.56962  0.68711  1.0000
  H   H1593     1.0  0.61912  0.56665  0.66050  1.0000
  H   H1594     1.0  0.57464  0.58050  0.65306  1.0000
  H   H1595     1.0  0.59837  0.53549  0.66098  1.0000
  H   H1596     1.0  0.58162  0.53997  0.68437  1.0000
  H   H1597     1.0  0.57334  0.53153  0.65317  1.0000
  H   H1598     1.0  0.59520  0.53323  0.61644  1.0000
  H   H1599     1.0  0.60162  0.59231  0.57004  1.0000
  C   C1353     1.0  0.55359  0.51702  0.48802  1.0000
  H   H1600     1.0  0.64248  0.70988  0.77305  1.0000
  H   H1601     1.0  0.54810  0.52531  0.81632  1.0000
  S   S368      1.0  0.60903  0.54561  0.49277  1.0000
  H   H1602     1.0  0.65093  0.72734  0.70399  1.0000
  C   C1354     1.0  0.65114  0.69307  0.59934  1.0000
  H   H1603     1.0  0.51053  0.51263  0.57279  1.0000
  C   C1355     1.0  0.57431  0.54725  0.92005  1.0000
  C   C1356     1.0  0.57869  0.57876  0.92624  1.0000
  C   C1357     1.0  0.57361  0.55318  0.49211  1.0000
  C   C1358     1.0  0.60533  0.56620  0.92949  1.0000
  H   H1604     1.0  0.65826  0.70682  0.79863  1.0000
  C   C1359     1.0  0.65436  0.71480  0.70834  1.0000
  H   H1605     1.0  0.65517  0.59918  0.57262  1.0000
  Fe  Fe186     1.0  0.62847  0.57419  0.49156  1.0000
  H   H1606     1.0  0.60245  0.53716  0.56874  1.0000
  H   H1607     1.0  0.60596  0.57568  0.80951  1.0000
  C   C1360     1.0  0.64410  0.59972  0.88540  1.0000
  C   C1361     1.0  0.65083  0.70695  0.61708  1.0000
  H   H1608     1.0  0.62514  0.67959  0.66833  1.0000
  H   H1609     1.0  0.63191  0.73290  0.79768  1.0000
  H   H1610     1.0  0.60535  0.56631  0.54518  1.0000
  H   H1611     1.0  0.56630  0.51405  0.82302  1.0000
  C   C1362     1.0  0.58375  0.54008  0.49174  1.0000
  H   H1612     1.0  0.54776  0.52307  0.54337  1.0000
  C   C1363     1.0  0.65382  0.59847  0.61544  1.0000
  H   H1613     1.0  0.55688  0.51357  0.79076  1.0000
  H   H1614     1.0  0.64685  0.72397  0.57067  1.0000
  S   S369      1.0  0.61600  0.59774  0.49141  1.0000
  H   H1615     1.0  0.64325  0.66456  0.59278  1.0000
  H   H1616     1.0  0.51582  0.50771  0.80472  1.0000
  H   H1617     1.0  0.64917  0.75094  0.81148  1.0000
  H   H1618     1.0  0.45212  0.50752  0.85505  1.0000
  H   H1619     1.0  0.65388  0.74634  0.58241  1.0000
  C   C1364     1.0  0.55292  0.51305  0.81236  1.0000
  C   C1365     1.0  0.64086  0.70159  0.64204  1.0000
  H   H1620     1.0  0.64727  0.73932  0.63925  1.0000
  H   H1621     1.0  0.44187  0.50344  0.90275  1.0000
  N   N92       1.0  0.66128  0.73442  0.78619  1.0000
  H   H1622     1.0  0.65748  0.69607  0.57947  1.0000
  C   C1366     1.0  0.66244  0.68173  0.71927  1.0000
  N   N93       1.0  0.65971  0.72606  0.60899  1.0000
  C   C1367     1.0  0.66145  0.73828  0.63153  1.0000
  S   S370      1.0  0.37712  0.94530  0.13449  1.0000
  H   H1623     1.0  0.40527  0.98159  0.00585  1.0000
  H   H1624     1.0  0.42358  0.94958  0.07539  1.0000
  H   H1625     1.0  0.42479  0.99840  0.07042  1.0000
  S   S371      1.0  0.64981  0.78980  0.25147  1.0000
  C   C1368     1.0  0.65375  0.78725  0.28585  1.0000
  H   H1626     1.0  0.38088  0.96907  0.08659  1.0000
  C   C1369     1.0  0.41641  0.98004  0.27235  1.0000
  H   H1627     1.0  0.34349  0.99810  0.29341  1.0000
  C   C1370     1.0  0.48166  0.00126  0.07949  1.0000
  H   H1628     1.0  0.37206  0.97907  0.15484  1.0000
  H   H1629     1.0  0.52319  0.99359  0.05665  1.0000
  H   H1630     1.0  0.33095  0.99457  0.41626  1.0000
  H   H1631     1.0  0.59431  0.99801  0.24384  1.0000
  C   C1371     1.0  0.41991  0.99556  0.16441  1.0000
  H   H1632     1.0  0.40559  0.99027  0.33595  1.0000
  C   C1372     1.0  0.42833  0.97353  0.22801  1.0000
  S   S372      1.0  0.47753  0.99134  0.18110  1.0000
  C   C1373     1.0  0.48344  0.00204  0.03084  1.0000
  H   H1633     1.0  0.44264  0.96125  0.27192  1.0000
  Fe  Fe187     1.0  0.34491  0.94124  0.13272  1.0000
  C   C1374     1.0  0.50944  0.99654  0.05626  1.0000
  C   C1375     1.0  0.50158  0.99903  0.03163  1.0000
  N   N94       1.0  0.43303  0.98271  0.25339  1.0000
  H   H1634     1.0  0.56272  0.98596  0.25533  1.0000
  H   H1635     1.0  0.55593  0.00219  0.08317  1.0000
  H   H1636     1.0  0.40353  0.94285  0.05434  1.0000
  H   H1637     1.0  0.42272  0.95871  0.23143  1.0000
  C   C1376     1.0  0.38230  0.96785  0.28482  1.0000
  H   H1638     1.0  0.36812  0.95999  0.28014  1.0000
  H   H1639     1.0  0.37329  0.97277  0.32427  1.0000
  H   H1640     1.0  0.33066  0.99767  0.34799  1.0000
  C   C1377     1.0  0.64048  0.78525  0.33120  1.0000
  C   C1378     1.0  0.63839  0.78645  0.30369  1.0000
  H   H1641     1.0  0.51492  0.98925  0.30348  1.0000
  C   C1379     1.0  0.33635  0.99180  0.43598  1.0000
  C   C1380     1.0  0.41029  0.95284  0.06898  1.0000
  H   H1642     1.0  0.62468  0.78680  0.29617  1.0000
  C   C1381     1.0  0.41876  0.98739  0.29792  1.0000
  C   C1382     1.0  0.40035  0.99477  0.16398  1.0000
  H   H1643     1.0  0.41189  0.98267  0.09583  1.0000
  H   H1644     1.0  0.47386  0.00206  0.09784  1.0000
  C   C1383     1.0  0.37690  0.98307  0.01285  1.0000
  C   C1384     1.0  0.44817  0.97571  0.26559  1.0000
  C   C1385     1.0  0.39628  0.97481  0.04791  1.0000
  H   H1645     1.0  0.54267  0.99272  0.26822  1.0000
  C   C1386     1.0  0.65807  0.78514  0.34161  1.0000
  C   C1387     1.0  0.55402  0.99565  0.25206  1.0000
  S   S373      1.0  0.65963  0.78013  0.11455  1.0000
  H   H1646     1.0  0.40055  0.95057  0.08693  1.0000
  H   H1647     1.0  0.36254  0.99007  0.23339  1.0000
  C   C1388     1.0  0.38518  0.97505  0.30981  1.0000
  N   N95       1.0  0.41420  0.97146  0.05741  1.0000
  C   C1389     1.0  0.39759  0.97028  0.26622  1.0000
  H   H1648     1.0  0.43549  0.98221  0.08584  1.0000
  S   S374      1.0  0.33280  0.96511  0.13060  1.0000
  H   H1649     1.0  0.43262  0.99496  0.30406  1.0000
  C   C1390     1.0  0.42191  0.98423  0.07826  1.0000
  C   C1391     1.0  0.40336  0.98486  0.31633  1.0000
  C   C1392     1.0  0.50549  0.99800  0.30427  1.0000
  H   H1650     1.0  0.33220  0.98835  0.22343  1.0000
  C   C1393     1.0  0.39316  0.96478  0.14639  1.0000
  C   C1394     1.0  0.41273  0.96565  0.14663  1.0000
  C   C1395     1.0  0.42602  0.98096  0.15544  1.0000
  S   S375      1.0  0.65998  0.76263  0.18993  1.0000
  H   H1651     1.0  0.62834  0.78468  0.34454  1.0000
  C   C1396     1.0  0.38705  0.97948  0.15503  1.0000
  H   H1652     1.0  0.41764  0.95440  0.13991  1.0000
  H   H1653     1.0  0.44099  0.98134  0.15535  1.0000
  H   H1654     1.0  0.45404  0.98308  0.28336  1.0000
  H   H1655     1.0  0.64799  0.78018  0.06025  1.0000
  C   C1397     1.0  0.36332  0.97623  0.05748  1.0000
  H   H1656     1.0  0.41774  0.97876  0.21695  1.0000
  C   C1398     1.0  0.38034  0.97302  0.06587  1.0000
  H   H1657     1.0  0.39429  0.96415  0.24737  1.0000
  H   H1658     1.0  0.35125  0.97462  0.07146  1.0000
  S   S376      1.0  0.50538  0.99618  0.24971  1.0000
  H   H1659     1.0  0.42486  0.96399  0.02010  1.0000
  H   H1660     1.0  0.44111  0.97574  0.21425  1.0000
  S   S377      1.0  0.50951  0.99373  0.11084  1.0000
  C   C1399     1.0  0.49947  0.99752  0.08028  1.0000
  H   H1661     1.0  0.43362  0.98753  0.02704  1.0000
  H   H1662     1.0  0.46068  0.97700  0.25152  1.0000
  H   H1663     1.0  0.35212  0.99424  0.43377  1.0000
  C   C1400     1.0  0.42938  0.97361  0.03613  1.0000
  S   S378      1.0  0.47187  0.00251  0.00051  1.0000
  H   H1664     1.0  0.44272  0.97111  0.04387  1.0000
  C   C1401     1.0  0.66319  0.78144  0.05965  1.0000
  H   H1665     1.0  0.33180  0.94497  0.21325  1.0000
  C   C1402     1.0  0.36162  0.98130  0.03106  1.0000
  H   H1666     1.0  0.50921  0.99785  0.01325  1.0000
  H   H1667     1.0  0.54669  0.99253  0.23298  1.0000
  H   H1668     1.0  0.50434  0.99790  0.34734  1.0000
  S   S379      1.0  0.65942  0.78491  0.37681  1.0000
  C   C1403     1.0  0.33521  0.99311  0.27574  1.0000
  C   C1404     1.0  0.39403  0.97994  0.02102  1.0000
  H   H1669     1.0  0.33252  0.94138  0.04216  1.0000
  H   H1670     1.0  0.34005  0.98147  0.26873  1.0000
  H   H1671     1.0  0.34216  0.93710  0.25754  1.0000
  H   H1672     1.0  0.34066  0.93336  0.99674  1.0000
  H   H1673     1.0  0.37540  0.98678  0.99224  1.0000
  H   H1674     1.0  0.34831  0.98363  0.02471  1.0000
  C   C1405     1.0  0.44090  0.00218  0.24671  1.0000
  H   H1675     1.0  0.66337  0.84412  0.32372  1.0000
  N   N96       1.0  0.33097  0.00274  0.45713  1.0000
  C   C1406     1.0  0.49956  0.00292  0.32920  1.0000
  H   H1676     1.0  0.39619  0.00246  0.22018  1.0000
  H   H1677     1.0  0.66342  0.82150  0.33419  1.0000
  S   S380      1.0  0.37264  0.94650  0.64015  1.0000
  N   N97       1.0  0.44156  0.99094  0.58332  1.0000
  C   C1407     1.0  0.37471  0.97407  0.78036  1.0000
  H   H1678     1.0  0.45291  0.97639  0.77227  1.0000
  H   H1679     1.0  0.44156  0.97126  0.55378  1.0000
  S   S381      1.0  0.65029  0.79096  0.75201  1.0000
  S   S382      1.0  0.65978  0.78548  0.61386  1.0000
  H   H1680     1.0  0.41462  0.99206  0.60192  1.0000
  H   H1681     1.0  0.33561  0.00038  0.78709  1.0000
  H   H1682     1.0  0.34028  0.93513  0.49960  1.0000
  C   C1408     1.0  0.45185  0.99637  0.60800  1.0000
  C   C1409     1.0  0.43940  0.97900  0.78002  1.0000
  H   H1683     1.0  0.42915  0.00177  0.72581  1.0000
  C   C1410     1.0  0.49057  0.99865  0.80976  1.0000
  H   H1684     1.0  0.36256  0.99030  0.80581  1.0000
  C   C1411     1.0  0.50446  0.99957  0.58426  1.0000
  H   H1685     1.0  0.43182  0.96716  0.79303  1.0000
  S   S383      1.0  0.47301  0.99615  0.68077  1.0000
  H   H1686     1.0  0.50351  0.97345  0.53082  1.0000
  H   H1687     1.0  0.33300  0.98195  0.94112  1.0000
  H   H1688     1.0  0.36127  0.96389  0.77905  1.0000
  H   H1689     1.0  0.38802  0.99755  0.71294  1.0000
  H   H1690     1.0  0.66297  0.84486  0.83035  1.0000
  H   H1691     1.0  0.38967  0.95999  0.75628  1.0000
  H   H1692     1.0  0.34029  0.99399  0.97058  1.0000
  H   H1693     1.0  0.44366  0.99068  0.79295  1.0000
  H   H1694     1.0  0.33883  0.93911  0.75529  1.0000
  S   S384      1.0  0.49082  0.99693  0.75521  1.0000
  S   S385      1.0  0.65937  0.76492  0.68859  1.0000
  H   H1695     1.0  0.44781  0.96503  0.58609  1.0000
  S   S386      1.0  0.49292  0.99753  0.49479  1.0000
  C   C1412     1.0  0.50289  0.98511  0.54185  1.0000
  C   C1413     1.0  0.37540  0.98896  0.79552  1.0000
  C   C1414     1.0  0.40940  0.99969  0.78562  1.0000
  H   H1696     1.0  0.41261  0.97948  0.57232  1.0000
  C   C1415     1.0  0.63929  0.78772  0.80441  1.0000
  C   C1416     1.0  0.64142  0.78603  0.83185  1.0000
  C   C1417     1.0  0.39128  0.97195  0.76749  1.0000
  H   H1697     1.0  0.62556  0.78821  0.79710  1.0000
  H   H1698     1.0  0.62933  0.78532  0.84536  1.0000
  H   H1699     1.0  0.56585  0.99933  0.54741  1.0000
  H   H1700     1.0  0.49723  0.98765  0.80929  1.0000
  C   C1418     1.0  0.44925  0.97668  0.57176  1.0000
  C   C1419     1.0  0.49885  0.99985  0.52869  1.0000
  Fe  Fe188     1.0  0.34084  0.94288  0.63459  1.0000
  H   H1701     1.0  0.45134  0.98459  0.62168  1.0000
  H   H1702     1.0  0.41831  0.95383  0.75128  1.0000
  H   H1703     1.0  0.41872  0.97030  0.60302  1.0000
  H   H1704     1.0  0.33078  0.94366  0.54413  1.0000
  H   H1705     1.0  0.64873  0.78708  0.55947  1.0000
  C   C1420     1.0  0.41514  0.99907  0.66274  1.0000
  H   H1706     1.0  0.46475  0.98179  0.56629  1.0000
  C   C1421     1.0  0.34330  0.99399  0.94875  1.0000
  H   H1707     1.0  0.33170  0.98448  0.76138  1.0000
  H   H1708     1.0  0.45143  0.99699  0.73329  1.0000
  C   C1422     1.0  0.50603  0.98511  0.56916  1.0000
  C   C1423     1.0  0.43782  0.99865  0.74228  1.0000
  N   N98       1.0  0.42731  0.98228  0.75818  1.0000
  C   C1424     1.0  0.40923  0.98472  0.76985  1.0000
  H   H1709     1.0  0.50933  0.97358  0.57876  1.0000
  H   H1710     1.0  0.35399  0.99036  0.72472  1.0000
  C   C1425     1.0  0.38830  0.96683  0.64998  1.0000
  C   C1426     1.0  0.40670  0.96671  0.65766  1.0000
  C   C1427     1.0  0.42001  0.98270  0.66408  1.0000
  C   C1428     1.0  0.65460  0.78876  0.78638  1.0000
  H   H1711     1.0  0.36916  0.98346  0.64334  1.0000
  C   C1429     1.0  0.38325  0.98314  0.64927  1.0000
  H   H1712     1.0  0.41074  0.95417  0.65833  1.0000
  H   H1713     1.0  0.43407  0.98229  0.66981  1.0000
  H   H1714     1.0  0.54697  0.00083  0.52654  1.0000
  H   H1715     1.0  0.48923  0.99876  0.85278  1.0000
  H   H1716     1.0  0.45659  0.99729  0.53022  1.0000
  C   C1430     1.0  0.42104  0.98290  0.59042  1.0000
  S   S387      1.0  0.50922  0.99837  0.61858  1.0000
  H   H1717     1.0  0.33542  0.99943  0.89700  1.0000
  H   H1718     1.0  0.41524  0.96842  0.72363  1.0000
  H   H1719     1.0  0.43839  0.96596  0.73109  1.0000
  C   C1431     1.0  0.65899  0.78557  0.84204  1.0000
  C   C1432     1.0  0.42455  0.96694  0.74029  1.0000
  C   C1433     1.0  0.39663  0.99918  0.65556  1.0000
  S   S388      1.0  0.66033  0.78453  0.87722  1.0000
  H   H1720     1.0  0.35763  0.99165  0.94560  1.0000
  C   C1434     1.0  0.39267  0.00184  0.79794  1.0000
  H   H1721     1.0  0.46716  0.00322  0.60342  1.0000
  H   H1722     1.0  0.35148  0.99737  0.48422  1.0000
  C   C1435     1.0  0.33583  0.99557  0.48302  1.0000
  H   H1723     1.0  0.66364  0.82209  0.83900  1.0000
  C   C1436     1.0  0.66312  0.78554  0.55906  1.0000
  H   H1724     1.0  0.33055  0.00192  0.50018  1.0000
  H   H1725     1.0  0.71735  0.02970  0.34872  1.0000
  H   H1726     1.0  0.81941  0.02120  0.98947  1.0000
  C   C1437     1.0  0.85553  0.15828  0.21262  1.0000
  H   H1727     1.0  0.81169  0.04688  0.42292  1.0000
  H   H1728     1.0  0.81969  0.04695  0.45676  1.0000
  C   C1438     1.0  0.90016  0.23294  0.19330  1.0000
  S   S389      1.0  0.70319  0.12063  0.23213  1.0000
  C   C1439     1.0  0.87483  0.17835  0.01222  1.0000
  Fe  Fe189     1.0  0.81927  0.13098  0.35958  1.0000
  S   S390      1.0  0.80840  0.15556  0.35834  1.0000
  S   S391      1.0  0.82377  0.11687  0.39849  1.0000
  Fe  Fe190     1.0  0.82024  0.12977  0.29807  1.0000
  S   S392      1.0  0.80946  0.15430  0.29328  1.0000
  S   S393      1.0  0.82624  0.11502  0.26202  1.0000
  Fe  Fe191     1.0  0.83042  0.16543  0.32468  1.0000
  S   S394      1.0  0.84985  0.19401  0.32067  1.0000
  Fe  Fe192     1.0  0.78889  0.14154  0.32707  1.0000
  S   S395      1.0  0.75659  0.13541  0.33125  1.0000
  S   S396      1.0  0.84238  0.14149  0.32759  1.0000
  S   S397      1.0  0.79872  0.11638  0.33022  1.0000
  C   C1440     1.0  0.89980  0.21271  0.99832  1.0000
  H   H1729     1.0  0.84279  0.17890  0.14361  1.0000
  H   H1730     1.0  0.84456  0.18362  0.26173  1.0000
  C   C1441     1.0  0.67419  0.06946  0.38259  1.0000
  Fe  Fe193     1.0  0.96003  0.24295  0.32012  1.0000
  S   S398      1.0  0.94088  0.21438  0.32355  1.0000
  H   H1731     1.0  0.93387  0.22213  0.43389  1.0000
  C   C1442     1.0  0.66647  0.04686  0.11331  1.0000
  C   C1443     1.0  0.79221  0.01842  0.47516  1.0000
  Fe  Fe194     1.0  0.80827  0.12595  0.11270  1.0000
  S   S399      1.0  0.83525  0.11719  0.11391  1.0000
  S   S400      1.0  0.79302  0.13047  0.15078  1.0000
  Fe  Fe195     1.0  0.80882  0.12652  0.05151  1.0000
  S   S401      1.0  0.83578  0.11759  0.04940  1.0000
  S   S402      1.0  0.79425  0.13290  0.01446  1.0000
  Fe  Fe196     1.0  0.82173  0.09788  0.08306  1.0000
  S   S403      1.0  0.82157  0.06819  0.08489  1.0000
  Fe  Fe197     1.0  0.84590  0.13802  0.08053  1.0000
  S   S404      1.0  0.87576  0.15751  0.08061  1.0000
  S   S405      1.0  0.79421  0.10579  0.08337  1.0000
  S   S406      1.0  0.81954  0.14785  0.08105  1.0000
  C   C1444     1.0  0.77299  0.01855  0.11316  1.0000
  C   C1445     1.0  0.76967  0.03572  0.11185  1.0000
  C   C1446     1.0  0.78437  0.05112  0.10359  1.0000
  C   C1447     1.0  0.80249  0.04944  0.09589  1.0000
  C   C1448     1.0  0.80569  0.03225  0.09678  1.0000
  C   C1449     1.0  0.79111  0.01694  0.10547  1.0000
  H   H1732     1.0  0.75567  0.03711  0.11735  1.0000
  H   H1733     1.0  0.78171  0.06425  0.10320  1.0000
  H   H1734     1.0  0.81961  0.03076  0.09078  1.0000
  C   C1450     1.0  0.80635  0.13057  0.48231  1.0000
  C   C1451     1.0  0.89358  0.21977  0.07569  1.0000
  C   C1452     1.0  0.87411  0.21031  0.07699  1.0000
  C   C1453     1.0  0.86837  0.19131  0.07846  1.0000
  C   C1454     1.0  0.88206  0.18149  0.07849  1.0000
  C   C1455     1.0  0.90150  0.19095  0.07759  1.0000
  C   C1456     1.0  0.90723  0.20992  0.07628  1.0000
  H   H1735     1.0  0.86339  0.21775  0.07663  1.0000
  H   H1736     1.0  0.85336  0.18430  0.07924  1.0000
  H   H1737     1.0  0.91223  0.18353  0.07786  1.0000
  H   H1738     1.0  0.92225  0.21688  0.07570  1.0000
  S   S407      1.0  0.68129  0.07043  0.23348  1.0000
  H   H1739     1.0  0.85352  0.13687  0.16813  1.0000
  H   H1740     1.0  0.75553  0.11486  0.18572  1.0000
  H   H1741     1.0  0.89133  0.18131  0.16557  1.0000
  C   C1457     1.0  0.84593  0.16560  0.14555  1.0000
  H   H1742     1.0  0.88449  0.17550  0.13247  1.0000
  H   H1743     1.0  0.73593  0.04427  0.48177  1.0000
  H   H1744     1.0  0.83262  0.15573  0.15350  1.0000
  C   C1458     1.0  0.87517  0.19933  0.32074  1.0000
  C   C1459     1.0  0.88564  0.21747  0.32007  1.0000
  C   C1460     1.0  0.90571  0.22229  0.32098  1.0000
  C   C1461     1.0  0.91559  0.20898  0.32241  1.0000
  C   C1462     1.0  0.90513  0.19084  0.32278  1.0000
  C   C1463     1.0  0.88505  0.18602  0.32191  1.0000
  H   H1745     1.0  0.87814  0.22787  0.31922  1.0000
  H   H1746     1.0  0.91342  0.23628  0.32067  1.0000
  H   H1747     1.0  0.91259  0.18042  0.32383  1.0000
  H   H1748     1.0  0.87724  0.17201  0.32239  1.0000
  C   C1464     1.0  0.81749  0.12294  0.43051  1.0000
  C   C1465     1.0  0.82262  0.11436  0.45312  1.0000
  H   H1749     1.0  0.77494  0.08702  0.38548  1.0000
  C   C1466     1.0  0.74712  0.08639  0.40478  1.0000
  C   C1467     1.0  0.80128  0.13921  0.45974  1.0000
  C   C1468     1.0  0.80702  0.13561  0.43398  1.0000
  H   H1750     1.0  0.83073  0.10455  0.45066  1.0000
  H   H1751     1.0  0.74959  0.12702  0.43122  1.0000
  H   H1752     1.0  0.79292  0.14882  0.46219  1.0000
  H   H1753     1.0  0.80314  0.14248  0.41684  1.0000
  C   C1469     1.0  0.81679  0.11950  0.23138  1.0000
  C   C1470     1.0  0.80292  0.12907  0.22977  1.0000
  C   C1471     1.0  0.79572  0.13235  0.20499  1.0000
  C   C1472     1.0  0.80225  0.12604  0.18166  1.0000
  C   C1473     1.0  0.81583  0.11618  0.18340  1.0000
  C   C1474     1.0  0.82315  0.11303  0.20810  1.0000
  H   H1754     1.0  0.79758  0.13381  0.24757  1.0000
  H   H1755     1.0  0.78511  0.13989  0.20395  1.0000
  H   H1756     1.0  0.82050  0.11068  0.16585  1.0000
  H   H1757     1.0  0.83369  0.10542  0.20921  1.0000
  C   C1475     1.0  0.71824  0.12352  0.25956  1.0000
  C   C1476     1.0  0.73739  0.13353  0.25595  1.0000
  C   C1477     1.0  0.74947  0.13671  0.27760  1.0000
  C   C1478     1.0  0.74231  0.13040  0.30323  1.0000
  C   C1479     1.0  0.72320  0.12026  0.30685  1.0000
  C   C1480     1.0  0.71130  0.11657  0.28504  1.0000
  H   H1758     1.0  0.74286  0.13914  0.23643  1.0000
  H   H1759     1.0  0.76412  0.14463  0.27461  1.0000
  H   H1760     1.0  0.71747  0.11543  0.32660  1.0000
  H   H1761     1.0  0.69654  0.10897  0.28810  1.0000
  H   H1762     1.0  0.88894  0.21464  0.24190  1.0000
  H   H1763     1.0  0.79930  0.06259  0.03461  1.0000
  H   H1764     1.0  0.81012  0.03139  0.23859  1.0000
  C   C1481     1.0  0.72817  0.05563  0.41689  1.0000
  H   H1765     1.0  0.86558  0.17231  0.45461  1.0000
  C   C1482     1.0  0.73268  0.05208  0.15611  1.0000
  C   C1483     1.0  0.73295  0.10974  0.38878  1.0000
  C   C1484     1.0  0.86622  0.14796  0.16163  1.0000
  C   C1485     1.0  0.66538  0.05818  0.13420  1.0000
  C   C1486     1.0  0.69955  0.00972  0.42403  1.0000
  S   S408      1.0  0.95547  0.25097  0.07109  1.0000
  H   H1766     1.0  0.73407  0.10577  0.20602  1.0000
  N   N99       1.0  0.92158  0.23642  0.40450  1.0000
  C   C1487     1.0  0.89391  0.17997  0.00523  1.0000
  C   C1488     1.0  0.91754  0.23355  0.20594  1.0000
  C   C1489     1.0  0.80042  0.05728  0.17557  1.0000
  C   C1490     1.0  0.86795  0.19358  0.01208  1.0000
  Fe  Fe198     1.0  0.67359  0.06053  0.45121  1.0000
  S   S409      1.0  0.66586  0.03448  0.01734  1.0000
  H   H1767     1.0  0.70964  0.12300  0.17037  1.0000
  H   H1768     1.0  0.89560  0.17510  0.39291  1.0000
  C   C1491     1.0  0.87933  0.17947  0.15180  1.0000
  C   C1492     1.0  0.74925  0.06621  0.15498  1.0000
  C   C1493     1.0  0.67320  0.08370  0.10226  1.0000
  C   C1494     1.0  0.73042  0.07418  0.41621  1.0000
  H   H1769     1.0  0.74056  0.09025  0.32014  1.0000
  H   H1770     1.0  0.72998  0.08196  0.00432  1.0000
  H   H1771     1.0  0.70888  0.03689  0.28926  1.0000
  N   N100      1.0  0.86214  0.16581  0.16288  1.0000
  N   N101      1.0  0.79133  0.03008  0.45141  1.0000
  C   C1495     1.0  0.74082  0.07539  0.06830  1.0000
  C   C1496     1.0  0.92818  0.23412  0.43169  1.0000
  H   H1772     1.0  0.76657  0.10692  0.29072  1.0000
  C   C1497     1.0  0.67421  0.07233  0.08134  1.0000
  H   H1773     1.0  0.78093  0.09181  0.25657  1.0000
  C   C1498     1.0  0.77082  0.06592  0.03890  1.0000
  C   C1499     1.0  0.89314  0.18835  0.39342  1.0000
  H   H1774     1.0  0.73064  0.02752  0.31967  1.0000
  H   H1775     1.0  0.78362  0.00359  0.16696  1.0000
  C   C1500     1.0  0.90545  0.22087  0.39884  1.0000
  H   H1776     1.0  0.91577  0.23955  0.12829  1.0000
  H   H1777     1.0  0.81055  0.02743  0.03544  1.0000
  H   H1778     1.0  0.75427  0.02306  0.47095  1.0000
  C   C1501     1.0  0.80592  0.02964  0.19555  1.0000
  H   H1779     1.0  0.79802  0.06485  0.15805  1.0000
  C   C1502     1.0  0.90798  0.20322  0.39928  1.0000
  C   C1503     1.0  0.82161  0.01065  0.17052  1.0000
  H   H1780     1.0  0.73911  0.12804  0.19128  1.0000
  H   H1781     1.0  0.70124  0.10433  0.14969  1.0000
  N   N102      1.0  0.72952  0.10684  0.16400  1.0000
  C   C1504     1.0  0.72850  0.03750  0.33404  1.0000
  H   H1782     1.0  0.84693  0.20510  0.22336  1.0000
  H   H1783     1.0  0.94766  0.24443  0.24042  1.0000
  C   C1505     1.0  0.71494  0.05563  0.15943  1.0000
  H   H1784     1.0  0.87660  0.19280  0.14766  1.0000
  H   H1785     1.0  0.87841  0.14717  0.17405  1.0000
  N   N103      1.0  0.72280  0.05282  0.32118  1.0000
  H   H1786     1.0  0.93643  0.22955  0.26741  1.0000
  C   C1506     1.0  0.71917  0.05490  0.04174  1.0000
  H   H1787     1.0  0.74689  0.09683  0.02385  1.0000
  C   C1507     1.0  0.73868  0.06378  0.30367  1.0000
  C   C1508     1.0  0.74698  0.05560  0.28330  1.0000
  C   C1509     1.0  0.74611  0.08267  0.30576  1.0000
  C   C1510     1.0  0.76203  0.06561  0.26654  1.0000
  C   C1511     1.0  0.76113  0.09252  0.28883  1.0000
  C   C1512     1.0  0.76917  0.08403  0.26942  1.0000
  C   C1513     1.0  0.79999  0.01896  0.02334  1.0000
  H   H1788     1.0  0.72191  0.09013  0.03407  1.0000
  H   H1789     1.0  0.94363  0.22575  0.38656  1.0000
  H   H1790     1.0  0.88625  0.23480  0.15630  1.0000
  C   C1514     1.0  0.67061  0.07378  0.33483  1.0000
  H   H1791     1.0  0.90480  0.21224  0.26697  1.0000
  H   H1792     1.0  0.77963  0.11509  0.40142  1.0000
  C   C1515     1.0  0.87235  0.20766  0.38654  1.0000
  H   H1793     1.0  0.89929  0.16812  0.00610  1.0000
  H   H1794     1.0  0.74179  0.04139  0.28013  1.0000
  H   H1795     1.0  0.71093  0.07405  0.33460  1.0000
  H   H1796     1.0  0.76814  0.05906  0.25118  1.0000
  H   H1797     1.0  0.84953  0.15360  0.25488  1.0000
  H   H1798     1.0  0.73274  0.10458  0.36838  1.0000
  H   H1799     1.0  0.73384  0.10587  0.44171  1.0000
  N   N104      1.0  0.73700  0.06978  0.04059  1.0000
  H   H1800     1.0  0.77822  0.01455  0.05383  1.0000
  C   C1516     1.0  0.91238  0.24706  0.24723  1.0000
  N   N105      1.0  0.80763  0.01108  0.19250  1.0000
  H   H1801     1.0  0.70107  0.05667  0.29518  1.0000
  H   H1802     1.0  0.84481  0.15553  0.46756  1.0000
  H   H1803     1.0  0.87008  0.14508  0.14091  1.0000
  H   H1804     1.0  0.84888  0.16183  0.12499  1.0000
  H   H1805     1.0  0.85720  0.14484  0.21117  1.0000
  H   H1806     1.0  0.68760  0.01536  0.42653  1.0000
  H   H1807     1.0  0.73131  0.11268  0.12176  1.0000
  H   H1808     1.0  0.74661  0.01418  0.05413  1.0000
  C   C1517     1.0  0.70977  0.10878  0.16737  1.0000
  C   C1518     1.0  0.73851  0.11802  0.14012  1.0000
  C   C1519     1.0  0.91620  0.23769  0.14973  1.0000
  C   C1520     1.0  0.85734  0.17039  0.19013  1.0000
  H   H1809     1.0  0.85483  0.19716  0.17853  1.0000
  H   H1810     1.0  0.70222  0.10099  0.18534  1.0000
  H   H1811     1.0  0.75390  0.11864  0.13733  1.0000
  H   H1812     1.0  0.91631  0.23255  0.44685  1.0000
  H   H1813     1.0  0.73782  0.13221  0.14158  1.0000
  C   C1521     1.0  0.85415  0.18745  0.19476  1.0000
  H   H1814     1.0  0.88381  0.23549  0.39083  1.0000
  H   H1815     1.0  0.92386  0.23296  0.03111  1.0000
  H   H1816     1.0  0.72835  0.07899  0.07786  1.0000
  H   H1817     1.0  0.83569  0.02027  0.17362  1.0000
  C   C1522     1.0  0.74006  0.11413  0.18771  1.0000
  N   N106      1.0  0.91782  0.23170  0.23534  1.0000
  C   C1523     1.0  0.80208  0.03975  0.17330  1.0000
  H   H1818     1.0  0.86408  0.17914  0.38151  1.0000
  H   H1819     1.0  0.76141  0.09445  0.15664  1.0000
  H   H1820     1.0  0.94193  0.22028  0.23708  1.0000
  C   C1524     1.0  0.85430  0.16914  0.47084  1.0000
  C   C1525     1.0  0.67577  0.08089  0.35980  1.0000
  C   C1526     1.0  0.74815  0.08393  0.15736  1.0000
  C   C1527     1.0  0.73030  0.08801  0.16099  1.0000
  H   H1821     1.0  0.76830  0.11315  0.36982  1.0000
  H   H1822     1.0  0.74380  0.06440  0.08097  1.0000
  H   H1823     1.0  0.86549  0.16533  0.01862  1.0000
  C   C1528     1.0  0.93427  0.23643  0.18912  1.0000
  H   H1824     1.0  0.73353  0.03832  0.15459  1.0000
  C   C1529     1.0  0.84966  0.19215  0.22031  1.0000
  H   H1825     1.0  0.69946  0.07490  0.16481  1.0000
  H   H1826     1.0  0.77916  0.02676  0.41275  1.0000
  C   C1530     1.0  0.66771  0.05089  0.38002  1.0000
  N   N107      1.0  0.74883  0.10596  0.40384  1.0000
  C   C1531     1.0  0.71368  0.07326  0.16191  1.0000
  H   H1827     1.0  0.70199  0.04464  0.16040  1.0000
  C   C1532     1.0  0.85109  0.16315  0.23807  1.0000
  H   H1828     1.0  0.73747  0.05523  0.99144  1.0000
  H   H1829     1.0  0.76741  0.00981  0.43749  1.0000
  C   C1533     1.0  0.80746  0.03804  0.22045  1.0000
  H   H1830     1.0  0.70523  0.05440  0.35599  1.0000
  H   H1831     1.0  0.79396  0.00393  0.10590  1.0000
  H   H1832     1.0  0.78978  0.00921  0.42329  1.0000
  H   H1833     1.0  0.94823  0.23752  0.19676  1.0000
  C   C1534     1.0  0.84821  0.18004  0.24194  1.0000
  C   C1535     1.0  0.67080  0.05387  0.08702  1.0000
  H   H1834     1.0  0.67173  0.04495  0.07130  1.0000
  H   H1835     1.0  0.92163  0.20084  0.40345  1.0000
  H   H1836     1.0  0.76304  0.06341  0.15247  1.0000
  H   H1837     1.0  0.73431  0.12445  0.38634  1.0000
  H   H1838     1.0  0.94969  0.24966  0.38782  1.0000
  C   C1536     1.0  0.88709  0.22265  0.39231  1.0000
  C   C1537     1.0  0.66862  0.07664  0.12856  1.0000
  Fe  Fe199     1.0  0.67609  0.09780  0.23428  1.0000
  Fe  Fe200     1.0  0.67360  0.06439  0.01245  1.0000
  H   H1839     1.0  0.82786  0.01185  0.22328  1.0000
  C   C1538     1.0  0.75056  0.05668  0.00183  1.0000
  H   H1840     1.0  0.81680  0.01398  0.15071  1.0000
  C   C1539     1.0  0.73379  0.08532  0.02506  1.0000
  H   H1841     1.0  0.85866  0.20933  0.38051  1.0000
  H   H1842     1.0  0.75928  0.10926  0.44339  1.0000
  H   H1843     1.0  0.71520  0.04664  0.42575  1.0000
  C   C1540     1.0  0.80562  0.05557  0.22254  1.0000
  C   C1541     1.0  0.87536  0.19058  0.38706  1.0000
  H   H1844     1.0  0.81880  0.11091  0.99596  1.0000
  C   C1542     1.0  0.75923  0.06025  0.39525  1.0000
  C   C1543     1.0  0.76161  0.07886  0.39437  1.0000
  C   C1544     1.0  0.74254  0.04866  0.40645  1.0000
  H   H1845     1.0  0.68090  0.09529  0.36147  1.0000
  H   H1846     1.0  0.80031  0.03417  0.15391  1.0000
  C   C1545     1.0  0.93348  0.23840  0.16146  1.0000
  H   H1847     1.0  0.71888  0.07890  0.42468  1.0000
  H   H1848     1.0  0.76787  0.13147  0.39004  1.0000
  C   C1546     1.0  0.89957  0.23496  0.16561  1.0000
  H   H1849     1.0  0.67187  0.08271  0.31747  1.0000
  H   H1850     1.0  0.93294  0.23836  0.36435  1.0000
  S   S410      1.0  0.67995  0.08168  0.04851  1.0000
  H   H1851     1.0  0.88697  0.23125  0.20480  1.0000
  H   H1852     1.0  0.71869  0.10364  0.39864  1.0000
  C   C1547     1.0  0.93681  0.23146  0.24531  1.0000
  H   H1853     1.0  0.89894  0.24669  0.01420  1.0000
  C   C1548     1.0  0.80205  0.06512  0.20018  1.0000
  H   H1854     1.0  0.71391  0.05103  0.02176  1.0000
  C   C1549     1.0  0.70492  0.00562  0.39845  1.0000
  C   C1550     1.0  0.76699  0.11682  0.39080  1.0000
  H   H1855     1.0  0.77044  0.05479  0.38722  1.0000
  H   H1856     1.0  0.74078  0.03426  0.40723  1.0000
  C   C1551     1.0  0.78055  0.04326  0.45838  1.0000
  H   H1857     1.0  0.91308  0.24657  0.26931  1.0000
  H   H1858     1.0  0.69365  0.03726  0.31753  1.0000
  C   C1552     1.0  0.74782  0.11223  0.43125  1.0000
  C   C1553     1.0  0.90400  0.21468  0.24515  1.0000
  H   H1859     1.0  0.90686  0.20292  0.23525  1.0000
  H   H1860     1.0  0.74195  0.04220  0.34475  1.0000
  C   C1554     1.0  0.78557  0.06077  0.02556  1.0000
  H   H1861     1.0  0.80058  0.07865  0.20192  1.0000
  H   H1862     1.0  0.70723  0.05868  0.05239  1.0000
  C   C1555     1.0  0.75276  0.06396  0.02744  1.0000
  H   H1863     1.0  0.93804  0.22393  0.00832  1.0000
  H   H1864     1.0  0.80716  0.06189  0.24160  1.0000
  C   C1556     1.0  0.70596  0.04561  0.30507  1.0000
  C   C1557     1.0  0.93765  0.23758  0.38507  1.0000
  C   C1558     1.0  0.78282  0.05354  0.00055  1.0000
  H   H1865     1.0  0.75306  0.08759  0.06887  1.0000
  C   C1559     1.0  0.71680  0.06310  0.34274  1.0000
  C   C1560     1.0  0.90621  0.19684  0.99813  1.0000
  S   S411      1.0  0.68095  0.07869  0.41369  1.0000
  C   C1561     1.0  0.90454  0.24578  0.99355  1.0000
  H   H1866     1.0  0.79436  0.04976  0.99016  1.0000
  H   H1867     1.0  0.72884  0.06895  0.35559  1.0000
  H   H1868     1.0  0.72130  0.04265  0.05210  1.0000
  H   H1869     1.0  0.77407  0.07165  0.05795  1.0000
  H   H1870     1.0  0.73806  0.01460  0.02095  1.0000
  C   C1562     1.0  0.81722  0.11824  0.47890  1.0000
  S   S412      1.0  0.90005  0.24377  0.07316  1.0000
  H   H1871     1.0  0.85319  0.19227  0.01826  1.0000
  H   H1872     1.0  0.87404  0.22182  0.00682  1.0000
  H   H1873     1.0  0.66762  0.08548  0.14444  1.0000
  C   C1563     1.0  0.75069  0.04930  0.47465  1.0000
  H   H1874     1.0  0.94647  0.24088  0.14902  1.0000
  C   C1564     1.0  0.78150  0.01859  0.43031  1.0000
  C   C1565     1.0  0.92927  0.23367  0.01009  1.0000
  H   H1875     1.0  0.93930  0.24717  0.00624  1.0000
  N   N108      1.0  0.91332  0.23047  0.99162  1.0000
  H   H1876     1.0  0.67576  0.09800  0.09807  1.0000
  C   C1566     1.0  0.88019  0.21056  0.00544  1.0000
  C   C1567     1.0  0.80497  0.01556  0.99748  1.0000
  C   C1568     1.0  0.76132  0.03722  0.46825  1.0000
  C   C1569     1.0  0.78144  0.01143  0.03377  1.0000
  H   H1877     1.0  0.89762  0.24740  0.24263  1.0000
  H   H1878     1.0  0.69689  0.00797  0.38157  1.0000
  H   H1879     1.0  0.66675  0.04188  0.39707  1.0000
  C   C1570     1.0  0.76530  0.05135  0.98882  1.0000
  H   H1880     1.0  0.80052  0.00850  0.47073  1.0000
  H   H1881     1.0  0.92095  0.19743  0.99317  1.0000
  H   H1882     1.0  0.81894  0.02819  0.43663  1.0000
  C   C1571     1.0  0.78849  0.06221  0.45541  1.0000
  H   H1883     1.0  0.78408  0.08857  0.45962  1.0000
  H   H1884     1.0  0.93997  0.24589  0.43685  1.0000
  H   H1885     1.0  0.80297  0.06819  0.44802  1.0000
  S   S413      1.0  0.70324  0.01145  0.47841  1.0000
  C   C1572     1.0  0.75886  0.06774  0.47151  1.0000
  C   C1573     1.0  0.73885  0.00564  0.03851  1.0000
  C   C1574     1.0  0.81126  0.03851  0.44151  1.0000
  C   C1575     1.0  0.77772  0.07419  0.46198  1.0000
  H   H1886     1.0  0.84523  0.17860  0.46831  1.0000
  S   S414      1.0  0.69616  0.05848  0.47990  1.0000
  C   C1576     1.0  0.70940  0.00616  0.44616  1.0000
  H   H1887     1.0  0.75053  0.07703  0.47649  1.0000
  Fe  Fe201     1.0  0.68270  0.02882  0.47980  1.0000
  H   H1888     1.0  0.66404  0.03256  0.11750  1.0000
  C   C1577     1.0  0.66394  0.05517  0.33250  1.0000
  H   H1889     1.0  0.77787  0.01019  0.48235  1.0000
  H   H1890     1.0  0.74844  0.11966  0.68619  1.0000
  C   C1578     1.0  0.66665  0.04700  0.58753  1.0000
  C   C1579     1.0  0.74106  0.05393  0.55259  1.0000
  H   H1891     1.0  0.72833  0.04786  0.60336  1.0000
  C   C1580     1.0  0.67486  0.06539  0.58235  1.0000
  H   H1892     1.0  0.82110  0.11137  0.49606  1.0000
  S   S415      1.0  0.70762  0.11184  0.72840  1.0000
  Fe  Fe202     1.0  0.67788  0.09289  0.73253  1.0000
  Fe  Fe203     1.0  0.81658  0.13102  0.86017  1.0000
  S   S416      1.0  0.80641  0.15599  0.85901  1.0000
  S   S417      1.0  0.82248  0.11757  0.89861  1.0000
  Fe  Fe204     1.0  0.81868  0.13042  0.79894  1.0000
  S   S418      1.0  0.80885  0.15547  0.79390  1.0000
  S   S419      1.0  0.82714  0.11704  0.76310  1.0000
  Fe  Fe205     1.0  0.82912  0.16574  0.82633  1.0000
  S   S420      1.0  0.84949  0.19374  0.82446  1.0000
  Fe  Fe206     1.0  0.78745  0.14271  0.82682  1.0000
  S   S421      1.0  0.75553  0.13916  0.82945  1.0000
  S   S422      1.0  0.84031  0.14145  0.82926  1.0000
  S   S423      1.0  0.79625  0.11699  0.83012  1.0000
  C   C1581     1.0  0.71992  0.05504  0.82445  1.0000
  C   C1582     1.0  0.79136  0.00485  0.98188  1.0000
  H   H1893     1.0  0.89456  0.22781  0.66457  1.0000
  C   C1583     1.0  0.76632  0.07311  0.91025  1.0000
  Fe  Fe207     1.0  0.95994  0.24016  0.81697  1.0000
  S   S424      1.0  0.94050  0.21165  0.81653  1.0000
  C   C1584     1.0  0.71891  0.06557  0.80104  1.0000
  C   C1585     1.0  0.71705  0.04496  0.58841  1.0000
  C   C1586     1.0  0.88184  0.22068  0.50200  1.0000
  Fe  Fe208     1.0  0.81232  0.12823  0.61292  1.0000
  S   S425      1.0  0.83944  0.11953  0.61386  1.0000
  S   S426      1.0  0.79596  0.13219  0.65038  1.0000
  Fe  Fe209     1.0  0.81269  0.12898  0.55176  1.0000
  S   S427      1.0  0.83968  0.12019  0.54944  1.0000
  S   S428      1.0  0.79851  0.13526  0.51426  1.0000
  Fe  Fe210     1.0  0.82574  0.10030  0.58291  1.0000
  S   S429      1.0  0.82501  0.07051  0.58243  1.0000
  Fe  Fe211     1.0  0.85001  0.14061  0.58060  1.0000
  S   S430      1.0  0.88009  0.16024  0.57800  1.0000
  S   S431      1.0  0.79822  0.10817  0.58346  1.0000
  S   S432      1.0  0.82349  0.15026  0.58137  1.0000
  C   C1587     1.0  0.77594  0.02086  0.60960  1.0000
  C   C1588     1.0  0.77363  0.03830  0.61195  1.0000
  C   C1589     1.0  0.78837  0.05366  0.60365  1.0000
  C   C1590     1.0  0.80561  0.05174  0.59259  1.0000
  C   C1591     1.0  0.80774  0.03431  0.58969  1.0000
  C   C1592     1.0  0.79303  0.01900  0.59803  1.0000
  H   H1894     1.0  0.76033  0.03994  0.62011  1.0000
  H   H1895     1.0  0.78640  0.06695  0.60585  1.0000
  H   H1896     1.0  0.82093  0.03261  0.58095  1.0000
  Fe  Fe212     1.0  0.67441  0.05833  0.51279  1.0000
  C   C1593     1.0  0.90179  0.22254  0.57549  1.0000
  C   C1594     1.0  0.88205  0.21403  0.57684  1.0000
  C   C1595     1.0  0.87514  0.19508  0.57792  1.0000
  C   C1596     1.0  0.88790  0.18428  0.57767  1.0000
  C   C1597     1.0  0.90764  0.19278  0.57676  1.0000
  C   C1598     1.0  0.91455  0.21174  0.57573  1.0000
  H   H1897     1.0  0.87200  0.22218  0.57683  1.0000
  H   H1898     1.0  0.85993  0.18886  0.57883  1.0000
  H   H1899     1.0  0.91769  0.18462  0.57661  1.0000
  H   H1900     1.0  0.92976  0.21797  0.57480  1.0000
  H   H1901     1.0  0.93524  0.20078  0.72366  1.0000
  H   H1902     1.0  0.78104  0.07235  0.90958  1.0000
  H   H1903     1.0  0.89153  0.23179  0.89190  1.0000
  H   H1904     1.0  0.76229  0.10385  0.68695  1.0000
  S   S433      1.0  0.98260  0.25191  0.78495  1.0000
  H   H1905     1.0  0.73216  0.08905  0.77610  1.0000
  H   H1906     1.0  0.92328  0.22833  0.87806  1.0000
  H   H1907     1.0  0.66823  0.08175  0.81575  1.0000
  C   C1599     1.0  0.87476  0.19830  0.82283  1.0000
  C   C1600     1.0  0.88411  0.18459  0.82307  1.0000
  C   C1601     1.0  0.90422  0.18887  0.82088  1.0000
  C   C1602     1.0  0.91520  0.20687  0.81867  1.0000
  C   C1603     1.0  0.90580  0.22053  0.81841  1.0000
  C   C1604     1.0  0.88572  0.21626  0.82047  1.0000
  H   H1908     1.0  0.87594  0.17069  0.82473  1.0000
  H   H1909     1.0  0.91134  0.17819  0.82111  1.0000
  H   H1910     1.0  0.91396  0.23442  0.81666  1.0000
  H   H1911     1.0  0.87865  0.22698  0.82021  1.0000
  C   C1605     1.0  0.81484  0.12246  0.93058  1.0000
  C   C1606     1.0  0.82050  0.11424  0.95309  1.0000
  C   C1607     1.0  0.87182  0.15485  0.50009  1.0000
  C   C1608     1.0  0.67779  0.07693  0.60370  1.0000
  C   C1609     1.0  0.79710  0.13731  0.95983  1.0000
  C   C1610     1.0  0.80329  0.13419  0.93404  1.0000
  H   H1912     1.0  0.82940  0.10511  0.95061  1.0000
  H   H1913     1.0  0.85526  0.16900  0.86960  1.0000
  H   H1914     1.0  0.78796  0.14622  0.96237  1.0000
  H   H1915     1.0  0.79898  0.14073  0.91690  1.0000
  C   C1611     1.0  0.81804  0.12116  0.73208  1.0000
  C   C1612     1.0  0.80301  0.12930  0.73006  1.0000
  C   C1613     1.0  0.79629  0.13257  0.70494  1.0000
  C   C1614     1.0  0.80459  0.12780  0.68170  1.0000
  C   C1615     1.0  0.81955  0.11963  0.68383  1.0000
  C   C1616     1.0  0.82620  0.11628  0.70889  1.0000
  H   H1916     1.0  0.79641  0.13289  0.74782  1.0000
  H   H1917     1.0  0.78467  0.13887  0.70354  1.0000
  H   H1918     1.0  0.82594  0.11569  0.66627  1.0000
  H   H1919     1.0  0.83779  0.10993  0.71029  1.0000
  C   C1617     1.0  0.72066  0.11905  0.75686  1.0000
  C   C1618     1.0  0.71171  0.11750  0.78215  1.0000
  C   C1619     1.0  0.72250  0.12380  0.80429  1.0000
  C   C1620     1.0  0.74234  0.13121  0.80140  1.0000
  C   C1621     1.0  0.75133  0.13232  0.77622  1.0000
  C   C1622     1.0  0.74049  0.12650  0.75399  1.0000
  H   H1920     1.0  0.69643  0.11183  0.78456  1.0000
  H   H1921     1.0  0.71539  0.12298  0.82363  1.0000
  H   H1922     1.0  0.76658  0.13810  0.77375  1.0000
  H   H1923     1.0  0.74753  0.12786  0.73452  1.0000
  H   H1924     1.0  0.71188  0.05722  0.58557  1.0000
  H   H1925     1.0  0.76306  0.03907  0.55510  1.0000
  C   C1623     1.0  0.67087  0.08104  0.85844  1.0000
  Fe  Fe213     1.0  0.68491  0.03538  0.98111  1.0000
  H   H1926     1.0  0.93732  0.24186  0.61747  1.0000
  H   H1927     1.0  0.92805  0.20813  0.67804  1.0000
  C   C1624     1.0  0.85022  0.16925  0.89064  1.0000
  H   H1928     1.0  0.89279  0.24471  0.97953  1.0000
  H   H1929     1.0  0.69141  0.05268  0.85915  1.0000
  C   C1625     1.0  0.72851  0.07511  0.91199  1.0000
  H   H1930     1.0  0.75096  0.13654  0.89072  1.0000
  H   H1931     1.0  0.70720  0.06211  0.78778  1.0000
  H   H1932     1.0  0.70971  0.09614  0.67890  1.0000
  N   N109      1.0  0.73761  0.09667  0.66237  1.0000
  N   N110      1.0  0.86278  0.17928  0.73784  1.0000
  C   C1626     1.0  0.85497  0.16208  0.75333  1.0000
  C   C1627     1.0  0.88199  0.18780  0.74772  1.0000
  C   C1628     1.0  0.85045  0.19142  0.74358  1.0000
  C   C1629     1.0  0.86295  0.17577  0.70907  1.0000
  C   C1630     1.0  0.84556  0.16872  0.69627  1.0000
  C   C1631     1.0  0.88012  0.17875  0.69309  1.0000
  C   C1632     1.0  0.84534  0.16533  0.66914  1.0000
  C   C1633     1.0  0.87970  0.17510  0.66600  1.0000
  C   C1634     1.0  0.86235  0.16848  0.65405  1.0000
  H   H1933     1.0  0.86312  0.15209  0.74880  1.0000
  H   H1934     1.0  0.85526  0.16399  0.77518  1.0000
  H   H1935     1.0  0.83985  0.15573  0.74894  1.0000
  H   H1936     1.0  0.89161  0.17874  0.74635  1.0000
  H   H1937     1.0  0.88123  0.19091  0.76908  1.0000
  H   H1938     1.0  0.88876  0.20082  0.73681  1.0000
  H   H1939     1.0  0.83518  0.18521  0.73981  1.0000
  H   H1940     1.0  0.85071  0.19494  0.76493  1.0000
  H   H1941     1.0  0.85514  0.20419  0.73131  1.0000
  H   H1942     1.0  0.83196  0.16548  0.70722  1.0000
  H   H1943     1.0  0.89404  0.18361  0.70113  1.0000
  H   H1944     1.0  0.83186  0.15996  0.65982  1.0000
  H   H1945     1.0  0.89286  0.17710  0.65413  1.0000
  H   H1946     1.0  0.86210  0.16553  0.63310  1.0000
  C   C1635     1.0  0.72892  0.02198  0.56858  1.0000
  H   H1947     1.0  0.75965  0.09927  0.80449  1.0000
  C   C1636     1.0  0.93685  0.24469  0.73043  1.0000
  C   C1637     1.0  0.93998  0.23837  0.63842  1.0000
  C   C1638     1.0  0.93009  0.21857  0.69229  1.0000
  C   C1639     1.0  0.79731  0.05686  0.70608  1.0000
  H   H1948     1.0  0.68777  0.01503  0.93369  1.0000
  H   H1949     1.0  0.76261  0.04681  0.66914  1.0000
  H   H1950     1.0  0.80889  0.00983  0.72837  1.0000
  N   N111      1.0  0.70511  0.03833  0.83256  1.0000
  N   N112      1.0  0.86280  0.16999  0.49739  1.0000
  C   C1640     1.0  0.93276  0.24920  0.70451  1.0000
  C   C1641     1.0  0.89568  0.19023  0.50660  1.0000
  C   C1642     1.0  0.70103  0.01146  0.93072  1.0000
  C   C1643     1.0  0.87938  0.20346  0.90103  1.0000
  H   H1951     1.0  0.71260  0.09624  0.87946  1.0000
  H   H1952     1.0  0.87637  0.23248  0.50115  1.0000
  H   H1953     1.0  0.67813  0.02128  0.82073  1.0000
  C   C1644     1.0  0.75157  0.05766  0.91612  1.0000
  C   C1645     1.0  0.87623  0.18789  0.50035  1.0000
  H   H1954     1.0  0.85867  0.14103  0.91393  1.0000
  H   H1955     1.0  0.92903  0.19826  0.87841  1.0000
  C   C1646     1.0  0.93752  0.22725  0.73735  1.0000
  H   H1956     1.0  0.70326  0.04809  0.54056  1.0000
  H   H1957     1.0  0.75146  0.11951  0.63636  1.0000
  C   C1647     1.0  0.74314  0.09113  0.90589  1.0000
  C   C1648     1.0  0.71391  0.01327  0.95118  1.0000
  H   H1958     1.0  0.84706  0.15955  0.94308  1.0000
  H   H1959     1.0  0.92230  0.20875  0.51595  1.0000
  C   C1649     1.0  0.73599  0.06130  0.84030  1.0000
  C   C1650     1.0  0.73321  0.08123  0.79403  1.0000
  C   C1651     1.0  0.75017  0.07703  0.83311  1.0000
  C   C1652     1.0  0.74875  0.08699  0.81003  1.0000
  H   H1960     1.0  0.73771  0.05399  0.85835  1.0000
  H   H1961     1.0  0.94091  0.22392  0.75745  1.0000
  H   H1962     1.0  0.83821  0.15702  0.89493  1.0000
  H   H1963     1.0  0.90399  0.17168  0.89232  1.0000
  H   H1964     1.0  0.76392  0.10261  0.63828  1.0000
  C   C1653     1.0  0.81236  0.06179  0.66215  1.0000
  H   H1965     1.0  0.69451  0.03108  0.79370  1.0000
  H   H1966     1.0  0.71434  0.03300  0.52402  1.0000
  S   S434      1.0  0.70907  0.02197  0.98169  1.0000
  C   C1654     1.0  0.88209  0.18588  0.90134  1.0000
  C   C1655     1.0  0.75981  0.05160  0.54980  1.0000
  H   H1967     1.0  0.68415  0.09118  0.59988  1.0000
  H   H1968     1.0  0.76425  0.12627  0.91288  1.0000
  N   N113      1.0  0.92452  0.24037  0.65702  1.0000
  H   H1969     1.0  0.71149  0.09665  0.64291  1.0000
  C   C1656     1.0  0.93423  0.21422  0.71828  1.0000
  H   H1970     1.0  0.71363  0.07516  0.91278  1.0000
  S   S435      1.0  0.67540  0.08009  0.91247  1.0000
  C   C1657     1.0  0.92125  0.23085  0.96402  1.0000
  H   H1971     1.0  0.83197  0.01633  0.65974  1.0000
  H   H1972     1.0  0.90966  0.22773  0.94957  1.0000
  H   H1973     1.0  0.88260  0.15202  0.92166  1.0000
  C   C1658     1.0  0.71386  0.02302  0.83421  1.0000
  C   C1659     1.0  0.74934  0.10466  0.63816  1.0000
  S   S436      1.0  0.69437  0.06546  0.97799  1.0000
  C   C1660     1.0  0.80617  0.03188  0.68460  1.0000
  H   H1974     1.0  0.75242  0.09842  0.53101  1.0000
  H   H1975     1.0  0.70472  0.03430  0.59728  1.0000
  C   C1661     1.0  0.92903  0.23617  0.68464  1.0000
  H   H1976     1.0  0.70400  0.06791  0.66296  1.0000
  C   C1662     1.0  0.81321  0.04388  0.66229  1.0000
  H   H1977     1.0  0.74257  0.09875  0.61984  1.0000
  H   H1978     1.0  0.76389  0.12196  0.87769  1.0000
  C   C1663     1.0  0.75166  0.07019  0.66595  1.0000
  H   H1979     1.0  0.75470  0.04481  0.91983  1.0000
  H   H1980     1.0  0.72130  0.11643  0.66077  1.0000
  H   H1981     1.0  0.67993  0.09463  0.85854  1.0000
  C   C1664     1.0  0.74739  0.10499  0.68607  1.0000
  H   H1982     1.0  0.67475  0.07927  0.64616  1.0000
  C   C1665     1.0  0.71727  0.06414  0.66392  1.0000
  C   C1666     1.0  0.90771  0.20733  0.51025  1.0000
  H   H1983     1.0  0.86562  0.20559  0.90623  1.0000
  H   H1984     1.0  0.79494  0.00576  0.59525  1.0000
  C   C1667     1.0  0.66444  0.05180  0.63519  1.0000
  H   H1985     1.0  0.73949  0.09873  0.70480  1.0000
  H   H1986     1.0  0.72095  0.02134  0.81492  1.0000
  C   C1668     1.0  0.73536  0.07701  0.66406  1.0000
  H   H1987     1.0  0.72129  0.04679  0.92227  1.0000
  S   S437      1.0  0.67656  0.06357  0.73752  1.0000
  H   H1988     1.0  0.70173  0.03616  0.66547  1.0000
  C   C1669     1.0  0.71574  0.04568  0.66542  1.0000
  H   H1989     1.0  0.76587  0.07915  0.66613  1.0000
  N   N114      1.0  0.80687  0.01285  0.68558  1.0000
  C   C1670     1.0  0.73204  0.03946  0.66722  1.0000
  C   C1671     1.0  0.74994  0.05170  0.66770  1.0000
  C   C1672     1.0  0.81695  0.00795  0.66202  1.0000
  C   C1673     1.0  0.73274  0.05872  0.91727  1.0000
  H   H1990     1.0  0.93093  0.24430  0.95799  1.0000
  C   C1674     1.0  0.76229  0.08967  0.90531  1.0000
  H   H1991     1.0  0.83131  0.01859  0.71016  1.0000
  C   C1675     1.0  0.69664  0.04037  0.85908  1.0000
  Fe  Fe214     1.0  0.66972  0.06312  0.95116  1.0000
  C   C1676     1.0  0.71919  0.10158  0.66109  1.0000
  C   C1677     1.0  0.70516  0.00473  0.90637  1.0000
  C   C1678     1.0  0.86973  0.20369  0.49797  1.0000
  H   H1992     1.0  0.76236  0.08152  0.84545  1.0000
  H   H1993     1.0  0.71294  0.10244  0.92676  1.0000
  H   H1994     1.0  0.84406  0.18095  0.89193  1.0000
  H   H1995     1.0  0.68194  0.04449  0.81191  1.0000
  C   C1679     1.0  0.67247  0.07021  0.62997  1.0000
  H   H1996     1.0  0.97844  0.24376  0.94855  1.0000
  H   H1997     1.0  0.72272  0.11957  0.87147  1.0000
  C   C1680     1.0  0.72638  0.10674  0.87658  1.0000
  C   C1681     1.0  0.90058  0.18444  0.89338  1.0000
  H   H1998     1.0  0.94152  0.22443  0.63873  1.0000
  C   C1682     1.0  0.89414  0.21858  0.89298  1.0000
  H   H1999     1.0  0.77449  0.10107  0.90111  1.0000
  H   H2000     1.0  0.72506  0.07409  0.54725  1.0000
  C   C1683     1.0  0.73884  0.07122  0.54541  1.0000
  N   N115      1.0  0.86599  0.17005  0.90897  1.0000
  H   H2001     1.0  0.69667  0.02490  0.55038  1.0000
  H   H2002     1.0  0.83738  0.15334  0.51752  1.0000
  C   C1684     1.0  0.91203  0.21668  0.88521  1.0000
  C   C1685     1.0  0.87107  0.15263  0.90791  1.0000
  H   H2003     1.0  0.81949  0.03983  0.64462  1.0000
  C   C1686     1.0  0.91526  0.19967  0.88550  1.0000
  H   H2004     1.0  0.87551  0.15009  0.88734  1.0000
  H   H2005     1.0  0.80399  0.08218  0.68386  1.0000
  N   N116      1.0  0.72444  0.03945  0.56314  1.0000
  C   C1687     1.0  0.85886  0.17157  0.93651  1.0000
  H   H2006     1.0  0.73411  0.10347  0.85881  1.0000
  C   C1688     1.0  0.72704  0.11243  0.92341  1.0000
  N   N117      1.0  0.73818  0.10830  0.90038  1.0000
  H   H2007     1.0  0.73497  0.11274  0.94205  1.0000
  C   C1689     1.0  0.90626  0.22781  0.64980  1.0000
  H   H2008     1.0  0.79220  0.03056  0.72394  1.0000
  H   H2009     1.0  0.72481  0.02468  0.84953  1.0000
  C   C1690     1.0  0.75512  0.12388  0.89532  1.0000
  H   H2010     1.0  0.72383  0.12569  0.92038  1.0000
  H   H2011     1.0  0.70699  0.04134  0.87509  1.0000
  H   H2012     1.0  0.74129  0.01022  0.96252  1.0000
  H   H2013     1.0  0.87046  0.17282  0.95084  1.0000
  H   H2014     1.0  0.85504  0.20293  0.49379  1.0000
  H   H2015     1.0  0.85295  0.18338  0.93848  1.0000
  H   H2016     1.0  0.90732  0.21378  0.64829  1.0000
  C   C1691     1.0  0.68931  0.03363  0.81383  1.0000
  H   H2017     1.0  0.79893  0.02649  0.49192  1.0000
  H   H2018     1.0  0.85322  0.16833  0.53839  1.0000
  C   C1692     1.0  0.75439  0.08525  0.53607  1.0000
  H   H2019     1.0  0.92992  0.22106  0.96161  1.0000
  H   H2020     1.0  0.79134  0.06204  0.72315  1.0000
  H   H2021     1.0  0.81795  0.07071  0.64492  1.0000
  H   H2022     1.0  0.78954  0.06383  0.53925  1.0000
  C   C1693     1.0  0.84729  0.16699  0.51819  1.0000
  C   C1694     1.0  0.77526  0.06576  0.54053  1.0000
  C   C1695     1.0  0.77255  0.08252  0.53361  1.0000
  H   H2023     1.0  0.95402  0.24734  0.64352  1.0000
  H   H2024     1.0  0.87746  0.15396  0.52033  1.0000
  H   H2025     1.0  0.73080  0.02512  0.66831  1.0000
  H   H2026     1.0  0.73437  0.01694  0.55027  1.0000
  H   H2027     1.0  0.70308  0.01009  0.83972  1.0000
  C   C1696     1.0  0.66592  0.07082  0.88250  1.0000
  S   S438      1.0  0.90960  0.24659  0.57389  1.0000
  C   C1697     1.0  0.80448  0.06827  0.68400  1.0000
  H   H2028     1.0  0.90168  0.23156  0.62996  1.0000
  C   C1698     1.0  0.79801  0.03891  0.70640  1.0000
  S   S439      1.0  0.68243  0.07436  0.54978  1.0000
  S   S440      1.0  0.98026  0.24955  0.84979  1.0000
  H   H2029     1.0  0.78460  0.09350  0.52666  1.0000
  H   H2030     1.0  0.80948  0.00927  0.64341  1.0000
  C   C1699     1.0  0.90077  0.22249  0.50822  1.0000
  H   H2031     1.0  0.90992  0.23559  0.51244  1.0000
  H   H2032     1.0  0.68429  0.02873  0.86500  1.0000
  H   H2033     1.0  0.73960  0.02296  0.58420  1.0000
  C   C1700     1.0  0.70908  0.03628  0.54371  1.0000
  H   H2034     1.0  0.71610  0.01133  0.57609  1.0000
  C   C1701     1.0  0.73100  0.00835  0.94713  1.0000
  H   H2035     1.0  0.83833  0.17657  0.51608  1.0000
  C   C1702     1.0  0.81456  0.11756  0.97886  1.0000
  H   H2036     1.0  0.90180  0.17904  0.50974  1.0000
  H   H2037     1.0  0.88361  0.15612  0.48492  1.0000
  C   C1703     1.0  0.81689  0.00903  0.70950  1.0000
  H   H2038     1.0  0.86137  0.14163  0.49743  1.0000
  H   H2039     1.0  0.76316  0.04566  0.96941  1.0000
  C   C1704     1.0  0.80272  0.12903  0.98238  1.0000
  C   C1705     1.0  0.66419  0.07378  0.83413  1.0000
  H   H2040     1.0  0.66443  0.03792  0.57136  1.0000
  H   H2041     1.0  0.77906  0.00355  0.66951  1.0000
  C   C1706     1.0  0.98154  0.35164  0.47363  1.0000
  H   H2042     1.0  0.91513  0.25892  0.98862  1.0000
  H   H2043     1.0  0.99227  0.40916  0.08579  1.0000
  H   H2044     1.0  0.99291  0.26005  0.18648  1.0000
  C   C1707     1.0  0.95700  0.28894  0.19418  1.0000
  H   H2045     1.0  0.98362  0.37623  0.40476  1.0000
  H   H2046     1.0  0.96797  0.45097  0.11978  1.0000
  S   S441      1.0  0.96391  0.29145  0.38489  1.0000
  Fe  Fe215     1.0  0.93040  0.26258  0.06954  1.0000
  Fe  Fe216     1.0  0.95719  0.30167  0.06052  1.0000
  S   S442      1.0  0.95904  0.33162  0.05341  1.0000
  Fe  Fe217     1.0  0.96745  0.26992  0.03612  1.0000
  Fe  Fe218     1.0  0.96838  0.27412  0.09660  1.0000
  H   H2047     1.0  0.96915  0.44459  0.16785  1.0000
  S   S443      1.0  0.94170  0.28057  0.03311  1.0000
  S   S444      1.0  0.94264  0.28500  0.09695  1.0000
  C   C1708     1.0  0.96447  0.28285  0.21699  1.0000
  C   C1709     1.0  0.97543  0.27424  0.16575  1.0000
  C   C1710     1.0  0.97148  0.28509  0.41586  1.0000
  H   H2048     1.0  0.99082  0.27078  0.40000  1.0000
  S   S445      1.0  0.98301  0.26880  0.13413  1.0000
  Fe  Fe219     1.0  0.97010  0.27826  0.34738  1.0000
  H   H2049     1.0  0.95381  0.29852  0.43780  1.0000
  C   C1711     1.0  0.97960  0.34967  0.04503  1.0000
  S   S446      1.0  0.94648  0.26579  0.32053  1.0000
  H   H2050     1.0  0.96335  0.36933  0.04476  1.0000
  C   C1712     1.0  0.98498  0.27513  0.41778  1.0000
  C   C1713     1.0  0.98417  0.27699  0.46614  1.0000
  H   H2051     1.0  0.96119  0.39883  0.45931  1.0000
  C   C1714     1.0  0.97910  0.35121  0.42598  1.0000
  C   C1715     1.0  0.98223  0.44769  0.15564  1.0000
  C   C1716     1.0  0.98286  0.26811  0.18858  1.0000
  H   H2052     1.0  0.98327  0.26757  0.23134  1.0000
  S   S447      1.0  0.95767  0.28891  0.24870  1.0000
  C   C1717     1.0  0.98569  0.37039  0.47225  1.0000
  S   S448      1.0  0.99563  0.45983  0.07757  1.0000
  C   C1718     1.0  0.97741  0.36719  0.04200  1.0000
  C   C1719     1.0  0.96240  0.28461  0.16866  1.0000
  C   C1720     1.0  0.98323  0.37001  0.42440  1.0000
  C   C1721     1.0  0.96430  0.29086  0.43911  1.0000
  H   H2053     1.0  0.97485  0.40273  0.41171  1.0000
  H   H2054     1.0  0.98271  0.40135  0.13439  1.0000
  C   C1722     1.0  0.97734  0.27232  0.21407  1.0000
  Fe  Fe220     1.0  0.96708  0.27742  0.28630  1.0000
  H   H2055     1.0  0.94703  0.29710  0.19619  1.0000
  C   C1723     1.0  0.98636  0.38019  0.44769  1.0000
  N   N118      1.0  0.99018  0.40004  0.44709  1.0000
  H   H2056     1.0  0.95663  0.28950  0.15127  1.0000
  S   S449      1.0  0.98893  0.29302  0.31320  1.0000
  C   C1724     1.0  0.97068  0.28692  0.46411  1.0000
  S   S450      1.0  0.98357  0.29178  0.06164  1.0000
  S   S451      1.0  0.98287  0.25481  0.34886  1.0000
  H   H2057     1.0  0.99114  0.39531  0.03370  1.0000
  C   C1725     1.0  0.99133  0.27114  0.44284  1.0000
  C   C1726     1.0  0.98155  0.45125  0.12828  1.0000
  C   C1727     1.0  0.97607  0.40537  0.46482  1.0000
  H   H2058     1.0  0.97213  0.38671  0.98676  1.0000
  C   C1728     1.0  0.99321  0.38200  0.03563  1.0000
  H   H2059     1.0  0.98153  0.37887  0.10186  1.0000
  H   H2060     1.0  0.92910  0.26535  0.40725  1.0000
  H   H2061     1.0  0.97458  0.32752  0.45182  1.0000
  H   H2062     1.0  0.97797  0.42022  0.46370  1.0000
  H   H2063     1.0  0.99124  0.42298  0.42060  1.0000
  C   C1729     1.0  0.97815  0.34206  0.45056  1.0000
  S   S452      1.0  0.97914  0.25932  0.99959  1.0000
  H   H2064     1.0  0.91253  0.25700  0.38240  1.0000
  H   H2065     1.0  0.92216  0.26012  0.23966  1.0000
  C   C1730     1.0  0.98910  0.40816  0.42015  1.0000
  H   H2066     1.0  0.97622  0.34362  0.40809  1.0000
  H   H2067     1.0  0.98905  0.36614  0.98505  1.0000
  H   H2068     1.0  0.99536  0.36879  0.12318  1.0000
  H   H2069     1.0  0.96530  0.29181  0.48172  1.0000
  C   C1731     1.0  0.99645  0.37902  0.10666  1.0000
  S   S453      1.0  0.97948  0.25392  0.28437  1.0000
  C   C1732     1.0  0.91669  0.25396  0.40281  1.0000
  H   H2070     1.0  0.90499  0.25432  0.41738  1.0000
  S   S454      1.0  0.99178  0.29770  0.56278  1.0000
  C   C1733     1.0  0.98791  0.44795  0.65220  1.0000
  H   H2071     1.0  0.96986  0.29594  0.65082  1.0000
  C   C1734     1.0  0.96578  0.28146  0.96521  1.0000
  S   S455      1.0  0.99283  0.27224  0.49726  1.0000
  C   C1735     1.0  0.98311  0.40166  0.92259  1.0000
  Fe  Fe221     1.0  0.97168  0.27636  0.78648  1.0000
  S   S456      1.0  0.96138  0.28668  0.88538  1.0000
  Fe  Fe222     1.0  0.93973  0.26587  0.56864  1.0000
  Fe  Fe223     1.0  0.96447  0.30599  0.56292  1.0000
  S   S457      1.0  0.96540  0.33586  0.55816  1.0000
  Fe  Fe224     1.0  0.97699  0.27682  0.53489  1.0000
  Fe  Fe225     1.0  0.97745  0.27791  0.59587  1.0000
  C   C1736     1.0  0.98807  0.34352  0.96182  1.0000
  S   S458      1.0  0.95001  0.28570  0.53375  1.0000
  S   S459      1.0  0.95085  0.28736  0.59798  1.0000
  C   C1737     1.0  0.97437  0.28552  0.71652  1.0000
  C   C1738     1.0  0.98458  0.36524  0.91767  1.0000
  C   C1739     1.0  0.96447  0.27779  0.91726  1.0000
  H   H2072     1.0  0.96444  0.28931  0.98219  1.0000
  C   C1740     1.0  0.97399  0.28939  0.66810  1.0000
  H   H2073     1.0  0.95613  0.38430  0.95986  1.0000
  C   C1741     1.0  0.98363  0.37163  0.54775  1.0000
  H   H2074     1.0  0.99504  0.40285  0.90761  1.0000
  C   C1742     1.0  0.98510  0.27305  0.71329  1.0000
  H   H2075     1.0  0.96976  0.37384  0.55216  1.0000
  C   C1743     1.0  0.96177  0.28723  0.93975  1.0000
  H   H2076     1.0  0.97463  0.45223  0.61583  1.0000
  H   H2077     1.0  0.98361  0.34173  0.89504  1.0000
  C   C1744     1.0  0.97019  0.39223  0.96666  1.0000
  C   C1745     1.0  0.96891  0.29370  0.69379  1.0000
  H   H2078     1.0  0.95693  0.29929  0.93740  1.0000
  C   C1746     1.0  0.98802  0.45293  0.62518  1.0000
  H   H2079     1.0  0.91858  0.26149  0.63208  1.0000
  C   C1747     1.0  0.92252  0.25894  0.65283  1.0000
  H   H2080     1.0  0.98809  0.37719  0.49068  1.0000
  H   H2081     1.0  0.98699  0.32274  0.93400  1.0000
  Fe  Fe226     1.0  0.96910  0.27402  0.84801  1.0000
  C   C1748     1.0  0.98781  0.36137  0.96511  1.0000
  H   H2082     1.0  0.96073  0.30347  0.69608  1.0000
  H   H2083     1.0  0.99542  0.46176  0.88590  1.0000
  C   C1749     1.0  0.97008  0.26187  0.92066  1.0000
  H   H2084     1.0  0.97440  0.44321  0.66331  1.0000
  C   C1750     1.0  0.98478  0.27697  0.66489  1.0000
  C   C1751     1.0  0.98571  0.35401  0.54931  1.0000
  C   C1752     1.0  0.97220  0.26598  0.96841  1.0000
  N   N119      1.0  0.98585  0.39169  0.94732  1.0000
  S   S460      1.0  0.94786  0.26403  0.81664  1.0000
  H   H2085     1.0  0.98709  0.38571  0.60890  1.0000
  H   H2086     1.0  0.96936  0.39518  0.91351  1.0000
  S   S461      1.0  0.96775  0.29150  0.74843  1.0000
  C   C1753     1.0  0.98489  0.34735  0.91460  1.0000
  C   C1754     1.0  0.98598  0.37280  0.94318  1.0000
  H   H2087     1.0  0.99204  0.40909  0.64111  1.0000
  H   H2088     1.0  0.91115  0.26145  0.66630  1.0000
  S   S462      1.0  0.96595  0.25579  0.56789  1.0000
  H   H2089     1.0  0.98053  0.34448  0.49282  1.0000
  H   H2090     1.0  0.93289  0.26308  0.70058  1.0000
  H   H2091     1.0  0.98944  0.26665  0.73052  1.0000
  C   C1755     1.0  0.98670  0.33656  0.93658  1.0000
  S   S463      1.0  0.99146  0.28945  0.81786  1.0000
  H   H2092     1.0  0.98320  0.37282  0.89975  1.0000
  C   C1756     1.0  0.99036  0.26888  0.68760  1.0000
  S   S464      1.0  0.99182  0.27144  0.63294  1.0000
  H   H2093     1.0  0.93618  0.26919  0.65593  1.0000
  C   C1757     1.0  0.97386  0.25596  0.94616  1.0000
  H   H2094     1.0  0.97175  0.25423  0.90365  1.0000
  H   H2095     1.0  0.97737  0.40179  0.48612  1.0000
  H   H2096     1.0  0.93986  0.25491  0.74519  1.0000
  H   H2097     1.0  0.96927  0.40626  0.96945  1.0000
  H   H2098     1.0  0.99241  0.49834  0.69625  1.0000
  H   H2099     1.0  0.98273  0.41571  0.92651  1.0000
  H   H2100     1.0  0.98922  0.33505  0.97903  1.0000
  H   H2101     1.0  0.68831  0.62953  0.15747  1.0000
  H   H2102     1.0  0.71567  0.75144  0.24389  1.0000
  C   C1758     1.0  0.75268  0.67091  0.16729  1.0000
  S   S465      1.0  0.97580  0.74738  0.02653  1.0000
  H   H2103     1.0  0.84631  0.70840  0.23185  1.0000
  Fe  Fe227     1.0  0.96621  0.70821  0.10726  1.0000
  S   S466      1.0  0.94240  0.68251  0.11268  1.0000
  Fe  Fe228     1.0  0.79229  0.66158  0.05896  1.0000
  S   S467      1.0  0.79135  0.69042  0.05839  1.0000
  S   S468      1.0  0.76285  0.64213  0.06658  1.0000
  Fe  Fe229     1.0  0.83651  0.67279  0.05699  1.0000
  S   S469      1.0  0.83785  0.70207  0.05612  1.0000
  S   S470      1.0  0.86440  0.66477  0.05304  1.0000
  Fe  Fe230     1.0  0.81443  0.69411  0.08799  1.0000
  S   S471      1.0  0.81426  0.71059  0.12440  1.0000
  Fe  Fe231     1.0  0.81465  0.69488  0.02664  1.0000
  C   C1759     1.0  0.95345  0.69545  0.02397  1.0000
  S   S472      1.0  0.81430  0.66509  0.09061  1.0000
  S   S473      1.0  0.81450  0.66583  0.02545  1.0000
  Fe  Fe232     1.0  0.79975  0.72756  0.30564  1.0000
  S   S474      1.0  0.78426  0.69823  0.30729  1.0000
  S   S475      1.0  0.70158  0.60487  0.98355  1.0000
  Fe  Fe233     1.0  0.83871  0.72022  0.30951  1.0000
  S   S476      1.0  0.82619  0.69040  0.31192  1.0000
  S   S477      1.0  0.87003  0.73428  0.31093  1.0000
  Fe  Fe234     1.0  0.80786  0.69564  0.27885  1.0000
  S   S478      1.0  0.80390  0.67776  0.24340  1.0000
  Fe  Fe235     1.0  0.80411  0.69621  0.34009  1.0000
  S   S479      1.0  0.79409  0.67980  0.37870  1.0000
  S   S480      1.0  0.82187  0.72523  0.27478  1.0000
  S   S481      1.0  0.81811  0.72575  0.34002  1.0000
  Fe  Fe236     1.0  0.95941  0.70604  0.34333  1.0000
  S   S482      1.0  0.97053  0.73518  0.35242  1.0000
  S   S483      1.0  0.92828  0.69072  0.34627  1.0000
  S   S484      1.0  0.97667  0.70750  0.30505  1.0000
  S   S485      1.0  0.98052  0.69701  0.36829  1.0000
  H   H2104     1.0  0.68894  0.69379  0.19861  1.0000
  H   H2105     1.0  0.98968  0.67714  0.28521  1.0000
  C   C1760     1.0  0.72374  0.65014  0.39091  1.0000
  C   C1761     1.0  0.76387  0.73215  0.34864  1.0000
  C   C1762     1.0  0.75071  0.73074  0.37005  1.0000
  Fe  Fe237     1.0  0.98285  0.73951  0.06843  1.0000
  H   H2106     1.0  0.71454  0.64470  0.35101  1.0000
  H   H2107     1.0  0.67462  0.74844  0.12742  1.0000
  H   H2108     1.0  0.76973  0.72097  0.34450  1.0000
  C   C1763     1.0  0.67480  0.74474  0.33090  1.0000
  S   S486      1.0  0.69322  0.73195  0.20073  1.0000
  H   H2109     1.0  0.68400  0.66687  0.27520  1.0000
  C   C1764     1.0  0.88600  0.72181  0.32015  1.0000
  C   C1765     1.0  0.88035  0.70304  0.32278  1.0000
  C   C1766     1.0  0.89343  0.69356  0.33078  1.0000
  C   C1767     1.0  0.91226  0.70279  0.33579  1.0000
  C   C1768     1.0  0.91795  0.72153  0.33279  1.0000
  C   C1769     1.0  0.90486  0.73101  0.32496  1.0000
  H   H2110     1.0  0.86595  0.69580  0.31868  1.0000
  H   H2111     1.0  0.88900  0.67903  0.33296  1.0000
  H   H2112     1.0  0.93238  0.72877  0.33671  1.0000
  C   C1770     1.0  0.71829  0.61599  0.00655  1.0000
  C   C1771     1.0  0.81141  0.70115  0.15732  1.0000
  C   C1772     1.0  0.81032  0.71224  0.17853  1.0000
  C   C1773     1.0  0.80801  0.70525  0.20498  1.0000
  C   C1774     1.0  0.80679  0.68708  0.21045  1.0000
  C   C1775     1.0  0.80784  0.67598  0.18923  1.0000
  C   C1776     1.0  0.81021  0.68298  0.16278  1.0000
  H   H2113     1.0  0.81116  0.72630  0.17451  1.0000
  H   H2114     1.0  0.80703  0.71391  0.22110  1.0000
  H   H2115     1.0  0.80698  0.66192  0.19332  1.0000
  H   H2116     1.0  0.81110  0.67429  0.14671  1.0000
  C   C1777     1.0  0.80666  0.70573  0.45923  1.0000
  C   C1778     1.0  0.80053  0.68703  0.45775  1.0000
  C   C1779     1.0  0.79685  0.67923  0.43294  1.0000
  C   C1780     1.0  0.79906  0.69005  0.40948  1.0000
  C   C1781     1.0  0.80501  0.70874  0.41104  1.0000
  C   C1782     1.0  0.80898  0.71652  0.43578  1.0000
  C   C1783     1.0  0.69850  0.64827  0.42434  1.0000
  H   H2117     1.0  0.79229  0.66475  0.43195  1.0000
  H   H2118     1.0  0.80646  0.71726  0.39327  1.0000
  H   H2119     1.0  0.81397  0.73097  0.43675  1.0000
  C   C1784     1.0  0.91964  0.67901  0.09875  1.0000
  C   C1785     1.0  0.91310  0.69290  0.08687  1.0000
  C   C1786     1.0  0.89525  0.68898  0.07460  1.0000
  C   C1787     1.0  0.88398  0.67113  0.07404  1.0000
  C   C1788     1.0  0.89044  0.65748  0.08649  1.0000
  C   C1789     1.0  0.90795  0.66141  0.09904  1.0000
  H   H2120     1.0  0.92195  0.70656  0.08658  1.0000
  H   H2121     1.0  0.89068  0.69960  0.06437  1.0000
  H   H2122     1.0  0.88215  0.64363  0.08567  1.0000
  H   H2123     1.0  0.91280  0.65055  0.10809  1.0000
  H   H2124     1.0  0.85644  0.68639  0.37768  1.0000
  H   H2125     1.0  0.73616  0.66621  0.09163  1.0000
  C   C1790     1.0  0.69386  0.67821  0.32536  1.0000
  H   H2126     1.0  0.67104  0.64504  0.31205  1.0000
  H   H2127     1.0  0.97862  0.73162  0.19604  1.0000
  H   H2128     1.0  0.72126  0.64077  0.17067  1.0000
  C   C1791     1.0  0.75133  0.63147  0.01605  1.0000
  C   C1792     1.0  0.74598  0.63277  0.04269  1.0000
  C   C1793     1.0  0.72670  0.62585  0.05103  1.0000
  C   C1794     1.0  0.71286  0.61778  0.03300  1.0000
  H   H2129     1.0  0.93005  0.68176  0.16991  1.0000
  H   H2130     1.0  0.76614  0.63651  0.00942  1.0000
  H   H2131     1.0  0.72247  0.62648  0.07168  1.0000
  H   H2132     1.0  0.75818  0.68736  0.11824  1.0000
  H   H2133     1.0  0.76016  0.63987  0.12479  1.0000
  C   C1795     1.0  0.71999  0.74141  0.25701  1.0000
  C   C1796     1.0  0.91877  0.69025  0.46024  1.0000
  H   H2134     1.0  0.77885  0.68114  0.12905  1.0000
  C   C1797     1.0  0.71781  0.64464  0.15100  1.0000
  C   C1798     1.0  0.70649  0.68839  0.34294  1.0000
  C   C1799     1.0  0.69787  0.74345  0.29473  1.0000
  S   S487      1.0  0.78408  0.74912  0.30403  1.0000
  H   H2135     1.0  0.71138  0.72773  0.25233  1.0000
  H   H2136     1.0  0.89815  0.69785  0.14057  1.0000
  C   C1800     1.0  0.86069  0.72706  0.40386  1.0000
  H   H2137     1.0  0.87513  0.73518  0.15167  1.0000
  H   H2138     1.0  0.90114  0.73563  0.26799  1.0000
  C   C1801     1.0  0.77374  0.73980  0.43669  1.0000
  H   H2139     1.0  0.77200  0.72707  0.44879  1.0000
  Fe  Fe238     1.0  0.66938  0.59903  0.99033  1.0000
  H   H2140     1.0  0.70443  0.74836  0.33642  1.0000
  H   H2141     1.0  0.68018  0.63949  0.36337  1.0000
  H   H2142     1.0  0.74007  0.68358  0.42868  1.0000
  C   C1802     1.0  0.85853  0.68625  0.22651  1.0000
  H   H2143     1.0  0.85430  0.68058  0.24649  1.0000
  H   H2144     1.0  0.72615  0.65609  0.00890  1.0000
  H   H2145     1.0  0.96550  0.70583  0.47639  1.0000
  C   C1803     1.0  0.67351  0.71309  0.20912  1.0000
  H   H2146     1.0  0.92905  0.71235  0.27788  1.0000
  H   H2147     1.0  0.86354  0.65808  0.45628  1.0000
  H   H2148     1.0  0.85075  0.71808  0.45236  1.0000
  H   H2149     1.0  0.66518  0.59410  0.11805  1.0000
  H   H2150     1.0  0.73724  0.73440  0.99041  1.0000
  H   H2151     1.0  0.75096  0.63999  0.42013  1.0000
  H   H2152     1.0  0.72640  0.73473  0.32254  1.0000
  C   C1804     1.0  0.85412  0.70527  0.45207  1.0000
  H   H2153     1.0  0.97019  0.70364  0.42870  1.0000
  H   H2154     1.0  0.94159  0.71441  0.15930  1.0000
  H   H2155     1.0  0.92756  0.71177  0.03750  1.0000
  H   H2156     1.0  0.95955  0.68406  0.01925  1.0000
  H   H2157     1.0  0.98462  0.65708  0.24706  1.0000
  C   C1805     1.0  0.69344  0.74560  0.32192  1.0000
  H   H2158     1.0  0.74367  0.75111  0.45520  1.0000
  H   H2159     1.0  0.77182  0.73409  0.99843  1.0000
  H   H2160     1.0  0.86939  0.67556  0.41393  1.0000
  C   C1806     1.0  0.86100  0.69875  0.42870  1.0000
  H   H2161     1.0  0.71795  0.66727  0.46678  1.0000
  H   H2162     1.0  0.73276  0.62729  0.44345  1.0000
  H   H2163     1.0  0.73510  0.74225  0.25098  1.0000
  C   C1807     1.0  0.95581  0.69992  0.43757  1.0000
  H   H2164     1.0  0.76621  0.66966  0.10271  1.0000
  N   N120      1.0  0.87256  0.70708  0.14551  1.0000
  C   C1808     1.0  0.86741  0.72414  0.13924  1.0000
  C   C1809     1.0  0.89337  0.71041  0.13961  1.0000
  C   C1810     1.0  0.86205  0.69343  0.12745  1.0000
  C   C1811     1.0  0.86794  0.70037  0.17350  1.0000
  H   H2165     1.0  0.71661  0.71797  0.29927  1.0000
  C   C1812     1.0  0.92929  0.71075  0.01564  1.0000
  C   C1813     1.0  0.88510  0.71224  0.39440  1.0000
  H   H2166     1.0  0.87093  0.72879  0.11804  1.0000
  H   H2167     1.0  0.85179  0.72247  0.14217  1.0000
  H   H2168     1.0  0.66991  0.64176  0.41005  1.0000
  H   H2169     1.0  0.89752  0.71650  0.11920  1.0000
  H   H2170     1.0  0.75777  0.67645  0.44721  1.0000
  H   H2171     1.0  0.86637  0.68065  0.12898  1.0000
  N   N121      1.0  0.93599  0.69481  0.00894  1.0000
  H   H2172     1.0  0.71472  0.64336  0.47232  1.0000
  H   H2173     1.0  0.69812  0.61239  0.03979  1.0000
  C   C1814     1.0  0.67044  0.69425  0.33707  1.0000
  N   N122      1.0  0.75200  0.66223  0.14129  1.0000
  H   H2174     1.0  0.90413  0.68606  0.46772  1.0000
  H   H2175     1.0  0.68379  0.73141  0.11316  1.0000
  H   H2176     1.0  0.71071  0.70900  0.37169  1.0000
  C   C1815     1.0  0.67069  0.67134  0.27654  1.0000
  H   H2177     1.0  0.86973  0.73573  0.41831  1.0000
  H   H2178     1.0  0.73645  0.65873  0.48059  1.0000
  C   C1816     1.0  0.68501  0.64427  0.40468  1.0000
  H   H2179     1.0  0.87947  0.67709  0.16968  1.0000
  C   C1817     1.0  0.73201  0.65559  0.13313  1.0000
  H   H2180     1.0  0.74658  0.71849  0.38243  1.0000
  C   C1818     1.0  0.86787  0.67757  0.20888  1.0000
  H   H2181     1.0  0.93878  0.73602  0.19185  1.0000
  C   C1819     1.0  0.98946  0.67467  0.12970  1.0000
  N   N123      1.0  0.73307  0.65516  0.43834  1.0000
  H   H2182     1.0  0.76764  0.67726  0.17282  1.0000
  H   H2183     1.0  0.85404  0.72088  0.18692  1.0000
  H   H2184     1.0  0.90996  0.68395  0.42026  1.0000
  H   H2185     1.0  0.74639  0.66123  0.18404  1.0000
  H   H2186     1.0  0.78720  0.74188  0.42446  1.0000
  S   S488      1.0  0.72646  0.74289  0.40231  1.0000
  C   C1820     1.0  0.92128  0.67821  0.01833  1.0000
  H   H2187     1.0  0.69290  0.64862  0.44438  1.0000
  C   C1821     1.0  0.72558  0.73195  0.30107  1.0000
  C   C1822     1.0  0.93429  0.69673  0.47709  1.0000
  H   H2188     1.0  0.90178  0.71975  0.15388  1.0000
  H   H2189     1.0  0.75878  0.67314  0.01922  1.0000
  H   H2190     1.0  0.88883  0.72127  0.37626  1.0000
  H   H2191     1.0  0.87110  0.66518  0.21533  1.0000
  H   H2192     1.0  0.74044  0.73239  0.29412  1.0000
  C   C1823     1.0  0.71836  0.65130  0.41803  1.0000
  H   H2193     1.0  0.74500  0.68164  0.16674  1.0000
  H   H2194     1.0  0.92450  0.66601  0.01029  1.0000
  H   H2195     1.0  0.75573  0.67218  0.41279  1.0000
  H   H2196     1.0  0.67906  0.63659  0.11240  1.0000
  C   C1824     1.0  0.67539  0.68076  0.32195  1.0000
  C   C1825     1.0  0.85405  0.70198  0.21820  1.0000
  C   C1826     1.0  0.86112  0.67136  0.45510  1.0000
  H   H2197     1.0  0.66656  0.59728  0.35639  1.0000
  H   H2198     1.0  0.94588  0.75158  0.22996  1.0000
  H   H2199     1.0  0.67185  0.74706  0.35158  1.0000
  Fe  Fe239     1.0  0.98916  0.73606  0.31523  1.0000
  C   C1827     1.0  0.90317  0.72545  0.25378  1.0000
  C   C1828     1.0  0.93485  0.72576  0.26759  1.0000
  H   H2200     1.0  0.77573  0.65121  0.14953  1.0000
  H   H2201     1.0  0.70327  0.65466  0.07983  1.0000
  C   C1829     1.0  0.92186  0.68894  0.43288  1.0000
  C   C1830     1.0  0.97905  0.67022  0.15379  1.0000
  C   C1831     1.0  0.76421  0.67569  0.12194  1.0000
  H   H2202     1.0  0.85380  0.70698  0.36333  1.0000
  C   C1832     1.0  0.85442  0.67816  0.47764  1.0000
  C   C1833     1.0  0.69365  0.64192  0.11817  1.0000
  H   H2203     1.0  0.75277  0.63661  0.15929  1.0000
  H   H2204     1.0  0.96459  0.70834  0.01988  1.0000
  H   H2205     1.0  0.95046  0.69467  0.04592  1.0000
  S   S489      1.0  0.98563  0.71949  0.14007  1.0000
  C   C1834     1.0  0.72623  0.65890  0.10709  1.0000
  C   C1835     1.0  0.85857  0.70899  0.19211  1.0000
  N   N124      1.0  0.92347  0.72871  0.24468  1.0000
  C   C1836     1.0  0.74309  0.64070  0.43917  1.0000
  H   H2206     1.0  0.75384  0.64276  0.45488  1.0000
  C   C1837     1.0  0.73758  0.62288  0.99819  1.0000
  C   C1838     1.0  0.92511  0.71612  0.22371  1.0000
  C   C1839     1.0  0.93325  0.72197  0.19781  1.0000
  C   C1840     1.0  0.91871  0.69727  0.22911  1.0000
  H   H2207     1.0  0.88879  0.69962  0.38934  1.0000
  C   C1841     1.0  0.92039  0.68506  0.20985  1.0000
  H   H2208     1.0  0.76160  0.73748  0.42318  1.0000
  C   C1842     1.0  0.69078  0.64302  0.37835  1.0000
  C   C1843     1.0  0.75558  0.75130  0.46879  1.0000
  H   H2209     1.0  0.96392  0.66937  0.15472  1.0000
  N   N125      1.0  0.71784  0.74498  0.28561  1.0000
  C   C1844     1.0  0.68248  0.74047  0.27715  1.0000
  H   H2210     1.0  0.79863  0.67855  0.47566  1.0000
  H   H2211     1.0  0.92048  0.67632  0.04036  1.0000
  C   C1845     1.0  0.98529  0.74257  0.99546  1.0000
  C   C1846     1.0  0.85258  0.69897  0.38245  1.0000
  C   C1847     1.0  0.74297  0.74512  0.37549  1.0000
  H   H2212     1.0  0.91259  0.69186  0.24847  1.0000
  C   C1848     1.0  0.71010  0.64595  0.37146  1.0000
  H   H2213     1.0  0.91562  0.67071  0.21457  1.0000
  N   N126      1.0  0.86471  0.70917  0.40293  1.0000
  C   C1849     1.0  0.85093  0.69506  0.47610  1.0000
  H   H2214     1.0  0.84541  0.72576  0.40913  1.0000
  H   H2215     1.0  0.89751  0.71217  0.26445  1.0000
  H   H2216     1.0  0.84637  0.69016  0.13192  1.0000
  C   C1850     1.0  0.86438  0.68146  0.43096  1.0000
  C   C1851     1.0  0.70729  0.65223  0.09992  1.0000
  C   C1852     1.0  0.76053  0.64683  0.14392  1.0000
  C   C1853     1.0  0.95292  0.70123  0.46492  1.0000
  S   S490      1.0  0.81462  0.71263  0.98979  1.0000
  H   H2217     1.0  0.98632  0.73018  0.24399  1.0000
  C   C1854     1.0  0.98068  0.74348  0.20759  1.0000
  S   S491      1.0  0.95795  0.73346  0.09826  1.0000
  H   H2218     1.0  0.89390  0.72607  0.23677  1.0000
  H   H2219     1.0  0.86449  0.69823  0.10619  1.0000
  H   H2220     1.0  0.68444  0.73906  0.25607  1.0000
  C   C1855     1.0  0.98813  0.66684  0.17661  1.0000
  C   C1856     1.0  0.69891  0.63803  0.14360  1.0000
  H   H2221     1.0  0.98003  0.66321  0.19535  1.0000
  H   H2222     1.0  0.72050  0.68617  0.34534  1.0000
  C   C1857     1.0  0.70106  0.70128  0.35775  1.0000
  Fe  Fe240     1.0  0.99306  0.72628  0.37503  1.0000
  C   C1858     1.0  0.74722  0.67257  0.43142  1.0000
  C   C1859     1.0  0.93496  0.70964  0.17875  1.0000
  C   C1860     1.0  0.92852  0.69124  0.18472  1.0000
  C   C1861     1.0  0.94032  0.69386  0.42157  1.0000
  H   H2223     1.0  0.94265  0.69285  0.40036  1.0000
  C   C1862     1.0  0.87255  0.68449  0.18276  1.0000
  C   C1863     1.0  0.67555  0.69559  0.20638  1.0000
  H   H2224     1.0  0.86366  0.73452  0.38412  1.0000
  H   H2225     1.0  0.93976  0.72341  0.00805  1.0000
  C   C1864     1.0  0.73210  0.66950  0.00010  1.0000
  H   H2226     1.0  0.73857  0.65216  0.38465  1.0000
  H   H2227     1.0  0.83723  0.69515  0.38912  1.0000
  H   H2228     1.0  0.91533  0.71047  0.00699  1.0000
  C   C1865     1.0  0.72514  0.65623  0.46562  1.0000
  H   H2229     1.0  0.69858  0.66814  0.31466  1.0000
  H   H2230     1.0  0.89471  0.71861  0.41018  1.0000
  C   C1866     1.0  0.76914  0.74785  0.33238  1.0000
  H   H2231     1.0  0.90660  0.67829  0.01275  1.0000
  H   H2232     1.0  0.94990  0.72677  0.26118  1.0000
  H   H2233     1.0  0.67897  0.71419  0.36657  1.0000
  H   H2234     1.0  0.77256  0.70320  0.00004  1.0000
  S   S492      1.0  0.99054  0.71357  0.07662  1.0000
  C   C1867     1.0  0.75818  0.69655  0.99479  1.0000
  H   H2235     1.0  0.75230  0.73800  0.47974  1.0000
  H   H2236     1.0  0.93531  0.73593  0.28291  1.0000
  H   H2237     1.0  0.98228  0.67733  0.11205  1.0000
  H   H2238     1.0  0.90932  0.74555  0.32293  1.0000
  C   C1868     1.0  0.98154  0.74589  0.44629  1.0000
  C   C1869     1.0  0.98495  0.74263  0.23484  1.0000
  C   C1870     1.0  0.99657  0.73768  0.44585  1.0000
  H   H2239     1.0  0.85909  0.67066  0.99273  1.0000
  H   H2240     1.0  0.92238  0.75128  0.21870  1.0000
  H   H2241     1.0  0.67403  0.68557  0.26879  1.0000
  C   C1871     1.0  0.75045  0.67919  0.00597  1.0000
  H   H2242     1.0  0.97516  0.74836  0.42788  1.0000
  C   C1872     1.0  0.93042  0.74795  0.23575  1.0000
  C   C1873     1.0  0.66391  0.73973  0.28635  1.0000
  H   H2243     1.0  0.67085  0.67172  0.09748  1.0000
  C   C1874     1.0  0.68312  0.70419  0.35481  1.0000
  C   C1875     1.0  0.67365  0.73378  0.12869  1.0000
  Fe  Fe241     1.0  0.97883  0.74523  0.12910  1.0000
  H   H2244     1.0  0.67895  0.73069  0.14835  1.0000
  C   C1876     1.0  0.97519  0.75150  0.47051  1.0000
  H   H2245     1.0  0.67184  0.70362  0.09337  1.0000
  H   H2246     1.0  0.85044  0.69954  0.99029  1.0000
  C   C1877     1.0  0.99685  0.65804  0.25920  1.0000
  C   C1878     1.0  0.72152  0.67692  0.98255  1.0000
  C   C1879     1.0  0.83736  0.66285  0.65280  1.0000
  Fe  Fe242     1.0  0.98852  0.73917  0.81538  1.0000
  C   C1880     1.0  0.85291  0.71312  0.70659  1.0000
  S   S493      1.0  0.98361  0.72253  0.63521  1.0000
  C   C1881     1.0  0.98347  0.74860  0.49463  1.0000
  Fe  Fe243     1.0  0.96356  0.71280  0.60222  1.0000
  S   S494      1.0  0.94041  0.68641  0.60459  1.0000
  Fe  Fe244     1.0  0.78623  0.66688  0.56068  1.0000
  S   S495      1.0  0.78672  0.69613  0.55859  1.0000
  S   S496      1.0  0.75608  0.64860  0.56690  1.0000
  Fe  Fe245     1.0  0.83033  0.67614  0.56020  1.0000
  S   S497      1.0  0.83331  0.70570  0.55749  1.0000
  S   S498      1.0  0.85617  0.66475  0.56092  1.0000
  Fe  Fe246     1.0  0.80939  0.69955  0.58874  1.0000
  S   S499      1.0  0.81121  0.71718  0.62422  1.0000
  Fe  Fe247     1.0  0.81029  0.69894  0.52759  1.0000
  C   C1882     1.0  0.68834  0.62437  0.92556  1.0000
  S   S500      1.0  0.80757  0.67018  0.59311  1.0000
  S   S501      1.0  0.80878  0.66950  0.52800  1.0000
  Fe  Fe248     1.0  0.80427  0.73010  0.81061  1.0000
  S   S502      1.0  0.78702  0.70133  0.81173  1.0000
  H   H2247     1.0  0.87392  0.66438  0.66390  1.0000
  Fe  Fe249     1.0  0.84187  0.72021  0.80407  1.0000
  S   S503      1.0  0.82760  0.69069  0.80489  1.0000
  S   S504      1.0  0.87339  0.73246  0.79732  1.0000
  Fe  Fe250     1.0  0.80673  0.69847  0.77784  1.0000
  S   S505      1.0  0.79554  0.68268  0.74191  1.0000
  Fe  Fe251     1.0  0.80953  0.69677  0.83871  1.0000
  S   S506      1.0  0.80243  0.67887  0.87616  1.0000
  S   S507      1.0  0.82232  0.72764  0.77477  1.0000
  S   S508      1.0  0.82554  0.72582  0.83981  1.0000
  Fe  Fe252     1.0  0.96074  0.70797  0.84363  1.0000
  S   S509      1.0  0.97118  0.73688  0.85414  1.0000
  S   S510      1.0  0.92983  0.69251  0.84915  1.0000
  S   S511      1.0  0.97677  0.71073  0.80409  1.0000
  S   S512      1.0  0.98319  0.69924  0.86605  1.0000
  H   H2248     1.0  0.97426  0.70132  0.93025  1.0000
  C   C1883     1.0  0.86863  0.67247  0.95150  1.0000
  C   C1884     1.0  0.75585  0.74354  0.73220  1.0000
  C   C1885     1.0  0.76469  0.73360  0.84988  1.0000
  C   C1886     1.0  0.75030  0.73158  0.86980  1.0000
  H   H2249     1.0  0.84753  0.72393  0.90605  1.0000
  H   H2250     1.0  0.88921  0.73364  0.72122  1.0000
  H   H2251     1.0  0.85298  0.70848  0.74900  1.0000
  H   H2252     1.0  0.76881  0.72196  0.84335  1.0000
  H   H2253     1.0  0.74328  0.71834  0.87822  1.0000
  H   H2254     1.0  0.69198  0.69663  0.71276  1.0000
  C   C1887     1.0  0.91406  0.68959  0.70014  1.0000
  C   C1888     1.0  0.88895  0.72081  0.81068  1.0000
  C   C1889     1.0  0.88254  0.70270  0.81909  1.0000
  C   C1890     1.0  0.89525  0.69393  0.83047  1.0000
  C   C1891     1.0  0.91444  0.70319  0.83307  1.0000
  C   C1892     1.0  0.92094  0.72113  0.82385  1.0000
  C   C1893     1.0  0.90818  0.72994  0.81285  1.0000
  H   H2255     1.0  0.86781  0.69545  0.81697  1.0000
  H   H2256     1.0  0.89022  0.67998  0.83733  1.0000
  H   H2257     1.0  0.93572  0.72835  0.82565  1.0000
  H   H2258     1.0  0.94602  0.73552  0.74239  1.0000
  C   C1894     1.0  0.80646  0.70740  0.65678  1.0000
  C   C1895     1.0  0.79837  0.68895  0.66138  1.0000
  C   C1896     1.0  0.79518  0.68154  0.68757  1.0000
  C   C1897     1.0  0.80014  0.69247  0.70934  1.0000
  C   C1898     1.0  0.80798  0.71096  0.70472  1.0000
  C   C1899     1.0  0.81105  0.71840  0.67854  1.0000
  H   H2259     1.0  0.79442  0.68040  0.64480  1.0000
  H   H2260     1.0  0.78887  0.66725  0.69099  1.0000
  H   H2261     1.0  0.81175  0.71955  0.72123  1.0000
  H   H2262     1.0  0.81726  0.73270  0.67513  1.0000
  C   C1900     1.0  0.81071  0.70296  0.95843  1.0000
  C   C1901     1.0  0.80756  0.68447  0.95561  1.0000
  C   C1902     1.0  0.80505  0.67726  0.93029  1.0000
  C   C1903     1.0  0.80549  0.68845  0.90760  1.0000
  C   C1904     1.0  0.80822  0.70691  0.91045  1.0000
  C   C1905     1.0  0.81093  0.71414  0.93577  1.0000
  H   H2263     1.0  0.80722  0.67567  0.97282  1.0000
  H   H2264     1.0  0.80280  0.66294  0.92828  1.0000
  H   H2265     1.0  0.80821  0.71563  0.89320  1.0000
  H   H2266     1.0  0.81331  0.72847  0.93774  1.0000
  C   C1906     1.0  0.91693  0.68200  0.59265  1.0000
  C   C1907     1.0  0.90842  0.66442  0.58561  1.0000
  C   C1908     1.0  0.89000  0.65973  0.57588  1.0000
  C   C1909     1.0  0.87936  0.67236  0.57358  1.0000
  C   C1910     1.0  0.88757  0.69006  0.58107  1.0000
  C   C1911     1.0  0.90644  0.69492  0.59045  1.0000
  H   H2267     1.0  0.91623  0.65430  0.58740  1.0000
  H   H2268     1.0  0.88387  0.64604  0.57028  1.0000
  H   H2269     1.0  0.87961  0.70004  0.57910  1.0000
  H   H2270     1.0  0.91282  0.70856  0.59596  1.0000
  C   C1912     1.0  0.67927  0.72840  0.59718  1.0000
  C   C1913     1.0  0.77345  0.75061  0.83827  1.0000
  S   S513      1.0  0.70191  0.60270  0.48290  1.0000
  C   C1914     1.0  0.93913  0.69492  0.97972  1.0000
  C   C1915     1.0  0.93128  0.73495  0.74964  1.0000
  H   H2271     1.0  0.77578  0.71009  0.75484  1.0000
  C   C1916     1.0  0.72161  0.63325  0.54557  1.0000
  C   C1917     1.0  0.74155  0.63686  0.54211  1.0000
  C   C1918     1.0  0.74919  0.63001  0.52023  1.0000
  C   C1919     1.0  0.70376  0.74994  0.83090  1.0000
  H   H2272     1.0  0.68799  0.62873  0.94634  1.0000
  H   H2273     1.0  0.93502  0.71471  0.64542  1.0000
  H   H2274     1.0  0.76450  0.63242  0.51757  1.0000
  H   H2275     1.0  0.67390  0.74435  0.83754  1.0000
  H   H2276     1.0  0.71554  0.63848  0.56226  1.0000
  C   C1920     1.0  0.74121  0.73392  0.96898  1.0000
  C   C1921     1.0  0.69530  0.63286  0.87942  1.0000
  C   C1922     1.0  0.73692  0.61921  0.50252  1.0000
  H   H2277     1.0  0.92600  0.72227  0.76199  1.0000
  C   C1923     1.0  0.72054  0.64261  0.62037  1.0000
  C   C1924     1.0  0.74755  0.70475  0.97736  1.0000
  H   H2278     1.0  0.69405  0.62023  0.53051  1.0000
  H   H2279     1.0  0.73087  0.64505  0.63659  1.0000
  H   H2280     1.0  0.71927  0.62862  0.61415  1.0000
  H   H2281     1.0  0.72696  0.65160  0.60289  1.0000
  C   C1925     1.0  0.68606  0.66871  0.64480  1.0000
  H   H2282     1.0  0.69322  0.61848  0.64713  1.0000
  N   N127      1.0  0.86887  0.70954  0.89942  1.0000
  H   H2283     1.0  0.68841  0.62696  0.59942  1.0000
  H   H2284     1.0  0.94059  0.72705  0.50274  1.0000
  H   H2285     1.0  0.87205  0.65960  0.95254  1.0000
  H   H2286     1.0  0.74693  0.74803  0.96091  1.0000
  H   H2287     1.0  0.86262  0.68663  0.87420  1.0000
  S   S514      1.0  0.72723  0.74361  0.90419  1.0000
  C   C1926     1.0  0.68202  0.65135  0.90809  1.0000
  H   H2288     1.0  0.99486  0.51945  0.67904  1.0000
  H   H2289     1.0  0.71683  0.67029  0.87868  1.0000
  H   H2290     1.0  0.86507  0.73394  0.88062  1.0000
  C   C1927     1.0  0.70389  0.69944  0.65098  1.0000
  H   H2291     1.0  0.73381  0.67559  0.62945  1.0000
  C   C1928     1.0  0.86133  0.67864  0.97414  1.0000
  C   C1929     1.0  0.98436  0.74617  0.73560  1.0000
  C   C1930     1.0  0.76311  0.71881  0.70917  1.0000
  C   C1931     1.0  0.94306  0.71565  0.51503  1.0000
  C   C1932     1.0  0.97622  0.74545  0.97203  1.0000
  C   C1933     1.0  0.71696  0.61560  0.50612  1.0000
  C   C1934     1.0  0.86634  0.69926  0.92529  1.0000
  C   C1935     1.0  0.92599  0.69215  0.93514  1.0000
  C   C1936     1.0  0.67340  0.71407  0.70750  1.0000
  H   H2292     1.0  0.83875  0.65218  0.66735  1.0000
  C   C1937     1.0  0.87165  0.67405  0.64829  1.0000
  C   C1938     1.0  0.85153  0.69117  0.63005  1.0000
  H   H2293     1.0  0.90921  0.67567  0.70729  1.0000
  H   H2294     1.0  0.72823  0.71196  0.73335  1.0000
  H   H2295     1.0  0.86373  0.70341  0.62786  1.0000
  H   H2296     1.0  0.85098  0.68430  0.61087  1.0000
  H   H2297     1.0  0.83802  0.69534  0.63201  1.0000
  H   H2298     1.0  0.83611  0.65671  0.63296  1.0000
  H   H2299     1.0  0.66707  0.64347  0.90491  1.0000
  Fe  Fe253     1.0  0.66982  0.59893  0.48749  1.0000
  C   C1939     1.0  0.92862  0.71160  0.66536  1.0000
  N   N128      1.0  0.75838  0.72516  0.73539  1.0000
  H   H2300     1.0  0.74937  0.68790  0.88632  1.0000
  H   H2301     1.0  0.68816  0.72274  0.61088  1.0000
  H   H2302     1.0  0.94622  0.69548  0.90205  1.0000
  H   H2303     1.0  0.66920  0.73386  0.64816  1.0000
  H   H2304     1.0  0.66945  0.75230  0.62542  1.0000
  C   C1940     1.0  0.72066  0.69529  0.64277  1.0000
  H   H2305     1.0  0.85169  0.67026  0.49632  1.0000
  H   H2306     1.0  0.97927  0.73525  0.69642  1.0000
  C   C1941     1.0  0.92196  0.69372  0.67439  1.0000
  H   H2307     1.0  0.69508  0.73806  0.75747  1.0000
  H   H2308     1.0  0.76609  0.70537  0.71110  1.0000
  H   H2309     1.0  0.95862  0.71682  0.51411  1.0000
  H   H2310     1.0  0.77605  0.72831  0.69952  1.0000
  H   H2311     1.0  0.89855  0.72214  0.90527  1.0000
  H   H2312     1.0  0.76706  0.67971  0.92370  1.0000
  C   C1942     1.0  0.68497  0.74478  0.82252  1.0000
  H   H2313     1.0  0.72755  0.74827  0.77254  1.0000
  Fe  Fe254     1.0  0.99503  0.72835  0.87407  1.0000
  H   H2314     1.0  0.99561  0.68606  0.77570  1.0000
  H   H2315     1.0  0.90212  0.68245  0.51228  1.0000
  H   H2316     1.0  0.97051  0.70134  0.97821  1.0000
  H   H2317     1.0  0.93342  0.73900  0.67379  1.0000
  H   H2318     1.0  0.89446  0.70223  0.88646  1.0000
  H   H2319     1.0  0.67232  0.65886  0.64609  1.0000
  H   H2320     1.0  0.87183  0.66740  0.62901  1.0000
  H   H2321     1.0  0.89362  0.72103  0.74995  1.0000
  S   S515      1.0  0.69260  0.73352  0.69948  1.0000
  H   H2322     1.0  0.74553  0.71528  0.92620  1.0000
  C   C1943     1.0  0.77335  0.73323  0.97648  1.0000
  H   H2323     1.0  0.72060  0.69918  0.95702  1.0000
  C   C1944     1.0  0.85728  0.69838  0.87934  1.0000
  H   H2324     1.0  0.82360  0.66607  0.65764  1.0000
  S   S516      1.0  0.98754  0.71941  0.57093  1.0000
  C   C1945     1.0  0.86297  0.72656  0.90040  1.0000
  H   H2325     1.0  0.73633  0.71713  0.76623  1.0000
  C   C1946     1.0  0.85384  0.68767  0.67899  1.0000
  C   C1947     1.0  0.89910  0.73367  0.73764  1.0000
  N   N129      1.0  0.85359  0.67923  0.65294  1.0000
  C   C1948     1.0  0.74492  0.74659  0.87869  1.0000
  C   C1949     1.0  0.96003  0.69846  0.93946  1.0000
  C   C1950     1.0  0.68098  0.74051  0.79564  1.0000
  C   C1951     1.0  0.87113  0.68258  0.92742  1.0000
  H   H2326     1.0  0.85169  0.72676  0.70817  1.0000
  H   H2327     1.0  0.74198  0.62132  0.97789  1.0000
  H   H2328     1.0  0.76930  0.71382  0.93252  1.0000
  S   S517      1.0  0.95529  0.73846  0.59643  1.0000
  H   H2329     1.0  0.88420  0.68604  0.64773  1.0000
  C   C1952     1.0  0.74258  0.67647  0.89957  1.0000
  C   C1953     1.0  0.67735  0.69745  0.71324  1.0000
  H   H2330     1.0  0.76458  0.73531  0.92620  1.0000
  H   H2331     1.0  0.89178  0.72248  0.87123  1.0000
  H   H2332     1.0  0.90547  0.70622  0.50380  1.0000
  C   C1954     1.0  0.72027  0.67784  0.63560  1.0000
  H   H2333     1.0  0.74187  0.69878  0.74956  1.0000
  H   H2334     1.0  0.77072  0.72740  0.77408  1.0000
  H   H2335     1.0  0.74290  0.61344  0.48618  1.0000
  C   C1955     1.0  0.75268  0.67182  0.92051  1.0000
  H   H2336     1.0  0.67375  0.64005  0.61246  1.0000
  H   H2337     1.0  0.87143  0.73588  0.91464  1.0000
  H   H2338     1.0  0.93661  0.68429  0.54217  1.0000
  C   C1956     1.0  0.72589  0.64641  0.93294  1.0000
  H   H2339     1.0  0.67348  0.61676  0.92154  1.0000
  H   H2340     1.0  0.67363  0.68938  0.65855  1.0000
  H   H2341     1.0  0.85554  0.66387  0.70254  1.0000
  C   C1957     1.0  0.91139  0.69626  0.51475  1.0000
  C   C1958     1.0  0.77384  0.72394  0.75341  1.0000
  H   H2342     1.0  0.91004  0.69872  0.53620  1.0000
  H   H2343     1.0  0.67968  0.63297  0.65883  1.0000
  H   H2344     1.0  0.84536  0.70019  0.49355  1.0000
  H   H2345     1.0  0.85194  0.71439  0.66467  1.0000
  C   C1959     1.0  0.75882  0.72179  0.93630  1.0000
  C   C1960     1.0  0.72404  0.66621  0.89528  1.0000
  C   C1961     1.0  0.72916  0.69419  0.97107  1.0000
  H   H2346     1.0  0.68095  0.62420  0.87503  1.0000
  Fe  Fe255     1.0  0.97998  0.74564  0.56616  1.0000
  C   C1962     1.0  0.74438  0.65685  0.93713  1.0000
  C   C1963     1.0  0.85487  0.67768  0.70289  1.0000
  H   H2347     1.0  0.78782  0.73300  0.74620  1.0000
  H   H2348     1.0  0.73409  0.70564  0.64193  1.0000
  C   C1964     1.0  0.98037  0.74692  0.70820  1.0000
  C   C1965     1.0  0.68875  0.64053  0.60668  1.0000
  C   C1966     1.0  0.70938  0.62285  0.52757  1.0000
  H   H2349     1.0  0.68672  0.74286  0.59282  1.0000
  H   H2350     1.0  0.69323  0.65036  0.58948  1.0000
  C   C1967     1.0  0.85304  0.70576  0.68158  1.0000
  C   C1968     1.0  0.74040  0.71274  0.74655  1.0000
  C   C1969     1.0  0.70286  0.66396  0.63645  1.0000
  N   N130      1.0  0.75520  0.72311  0.96517  1.0000
  H   H2351     1.0  0.92956  0.67005  0.51464  1.0000
  H   H2352     1.0  0.90715  0.69952  0.73703  1.0000
  C   C1970     1.0  0.85462  0.68516  0.72778  1.0000
  C   C1971     1.0  0.94426  0.69531  0.92351  1.0000
  C   C1972     1.0  0.95762  0.69836  0.96716  1.0000
  H   H2353     1.0  0.75241  0.65323  0.95328  1.0000
  H   H2354     1.0  0.85442  0.71744  0.94919  1.0000
  H   H2355     1.0  0.85484  0.67712  0.74582  1.0000
  H   H2356     1.0  0.66568  0.66902  0.72336  1.0000
  H   H2357     1.0  0.98659  0.73400  0.74465  1.0000
  H   H2358     1.0  0.72049  0.63489  0.94648  1.0000
  H   H2359     1.0  0.70740  0.66915  0.97764  1.0000
  H   H2360     1.0  0.69724  0.61462  0.92463  1.0000
  C   C1973     1.0  0.92757  0.72548  0.68202  1.0000
  C   C1974     1.0  0.69429  0.63269  0.65203  1.0000
  H   H2361     1.0  0.69887  0.64370  0.86354  1.0000
  H   H2362     1.0  0.68534  0.66258  0.89283  1.0000
  N   N131      1.0  0.70180  0.64533  0.62898  1.0000
  H   H2363     1.0  0.84219  0.69307  0.88669  1.0000
  C   C1975     1.0  0.91292  0.70336  0.71700  1.0000
  H   H2364     1.0  0.70428  0.71292  0.65683  1.0000
  C   C1976     1.0  0.88926  0.71427  0.89030  1.0000
  C   C1977     1.0  0.85354  0.70282  0.72964  1.0000
  H   H2365     1.0  0.85714  0.70617  0.86036  1.0000
  H   H2366     1.0  0.70571  0.62462  0.87720  1.0000
  H   H2367     1.0  0.92325  0.68309  0.66144  1.0000
  H   H2368     1.0  0.96365  0.75046  0.97329  1.0000
  C   C1978     1.0  0.71511  0.65079  0.91179  1.0000
  Fe  Fe256     1.0  0.97669  0.74871  0.62764  1.0000
  H   H2369     1.0  0.93980  0.71790  0.53621  1.0000
  C   C1979     1.0  0.69692  0.74158  0.77799  1.0000
  C   C1980     1.0  0.68664  0.68619  0.65189  1.0000
  H   H2370     1.0  0.91385  0.68980  0.92252  1.0000
  C   C1981     1.0  0.85893  0.70518  0.94880  1.0000
  H   H2371     1.0  0.78516  0.72698  0.97201  1.0000
  H   H2372     1.0  0.70358  0.63587  0.66934  1.0000
  N   N132      1.0  0.91892  0.73606  0.72708  1.0000
  N   N133      1.0  0.69557  0.63996  0.90648  1.0000
  H   H2373     1.0  0.68208  0.65722  0.92800  1.0000
  N   N134      1.0  0.93158  0.69804  0.50618  1.0000
  H   H2374     1.0  0.87655  0.67711  0.91028  1.0000
  H   H2375     1.0  0.72788  0.72870  0.95825  1.0000
  C   C1982     1.0  0.92340  0.69209  0.96280  1.0000
  C   C1983     1.0  0.91963  0.72176  0.70846  1.0000
  H   H2376     1.0  0.93231  0.74621  0.76326  1.0000
  H   H2377     1.0  0.75134  0.71730  0.69516  1.0000
  H   H2378     1.0  0.91319  0.74398  0.80647  1.0000
  C   C1984     1.0  0.85653  0.69496  0.97277  1.0000
  H   H2379     1.0  0.95331  0.68455  0.51527  1.0000
  C   C1985     1.0  0.93802  0.68359  0.52014  1.0000
  H   H2380     1.0  0.73359  0.73656  0.70324  1.0000
  H   H2381     1.0  0.89802  0.74468  0.75089  1.0000
  H   H2382     1.0  0.66789  0.74184  0.74431  1.0000
  H   H2383     1.0  0.66721  0.71246  0.76505  1.0000
  S   S518      1.0  0.81152  0.71621  0.48981  1.0000
  C   C1986     1.0  0.74225  0.74708  0.71460  1.0000
  H   H2384     1.0  0.67928  0.72198  0.57777  1.0000
  C   C1987     1.0  0.71562  0.74714  0.78648  1.0000
  H   H2385     1.0  0.97631  0.74455  0.92907  1.0000
  C   C1988     1.0  0.98338  0.74212  0.94689  1.0000
  H   H2386     1.0  0.99262  0.66796  0.73539  1.0000
  H   H2387     1.0  0.77826  0.74724  0.96784  1.0000
  H   H2388     1.0  0.90898  0.68994  0.97088  1.0000
  C   C1989     1.0  0.71903  0.75125  0.81288  1.0000
  H   H2389     1.0  0.70653  0.75297  0.85155  1.0000
  H   H2390     1.0  0.78814  0.74333  0.48380  1.0000
  S   S519      1.0  0.79085  0.75318  0.81240  1.0000
  H   H2391     1.0  0.79054  0.91782  0.23283  1.0000
  H   H2392     1.0  0.69980  0.78280  0.10061  1.0000
  H   H2393     1.0  0.72951  0.76698  0.31090  1.0000
  H   H2394     1.0  0.74253  0.98945  0.41432  1.0000
  H   H2395     1.0  0.92888  0.75707  0.25189  1.0000
  Fe  Fe257     1.0  0.72419  0.80839  0.41161  1.0000
  S   S520      1.0  0.69573  0.80682  0.43152  1.0000
  S   S521      1.0  0.74657  0.83410  0.39948  1.0000
  C   C1990     1.0  0.98110  0.77474  0.21112  1.0000
  Fe  Fe258     1.0  0.68499  0.78550  0.40176  1.0000
  C   C1991     1.0  0.73524  0.97935  0.01301  1.0000
  Fe  Fe259     1.0  0.70110  0.78458  0.45810  1.0000
  C   C1992     1.0  0.69301  0.78545  0.03368  1.0000
  S   S522      1.0  0.71309  0.78847  0.38054  1.0000
  S   S523      1.0  0.73046  0.78766  0.43955  1.0000
  Fe  Fe260     1.0  0.74272  0.97118  0.36787  1.0000
  S   S524      1.0  0.77424  0.97943  0.37290  1.0000
  C   C1993     1.0  0.67266  0.78142  0.08364  1.0000
  Fe  Fe261     1.0  0.74024  0.93149  0.37930  1.0000
  S   S525      1.0  0.77159  0.93702  0.38629  1.0000
  S   S526      1.0  0.71848  0.90473  0.38666  1.0000
  Fe  Fe262     1.0  0.76807  0.96065  0.40922  1.0000
  S   S527      1.0  0.77723  0.97327  0.44867  1.0000
  Fe  Fe263     1.0  0.77441  0.95521  0.34922  1.0000
  S   S528      1.0  0.79751  0.95528  0.31779  1.0000
  S   S529      1.0  0.73647  0.95350  0.40481  1.0000
  S   S530      1.0  0.74315  0.94838  0.34131  1.0000
  Fe  Fe264     1.0  0.70601  0.80184  0.18713  1.0000
  S   S531      1.0  0.73077  0.82707  0.18264  1.0000
  S   S532      1.0  0.69779  0.78301  0.22348  1.0000
  S   S533      1.0  0.70217  0.77878  0.15951  1.0000
  Fe  Fe265     1.0  0.75805  0.97118  0.13099  1.0000
  S   S534      1.0  0.78692  0.96738  0.12095  1.0000
  H   H2396     1.0  0.69513  0.81205  0.12212  1.0000
  Fe  Fe266     1.0  0.74213  0.93035  0.14860  1.0000
  S   S535      1.0  0.77041  0.92530  0.13935  1.0000
  S   S536      1.0  0.71887  0.90591  0.16511  1.0000
  Fe  Fe267     1.0  0.78230  0.95101  0.15978  1.0000
  S   S537      1.0  0.80435  0.95383  0.19127  1.0000
  Fe  Fe268     1.0  0.77068  0.94219  0.10196  1.0000
  S   S538      1.0  0.77271  0.93005  0.06195  1.0000
  S   S539      1.0  0.75408  0.95567  0.17068  1.0000
  S   S540      1.0  0.74184  0.94650  0.11045  1.0000
  C   C1994     1.0  0.72680  0.84865  0.17711  1.0000
  C   C1995     1.0  0.74083  0.86215  0.16310  1.0000
  C   C1996     1.0  0.73852  0.87961  0.15907  1.0000
  C   C1997     1.0  0.72218  0.88390  0.16919  1.0000
  C   C1998     1.0  0.70808  0.87035  0.18313  1.0000
  C   C1999     1.0  0.71034  0.85283  0.18708  1.0000
  H   H2397     1.0  0.75357  0.85908  0.15516  1.0000
  H   H2398     1.0  0.74935  0.88961  0.14782  1.0000
  H   H2399     1.0  0.69535  0.87344  0.19106  1.0000
  H   H2400     1.0  0.69946  0.84266  0.19816  1.0000
  C   C2000     1.0  0.79768  0.95500  0.28253  1.0000
  C   C2001     1.0  0.81474  0.95426  0.26956  1.0000
  C   C2002     1.0  0.81626  0.95393  0.24182  1.0000
  C   C2003     1.0  0.80074  0.95430  0.22628  1.0000
  C   C2004     1.0  0.78351  0.95521  0.23897  1.0000
  C   C2005     1.0  0.78194  0.95547  0.26715  1.0000
  H   H2401     1.0  0.82698  0.95393  0.28114  1.0000
  H   H2402     1.0  0.82965  0.95332  0.23237  1.0000
  H   H2403     1.0  0.77145  0.95576  0.22722  1.0000
  H   H2404     1.0  0.76867  0.95604  0.27695  1.0000
  C   C2006     1.0  0.76164  0.76233  0.33808  1.0000
  S   S541      1.0  0.67698  0.80575  0.18153  1.0000
  C   C2007     1.0  0.76169  0.93951  0.01297  1.0000
  C   C2008     1.0  0.77591  0.94313  0.03188  1.0000
  C   C2009     1.0  0.79375  0.95473  0.02470  1.0000
  H   H2405     1.0  0.76056  0.92351  0.21801  1.0000
  H   H2406     1.0  0.71298  0.83411  0.35839  1.0000
  H   H2407     1.0  0.74789  0.93042  0.01834  1.0000
  H   H2408     1.0  0.80491  0.95734  0.03893  1.0000
  H   H2409     1.0  0.69073  0.86297  0.36185  1.0000
  C   C2010     1.0  0.73929  0.85414  0.39784  1.0000
  C   C2011     1.0  0.75158  0.86981  0.38592  1.0000
  C   C2012     1.0  0.74559  0.88566  0.38309  1.0000
  C   C2013     1.0  0.72724  0.88582  0.39208  1.0000
  C   C2014     1.0  0.71516  0.87032  0.40457  1.0000
  C   C2015     1.0  0.72120  0.85457  0.40754  1.0000
  H   H2410     1.0  0.76565  0.86960  0.37847  1.0000
  H   H2411     1.0  0.75500  0.89755  0.37336  1.0000
  H   H2412     1.0  0.70097  0.87040  0.41166  1.0000
  H   H2413     1.0  0.71177  0.84274  0.41716  1.0000
  H   H2414     1.0  0.74093  0.87426  0.22431  1.0000
  H   H2415     1.0  0.72843  0.84826  0.32003  1.0000
  H   H2416     1.0  0.77952  0.81704  0.44815  1.0000
  C   C2016     1.0  0.78159  0.79070  0.39625  1.0000
  H   H2417     1.0  0.69307  0.81562  0.35198  1.0000
  C   C2017     1.0  0.67327  0.78338  0.03478  1.0000
  N   N135      1.0  0.76336  0.89792  0.23298  1.0000
  C   C2018     1.0  0.73642  0.89471  0.26695  1.0000
  C   C2019     1.0  0.75584  0.90901  0.21368  1.0000
  C   C2020     1.0  0.71402  0.89588  0.46559  1.0000
  C   C2021     1.0  0.78879  0.99931  0.18605  1.0000
  H   H2418     1.0  0.68360  0.83973  0.06539  1.0000
  H   H2419     1.0  0.72438  0.77360  0.27813  1.0000
  Fe  Fe269     1.0  0.71641  0.76753  0.41064  1.0000
  H   H2420     1.0  0.71828  0.88325  0.46220  1.0000
  H   H2421     1.0  0.68350  0.78754  0.28246  1.0000
  C   C2022     1.0  0.70745  0.94964  0.46629  1.0000
  C   C2023     1.0  0.67369  0.78599  0.32390  1.0000
  C   C2024     1.0  0.69722  0.83007  0.35661  1.0000
  N   N136      1.0  0.73051  0.91076  0.47258  1.0000
  C   C2025     1.0  0.78153  0.80605  0.40997  1.0000
  H   H2422     1.0  0.72104  0.97296  0.02292  1.0000
  H   H2423     1.0  0.72540  0.83008  0.99027  1.0000
  N   N137      1.0  0.69062  0.84110  0.33613  1.0000
  C   C2026     1.0  0.79770  0.96188  0.99848  1.0000
  C   C2027     1.0  0.77781  0.78868  0.45167  1.0000
  N   N138      1.0  0.69977  0.83734  0.09983  1.0000
  C   C2028     1.0  0.70700  0.82327  0.11351  1.0000
  C   C2029     1.0  0.71871  0.84298  0.30461  1.0000
  C   C2030     1.0  0.68832  0.82934  0.07721  1.0000
  C   C2031     1.0  0.71611  0.85229  0.08990  1.0000
  C   C2032     1.0  0.72976  0.84909  0.07120  1.0000
  C   C2033     1.0  0.71918  0.87018  0.09850  1.0000
  C   C2034     1.0  0.74556  0.86286  0.06191  1.0000
  C   C2035     1.0  0.73501  0.88386  0.08899  1.0000
  C   C2036     1.0  0.74818  0.88020  0.07081  1.0000
  H   H2424     1.0  0.97946  0.78721  0.20229  1.0000
  H   H2425     1.0  0.75647  0.92690  0.45326  1.0000
  H   H2426     1.0  0.68738  0.78588  0.33160  1.0000
  H   H2427     1.0  0.72101  0.83135  0.24012  1.0000
  H   H2428     1.0  0.81182  0.97024  0.99284  1.0000
  H   H2429     1.0  0.66382  0.83786  0.35824  1.0000
  H   H2430     1.0  0.75739  0.97007  0.05026  1.0000
  H   H2431     1.0  0.68028  0.85317  0.10992  1.0000
  H   H2432     1.0  0.69632  0.82271  0.06344  1.0000
  H   H2433     1.0  0.72840  0.83582  0.06383  1.0000
  H   H2434     1.0  0.70977  0.87399  0.11288  1.0000
  H   H2435     1.0  0.75591  0.86004  0.04787  1.0000
  H   H2436     1.0  0.73724  0.89739  0.09603  1.0000
  H   H2437     1.0  0.76052  0.89085  0.06381  1.0000
  H   H2438     1.0  0.69332  0.86911  0.32702  1.0000
  H   H2439     1.0  0.78939  0.90126  0.20898  1.0000
  C   C2037     1.0  0.68668  0.84288  0.11903  1.0000
  C   C2038     1.0  0.77982  0.80508  0.43763  1.0000
  C   C2039     1.0  0.75667  0.87877  0.22616  1.0000
  Fe  Fe270     1.0  0.68967  0.76038  0.19515  1.0000
  C   C2040     1.0  0.69510  0.82898  0.26344  1.0000
  C   C2041     1.0  0.66940  0.83596  0.33799  1.0000
  C   C2042     1.0  0.76854  0.90853  0.28032  1.0000
  C   C2043     1.0  0.72931  0.89706  0.29232  1.0000
  C   C2044     1.0  0.76126  0.91075  0.30566  1.0000
  C   C2045     1.0  0.74172  0.90497  0.31168  1.0000
  H   H2440     1.0  0.79117  0.89537  0.24344  1.0000
  H   H2441     1.0  0.78380  0.91371  0.27700  1.0000
  H   H2442     1.0  0.77087  0.91737  0.32057  1.0000
  H   H2443     1.0  0.73615  0.90695  0.33126  1.0000
  H   H2444     1.0  0.76290  0.87629  0.20662  1.0000
  H   H2445     1.0  0.73235  0.98677  0.99497  1.0000
  H   H2446     1.0  0.80390  0.75983  0.46185  1.0000
  H   H2447     1.0  0.76074  0.86982  0.24140  1.0000
  C   C2046     1.0  0.77281  0.99707  0.99223  1.0000
  C   C2047     1.0  0.68701  0.83144  0.28814  1.0000
  C   C2048     1.0  0.81403  0.00326  0.21682  1.0000
  H   H2448     1.0  0.73998  0.90522  0.21388  1.0000
  H   H2449     1.0  0.67458  0.83130  0.12613  1.0000
  H   H2450     1.0  0.76078  0.90761  0.19294  1.0000
  H   H2451     1.0  0.74492  0.76510  0.28343  1.0000
  H   H2452     1.0  0.71560  0.81714  0.09993  1.0000
  S   S542      1.0  0.70700  0.78920  0.00333  1.0000
  H   H2453     1.0  0.67160  0.82733  0.28995  1.0000
  H   H2454     1.0  0.69933  0.95504  0.45192  1.0000
  H   H2455     1.0  0.71627  0.82891  0.13001  1.0000
  C   C2049     1.0  0.75629  0.90030  0.26017  1.0000
  C   C2050     1.0  0.70239  0.78521  0.05770  1.0000
  H   H2456     1.0  0.67527  0.81873  0.08415  1.0000
  C   C2051     1.0  0.77729  0.77264  0.43830  1.0000
  H   H2457     1.0  0.74201  0.84376  0.27663  1.0000
  H   H2458     1.0  0.76990  0.90656  0.00011  1.0000
  C   C2052     1.0  0.69229  0.78303  0.08247  1.0000
  H   H2459     1.0  0.72619  0.88879  0.25245  1.0000
  Fe  Fe271     1.0  0.67268  0.78194  0.15547  1.0000
  C   C2053     1.0  0.98592  0.77402  0.23780  1.0000
  S   S543      1.0  0.99460  0.75873  0.28354  1.0000
  C   C2054     1.0  0.74233  0.87572  0.98922  1.0000
  C   C2055     1.0  0.78453  0.90329  0.22958  1.0000
  C   C2056     1.0  0.77951  0.77421  0.41006  1.0000
  C   C2057     1.0  0.74420  0.91532  0.44937  1.0000
  H   H2460     1.0  0.69087  0.83109  0.37672  1.0000
  C   C2058     1.0  0.73030  0.99476  0.41696  1.0000
  C   C2059     1.0  0.73409  0.84349  0.98442  1.0000
  H   H2461     1.0  0.96387  0.75822  0.47053  1.0000
  H   H2462     1.0  0.79058  0.94170  0.46263  1.0000
  C   C2060     1.0  0.71486  0.83349  0.25926  1.0000
  C   C2061     1.0  0.72024  0.99799  0.39490  1.0000
  S   S544      1.0  0.72682  0.99247  0.36304  1.0000
  H   H2463     1.0  0.78292  0.79151  0.37469  1.0000
  C   C2062     1.0  0.72664  0.84049  0.27981  1.0000
  C   C2063     1.0  0.69723  0.86031  0.34260  1.0000
  H   H2464     1.0  0.71408  0.89308  0.29682  1.0000
  C   C2064     1.0  0.97865  0.75962  0.19569  1.0000
  H   H2465     1.0  0.74127  0.96821  0.00675  1.0000
  C   C2065     1.0  0.69862  0.83848  0.30959  1.0000
  H   H2466     1.0  0.76596  0.77460  0.32576  1.0000
  H   H2467     1.0  0.78257  0.81870  0.39915  1.0000
  H   H2468     1.0  0.69418  0.84833  0.13711  1.0000
  S   S545      1.0  0.68734  0.76300  0.43025  1.0000
  H   H2469     1.0  0.77614  0.78857  0.47308  1.0000
  H   H2470     1.0  0.68591  0.82321  0.24759  1.0000
  H   H2471     1.0  0.74298  0.77225  0.36407  1.0000
  H   H2472     1.0  0.71295  0.86483  0.34465  1.0000
  C   C2066     1.0  0.74990  0.98053  0.05507  1.0000
  N   N139      1.0  0.74814  0.99146  0.03090  1.0000
  C   C2067     1.0  0.67148  0.78686  0.29600  1.0000
  H   H2473     1.0  0.71764  0.78672  0.05712  1.0000
  H   H2474     1.0  0.73965  0.88689  0.99965  1.0000
  C   C2068     1.0  0.78967  0.75636  0.47252  1.0000
  H   H2475     1.0  0.73230  0.99551  0.45949  1.0000
  H   H2476     1.0  0.77772  0.99931  0.20184  1.0000
  H   H2477     1.0  0.73751  0.91929  0.43147  1.0000
  H   H2478     1.0  0.98811  0.78600  0.24918  1.0000
  H   H2479     1.0  0.70762  0.89885  0.44673  1.0000
  H   H2480     1.0  0.72029  0.85663  0.01269  1.0000
  H   H2481     1.0  0.73570  0.97359  0.06455  1.0000
  S   S546      1.0  0.75421  0.99959  0.12458  1.0000
  H   H2482     1.0  0.77937  0.76286  0.39803  1.0000
  C   C2069     1.0  0.98772  0.75801  0.24998  1.0000
  C   C2070     1.0  0.76555  0.94699  0.98681  1.0000
  C   C2071     1.0  0.73124  0.85845  0.99697  1.0000
  C   C2072     1.0  0.77830  0.96164  0.47928  1.0000
  S   S547      1.0  0.97173  0.76159  0.16248  1.0000
  Fe  Fe272     1.0  0.66852  0.78596  0.21663  1.0000
  H   H2483     1.0  0.78938  0.98514  0.18405  1.0000
  H   H2484     1.0  0.74986  0.90379  0.44388  1.0000
  H   H2485     1.0  0.70260  0.89303  0.48160  1.0000
  C   C2073     1.0  0.74857  0.76098  0.35964  1.0000
  C   C2074     1.0  0.72471  0.99853  0.44254  1.0000
  H   H2486     1.0  0.81641  0.98984  0.21337  1.0000
  C   C2075     1.0  0.71289  0.93394  0.46122  1.0000
  C   C2076     1.0  0.72966  0.76345  0.28971  1.0000
  H   H2487     1.0  0.82394  0.99698  0.16888  1.0000
  H   H2488     1.0  0.75804  0.98874  0.07067  1.0000
  H   H2489     1.0  0.70875  0.92769  0.44263  1.0000
  C   C2077     1.0  0.72409  0.92688  0.47915  1.0000
  H   H2490     1.0  0.78893  0.89745  0.98901  1.0000
  C   C2078     1.0  0.78581  0.94671  0.48068  1.0000
  H   H2491     1.0  0.72399  0.99979  0.04664  1.0000
  C   C2079     1.0  0.76737  0.99993  0.01876  1.0000
  N   N140      1.0  0.77416  0.75529  0.45361  1.0000
  H   H2492     1.0  0.80319  0.00107  0.23358  1.0000
  H   H2493     1.0  0.66584  0.78358  0.01652  1.0000
  H   H2494     1.0  0.73139  0.90170  0.60121  1.0000
  C   C2080     1.0  0.73107  0.88880  0.59297  1.0000
  H   H2495     1.0  0.74009  0.87655  0.72263  1.0000
  C   C2081     1.0  0.71610  0.87368  0.60034  1.0000
  H   H2496     1.0  0.71717  0.83466  0.73984  1.0000
  Fe  Fe273     1.0  0.72577  0.80927  0.90959  1.0000
  H   H2497     1.0  0.68821  0.78616  0.83167  1.0000
  S   S548      1.0  0.74760  0.83451  0.89427  1.0000
  Fe  Fe274     1.0  0.71778  0.76849  0.91252  1.0000
  H   H2498     1.0  0.67414  0.83068  0.62253  1.0000
  H   H2499     1.0  0.67808  0.85303  0.60856  1.0000
  H   H2500     1.0  0.71430  0.83432  0.85829  1.0000
  C   C2082     1.0  0.74588  0.88732  0.57573  1.0000
  S   S549      1.0  0.71403  0.78808  0.88063  1.0000
  S   S550      1.0  0.73254  0.78983  0.93933  1.0000
  Fe  Fe275     1.0  0.74378  0.97057  0.87620  1.0000
  S   S551      1.0  0.77577  0.97767  0.87542  1.0000
  C   C2083     1.0  0.97761  0.76277  0.69629  1.0000
  Fe  Fe276     1.0  0.73990  0.93100  0.88478  1.0000
  S   S552      1.0  0.77148  0.93465  0.88516  1.0000
  S   S553      1.0  0.71821  0.90444  0.89189  1.0000
  Fe  Fe277     1.0  0.77162  0.95803  0.91062  1.0000
  S   S554      1.0  0.79042  0.96516  0.94591  1.0000
  Fe  Fe278     1.0  0.77263  0.95376  0.84980  1.0000
  S   S555      1.0  0.79385  0.95230  0.81642  1.0000
  S   S556      1.0  0.73985  0.95278  0.91317  1.0000
  S   S557      1.0  0.74083  0.94822  0.84774  1.0000
  Fe  Fe279     1.0  0.70614  0.80356  0.68643  1.0000
  S   S558      1.0  0.73141  0.82844  0.68207  1.0000
  S   S559      1.0  0.69768  0.78416  0.72215  1.0000
  S   S560      1.0  0.70163  0.78084  0.65811  1.0000
  Fe  Fe280     1.0  0.76103  0.97333  0.62590  1.0000
  S   S561      1.0  0.79067  0.97047  0.61923  1.0000
  H   H2501     1.0  0.69285  0.86995  0.83265  1.0000
  Fe  Fe281     1.0  0.74564  0.93233  0.64275  1.0000
  S   S562      1.0  0.77465  0.92807  0.63671  1.0000
  S   S563      1.0  0.72205  0.90784  0.65862  1.0000
  Fe  Fe282     1.0  0.78468  0.95386  0.65769  1.0000
  S   S564      1.0  0.80591  0.95781  0.69029  1.0000
  Fe  Fe283     1.0  0.77642  0.94513  0.59901  1.0000
  S   S565      1.0  0.78522  0.93494  0.56010  1.0000
  S   S566      1.0  0.75568  0.95765  0.66550  1.0000
  S   S567      1.0  0.74679  0.94845  0.60396  1.0000
  C   C2084     1.0  0.72847  0.85037  0.67541  1.0000
  C   C2085     1.0  0.74353  0.86368  0.66283  1.0000
  C   C2086     1.0  0.74184  0.88128  0.65763  1.0000
  C   C2087     1.0  0.72504  0.88587  0.66501  1.0000
  C   C2088     1.0  0.71001  0.87256  0.67770  1.0000
  C   C2089     1.0  0.71169  0.85496  0.68291  1.0000
  H   H2502     1.0  0.75659  0.86035  0.65688  1.0000
  H   H2503     1.0  0.75349  0.89118  0.64755  1.0000
  H   H2504     1.0  0.69694  0.87590  0.68358  1.0000
  H   H2505     1.0  0.70004  0.84502  0.69299  1.0000
  C   C2090     1.0  0.79572  0.95495  0.78122  1.0000
  C   C2091     1.0  0.81326  0.95483  0.76913  1.0000
  C   C2092     1.0  0.81597  0.95609  0.74145  1.0000
  C   C2093     1.0  0.80111  0.95724  0.72509  1.0000
  C   C2094     1.0  0.78341  0.95761  0.73690  1.0000
  C   C2095     1.0  0.78070  0.95645  0.76504  1.0000
  H   H2506     1.0  0.82494  0.95367  0.78134  1.0000
  H   H2507     1.0  0.82969  0.95585  0.73266  1.0000
  H   H2508     1.0  0.77186  0.95870  0.72447  1.0000
  H   H2509     1.0  0.76704  0.95649  0.77419  1.0000
  H   H2510     1.0  0.77132  0.78633  0.75470  1.0000
  C   C2096     1.0  0.69121  0.78290  0.53349  1.0000
  C   C2097     1.0  0.77493  0.96039  0.52788  1.0000
  C   C2098     1.0  0.78249  0.94550  0.52927  1.0000
  C   C2099     1.0  0.78792  0.93872  0.50558  1.0000
  C   C2100     1.0  0.67234  0.78811  0.79631  1.0000
  H   H2511     1.0  0.66985  0.82899  0.79444  1.0000
  H   H2512     1.0  0.77076  0.96576  0.54599  1.0000
  H   H2513     1.0  0.79404  0.92736  0.50652  1.0000
  H   H2514     1.0  0.72699  0.90521  0.83047  1.0000
  C   C2101     1.0  0.74017  0.85438  0.89488  1.0000
  C   C2102     1.0  0.75050  0.86970  0.87995  1.0000
  C   C2103     1.0  0.74418  0.88541  0.87942  1.0000
  C   C2104     1.0  0.72741  0.88568  0.89360  1.0000
  C   C2105     1.0  0.71739  0.87054  0.90897  1.0000
  C   C2106     1.0  0.72385  0.85500  0.90977  1.0000
  H   H2515     1.0  0.76324  0.86933  0.86853  1.0000
  H   H2516     1.0  0.75200  0.89711  0.86753  1.0000
  H   H2517     1.0  0.70460  0.87082  0.92035  1.0000
  H   H2518     1.0  0.71631  0.84364  0.92225  1.0000
  Fe  Fe284     1.0  0.68889  0.76196  0.69321  1.0000
  H   H2519     1.0  0.73354  0.75541  0.81942  1.0000
  H   H2520     1.0  0.77770  0.91544  0.78142  1.0000
  H   H2521     1.0  0.76195  0.91728  0.82361  1.0000
  C   C2107     1.0  0.67262  0.78493  0.53433  1.0000
  H   H2522     1.0  0.71451  0.78001  0.55721  1.0000
  C   C2108     1.0  0.69071  0.78231  0.58227  1.0000
  H   H2523     1.0  0.75949  0.87272  0.74133  1.0000
  H   H2524     1.0  0.76310  0.88043  0.70704  1.0000
  H   H2525     1.0  0.70757  0.89124  0.79330  1.0000
  H   H2526     1.0  0.78664  0.92154  0.73829  1.0000
  H   H2527     1.0  0.69953  0.82734  0.56024  1.0000
  H   H2528     1.0  0.97643  0.78983  0.70319  1.0000
  C   C2109     1.0  0.97871  0.77760  0.71199  1.0000
  C   C2110     1.0  0.69845  0.83043  0.85827  1.0000
  C   C2111     1.0  0.67212  0.78429  0.58317  1.0000
  H   H2529     1.0  0.77351  0.89213  0.91907  1.0000
  Fe  Fe285     1.0  0.70336  0.78763  0.95816  1.0000
  H   H2530     1.0  0.78711  0.98655  0.68736  1.0000
  H   H2531     1.0  0.73973  0.84635  0.77503  1.0000
  H   H2532     1.0  0.69501  0.00311  0.89078  1.0000
  H   H2533     1.0  0.76724  0.98004  0.50217  1.0000
  H   H2534     1.0  0.71693  0.83182  0.62804  1.0000
  S   S568      1.0  0.68898  0.76476  0.93272  1.0000
  H   H2535     1.0  0.69334  0.83126  0.87914  1.0000
  C   C2112     1.0  0.75379  0.76365  0.86734  1.0000
  H   H2536     1.0  0.73072  0.90065  0.51303  1.0000
  C   C2113     1.0  0.70013  0.78157  0.55763  1.0000
  H   H2537     1.0  0.74544  0.91018  0.96932  1.0000
  H   H2538     1.0  0.78922  0.91192  0.93109  1.0000
  C   C2114     1.0  0.76627  0.75825  0.74662  1.0000
  C   C2115     1.0  0.73076  0.85553  0.57266  1.0000
  C   C2116     1.0  0.71558  0.85649  0.59051  1.0000
  H   H2539     1.0  0.79206  0.89046  0.94151  1.0000
  H   H2540     1.0  0.67750  0.82127  0.57909  1.0000
  C   C2117     1.0  0.72376  0.95214  0.50752  1.0000
  H   H2541     1.0  0.66554  0.78592  0.51595  1.0000
  H   H2542     1.0  0.70875  0.97100  0.49306  1.0000
  C   C2118     1.0  0.77300  0.96849  0.50299  1.0000
  C   C2119     1.0  0.98569  0.76129  0.75104  1.0000
  C   C2120     1.0  0.69025  0.83268  0.57394  1.0000
  H   H2543     1.0  0.76320  0.98857  0.97914  1.0000
  H   H2544     1.0  0.73128  0.84293  0.56433  1.0000
  C   C2121     1.0  0.74803  0.84578  0.96407  1.0000
  C   C2122     1.0  0.69223  0.83152  0.76561  1.0000
  H   H2545     1.0  0.75763  0.89905  0.57057  1.0000
  H   H2546     1.0  0.68522  0.84308  0.56262  1.0000
  H   H2547     1.0  0.75459  0.94414  0.97231  1.0000
  C   C2123     1.0  0.69772  0.83991  0.81199  1.0000
  C   C2124     1.0  0.74984  0.77836  0.72579  1.0000
  H   H2548     1.0  0.75367  0.91379  0.49942  1.0000
  H   H2549     1.0  0.74497  0.90168  0.93668  1.0000
  Fe  Fe286     1.0  0.66856  0.78773  0.71620  1.0000
  S   S569      1.0  0.72675  0.99088  0.87193  1.0000
  S   S570      1.0  0.70409  0.78173  0.50328  1.0000
  H   H2550     1.0  0.98393  0.78869  0.75051  1.0000
  H   H2551     1.0  0.72896  0.76657  0.69775  1.0000
  H   H2552     1.0  0.68437  0.78904  0.78266  1.0000
  C   C2125     1.0  0.69765  0.86083  0.84683  1.0000
  H   H2553     1.0  0.77897  0.00281  0.70524  1.0000
  C   C2126     1.0  0.68545  0.84331  0.61711  1.0000
  H   H2554     1.0  0.69387  0.81605  0.85326  1.0000
  H   H2555     1.0  0.76921  0.86368  0.93953  1.0000
  H   H2556     1.0  0.77472  0.77883  0.83809  1.0000
  H   H2557     1.0  0.76258  0.92174  0.94434  1.0000
  H   H2558     1.0  0.78823  0.89920  0.74747  1.0000
  H   H2559     1.0  0.78801  0.90634  0.71318  1.0000
  H   H2560     1.0  0.72261  0.88907  0.74997  1.0000
  C   C2127     1.0  0.71182  0.83629  0.75972  1.0000
  S   S571      1.0  0.69752  0.80852  0.92950  1.0000
  S   S572      1.0  0.75705  0.00185  0.62084  1.0000
  S   S573      1.0  0.67729  0.80810  0.68185  1.0000
  H   H2561     1.0  0.74424  0.89146  0.48948  1.0000
  H   H2562     1.0  0.74805  0.99722  0.91999  1.0000
  N   N141      1.0  0.76059  0.90066  0.73450  1.0000
  C   C2128     1.0  0.75334  0.91181  0.71495  1.0000
  C   C2129     1.0  0.78177  0.90716  0.73345  1.0000
  C   C2130     1.0  0.75556  0.88178  0.72613  1.0000
  C   C2131     1.0  0.75176  0.90165  0.76114  1.0000
  C   C2132     1.0  0.76244  0.90962  0.78289  1.0000
  C   C2133     1.0  0.73170  0.89495  0.76572  1.0000
  C   C2134     1.0  0.75350  0.91075  0.80754  1.0000
  C   C2135     1.0  0.72293  0.89612  0.79048  1.0000
  C   C2136     1.0  0.73382  0.90401  0.81137  1.0000
  H   H2563     1.0  0.75990  0.91180  0.69466  1.0000
  H   H2564     1.0  0.73763  0.90699  0.71297  1.0000
  H   H2565     1.0  0.75646  0.92602  0.72080  1.0000
  C   C2137     1.0  0.68519  0.83329  0.79128  1.0000
  H   H2566     1.0  0.78995  0.76659  0.48760  1.0000
  C   C2138     1.0  0.72448  0.84289  0.77951  1.0000
  H   H2567     1.0  0.74985  0.77534  0.87429  1.0000
  H   H2568     1.0  0.69791  0.78136  0.60048  1.0000
  H   H2569     1.0  0.79532  0.00210  0.96180  1.0000
  H   H2570     1.0  0.66410  0.75937  0.76410  1.0000
  Fe  Fe287     1.0  0.68620  0.78594  0.90205  1.0000
  C   C2139     1.0  0.74014  0.90390  0.49468  1.0000
  S   S574      1.0  0.97139  0.76484  0.66267  1.0000
  C   C2140     1.0  0.78715  0.00098  0.68702  1.0000
  C   C2141     1.0  0.67454  0.78654  0.82414  1.0000
  C   C2142     1.0  0.75906  0.86300  0.95592  1.0000
  H   H2571     1.0  0.91665  0.75628  0.69752  1.0000
  H   H2572     1.0  0.69707  0.81425  0.61816  1.0000
  H   H2573     1.0  0.69217  0.86293  0.86705  1.0000
  H   H2574     1.0  0.81757  0.99366  0.66362  1.0000
  H   H2575     1.0  0.73828  0.93253  0.51714  1.0000
  H   H2576     1.0  0.72800  0.84969  0.82002  1.0000
  C   C2143     1.0  0.75646  0.87858  0.96821  1.0000
  Fe  Fe288     1.0  0.67238  0.78479  0.65482  1.0000
  H   H2577     1.0  0.75734  0.86963  0.55226  1.0000
  C   C2144     1.0  0.66972  0.83646  0.84324  1.0000
  C   C2145     1.0  0.75461  0.90810  0.95234  1.0000
  H   H2578     1.0  0.70536  0.87585  0.61420  1.0000
  N   N142      1.0  0.76768  0.89706  0.95999  1.0000
  C   C2146     1.0  0.76321  0.77535  0.74341  1.0000
  H   H2579     1.0  0.74757  0.79166  0.72325  1.0000
  C   C2147     1.0  0.73940  0.76424  0.71141  1.0000
  C   C2148     1.0  0.71760  0.84471  0.80525  1.0000
  C   C2149     1.0  0.78384  0.95762  0.97924  1.0000
  H   H2580     1.0  0.71788  0.82148  0.59685  1.0000
  N   N143      1.0  0.70013  0.84010  0.59807  1.0000
  H   H2581     1.0  0.78776  0.91935  0.97696  1.0000
  H   H2582     1.0  0.71346  0.86546  0.84726  1.0000
  H   H2583     1.0  0.69183  0.84841  0.63607  1.0000
  C   C2150     1.0  0.70838  0.82636  0.61076  1.0000
  C   C2151     1.0  0.78119  0.89781  0.93693  1.0000
  C   C2152     1.0  0.72198  0.99936  0.90256  1.0000
  H   H2584     1.0  0.81885  0.99517  0.70979  1.0000
  H   H2585     1.0  0.66507  0.83788  0.86418  1.0000
  C   C2153     1.0  0.76792  0.76563  0.84694  1.0000
  C   C2154     1.0  0.74569  0.87073  0.56551  1.0000
  N   N144      1.0  0.69086  0.84182  0.83948  1.0000
  H   H2586     1.0  0.72821  0.95938  0.52532  1.0000
  H   H2587     1.0  0.68237  0.82607  0.75031  1.0000
  S   S575      1.0  0.97500  0.75592  0.52467  1.0000
  H   H2588     1.0  0.92448  0.76496  0.72905  1.0000
  H   H2589     1.0  0.75003  0.83413  0.95404  1.0000
  H   H2590     1.0  0.75515  0.76143  0.48380  1.0000
  C   C2155     1.0  0.98287  0.77692  0.73893  1.0000
  H   H2591     1.0  0.77688  0.75697  0.76060  1.0000
  C   C2156     1.0  0.92539  0.75451  0.71468  1.0000
  C   C2157     1.0  0.72941  0.93652  0.50256  1.0000
  C   C2158     1.0  0.71285  0.95872  0.48940  1.0000
  C   C2159     1.0  0.73492  0.00115  0.92298  1.0000
  S   S576      1.0  0.99208  0.76228  0.78488  1.0000
  H   H2592     1.0  0.94056  0.75775  0.70765  1.0000
  C   C2160     1.0  0.77902  0.90542  0.98247  1.0000
