data_image0
_chemical_formula_structural       FeS2FeS2FeSFeS3FeS2FeS2FeSFeS3FeS2FeS2FeSFeS3C3HC3HCHCSHC6H4C2HC7H4C3H2C2H2CH2C2H2C5H3NC8H12CNHNCHCH2NC2HC2HC2HCH3CHCH3CH2CHCHCHC2H3C2NHCHNC9H14CH7CH3C3HC3HC3H3CNCH2C2H6CHCH5C2H2CH3C4HCHC2HCH2C2H3CHCH5CH4C2FeS2FeS2FeSFeS3FeS2FeS2FeSFeHS2FeS2FeS2FeSFeS3C9H4C2H2CHCHC2H3C6H5C2HCH2CH5C2H2CHC4HNC8H8C2HC3HCHCHC3HCH4CH2NCHCSH9C2HNC9H8CH3CH2C3H4CH3C2HCH3NHCH7C2HCH2NHCFeS2FeS2FeSFeS3FeS2FeS2FeSFeS3FeS2FeS2FeSFeS3C4HNC4H2CHCH2C6H4C2HC6H4C4HC2H4NC3NH3NC9H14CH2CHC4H2C3H4CHC3H4NC9H12CHNC9H15CHCHCHC2NH2C3H2CHCH2CHC2H10C3H4CH4C2H4C2H2CHFeS2FeS2FeSFeS3FeS2FeS2FeSFeS3FeS2FeS2FeSFeS3NC2HCH2C6H5CHC2H3C2H2C7H4C2NHCH2C4H4C2H3NC8H5CH6CHCNC3HC3H11CH3CNC9H14CHC2H4C2H5NCH3CHCH2CHCHC2H3C4H2C3HCH4NC7H2CH4CHC2H3C2HCHFeS2FeS2FeSFeS3FeS2FeS2FeSFeCS2HC2HC2HCHC2H3C3H3C3H2C6H4C2HCH9CNH6CH3C7H7CH2C3NC4H3CH3CHC6H2CH2NH2CHC3HNCFeS2FeSCFeSFeS3FeS2FeS2FeHFeS3CNHCHC6H3C6H4CH2C4H3CSHCHC2H3CHCHCHCHNCHCH4CH3NC5HC2H13CH2SCHCHC4H2CHC3H2C2HCHCH5CH2C2H3CNH2CH3FeS2FeS2FeSFeS3FeS2FeS2FeSFeS3H6C2HCHC3HCH3C2HC2H2CH3C6H4CHCH9C2HC2H2NCH2CNC9H14C2HC2HC3HCHNC2H3C2HC3HCH3CHCHCHC2HCH2C3HCH3CHC2FeS2FeSHFeSFeS3FeS2FeS2FeSFeS3C2HC2H2C2H4CH2CH2C6H4C3HC3H3CH5CH4CHC3HCH2CHCH2CHCH5NH2C2HC2HC2H5CH2CNH2C3HCH2CNCHCH7CHC2H4CHCSFeS2FeS2FeSFeS3FeSCFeS2FeSFeS3FeS2FeS2FeSFeS3CH5C2H3C2H2C7H4C2HCH2C6H4C3H4CHCHC4H3CHC3H2CH2CHNC3H2CH2C3HC2H3CHC2H3C2HSCHC2NC2H11C2HCH3C2H2CHC2H4NH2CHC4HNH2CH4CH4C2H2CH8C2NHCH2C2HC2HC3H6C2FeS2FeS2FeSFeS3FeS2FeS2FeSFeS3FeS2FeS2FeSFeS3CHCNH3C6H4CH3C2H2C4HC2HC7H4CH3CH2CHC4H6C2H2NC9H9CH3NC4HC2H12CHCH7CH3CNC4H2C3H8C3HCH2C3HCNCHC4H3NH3C2H3CH4C2H3C2HCHCH6C3FeS2FeS2FeSFeS3FeSCFeS2FeSFeS3FeS2FeS2FeSFeS3C4HC3H3C3H3C6H4CH4CHC6H5CHNHC3HCH3C2H6C2NC9H14CHCHCHCH4C2HC3H4CH4SC2H3CH8CH2C5HCNC2NH2C3HC3NC9H13CHCH2NCH3C2H6CHCH2CHCHFeS2FeS2FeSFeS3FeS2FeS2FeSFeS3FeS2FeS2FeSFeS3C2H2CH2C6H4CHCH5CH3C2H3C6H4C2HC3H2C7H3C3H3CH2CH3CHNCNC9HCH9CHCNC4H2C2H16C3HCHC4H2NC2H2CHNC9H12CH2C2H2CHNHC3H2CHC2NC2H2CH4CH2C5HC
_chemical_formula_sum              "Fe128 S256 C960 H1152 N64"
_cell_length_a       58.879
_cell_length_b       58.9481
_cell_length_c       38.3736
_cell_angle_alpha    89.8504
_cell_angle_beta     89.3919
_cell_angle_gamma    88.1876

_space_group_name_H-M_alt    "P 1"
_space_group_IT_number       1

loop_
  _space_group_symop_operation_xyz
  'x, y, z'

loop_
  _atom_site_type_symbol
  _atom_site_label
  _atom_site_symmetry_multiplicity
  _atom_site_fract_x
  _atom_site_fract_y
  _atom_site_fract_z
  _atom_site_occupancy
  Fe  Fe1       1.0  0.24703  0.07036  0.19843  1.0000
  S   S1        1.0  0.21477  0.08944  0.18356  1.0000
  S   S2        1.0  0.24573  0.03159  0.20190  1.0000
  Fe  Fe2       1.0  0.27420  0.11401  0.19583  1.0000
  S   S3        1.0  0.24391  0.13609  0.18201  1.0000
  S   S4        1.0  0.31007  0.12688  0.20000  1.0000
  Fe  Fe3       1.0  0.22524  0.11577  0.22186  1.0000
  S   S5        1.0  0.19798  0.12955  0.25904  1.0000
  Fe  Fe4       1.0  0.23589  0.10820  0.14458  1.0000
  S   S6        1.0  0.22321  0.12207  0.09272  1.0000
  S   S7        1.0  0.25626  0.09562  0.23942  1.0000
  S   S8        1.0  0.26741  0.08725  0.15584  1.0000
  Fe  Fe5       1.0  0.11967  0.24399  0.37591  1.0000
  S   S9        1.0  0.09042  0.26821  0.36620  1.0000
  S   S10       1.0  0.13356  0.23064  0.42729  1.0000
  Fe  Fe6       1.0  0.13433  0.24385  0.29958  1.0000
  S   S11       1.0  0.10616  0.26844  0.28346  1.0000
  S   S12       1.0  0.16303  0.23251  0.26286  1.0000
  Fe  Fe7       1.0  0.11469  0.28727  0.33239  1.0000
  S   S13       1.0  0.11174  0.32535  0.33877  1.0000
  Fe  Fe8       1.0  0.08357  0.24778  0.31801  1.0000
  S   S14       1.0  0.04611  0.23974  0.30910  1.0000
  S   S15       1.0  0.14445  0.26471  0.34551  1.0000
  S   S16       1.0  0.11130  0.22154  0.33065  1.0000
  Fe  Fe9       1.0  0.26726  0.38051  0.30441  1.0000
  S   S17       1.0  0.24219  0.40923  0.29285  1.0000
  S   S18       1.0  0.27754  0.35741  0.25903  1.0000
  Fe  Fe10      1.0  0.26973  0.39323  0.38164  1.0000
  S   S19       1.0  0.24543  0.42296  0.37559  1.0000
  S   S20       1.0  0.28484  0.38083  0.43277  1.0000
  Fe  Fe11      1.0  0.22534  0.39896  0.34314  1.0000
  S   S21       1.0  0.18739  0.39932  0.35339  1.0000
  Fe  Fe12      1.0  0.26443  0.43069  0.32578  1.0000
  S   S22       1.0  0.28027  0.46449  0.31089  1.0000
  S   S23       1.0  0.24849  0.36876  0.35219  1.0000
  S   S24       1.0  0.29059  0.40237  0.33442  1.0000
  C   C1        1.0  0.27715  0.39356  0.47310  1.0000
  C   C2        1.0  0.26463  0.41408  0.47457  1.0000
  C   C3        1.0  0.03606  0.25410  0.24140  1.0000
  H   H1        1.0  0.26089  0.42328  0.45082  1.0000
  C   C4        1.0  0.32516  0.42980  0.25579  1.0000
  C   C5        1.0  0.26985  0.48906  0.28823  1.0000
  C   C6        1.0  0.24804  0.49059  0.27411  1.0000
  H   H2        1.0  0.23667  0.47668  0.27754  1.0000
  C   C7        1.0  0.11949  0.23553  0.46770  1.0000
  H   H3        1.0  0.31788  0.22620  0.22441  1.0000
  C   C8        1.0  0.09670  0.24294  0.46959  1.0000
  S   S25       1.0  0.34024  0.22532  0.15432  1.0000
  H   H4        1.0  0.08727  0.24592  0.44589  1.0000
  C   C9        1.0  0.13419  0.34451  0.34181  1.0000
  C   C10       1.0  0.12815  0.36720  0.34859  1.0000
  C   C11       1.0  0.14478  0.38347  0.35164  1.0000
  C   C12       1.0  0.16781  0.37751  0.34749  1.0000
  C   C13       1.0  0.17417  0.35473  0.34069  1.0000
  C   C14       1.0  0.15731  0.33815  0.33806  1.0000
  H   H5        1.0  0.11043  0.37232  0.35160  1.0000
  H   H6        1.0  0.13970  0.40092  0.35712  1.0000
  H   H7        1.0  0.19196  0.34993  0.33761  1.0000
  H   H8        1.0  0.16216  0.32064  0.33275  1.0000
  C   C15       1.0  0.02776  0.24721  0.27391  1.0000
  C   C16       1.0  0.28443  0.50729  0.28319  1.0000
  H   H9        1.0  0.05417  0.25552  0.23732  1.0000
  C   C17       1.0  0.11727  0.29674  0.49201  1.0000
  C   C18       1.0  0.18818  0.15814  0.25829  1.0000
  C   C19       1.0  0.20067  0.17510  0.24219  1.0000
  C   C20       1.0  0.19269  0.19785  0.24343  1.0000
  C   C21       1.0  0.17226  0.20375  0.26090  1.0000
  C   C22       1.0  0.15967  0.18673  0.27657  1.0000
  C   C23       1.0  0.16764  0.16403  0.27529  1.0000
  H   H10       1.0  0.21666  0.17075  0.22937  1.0000
  H   H11       1.0  0.20244  0.21095  0.23112  1.0000
  H   H12       1.0  0.14376  0.19103  0.28958  1.0000
  H   H13       1.0  0.15784  0.15093  0.28758  1.0000
  C   C24       1.0  0.23135  0.11018  0.05199  1.0000
  C   C25       1.0  0.24192  0.08866  0.04939  1.0000
  C   C26       1.0  0.25661  0.42258  0.50684  1.0000
  H   H14       1.0  0.24547  0.07890  0.07273  1.0000
  H   H15       1.0  0.31730  0.35671  0.30385  1.0000
  C   C27       1.0  0.26815  0.27502  0.25214  1.0000
  C   C28       1.0  0.23641  0.25040  0.26104  1.0000
  H   H16       1.0  0.31728  0.44409  0.27100  1.0000
  H   H17       1.0  0.07561  0.30642  0.30051  1.0000
  C   C29       1.0  0.27449  0.23419  0.25315  1.0000
  H   H18       1.0  0.26015  0.03759  0.27450  1.0000
  H   H19       1.0  0.13368  0.21701  0.20736  1.0000
  C   C30       1.0  0.30533  0.34564  0.25409  1.0000
  C   C31       1.0  0.31117  0.33390  0.22330  1.0000
  H   H20       1.0  0.16673  0.30777  0.42723  1.0000
  H   H21       1.0  0.29871  0.33249  0.20295  1.0000
  C   C32       1.0  0.30951  0.44233  0.20037  1.0000
  C   C33       1.0  0.30948  0.19222  0.16513  1.0000
  C   C34       1.0  0.30229  0.17071  0.17563  1.0000
  C   C35       1.0  0.31801  0.15466  0.18871  1.0000
  C   C36       1.0  0.16813  0.36558  0.43862  1.0000
  H   H22       1.0  0.29724  0.20446  0.15473  1.0000
  H   H23       1.0  0.28463  0.16653  0.17349  1.0000
  H   H24       1.0  0.27375  0.29224  0.24905  1.0000
  N   N1        1.0  0.16944  0.15676  0.14549  1.0000
  C   C37       1.0  0.18958  0.17120  0.14187  1.0000
  C   C38       1.0  0.17702  0.13552  0.16327  1.0000
  C   C39       1.0  0.16190  0.15106  0.10989  1.0000
  C   C40       1.0  0.15036  0.16769  0.16533  1.0000
  C   C41       1.0  0.15103  0.19021  0.17847  1.0000
  C   C42       1.0  0.13019  0.15573  0.17195  1.0000
  C   C43       1.0  0.13266  0.19991  0.19715  1.0000
  C   C44       1.0  0.11202  0.16555  0.19095  1.0000
  H   H25       1.0  0.22063  0.41510  0.45060  1.0000
  H   H26       1.0  0.19655  0.17554  0.16778  1.0000
  H   H27       1.0  0.20369  0.16233  0.12721  1.0000
  H   H28       1.0  0.18547  0.18710  0.12728  1.0000
  H   H29       1.0  0.18214  0.13890  0.19051  1.0000
  H   H30       1.0  0.19183  0.12729  0.14961  1.0000
  H   H31       1.0  0.16373  0.12259  0.16432  1.0000
  H   H32       1.0  0.15543  0.16647  0.09590  1.0000
  H   H33       1.0  0.17610  0.14332  0.09395  1.0000
  H   H34       1.0  0.14822  0.13851  0.11014  1.0000
  H   H35       1.0  0.16565  0.20064  0.17528  1.0000
  H   H36       1.0  0.12841  0.13858  0.16273  1.0000
  C   C45       1.0  0.13891  0.30153  0.50584  1.0000
  N   N2        1.0  0.04181  0.31886  0.31213  1.0000
  H   H37       1.0  0.03763  0.35443  0.32449  1.0000
  N   N3        1.0  0.31117  0.42333  0.22563  1.0000
  C   C46       1.0  0.31592  0.44005  0.16467  1.0000
  H   H38       1.0  0.28743  0.09754  0.08049  1.0000
  C   C47       1.0  0.33232  0.19807  0.16825  1.0000
  H   H39       1.0  0.33906  0.40459  0.20101  1.0000
  H   H40       1.0  0.19444  0.41993  0.47385  1.0000
  N   N4        1.0  0.20276  0.38469  0.46276  1.0000
  C   C48       1.0  0.21618  0.37198  0.43570  1.0000
  C   C49       1.0  0.20302  0.40912  0.45363  1.0000
  H   H41       1.0  0.27679  0.41350  0.21668  1.0000
  C   C50       1.0  0.28263  0.38225  0.50435  1.0000
  C   C51       1.0  0.13227  0.36683  0.47015  1.0000
  H   H42       1.0  0.30605  0.17320  0.05540  1.0000
  C   C52       1.0  0.25667  0.01988  0.27056  1.0000
  C   C53       1.0  0.32161  0.34770  0.28002  1.0000
  H   H43       1.0  0.29073  0.49810  0.19668  1.0000
  C   C54       1.0  0.14519  0.36027  0.44108  1.0000
  H   H44       1.0  0.23442  0.37657  0.43562  1.0000
  H   H45       1.0  0.21563  0.35335  0.43993  1.0000
  H   H46       1.0  0.32560  0.15684  0.09834  1.0000
  C   C55       1.0  0.02093  0.25844  0.21366  1.0000
  H   H47       1.0  0.34082  0.24184  0.23999  1.0000
  C   C56       1.0  0.32565  0.13811  0.09516  1.0000
  H   H48       1.0  0.19424  0.41254  0.42843  1.0000
  H   H49       1.0  0.29043  0.10470  0.02327  1.0000
  H   H50       1.0  0.30136  0.50628  0.29389  1.0000
  C   C57       1.0  0.30053  0.46386  0.21108  1.0000
  H   H51       1.0  0.17363  0.30891  0.48996  1.0000
  H   H52       1.0  0.24439  0.21462  0.26072  1.0000
  C   C58       1.0  0.05793  0.30455  0.29132  1.0000
  H   H53       1.0  0.09930  0.19513  0.21863  1.0000
  C   C59       1.0  0.04264  0.31119  0.34894  1.0000
  H   H54       1.0  0.31458  0.26974  0.29592  1.0000
  C   C60       1.0  0.25116  0.23149  0.25866  1.0000
  H   H55       1.0  0.06830  0.25168  0.50360  1.0000
  C   C61       1.0  0.31337  0.45830  0.14143  1.0000
  C   C62       1.0  0.16500  0.38482  0.49421  1.0000
  H   H56       1.0  0.14898  0.22547  0.49749  1.0000
  H   H57       1.0  0.32124  0.23027  0.27085  1.0000
  H   H58       1.0  0.29510  0.46678  0.23767  1.0000
  C   C63       1.0  0.08598  0.24611  0.50229  1.0000
  C   C64       1.0  0.32147  0.40205  0.21085  1.0000
  N   N5        1.0  0.30378  0.12988  0.08183  1.0000
  H   H59       1.0  0.12864  0.29976  0.40494  1.0000
  C   C65       1.0  0.30427  0.10478  0.08600  1.0000
  H   H60       1.0  0.09726  0.29202  0.44596  1.0000
  N   N6        1.0  0.18881  0.19527  0.37530  1.0000
  C   C66       1.0  0.19418  0.19972  0.41231  1.0000
  C   C67       1.0  0.17977  0.21659  0.35936  1.0000
  C   C68       1.0  0.17034  0.17866  0.37498  1.0000
  C   C69       1.0  0.20964  0.18752  0.35623  1.0000
  C   C70       1.0  0.21170  0.16615  0.33917  1.0000
  C   C71       1.0  0.22865  0.20173  0.35394  1.0000
  C   C72       1.0  0.23160  0.15956  0.32113  1.0000
  C   C73       1.0  0.24844  0.19497  0.33577  1.0000
  C   C74       1.0  0.24989  0.17392  0.31935  1.0000
  H   H61       1.0  0.20641  0.21353  0.41526  1.0000
  H   H62       1.0  0.17866  0.20515  0.42748  1.0000
  H   H63       1.0  0.20160  0.18423  0.42504  1.0000
  H   H64       1.0  0.16320  0.22200  0.37125  1.0000
  H   H65       1.0  0.17698  0.21444  0.33100  1.0000
  H   H66       1.0  0.19121  0.23102  0.36258  1.0000
  H   H67       1.0  0.16470  0.17522  0.34800  1.0000
  H   H68       1.0  0.17571  0.16233  0.38748  1.0000
  H   H69       1.0  0.15494  0.18512  0.38955  1.0000
  H   H70       1.0  0.19812  0.15426  0.33877  1.0000
  H   H71       1.0  0.22827  0.21827  0.36606  1.0000
  H   H72       1.0  0.23268  0.14325  0.30800  1.0000
  H   H73       1.0  0.26271  0.20614  0.33433  1.0000
  H   H74       1.0  0.26517  0.16865  0.30512  1.0000
  C   C75       1.0  0.34084  0.16055  0.19193  1.0000
  H   H75       1.0  0.28666  0.13342  0.13146  1.0000
  H   H76       1.0  0.30835  0.09956  0.11326  1.0000
  H   H77       1.0  0.22395  0.51127  0.24496  1.0000
  H   H78       1.0  0.02458  0.27984  0.34059  1.0000
  H   H79       1.0  0.26833  0.13399  0.09439  1.0000
  H   H80       1.0  0.28855  0.40367  0.25704  1.0000
  H   H81       1.0  0.33591  0.27814  0.26489  1.0000
  C   C76       1.0  0.15294  0.30480  0.44547  1.0000
  H   H82       1.0  0.02647  0.26661  0.40048  1.0000
  H   H83       1.0  0.21024  0.37609  0.40894  1.0000
  H   H84       1.0  0.04622  0.28860  0.44518  1.0000
  C   C77       1.0  0.17882  0.37787  0.46534  1.0000
  C   C78       1.0  0.24089  0.51026  0.25559  1.0000
  C   C79       1.0  0.13142  0.23140  0.49871  1.0000
  H   H85       1.0  0.31822  0.45620  0.11425  1.0000
  C   C80       1.0  0.28374  0.25616  0.24994  1.0000
  C   C81       1.0  0.11329  0.18759  0.20360  1.0000
  C   C82       1.0  0.29797  0.48194  0.18769  1.0000
  H   H86       1.0  0.04599  0.34877  0.28008  1.0000
  C   C83       1.0  0.33307  0.32402  0.21860  1.0000
  C   C84       1.0  0.03270  0.29054  0.35922  1.0000
  C   C85       1.0  0.05447  0.32303  0.37505  1.0000
  H   H87       1.0  0.06362  0.33822  0.36941  1.0000
  H   H88       1.0  0.24644  0.43818  0.50765  1.0000
  H   H89       1.0  0.09693  0.15596  0.19611  1.0000
  C   C86       1.0  0.28507  0.13932  0.10399  1.0000
  N   N7        1.0  0.30820  0.25971  0.24304  1.0000
  C   C87       1.0  0.32252  0.23853  0.24484  1.0000
  H   H90       1.0  0.34006  0.13291  0.07766  1.0000
  H   H91       1.0  0.13733  0.35126  0.41997  1.0000
  C   C88       1.0  0.04510  0.29495  0.41868  1.0000
  C   C89       1.0  0.24490  0.27211  0.25779  1.0000
  H   H92       1.0  0.28464  0.15818  0.10441  1.0000
  H   H93       1.0  0.06469  0.32432  0.42874  1.0000
  H   H94       1.0  0.30940  0.29310  0.26675  1.0000
  H   H95       1.0  0.17700  0.36033  0.41512  1.0000
  H   H96       1.0  0.27975  0.43268  0.25250  1.0000
  H   H97       1.0  0.32275  0.42431  0.15399  1.0000
  C   C90       1.0  0.05545  0.31505  0.40940  1.0000
  H   H98       1.0  0.28484  0.21879  0.25106  1.0000
  C   C91       1.0  0.15667  0.30548  0.48141  1.0000
  H   H99       1.0  0.06648  0.34535  0.31320  1.0000
  H   H100      1.0  0.30182  0.28603  0.20467  1.0000
  H   H101      1.0  0.34233  0.43499  0.24717  1.0000
  H   H102      1.0  0.31096  0.39524  0.18957  1.0000
  H   H103      1.0  0.21114  0.36387  0.50747  1.0000
  C   C92       1.0  0.31097  0.26936  0.20760  1.0000
  C   C93       1.0  0.13148  0.30031  0.43281  1.0000
  H   H104      1.0  0.31735  0.09650  0.06872  1.0000
  H   H105      1.0  0.30446  0.25774  0.18741  1.0000
  C   C94       1.0  0.11373  0.29624  0.45600  1.0000
  H   H106      1.0  0.23337  0.28682  0.25929  1.0000
  H   H107      1.0  0.05413  0.28627  0.29351  1.0000
  H   H108      1.0  0.02761  0.26334  0.18846  1.0000
  C   C95       1.0  0.03385  0.28267  0.39358  1.0000
  C   C96       1.0  0.28809  0.41814  0.23844  1.0000
  C   C97       1.0  0.30438  0.47917  0.15290  1.0000
  C   C98       1.0  0.34350  0.33781  0.27533  1.0000
  H   H109      1.0  0.05758  0.30909  0.26315  1.0000
  C   C99       1.0  0.04818  0.34292  0.30749  1.0000
  H   H110      1.0  0.21831  0.24822  0.26501  1.0000
  C   C100      1.0  0.31731  0.27580  0.26876  1.0000
  C   C101      1.0  0.01863  0.31660  0.29772  1.0000
  H   H111      1.0  0.11447  0.36274  0.47175  1.0000
  C   C102      1.0  0.21445  0.38096  0.49661  1.0000
  H   H112      1.0  0.23318  0.38199  0.49399  1.0000
  H   H113      1.0  0.32942  0.13121  0.12170  1.0000
  C   C103      1.0  0.14213  0.37915  0.49664  1.0000
  C   C104      1.0  0.22656  0.12251  0.02142  1.0000
  H   H114      1.0  0.29251  0.36646  0.50346  1.0000
  H   H115      1.0  0.01411  0.29858  0.29397  1.0000
  H   H116      1.0  0.01702  0.32440  0.27137  1.0000
  C   C105      1.0  0.30009  0.13743  0.04538  1.0000
  H   H117      1.0  0.32917  0.27212  0.20117  1.0000
  C   C106      1.0  0.30196  0.16066  0.03614  1.0000
  H   H118      1.0  0.32733  0.41556  0.27476  1.0000
  H   H119      1.0  0.32268  0.38830  0.23083  1.0000
  H   H120      1.0  0.33747  0.31517  0.19470  1.0000
  H   H121      1.0  0.30221  0.49320  0.13479  1.0000
  H   H122      1.0  0.21839  0.13916  0.02318  1.0000
  C   C107      1.0  0.29324  0.12248  0.01865  1.0000
  H   H123      1.0  0.01978  0.18821  0.25794  1.0000
  H   H124      1.0  0.01614  0.25245  0.03911  1.0000
  H   H125      1.0  0.10290  0.29277  0.50841  1.0000
  H   H126      1.0  0.17168  0.39512  0.51475  1.0000
  C   C108      1.0  0.24931  0.01266  0.23795  1.0000
  C   C109      1.0  0.24713  0.07937  0.01635  1.0000
  Fe  Fe13      1.0  0.25594  0.09275  0.81639  1.0000
  S   S26       1.0  0.22420  0.08878  0.84845  1.0000
  S   S27       1.0  0.26678  0.06754  0.77346  1.0000
  Fe  Fe14      1.0  0.26793  0.13726  0.85379  1.0000
  S   S28       1.0  0.23671  0.13583  0.88769  1.0000
  S   S29       1.0  0.28700  0.16824  0.87082  1.0000
  Fe  Fe15      1.0  0.24550  0.09891  0.89404  1.0000
  S   S30       1.0  0.24836  0.07904  0.94472  1.0000
  Fe  Fe16      1.0  0.21876  0.12636  0.83881  1.0000
  S   S31       1.0  0.18477  0.14381  0.82744  1.0000
  S   S32       1.0  0.27783  0.10053  0.86262  1.0000
  S   S33       1.0  0.24927  0.13007  0.80424  1.0000
  Fe  Fe17      1.0  0.24658  0.39180  0.70169  1.0000
  S   S34       1.0  0.26520  0.37692  0.65545  1.0000
  S   S35       1.0  0.22246  0.36965  0.73214  1.0000
  Fe  Fe18      1.0  0.27294  0.43626  0.69959  1.0000
  S   S36       1.0  0.29364  0.42362  0.65331  1.0000
  S   S37       1.0  0.28216  0.47275  0.71331  1.0000
  Fe  Fe19      1.0  0.26094  0.41162  0.63164  1.0000
  S   S38       1.0  0.24860  0.42079  0.57722  1.0000
  Fe  Fe20      1.0  0.29608  0.39021  0.68158  1.0000
  H   H127      1.0  0.15473  0.26708  0.54465  1.0000
  S   S39       1.0  0.23982  0.42590  0.67636  1.0000
  S   S40       1.0  0.27789  0.40336  0.72925  1.0000
  Fe  Fe21      1.0  0.13439  0.22511  0.68049  1.0000
  S   S41       1.0  0.13214  0.25579  0.71526  1.0000
  S   S42       1.0  0.16026  0.19580  0.68664  1.0000
  Fe  Fe22      1.0  0.10268  0.24680  0.62563  1.0000
  S   S43       1.0  0.09812  0.27881  0.65686  1.0000
  S   S44       1.0  0.08400  0.24686  0.57386  1.0000
  Fe  Fe23      1.0  0.13577  0.27616  0.66595  1.0000
  S   S45       1.0  0.15914  0.30406  0.64810  1.0000
  Fe  Fe24      1.0  0.09436  0.25575  0.70335  1.0000
  S   S46       1.0  0.06782  0.26507  0.74555  1.0000
  S   S47       1.0  0.14036  0.24553  0.63176  1.0000
  S   S48       1.0  0.09654  0.22362  0.67155  1.0000
  C   C110      1.0  0.03995  0.25458  0.75156  1.0000
  C   C111      1.0  0.31771  0.26390  0.75103  1.0000
  C   C112      1.0  0.26664  0.03395  0.87612  1.0000
  C   C113      1.0  0.20530  0.35092  0.70890  1.0000
  C   C114      1.0  0.20526  0.35089  0.67249  1.0000
  C   C115      1.0  0.19118  0.33620  0.65448  1.0000
  C   C116      1.0  0.17703  0.32136  0.67260  1.0000
  C   C117      1.0  0.17730  0.32107  0.70905  1.0000
  C   C118      1.0  0.19142  0.33583  0.72713  1.0000
  H   H128      1.0  0.21571  0.36253  0.65817  1.0000
  H   H129      1.0  0.19105  0.33658  0.62631  1.0000
  H   H130      1.0  0.16625  0.30992  0.72326  1.0000
  H   H131      1.0  0.19125  0.33588  0.75533  1.0000
  C   C119      1.0  0.27834  0.49173  0.74910  1.0000
  C   C120      1.0  0.26923  0.48502  0.78119  1.0000
  H   H132      1.0  0.26394  0.46776  0.78475  1.0000
  H   H133      1.0  0.30468  0.32595  0.77947  1.0000
  C   C121      1.0  0.26149  0.41093  0.53801  1.0000
  H   H134      1.0  0.26704  0.05138  0.88501  1.0000
  C   C122      1.0  0.26706  0.50072  0.80887  1.0000
  H   H135      1.0  0.27875  0.38179  0.56055  1.0000
  C   C123      1.0  0.27817  0.02738  0.84576  1.0000
  C   C124      1.0  0.09795  0.24205  0.53332  1.0000
  H   H136      1.0  0.25116  0.30041  0.74302  1.0000
  H   H137      1.0  0.13003  0.23128  0.55507  1.0000
  H   H138      1.0  0.25983  0.28627  0.70335  1.0000
  C   C125      1.0  0.17903  0.15930  0.78877  1.0000
  C   C126      1.0  0.15953  0.17363  0.78734  1.0000
  C   C127      1.0  0.15390  0.18550  0.75655  1.0000
  C   C128      1.0  0.16750  0.18271  0.72670  1.0000
  C   C129      1.0  0.18716  0.16858  0.72825  1.0000
  C   C130      1.0  0.19312  0.15721  0.75931  1.0000
  H   H139      1.0  0.14856  0.17541  0.81005  1.0000
  H   H140      1.0  0.13871  0.19632  0.75565  1.0000
  H   H141      1.0  0.19775  0.16635  0.70523  1.0000
  H   H142      1.0  0.20828  0.14648  0.76014  1.0000
  H   H143      1.0  0.10924  0.31142  0.56079  1.0000
  C   C131      1.0  0.25572  0.04025  0.76548  1.0000
  C   C132      1.0  0.02718  0.28877  0.67581  1.0000
  H   H144      1.0  0.29260  0.29944  0.66978  1.0000
  C   C133      1.0  0.33981  0.35589  0.72137  1.0000
  H   H145      1.0  0.22863  0.04287  0.80345  1.0000
  H   H146      1.0  0.26016  0.18338  0.80663  1.0000
  C   C134      1.0  0.27489  0.39091  0.53672  1.0000
  H   H147      1.0  0.28358  0.11861  0.96493  1.0000
  H   H148      1.0  0.18762  0.09927  0.66795  1.0000
  H   H149      1.0  0.32082  0.37743  0.75707  1.0000
  H   H150      1.0  0.19417  0.06173  0.69176  1.0000
  H   H151      1.0  0.16154  0.12876  0.64671  1.0000
  C   C135      1.0  0.30772  0.18200  0.84572  1.0000
  C   C136      1.0  0.31678  0.20204  0.85865  1.0000
  H   H152      1.0  0.21674  0.05725  0.72225  1.0000
  H   H153      1.0  0.15912  0.10914  0.77220  1.0000
  C   C137      1.0  0.32132  0.43512  0.77384  1.0000
  H   H154      1.0  0.28087  0.03202  0.72588  1.0000
  C   C138      1.0  0.02613  0.26336  0.77888  1.0000
  C   C139      1.0  0.24207  0.09159  0.98573  1.0000
  C   C140      1.0  0.23200  0.11332  0.98843  1.0000
  C   C141      1.0  0.12074  0.23472  0.53138  1.0000
  H   H155      1.0  0.22800  0.12289  0.96510  1.0000
  N   N8        1.0  0.23668  0.21183  0.81496  1.0000
  C   C142      1.0  0.22096  0.19880  0.83729  1.0000
  C   C143      1.0  0.25351  0.22218  0.83819  1.0000
  C   C144      1.0  0.22355  0.22868  0.79389  1.0000
  C   C145      1.0  0.20685  0.22140  0.77041  1.0000
  C   C146      1.0  0.22665  0.25252  0.79600  1.0000
  C   C147      1.0  0.19407  0.23681  0.75027  1.0000
  C   C148      1.0  0.21361  0.26785  0.77590  1.0000
  C   C149      1.0  0.19741  0.26000  0.75303  1.0000
  H   H156      1.0  0.21040  0.21027  0.85434  1.0000
  H   H157      1.0  0.26288  0.20908  0.85385  1.0000
  H   H158      1.0  0.24512  0.23397  0.85730  1.0000
  H   H159      1.0  0.20340  0.20366  0.76762  1.0000
  H   H160      1.0  0.23886  0.25978  0.81315  1.0000
  H   H161      1.0  0.18134  0.23072  0.73257  1.0000
  H   H162      1.0  0.21583  0.28598  0.77827  1.0000
  H   H163      1.0  0.18726  0.27187  0.73756  1.0000
  C   C150      1.0  0.21551  0.50476  0.74504  1.0000
  C   C151      1.0  0.25863  0.30299  0.71661  1.0000
  H   H164      1.0  0.23013  0.48368  0.70437  1.0000
  C   C152      1.0  0.34177  0.20449  0.80816  1.0000
  C   C153      1.0  0.03103  0.23834  0.72944  1.0000
  C   C154      1.0  0.29666  0.29999  0.74077  1.0000
  H   H165      1.0  0.30834  0.15817  0.80329  1.0000
  C   C155      1.0  0.33353  0.36393  0.75448  1.0000
  H   H166      1.0  0.33764  0.47293  0.74515  1.0000
  C   C156      1.0  0.01940  0.29722  0.70773  1.0000
  H   H167      1.0  0.29227  0.34716  0.73267  1.0000
  C   C157      1.0  0.23673  0.03240  0.78351  1.0000
  C   C158      1.0  0.32809  0.27304  0.78000  1.0000
  C   C159      1.0  0.30743  0.30869  0.77071  1.0000
  H   H168      1.0  0.14032  0.33851  0.54583  1.0000
  C   C160      1.0  0.28914  0.13030  0.98476  1.0000
  H   H169      1.0  0.32221  0.24661  0.74329  1.0000
  H   H170      1.0  0.32291  0.44524  0.70659  1.0000
  H   H171      1.0  0.03283  0.27595  0.79612  1.0000
  H   H172      1.0  0.24545  0.02354  0.91856  1.0000
  C   C161      1.0  0.29147  0.15312  0.97647  1.0000
  H   H173      1.0  0.04135  0.23149  0.70825  1.0000
  H   H174      1.0  0.01808  0.27363  0.62739  1.0000
  N   N9        1.0  0.14341  0.30210  0.54376  1.0000
  C   C162      1.0  0.15234  0.32448  0.55342  1.0000
  H   H175      1.0  0.15496  0.32579  0.58209  1.0000
  C   C163      1.0  0.16054  0.28407  0.55263  1.0000
  S   S49       1.0  0.32806  0.36779  0.68294  1.0000
  H   H176      1.0  0.16909  0.32766  0.54114  1.0000
  H   H177      1.0  0.20905  0.49050  0.75957  1.0000
  H   H178      1.0  0.12677  0.29937  0.59411  1.0000
  H   H179      1.0  0.13405  0.14814  0.68638  1.0000
  H   H180      1.0  0.28789  0.15904  0.95020  1.0000
  H   H181      1.0  0.16369  0.28328  0.58120  1.0000
  H   H182      1.0  0.29897  0.18616  0.99584  1.0000
  H   H183      1.0  0.26435  0.34703  0.71587  1.0000
  H   H184      1.0  0.13281  0.13780  0.74873  1.0000
  C   C164      1.0  0.33378  0.21325  0.83997  1.0000
  C   C165      1.0  0.26618  0.02614  0.74004  1.0000
  H   H185      1.0  0.29499  0.26943  0.70893  1.0000
  N   N10       1.0  0.19174  0.08327  0.73711  1.0000
  C   C166      1.0  0.20783  0.09490  0.75984  1.0000
  C   C167      1.0  0.17942  0.06636  0.75829  1.0000
  C   C168      1.0  0.20533  0.07051  0.71030  1.0000
  C   C169      1.0  0.17553  0.10037  0.72236  1.0000
  C   C170      1.0  0.17577  0.10675  0.68657  1.0000
  C   C171      1.0  0.15955  0.11207  0.74437  1.0000
  C   C172      1.0  0.16078  0.12365  0.67385  1.0000
  C   C173      1.0  0.14446  0.12868  0.73125  1.0000
  C   C174      1.0  0.14514  0.13454  0.69611  1.0000
  H   H186      1.0  0.19899  0.10425  0.78148  1.0000
  H   H187      1.0  0.22021  0.08266  0.77182  1.0000
  H   H188      1.0  0.21779  0.10743  0.74483  1.0000
  H   H189      1.0  0.17166  0.07386  0.78234  1.0000
  H   H190      1.0  0.19096  0.05227  0.76740  1.0000
  H   H191      1.0  0.16566  0.05873  0.74296  1.0000
  H   H192      1.0  0.21683  0.08178  0.69553  1.0000
  H   H193      1.0  0.17725  0.28672  0.53986  1.0000
  C   C175      1.0  0.31528  0.17354  0.81353  1.0000
  H   H194      1.0  0.26017  0.49531  0.83368  1.0000
  H   H195      1.0  0.03156  0.30336  0.72627  1.0000
  H   H196      1.0  0.33992  0.36170  0.80973  1.0000
  C   C176      1.0  0.32289  0.29531  0.78990  1.0000
  H   H197      1.0  0.34052  0.22879  0.84981  1.0000
  H   H198      1.0  0.20906  0.18868  0.82185  1.0000
  C   C177      1.0  0.12293  0.29844  0.56580  1.0000
  C   C178      1.0  0.29781  0.16830  0.00214  1.0000
  C   C179      1.0  0.30221  0.27711  0.73163  1.0000
  H   H199      1.0  0.11614  0.28130  0.56176  1.0000
  H   H200      1.0  0.30800  0.32334  0.68422  1.0000
  H   H201      1.0  0.26663  0.23131  0.82301  1.0000
  H   H202      1.0  0.23030  0.18638  0.85430  1.0000
  C   C180      1.0  0.33222  0.18483  0.79477  1.0000
  H   H203      1.0  0.31061  0.20891  0.88320  1.0000
  H   H204      1.0  0.13191  0.38481  0.51883  1.0000
  H   H205      1.0  0.26063  0.20481  0.77327  1.0000
  C   C181      1.0  0.24930  0.19570  0.79160  1.0000
  C   C182      1.0  0.27654  0.33724  0.73247  1.0000
  H   H206      1.0  0.23776  0.18535  0.77582  1.0000
  C   C183      1.0  0.29078  0.31602  0.68334  1.0000
  H   H207      1.0  0.26884  0.33714  0.75908  1.0000
  H   H208      1.0  0.28010  0.32735  0.66646  1.0000
  H   H209      1.0  0.24613  0.31365  0.70157  1.0000
  N   N11       1.0  0.28094  0.31392  0.71892  1.0000
  H   H210      1.0  0.32959  0.41561  0.71189  1.0000
  C   C184      1.0  0.22732  0.50087  0.71391  1.0000
  H   H211      1.0  0.28733  0.03990  0.83086  1.0000
  H   H212      1.0  0.31572  0.41729  0.77514  1.0000
  H   H213      1.0  0.04523  0.28844  0.66976  1.0000
  H   H214      1.0  0.30705  0.44568  0.76293  1.0000
  H   H215      1.0  0.32884  0.20298  0.94584  1.0000
  H   H216      1.0  0.34049  0.26292  0.79446  1.0000
  H   H217      1.0  0.33143  0.30248  0.81206  1.0000
  C   C185      1.0  0.25444  0.01815  0.89498  1.0000
  C   C186      1.0  0.34436  0.35497  0.78428  1.0000
  H   H218      1.0  0.33823  0.17810  0.77000  1.0000
  C   C187      1.0  0.33630  0.43289  0.71560  1.0000
  H   H219      1.0  0.32340  0.44114  0.80097  1.0000
  H   H220      1.0  0.25485  0.06251  0.01449  1.0000
  N   N12       1.0  0.34241  0.43681  0.75251  1.0000
  H   H221      1.0  0.20959  0.39397  0.51653  1.0000
  C   C188      1.0  0.34589  0.19447  0.94278  1.0000
  Fe  Fe25      1.0  0.26790  0.87373  0.32782  1.0000
  S   S50       1.0  0.23574  0.86196  0.35283  1.0000
  S   S51       1.0  0.28996  0.84417  0.30814  1.0000
  Fe  Fe26      1.0  0.25275  0.92382  0.33240  1.0000
  S   S52       1.0  0.21945  0.91526  0.35769  1.0000
  S   S53       1.0  0.26063  0.96162  0.32855  1.0000
  Fe  Fe27      1.0  0.23967  0.89057  0.39067  1.0000
  S   S54       1.0  0.22749  0.88409  0.44639  1.0000
  Fe  Fe28      1.0  0.21808  0.88726  0.31813  1.0000
  S   S55       1.0  0.18502  0.88165  0.28974  1.0000
  S   S56       1.0  0.27341  0.90055  0.36838  1.0000
  S   S57       1.0  0.24992  0.89757  0.29024  1.0000
  Fe  Fe29      1.0  0.12462  0.77182  0.21534  1.0000
  S   S58       1.0  0.10535  0.73971  0.22472  1.0000
  S   S59       1.0  0.14724  0.78378  0.25901  1.0000
  Fe  Fe30      1.0  0.11258  0.77335  0.13799  1.0000
  S   S60       1.0  0.09283  0.74174  0.14220  1.0000
  S   S61       1.0  0.11851  0.79310  0.08773  1.0000
  Fe  Fe31      1.0  0.07789  0.75647  0.19205  1.0000
  S   S62       1.0  0.03915  0.75274  0.19539  1.0000
  Fe  Fe32      1.0  0.12165  0.72795  0.17440  1.0000
  S   S63       1.0  0.13635  0.69304  0.16099  1.0000
  S   S64       1.0  0.09614  0.78944  0.18577  1.0000
  S   S65       1.0  0.14248  0.75867  0.16705  1.0000
  Fe  Fe33      1.0  0.28816  0.60890  0.15191  1.0000
  S   S66       1.0  0.25146  0.60528  0.16739  1.0000
  S   S67       1.0  0.30493  0.60261  0.09900  1.0000
  Fe  Fe34      1.0  0.30267  0.61871  0.22631  1.0000
  S   S68       1.0  0.26739  0.61508  0.24764  1.0000
  S   S69       1.0  0.33085  0.62666  0.26383  1.0000
  Fe  Fe35      1.0  0.26516  0.58459  0.21282  1.0000
  S   S70       1.0  0.24543  0.55303  0.22749  1.0000
  Fe  Fe36      1.0  0.25655  0.63581  0.20122  1.0000
  S   S71       1.0  0.23533  0.66723  0.21513  1.0000
  S   S72       1.0  0.30155  0.58638  0.19524  1.0000
  S   S73       1.0  0.29213  0.64123  0.18192  1.0000
  C   C189      1.0  0.29116  0.60954  0.05935  1.0000
  C   C190      1.0  0.22573  0.97111  0.41345  1.0000
  C   C191      1.0  0.27361  0.62605  0.05798  1.0000
  C   C192      1.0  0.25868  0.94667  0.42357  1.0000
  H   H222      1.0  0.26749  0.63410  0.08172  1.0000
  N   N13       1.0  0.03775  0.77061  0.08716  1.0000
  C   C193      1.0  0.27732  0.52690  0.26457  1.0000
  C   C194      1.0  0.25544  0.52854  0.25075  1.0000
  C   C195      1.0  0.22622  0.95164  0.48489  1.0000
  C   C196      1.0  0.29904  0.59936  0.02819  1.0000
  H   H223      1.0  0.28872  0.54079  0.26118  1.0000
  H   H224      1.0  0.14947  0.66776  0.24453  1.0000
  C   C197      1.0  0.11425  0.78075  0.04624  1.0000
  H   H225      1.0  0.23934  0.98369  0.20828  1.0000
  C   C198      1.0  0.10432  0.75964  0.04290  1.0000
  H   H226      1.0  0.22043  0.81802  0.24032  1.0000
  H   H227      1.0  0.09983  0.75014  0.06591  1.0000
  C   C199      1.0  0.16447  0.68662  0.17413  1.0000
  C   C200      1.0  0.17530  0.70051  0.19782  1.0000
  C   C201      1.0  0.19713  0.69441  0.20975  1.0000
  C   C202      1.0  0.20839  0.67450  0.19790  1.0000
  C   C203      1.0  0.19780  0.66080  0.17364  1.0000
  C   C204      1.0  0.17581  0.66680  0.16193  1.0000
  H   H228      1.0  0.16666  0.71573  0.20752  1.0000
  H   H229      1.0  0.20523  0.70510  0.22847  1.0000
  H   H230      1.0  0.20642  0.64555  0.16415  1.0000
  H   H231      1.0  0.16744  0.65595  0.14372  1.0000
  C   C205      1.0  0.31875  0.80157  0.44339  1.0000
  C   C206      1.0  0.25308  0.98095  0.49633  1.0000
  H   H232      1.0  0.04050  0.77699  0.26241  1.0000
  C   C207      1.0  0.17505  0.85429  0.28073  1.0000
  C   C208      1.0  0.15564  0.85221  0.26012  1.0000
  C   C209      1.0  0.14700  0.83073  0.25291  1.0000
  C   C210      1.0  0.15782  0.81113  0.26610  1.0000
  C   C211      1.0  0.17703  0.81324  0.28714  1.0000
  C   C212      1.0  0.18567  0.83470  0.29435  1.0000
  H   H233      1.0  0.14717  0.86732  0.24988  1.0000
  H   H234      1.0  0.13164  0.82936  0.23798  1.0000
  H   H235      1.0  0.18527  0.79818  0.29792  1.0000
  H   H236      1.0  0.20058  0.83604  0.31031  1.0000
  C   C213      1.0  0.23997  0.89226  0.48621  1.0000
  C   C214      1.0  0.31128  0.81190  0.41186  1.0000
  C   C215      1.0  0.26089  0.90281  0.48726  1.0000
  C   C216      1.0  0.14704  0.60653  0.20859  1.0000
  H   H237      1.0  0.27047  0.90524  0.46346  1.0000
  C   C217      1.0  0.25572  0.98087  0.29324  1.0000
  C   C218      1.0  0.24806  0.97370  0.26081  1.0000
  H   H238      1.0  0.24478  0.95597  0.25669  1.0000
  H   H239      1.0  0.31287  0.75770  0.42973  1.0000
  H   H240      1.0  0.27415  0.94339  0.43944  1.0000
  H   H241      1.0  0.11320  0.61643  0.19208  1.0000
  N   N14       1.0  0.33664  0.78329  0.44271  1.0000
  C   C219      1.0  0.26445  0.63270  0.02563  1.0000
  C   C220      1.0  0.31801  0.83817  0.32195  1.0000
  C   C221      1.0  0.32949  0.81871  0.30894  1.0000
  N   N15       1.0  0.24700  0.96829  0.43373  1.0000
  H   H242      1.0  0.32012  0.86690  0.35616  1.0000
  H   H243      1.0  0.32152  0.80849  0.28950  1.0000
  H   H244      1.0  0.32294  0.76531  0.29370  1.0000
  N   N16       1.0  0.17111  0.82408  0.14585  1.0000
  C   C222      1.0  0.16475  0.83946  0.11653  1.0000
  C   C223      1.0  0.18001  0.80246  0.13036  1.0000
  C   C224      1.0  0.15015  0.81954  0.16597  1.0000
  C   C225      1.0  0.18804  0.83359  0.16963  1.0000
  C   C226      1.0  0.19770  0.81998  0.19662  1.0000
  C   C227      1.0  0.19454  0.85663  0.16805  1.0000
  C   C228      1.0  0.21345  0.82865  0.21970  1.0000
  C   C229      1.0  0.20998  0.86522  0.19177  1.0000
  C   C230      1.0  0.21947  0.85125  0.21743  1.0000
  H   H245      1.0  0.17993  0.84402  0.10079  1.0000
  H   H246      1.0  0.15268  0.83136  0.09845  1.0000
  H   H247      1.0  0.15584  0.85526  0.12590  1.0000
  H   H248      1.0  0.18255  0.78881  0.15007  1.0000
  H   H249      1.0  0.19655  0.80488  0.11678  1.0000
  H   H250      1.0  0.16797  0.79553  0.11110  1.0000
  H   H251      1.0  0.14299  0.83537  0.17809  1.0000
  H   H252      1.0  0.13678  0.81256  0.14917  1.0000
  H   H253      1.0  0.15328  0.80704  0.18729  1.0000
  H   H254      1.0  0.19268  0.80270  0.20083  1.0000
  H   H255      1.0  0.18771  0.86850  0.14915  1.0000
  H   H256      1.0  0.31864  0.80693  0.38695  1.0000
  H   H257      1.0  0.21439  0.88295  0.19073  1.0000
  H   H258      1.0  0.23112  0.85810  0.23613  1.0000
  C   C231      1.0  0.34056  0.66906  0.23759  1.0000
  H   H259      1.0  0.21470  0.95624  0.41570  1.0000
  H   H260      1.0  0.25437  0.00389  0.43107  1.0000
  C   C232      1.0  0.04286  0.74620  0.09420  1.0000
  H   H261      1.0  0.04959  0.80256  0.10627  1.0000
  C   C233      1.0  0.26197  0.98708  0.42344  1.0000
  C   C234      1.0  0.34204  0.77372  0.47764  1.0000
  C   C235      1.0  0.25994  0.00406  0.29794  1.0000
  C   C236      1.0  0.16739  0.61316  0.22472  1.0000
  H   H262      1.0  0.21780  0.94005  0.46789  1.0000
  H   H263      1.0  0.21339  0.62198  0.22824  1.0000
  C   C237      1.0  0.20737  0.60699  0.24305  1.0000
  C   C238      1.0  0.32939  0.76428  0.42050  1.0000
  C   C239      1.0  0.28447  0.83668  0.44287  1.0000
  H   H264      1.0  0.16221  0.69198  0.06817  1.0000
  H   H265      1.0  0.26549  0.99318  0.48884  1.0000
  H   H266      1.0  0.18093  0.58022  0.17753  1.0000
  H   H267      1.0  0.13510  0.71779  0.03776  1.0000
  C   C240      1.0  0.29152  0.82709  0.47433  1.0000
  H   H268      1.0  0.05987  0.74092  0.08354  1.0000
  C   C241      1.0  0.34311  0.65364  0.26511  1.0000
  C   C242      1.0  0.19417  0.58996  0.19074  1.0000
  C   C243      1.0  0.18100  0.68311  0.02138  1.0000
  H   H269      1.0  0.20970  0.57862  0.19098  1.0000
  H   H270      1.0  0.22194  0.59451  0.24405  1.0000
  H   H271      1.0  0.20374  0.61206  0.27049  1.0000
  H   H272      1.0  0.19613  0.56460  0.24940  1.0000
  N   N17       1.0  0.28128  0.69952  0.28297  1.0000
  C   C244      1.0  0.25847  0.69042  0.29041  1.0000
  C   C245      1.0  0.28613  0.69617  0.24532  1.0000
  C   C246      1.0  0.29797  0.68568  0.30338  1.0000
  C   C247      1.0  0.28311  0.72389  0.29157  1.0000
  C   C248      1.0  0.26406  0.73785  0.30193  1.0000
  C   C249      1.0  0.30436  0.73459  0.28862  1.0000
  C   C250      1.0  0.26637  0.76090  0.30934  1.0000
  C   C251      1.0  0.30648  0.75761  0.29629  1.0000
  C   C252      1.0  0.28752  0.77075  0.30662  1.0000
  H   H273      1.0  0.24515  0.69863  0.27378  1.0000
  H   H274      1.0  0.25794  0.67193  0.28444  1.0000
  H   H275      1.0  0.25357  0.69253  0.31832  1.0000
  H   H276      1.0  0.30329  0.70187  0.23773  1.0000
  H   H277      1.0  0.27354  0.70578  0.22905  1.0000
  H   H278      1.0  0.28528  0.67797  0.23786  1.0000
  H   H279      1.0  0.29527  0.68815  0.33187  1.0000
  H   H280      1.0  0.29685  0.66718  0.29775  1.0000
  H   H281      1.0  0.31579  0.68993  0.29734  1.0000
  H   H282      1.0  0.24713  0.73144  0.30416  1.0000
  H   H283      1.0  0.31957  0.72536  0.27991  1.0000
  H   H284      1.0  0.25163  0.77133  0.31688  1.0000
  C   C253      1.0  0.12929  0.64360  0.21829  1.0000
  H   H285      1.0  0.32747  0.76935  0.39272  1.0000
  N   N18       1.0  0.15673  0.86610  0.39066  1.0000
  C   C254      1.0  0.15068  0.86777  0.42821  1.0000
  C   C255      1.0  0.18179  0.86652  0.38692  1.0000
  C   C256      1.0  0.14719  0.88670  0.37301  1.0000
  C   C257      1.0  0.14851  0.84459  0.37625  1.0000
  C   C258      1.0  0.15649  0.82341  0.38991  1.0000
  C   C259      1.0  0.13278  0.84386  0.34839  1.0000
  C   C260      1.0  0.14942  0.80285  0.37625  1.0000
  C   C261      1.0  0.12565  0.82319  0.33523  1.0000
  C   C262      1.0  0.13409  0.80275  0.34889  1.0000
  H   H286      1.0  0.15906  0.85408  0.44389  1.0000
  H   H287      1.0  0.15617  0.88406  0.43961  1.0000
  H   H288      1.0  0.13200  0.86669  0.43229  1.0000
  H   H289      1.0  0.19073  0.85312  0.40246  1.0000
  H   H290      1.0  0.18861  0.88290  0.39582  1.0000
  H   H291      1.0  0.18695  0.86411  0.35920  1.0000
  H   H292      1.0  0.15399  0.90255  0.38402  1.0000
  H   H293      1.0  0.15183  0.88684  0.34476  1.0000
  H   H294      1.0  0.12837  0.88802  0.37572  1.0000
  H   H295      1.0  0.16858  0.82261  0.41090  1.0000
  H   H296      1.0  0.12617  0.85896  0.33559  1.0000
  H   H297      1.0  0.15613  0.78688  0.38649  1.0000
  H   H298      1.0  0.33092  0.66463  0.21497  1.0000
  H   H299      1.0  0.21570  0.98645  0.42200  1.0000
  H   H300      1.0  0.07132  0.78034  0.10183  1.0000
  C   C263      1.0  0.33393  0.85820  0.51108  1.0000
  H   H301      1.0  0.11511  0.65557  0.21474  1.0000
  C   C264      1.0  0.24500  0.98949  0.23336  1.0000
  H   H302      1.0  0.17543  0.58143  0.27366  1.0000
  C   C265      1.0  0.29433  0.82908  0.41171  1.0000
  H   H303      1.0  0.22931  0.97297  0.38498  1.0000
  C   C266      1.0  0.16376  0.69444  0.04018  1.0000
  C   C267      1.0  0.30841  0.80979  0.47480  1.0000
  N   N19       1.0  0.18726  0.59715  0.22646  1.0000
  H   H304      1.0  0.16758  0.56711  0.23453  1.0000
  H   H305      1.0  0.27919  0.98495  0.43489  1.0000
  C   C268      1.0  0.01841  0.75906  0.22859  1.0000
  C   C269      1.0  0.18127  0.57673  0.24687  1.0000
  C   C270      1.0  0.02341  0.77134  0.25856  1.0000
  H   H306      1.0  0.28909  0.78869  0.31209  1.0000
  H   H307      1.0  0.06574  0.80156  0.05172  1.0000
  C   C271      1.0  0.05522  0.79137  0.03547  1.0000
  H   H308      1.0  0.03021  0.73492  0.08270  1.0000
  C   C272      1.0  0.24181  0.96748  0.47156  1.0000
  H   H309      1.0  0.28891  0.83666  0.38721  1.0000
  H   H310      1.0  0.19791  0.60490  0.17408  1.0000
  C   C273      1.0  0.12837  0.62163  0.20528  1.0000
  H   H311      1.0  0.11419  0.82293  0.31330  1.0000
  C   C274      1.0  0.14873  0.65045  0.23514  1.0000
  C   C275      1.0  0.16760  0.63561  0.23827  1.0000
  H   H312      1.0  0.19289  0.67180  0.03483  1.0000
  H   H313      1.0  0.14555  0.58971  0.19790  1.0000
  H   H314      1.0  0.26479  0.98762  0.39461  1.0000
  H   H315      1.0  0.31895  0.64977  0.05095  1.0000
  H   H316      1.0  0.31259  0.58655  0.02904  1.0000
  H   H317      1.0  0.34216  0.74987  0.42053  1.0000
  H   H318      1.0  0.18233  0.64246  0.25046  1.0000
  H   H319      1.0  0.12914  0.78682  0.33753  1.0000
  H   H320      1.0  0.05131  0.77997  0.13710  1.0000
  H   H321      1.0  0.27138  0.85008  0.44262  1.0000
  C   C276      1.0  0.32878  0.85179  0.34613  1.0000
  C   C277      1.0  0.04014  0.77515  0.04932  1.0000
  C   C278      1.0  0.05320  0.78400  0.10886  1.0000
  H   H322      1.0  0.26422  0.94686  0.39584  1.0000
  H   H323      1.0  0.24752  0.93191  0.42684  1.0000
  H   H324      1.0  0.33958  0.60696  0.15248  1.0000
  H   H325      1.0  0.31922  0.69078  0.06438  1.0000
  C   C279      1.0  0.32161  0.66198  0.03017  1.0000
  H   H326      1.0  0.04276  0.74237  0.12266  1.0000
  H   H327      1.0  0.32683  0.76644  0.49034  1.0000
  H   H328      1.0  0.33934  0.62649  0.18839  1.0000
  H   H329      1.0  0.31313  0.80328  0.50010  1.0000
  C   C280      1.0  0.14846  0.70896  0.02298  1.0000
  C   C281      1.0  0.32170  0.68506  0.03774  1.0000
  H   H330      1.0  0.33431  0.86502  0.48480  1.0000
  H   H331      1.0  0.26595  0.00983  0.32280  1.0000
  H   H332      1.0  0.12786  0.80910  0.01817  1.0000
  H   H333      1.0  0.25123  0.64584  0.02475  1.0000
  C   C282      1.0  0.01415  0.77614  0.09891  1.0000
  C   C283      1.0  0.02752  0.76271  0.02494  1.0000
  H   H334      1.0  0.01554  0.75029  0.03351  1.0000
  H   H335      1.0  0.28386  0.83321  0.49851  1.0000
  C   C284      1.0  0.12018  0.79274  0.01591  1.0000
  H   H336      1.0  0.32464  0.71872  0.01696  1.0000
  Fe  Fe37      1.0  0.21447  0.89382  0.68950  1.0000
  S   S74       1.0  0.23099  0.90403  0.73887  1.0000
  S   S75       1.0  0.18353  0.87178  0.68791  1.0000
  Fe  Fe38      1.0  0.25271  0.91274  0.64428  1.0000
  S   S76       1.0  0.27234  0.92414  0.69142  1.0000
  S   S77       1.0  0.26873  0.91704  0.59021  1.0000
  Fe  Fe39      1.0  0.26330  0.89029  0.71425  1.0000
  S   S78       1.0  0.28210  0.86305  0.74528  1.0000
  Fe  Fe40      1.0  0.23826  0.93721  0.71193  1.0000
  S   S79       1.0  0.22841  0.96879  0.74474  1.0000
  S   S80       1.0  0.24637  0.87821  0.66611  1.0000
  S   S81       1.0  0.21914  0.92778  0.66344  1.0000
  Fe  Fe41      1.0  0.12416  0.80015  0.83189  1.0000
  S   S82       1.0  0.12890  0.77492  0.78890  1.0000
  S   S83       1.0  0.13321  0.83692  0.82443  1.0000
  Fe  Fe42      1.0  0.10892  0.76424  0.88445  1.0000
  S   S84       1.0  0.11245  0.73645  0.84420  1.0000
  S   S85       1.0  0.09847  0.75156  0.93826  1.0000
  Fe  Fe43      1.0  0.14528  0.75251  0.82934  1.0000
  S   S86       1.0  0.18171  0.73929  0.82435  1.0000
  Fe  Fe44      1.0  0.09529  0.76165  0.80769  1.0000
  S   S87       1.0  0.06955  0.75255  0.76605  1.0000
  S   S88       1.0  0.14265  0.77873  0.87156  1.0000
  S   S89       1.0  0.08958  0.78839  0.84884  1.0000
  Fe  Fe45      1.0  0.29821  0.62587  0.83541  1.0000
  S   S90       1.0  0.27561  0.60620  0.79990  1.0000
  S   S91       1.0  0.33226  0.64199  0.82434  1.0000
  Fe  Fe46      1.0  0.26842  0.61886  0.89996  1.0000
  S   S92       1.0  0.24343  0.59881  0.87009  1.0000
  S   S93       1.0  0.26126  0.63281  0.95443  1.0000
  Fe  Fe47      1.0  0.27349  0.58097  0.84401  1.0000
  S   S94       1.0  0.27104  0.54223  0.84092  1.0000
  Fe  Fe48      1.0  0.24683  0.62492  0.82799  1.0000
  S   S95       1.0  0.21389  0.63641  0.80241  1.0000
  S   S96       1.0  0.29839  0.59909  0.87773  1.0000
  S   S97       1.0  0.26951  0.64645  0.85949  1.0000
  N   N20       1.0  0.32924  0.66274  0.93092  1.0000
  C   C285      1.0  0.27370  0.52334  0.80479  1.0000
  C   C286      1.0  0.28258  0.53009  0.77256  1.0000
  H   H337      1.0  0.34099  0.79625  0.60073  1.0000
  C   C287      1.0  0.33591  0.66583  0.79670  1.0000
  H   H338      1.0  0.28795  0.54732  0.76901  1.0000
  H   H339      1.0  0.27545  0.94156  0.79983  1.0000
  C   C288      1.0  0.18985  0.71049  0.81856  1.0000
  C   C289      1.0  0.21273  0.70398  0.82332  1.0000
  C   C290      1.0  0.22010  0.68127  0.81898  1.0000
  C   C291      1.0  0.20472  0.66489  0.80936  1.0000
  C   C292      1.0  0.18179  0.67140  0.80450  1.0000
  C   C293      1.0  0.17430  0.69413  0.80938  1.0000
  H   H340      1.0  0.22486  0.71655  0.83032  1.0000
  H   H341      1.0  0.23783  0.67657  0.82218  1.0000
  H   H342      1.0  0.16981  0.65884  0.79687  1.0000
  H   H343      1.0  0.15664  0.69902  0.80546  1.0000
  H   H344      1.0  0.03790  0.77860  0.81154  1.0000
  C   C294      1.0  0.04042  0.76123  0.76234  1.0000
  H   H345      1.0  0.22695  0.58695  0.80117  1.0000
  C   C295      1.0  0.28946  0.60562  0.99589  1.0000
  C   C296      1.0  0.27237  0.62262  0.99445  1.0000
  H   H346      1.0  0.05506  0.83169  0.80998  1.0000
  H   H347      1.0  0.29557  0.59758  0.97213  1.0000
  H   H348      1.0  0.22191  0.55766  0.80836  1.0000
  C   C297      1.0  0.11605  0.78382  0.98255  1.0000
  C   C298      1.0  0.10552  0.76299  0.97931  1.0000
  H   H349      1.0  0.24133  0.55428  0.69315  1.0000
  H   H350      1.0  0.12054  0.79328  0.95941  1.0000
  C   C299      1.0  0.16765  0.70088  0.96692  1.0000
  C   C300      1.0  0.17141  0.86131  0.72687  1.0000
  C   C301      1.0  0.17273  0.87309  0.75836  1.0000
  C   C302      1.0  0.16126  0.86523  0.78824  1.0000
  C   C303      1.0  0.14881  0.84531  0.78710  1.0000
  C   C304      1.0  0.14805  0.83322  0.75584  1.0000
  C   C305      1.0  0.15913  0.84129  0.72582  1.0000
  H   H351      1.0  0.18192  0.88867  0.75939  1.0000
  H   H352      1.0  0.16180  0.87481  0.81222  1.0000
  H   H353      1.0  0.13828  0.81809  0.75431  1.0000
  H   H354      1.0  0.15783  0.83222  0.70148  1.0000
  C   C306      1.0  0.23896  0.99654  0.75094  1.0000
  C   C307      1.0  0.22833  0.01081  0.77605  1.0000
  N   N21       1.0  0.26434  0.96436  0.84128  1.0000
  H   H355      1.0  0.13775  0.72366  0.97539  1.0000
  C   C308      1.0  0.31754  0.67663  0.78000  1.0000
  H   H356      1.0  0.24402  0.98406  0.89912  1.0000
  H   H357      1.0  0.30061  0.67034  0.78361  1.0000
  C   C309      1.0  0.32440  0.65446  0.99582  1.0000
  C   C310      1.0  0.32597  0.86983  0.72158  1.0000
  C   C311      1.0  0.31061  0.85485  0.73640  1.0000
  C   C312      1.0  0.31819  0.83288  0.74565  1.0000
  H   H358      1.0  0.29527  0.96284  0.81035  1.0000
  H   H359      1.0  0.32028  0.88686  0.71460  1.0000
  H   H360      1.0  0.30648  0.82139  0.75768  1.0000
  H   H361      1.0  0.22089  0.58769  0.70645  1.0000
  C   C313      1.0  0.23697  0.89550  0.54979  1.0000
  C   C314      1.0  0.25749  0.90679  0.55071  1.0000
  H   H362      1.0  0.19676  0.67716  0.97198  1.0000
  H   H363      1.0  0.22765  0.89258  0.57377  1.0000
  H   H364      1.0  0.20715  0.70234  0.92854  1.0000
  N   N22       1.0  0.07139  0.83509  0.75955  1.0000
  C   C315      1.0  0.06694  0.84294  0.79585  1.0000
  C   C316      1.0  0.04908  0.83356  0.74214  1.0000
  C   C317      1.0  0.08208  0.81208  0.76157  1.0000
  C   C318      1.0  0.08656  0.85000  0.73943  1.0000
  C   C319      1.0  0.09135  0.84552  0.70369  1.0000
  C   C320      1.0  0.09791  0.86839  0.75475  1.0000
  C   C321      1.0  0.10638  0.85871  0.68450  1.0000
  C   C322      1.0  0.34090  0.82576  0.73989  1.0000
  H   H365      1.0  0.30938  0.69140  0.91091  1.0000
  H   H366      1.0  0.05919  0.86040  0.79632  1.0000
  H   H367      1.0  0.24759  0.56564  0.78726  1.0000
  H   H368      1.0  0.08283  0.84265  0.81147  1.0000
  H   H369      1.0  0.04103  0.85071  0.73824  1.0000
  C   C323      1.0  0.26940  0.91036  0.51928  1.0000
  H   H370      1.0  0.05045  0.82511  0.71633  1.0000
  H   H371      1.0  0.09904  0.81272  0.77390  1.0000
  H   H372      1.0  0.07157  0.80040  0.77726  1.0000
  H   H373      1.0  0.08447  0.80400  0.73557  1.0000
  H   H374      1.0  0.08396  0.83138  0.69057  1.0000
  H   H375      1.0  0.09622  0.87257  0.78204  1.0000
  C   C324      1.0  0.19380  0.57477  0.75874  1.0000
  H   H376      1.0  0.07013  0.80611  0.98948  1.0000
  C   C325      1.0  0.28501  0.51433  0.74504  1.0000
  N   N23       1.0  0.17034  0.70410  0.92878  1.0000
  C   C326      1.0  0.16927  0.68189  0.91079  1.0000
  C   C327      1.0  0.15262  0.71947  0.91336  1.0000
  C   C328      1.0  0.19273  0.71396  0.92118  1.0000
  H   H377      1.0  0.31077  0.66731  0.88311  1.0000
  C   C329      1.0  0.24900  0.97846  0.53213  1.0000
  C   C330      1.0  0.11286  0.88150  0.73525  1.0000
  C   C331      1.0  0.32721  0.67000  0.96779  1.0000
  H   H378      1.0  0.21212  0.88006  0.51724  1.0000
  H   H379      1.0  0.31994  0.86081  0.64306  1.0000
  H   H380      1.0  0.15305  0.67346  0.91702  1.0000
  H   H381      1.0  0.17039  0.68383  0.88193  1.0000
  H   H382      1.0  0.18348  0.66998  0.91795  1.0000
  H   H383      1.0  0.13524  0.71291  0.91742  1.0000
  H   H384      1.0  0.15508  0.72137  0.88468  1.0000
  H   H385      1.0  0.15302  0.73689  0.92445  1.0000
  H   H386      1.0  0.19458  0.73023  0.93539  1.0000
  H   H387      1.0  0.19496  0.71760  0.89287  1.0000
  H   H388      1.0  0.25819  0.98840  0.55073  1.0000
  C   C332      1.0  0.03058  0.76557  0.98901  1.0000
  H   H389      1.0  0.26981  0.96997  0.78631  1.0000
  H   H390      1.0  0.11022  0.85468  0.65749  1.0000
  H   H391      1.0  0.12194  0.89495  0.74770  1.0000
  C   C333      1.0  0.02898  0.77387  0.78830  1.0000
  N   N24       1.0  0.21706  0.79861  0.77188  1.0000
  C   C334      1.0  0.21086  0.79908  0.80946  1.0000
  C   C335      1.0  0.21924  0.82252  0.76014  1.0000
  C   C336      1.0  0.19807  0.78884  0.75235  1.0000
  C   C337      1.0  0.23801  0.78438  0.76649  1.0000
  C   C338      1.0  0.23842  0.76102  0.77581  1.0000
  C   C339      1.0  0.25838  0.79296  0.75193  1.0000
  C   C340      1.0  0.25786  0.74711  0.77068  1.0000
  C   C341      1.0  0.27772  0.77884  0.74686  1.0000
  C   C342      1.0  0.27748  0.75600  0.75621  1.0000
  H   H392      1.0  0.19539  0.81006  0.81455  1.0000
  H   H393      1.0  0.20686  0.78197  0.81970  1.0000
  H   H394      1.0  0.22494  0.80564  0.82528  1.0000
  H   H395      1.0  0.23282  0.83126  0.77444  1.0000
  H   H396      1.0  0.20328  0.83275  0.76481  1.0000
  H   H397      1.0  0.22290  0.82363  0.73165  1.0000
  H   H398      1.0  0.19362  0.77172  0.76209  1.0000
  H   H399      1.0  0.18223  0.79953  0.75483  1.0000
  H   H400      1.0  0.20234  0.78731  0.72411  1.0000
  H   H401      1.0  0.22362  0.75327  0.78707  1.0000
  H   H402      1.0  0.25990  0.81052  0.74423  1.0000
  H   H403      1.0  0.25768  0.72928  0.77784  1.0000
  H   H404      1.0  0.29307  0.78560  0.73558  1.0000
  H   H405      1.0  0.29257  0.74519  0.75220  1.0000
  C   C343      1.0  0.23361  0.96273  0.54426  1.0000
  H   H406      1.0  0.09161  0.73483  0.00739  1.0000
  C   C344      1.0  0.33304  0.84060  0.58008  1.0000
  C   C345      1.0  0.31637  0.84249  0.63981  1.0000
  H   H407      1.0  0.29336  0.66693  0.92205  1.0000
  H   H408      1.0  0.18487  0.57339  0.73345  1.0000
  H   H409      1.0  0.19096  0.59247  0.76855  1.0000
  H   H410      1.0  0.03701  0.74520  0.71231  1.0000
  C   C346      1.0  0.25799  0.00437  0.73295  1.0000
  C   C347      1.0  0.32112  0.69549  0.75819  1.0000
  H   H411      1.0  0.31120  0.80422  0.60098  1.0000
  H   H412      1.0  0.20364  0.52889  0.78256  1.0000
  H   H413      1.0  0.29232  0.95386  0.87367  1.0000
  H   H414      1.0  0.24611  0.51566  0.67199  1.0000
  H   H415      1.0  0.21363  0.00499  0.79023  1.0000
  N   N25       1.0  0.33307  0.83104  0.61582  1.0000
  C   C348      1.0  0.25375  0.99565  0.88357  1.0000
  H   H416      1.0  0.23107  0.96030  0.57206  1.0000
  H   H417      1.0  0.31692  0.83493  0.66646  1.0000
  H   H418      1.0  0.30682  0.70353  0.74507  1.0000
  C   C349      1.0  0.32470  0.70075  0.01099  1.0000
  H   H419      1.0  0.28639  0.00132  0.80974  1.0000
  C   C350      1.0  0.05795  0.79424  0.99950  1.0000
  H   H420      1.0  0.23153  0.97057  0.81853  1.0000
  H   H421      1.0  0.30593  0.86693  0.58729  1.0000
  C   C351      1.0  0.31864  0.86731  0.53563  1.0000
  H   H422      1.0  0.03702  0.82322  0.75763  1.0000
  C   C352      1.0  0.32918  0.63773  0.92640  1.0000
  H   H423      1.0  0.29207  0.51972  0.72034  1.0000
  C   C353      1.0  0.27751  0.00497  0.83395  1.0000
  C   C354      1.0  0.22909  0.56980  0.78933  1.0000
  H   H424      1.0  0.12943  0.88634  0.68569  1.0000
  H   H425      1.0  0.32602  0.79920  0.64107  1.0000
  H   H426      1.0  0.24734  0.58412  0.73007  1.0000
  C   C355      1.0  0.32758  0.80666  0.61447  1.0000
  C   C356      1.0  0.30986  0.67257  0.91098  1.0000
  C   C357      1.0  0.24032  0.95827  0.83624  1.0000
  C   C358      1.0  0.11712  0.87665  0.70026  1.0000
  H   H427      1.0  0.23888  0.94117  0.82427  1.0000
  H   H428      1.0  0.34345  0.62908  0.94041  1.0000
  C   C359      1.0  0.18301  0.68627  0.98533  1.0000
  C   C360      1.0  0.27683  0.95957  0.80809  1.0000
  C   C361      1.0  0.09977  0.75095  0.00964  1.0000
  H   H429      1.0  0.18529  0.56358  0.77785  1.0000
  C   C362      1.0  0.21258  0.52682  0.75799  1.0000
  H   H430      1.0  0.27461  0.93115  0.86028  1.0000
  H   H431      1.0  0.26641  0.99365  0.71361  1.0000
  H   H432      1.0  0.21052  0.93693  0.53030  1.0000
  H   H433      1.0  0.29860  0.84096  0.63066  1.0000
  N   N26       1.0  0.21837  0.56891  0.75465  1.0000
  C   C363      1.0  0.31811  0.85878  0.56967  1.0000
  C   C364      1.0  0.22150  0.54575  0.74005  1.0000
  C   C365      1.0  0.22859  0.58686  0.73279  1.0000
  C   C366      1.0  0.02836  0.75501  0.73253  1.0000
  C   C367      1.0  0.15025  0.71220  0.98692  1.0000
  C   C368      1.0  0.26528  0.98834  0.85265  1.0000
  C   C369      1.0  0.23354  0.54116  0.70836  1.0000
  H   H434      1.0  0.23041  0.95810  0.86101  1.0000
  H   H435      1.0  0.32388  0.63638  0.99193  1.0000
  C   C370      1.0  0.27446  0.94930  0.86838  1.0000
  H   H436      1.0  0.22594  0.60403  0.74465  1.0000
  H   H437      1.0  0.31282  0.63065  0.93558  1.0000
  H   H438      1.0  0.26493  0.95038  0.89350  1.0000
  H   H439      1.0  0.28527  0.91911  0.51974  1.0000
  C   C371      1.0  0.23633  0.51900  0.69565  1.0000
  H   H440      1.0  0.30720  0.88127  0.52840  1.0000
  C   C372      1.0  0.32741  0.69340  0.97650  1.0000
  C   C373      1.0  0.04594  0.78115  0.97634  1.0000
  H   H441      1.0  0.33115  0.63284  0.89848  1.0000
  H   H442      1.0  0.32931  0.70620  0.95657  1.0000
  H   H443      1.0  0.04890  0.78280  0.94851  1.0000
  C   C374      1.0  0.22206  0.94955  0.52066  1.0000
  C   C375      1.0  0.34303  0.70381  0.75287  1.0000
  H   H444      1.0  0.02134  0.75537  0.97083  1.0000
  C   C376      1.0  0.22822  0.88840  0.51767  1.0000
  H   H445      1.0  0.01457  0.70037  0.83959  1.0000
  Fe  Fe49      1.0  0.61129  0.23801  0.32612  1.0000
  S   S98       1.0  0.62596  0.26549  0.35795  1.0000
  S   S99       1.0  0.62457  0.20220  0.33754  1.0000
  Fe  Fe50      1.0  0.57718  0.27050  0.29088  1.0000
  S   S100      1.0  0.59021  0.30048  0.32059  1.0000
  S   S101      1.0  0.54816  0.28008  0.25327  1.0000
  Fe  Fe51      1.0  0.62528  0.28621  0.30868  1.0000
  S   S102      1.0  0.65820  0.30541  0.30257  1.0000
  Fe  Fe52      1.0  0.59021  0.27760  0.36759  1.0000
  S   S103      1.0  0.57737  0.29225  0.41941  1.0000
  S   S104      1.0  0.61270  0.25765  0.27571  1.0000
  S   S105      1.0  0.57494  0.24859  0.33898  1.0000
  Fe  Fe53      1.0  0.40139  0.27697  0.12257  1.0000
  S   S106      1.0  0.40642  0.23980  0.13375  1.0000
  S   S107      1.0  0.40527  0.29375  0.06949  1.0000
  Fe  Fe54      1.0  0.38631  0.28776  0.19801  1.0000
  S   S108      1.0  0.39028  0.25125  0.21429  1.0000
  S   S109      1.0  0.37672  0.31303  0.24056  1.0000
  Fe  Fe55      1.0  0.42319  0.25153  0.18339  1.0000
  S   S110      1.0  0.45603  0.23495  0.20455  1.0000
  Fe  Fe56      1.0  0.37334  0.24319  0.16369  1.0000
  C   C377      1.0  0.45315  0.31442  0.30065  1.0000
  S   S111      1.0  0.42010  0.28856  0.17011  1.0000
  S   S112      1.0  0.36743  0.27994  0.14950  1.0000
  H   H446      1.0  0.54156  0.32290  0.33247  1.0000
  C   C378      1.0  0.48357  0.27792  0.31232  1.0000
  C   C379      1.0  0.52570  0.28335  0.34715  1.0000
  H   H447      1.0  0.65780  0.20244  0.41162  1.0000
  C   C380      1.0  0.58727  0.29656  0.48921  1.0000
  C   C381      1.0  0.63907  0.12052  0.28368  1.0000
  H   H448      1.0  0.64074  0.22702  0.40081  1.0000
  C   C382      1.0  0.48949  0.29980  0.32418  1.0000
  H   H449      1.0  0.41993  0.24729  0.05129  1.0000
  C   C383      1.0  0.41676  0.25670  0.02753  1.0000
  C   C384      1.0  0.66215  0.14815  0.25425  1.0000
  H   H450      1.0  0.64241  0.29148  0.48676  1.0000
  H   H451      1.0  0.36560  0.18658  0.18458  1.0000
  H   H452      1.0  0.64866  0.32137  0.44265  1.0000
  C   C385      1.0  0.65415  0.22050  0.41880  1.0000
  C   C386      1.0  0.65806  0.34489  0.21480  1.0000
  C   C387      1.0  0.65150  0.32917  0.24053  1.0000
  H   H453      1.0  0.52716  0.31415  0.29404  1.0000
  H   H454      1.0  0.64822  0.34673  0.19126  1.0000
  H   H455      1.0  0.63680  0.31896  0.23664  1.0000
  C   C388      1.0  0.58865  0.28241  0.45969  1.0000
  C   C389      1.0  0.59791  0.26040  0.46327  1.0000
  C   C390      1.0  0.66428  0.32640  0.27085  1.0000
  H   H456      1.0  0.59897  0.24929  0.44087  1.0000
  H   H457      1.0  0.51702  0.27050  0.36337  1.0000
  C   C391      1.0  0.52227  0.26729  0.24149  1.0000
  C   C392      1.0  0.50550  0.28056  0.22425  1.0000
  C   C393      1.0  0.48496  0.27112  0.21350  1.0000
  C   C394      1.0  0.48109  0.24809  0.21920  1.0000
  C   C395      1.0  0.49784  0.23484  0.23648  1.0000
  C   C396      1.0  0.51819  0.24439  0.24788  1.0000
  H   H458      1.0  0.50838  0.29832  0.21935  1.0000
  H   H459      1.0  0.47216  0.28166  0.20078  1.0000
  H   H460      1.0  0.49508  0.21701  0.24105  1.0000
  H   H461      1.0  0.53091  0.23390  0.26089  1.0000
  C   C397      1.0  0.65297  0.19453  0.32654  1.0000
  C   C398      1.0  0.47360  0.31795  0.31780  1.0000
  H   H462      1.0  0.53080  0.27550  0.32180  1.0000
  C   C399      1.0  0.66311  0.17474  0.34080  1.0000
  H   H463      1.0  0.45897  0.25783  0.28605  1.0000
  H   H464      1.0  0.67042  0.09206  0.31564  1.0000
  H   H465      1.0  0.65353  0.16457  0.35891  1.0000
  H   H466      1.0  0.66797  0.31173  0.38674  1.0000
  H   H467      1.0  0.43212  0.29015  0.27577  1.0000
  H   H468      1.0  0.48933  0.29049  0.14023  1.0000
  H   H469      1.0  0.60993  0.17098  0.27482  1.0000
  H   H470      1.0  0.54179  0.28715  0.36075  1.0000
  H   H471      1.0  0.35885  0.26945  0.03318  1.0000
  C   C400      1.0  0.46808  0.28214  0.04160  1.0000
  N   N27       1.0  0.51115  0.30411  0.34202  1.0000
  H   H472      1.0  0.49469  0.26312  0.31514  1.0000
  H   H473      1.0  0.52248  0.31642  0.39167  1.0000
  H   H474      1.0  0.65771  0.22275  0.29181  1.0000
  H   H475      1.0  0.47368  0.30273  0.10534  1.0000
  H   H476      1.0  0.44131  0.32853  0.29578  1.0000
  H   H477      1.0  0.50349  0.29592  0.09944  1.0000
  C   C401      1.0  0.40891  0.27932  0.02923  1.0000
  H   H478      1.0  0.49931  0.25212  0.14372  1.0000
  H   H479      1.0  0.35561  0.20148  0.07172  1.0000
  H   H480      1.0  0.58027  0.31366  0.48665  1.0000
  C   C402      1.0  0.34927  0.32579  0.24477  1.0000
  C   C403      1.0  0.65462  0.30409  0.43767  1.0000
  C   C404      1.0  0.62360  0.15829  0.27218  1.0000
  C   C405      1.0  0.46301  0.27459  0.29537  1.0000
  C   C406      1.0  0.52445  0.32037  0.32119  1.0000
  C   C407      1.0  0.35682  0.21303  0.04974  1.0000
  C   C408      1.0  0.62113  0.13660  0.28586  1.0000
  H   H481      1.0  0.47700  0.33507  0.32573  1.0000
  H   H482      1.0  0.49562  0.30268  0.39289  1.0000
  H   H483      1.0  0.49519  0.23280  0.10925  1.0000
  H   H484      1.0  0.51593  0.33740  0.31945  1.0000
  H   H485      1.0  0.65774  0.08015  0.25803  1.0000
  H   H486      1.0  0.49765  0.33090  0.37561  1.0000
  H   H487      1.0  0.44597  0.27309  0.10354  1.0000
  C   C409      1.0  0.65106  0.28722  0.46242  1.0000
  H   H488      1.0  0.64658  0.22042  0.44544  1.0000
  H   H489      1.0  0.50496  0.23664  0.05242  1.0000
  C   C410      1.0  0.50645  0.31399  0.37700  1.0000
  C   C411      1.0  0.66540  0.20756  0.30311  1.0000
  C   C412      1.0  0.35848  0.25135  0.02809  1.0000
  N   N28       1.0  0.48224  0.26688  0.09898  1.0000
  C   C413      1.0  0.45954  0.26090  0.11237  1.0000
  C   C414      1.0  0.49919  0.25077  0.11471  1.0000
  C   C415      1.0  0.48741  0.28999  0.11138  1.0000
  C   C416      1.0  0.48196  0.26632  0.06039  1.0000
  H   H490      1.0  0.35508  0.24270  0.08236  1.0000
  H   H491      1.0  0.63632  0.10395  0.29472  1.0000
  H   H492      1.0  0.51672  0.25412  0.10534  1.0000
  C   C417      1.0  0.65799  0.26475  0.45562  1.0000
  H   H493      1.0  0.60531  0.13242  0.29871  1.0000
  H   H494      1.0  0.45485  0.24375  0.10333  1.0000
  H   H495      1.0  0.45899  0.26073  0.14136  1.0000
  C   C418      1.0  0.60513  0.25246  0.49614  1.0000
  H   H496      1.0  0.45748  0.29479  0.05486  1.0000
  C   C419      1.0  0.49420  0.24955  0.04051  1.0000
  C   C420      1.0  0.44789  0.29279  0.28941  1.0000
  C   C421      1.0  0.67742  0.35795  0.21906  1.0000
  C   C422      1.0  0.35652  0.23630  0.05590  1.0000
  C   C423      1.0  0.66868  0.25846  0.42357  1.0000
  C   C424      1.0  0.64395  0.16394  0.25606  1.0000
  H   H497      1.0  0.64591  0.18103  0.24617  1.0000
  H   H498      1.0  0.66768  0.09404  0.21932  1.0000
  C   C425      1.0  0.34798  0.18225  0.18199  1.0000
  H   H499      1.0  0.67767  0.15412  0.24269  1.0000
  H   H500      1.0  0.61174  0.23521  0.49876  1.0000
  N   N29       1.0  0.67478  0.23433  0.41634  1.0000
  H   H501      1.0  0.65448  0.25229  0.47551  1.0000
  H   H502      1.0  0.35310  0.14824  0.20214  1.0000
  C   C426      1.0  0.66026  0.12587  0.26816  1.0000
  H   H503      1.0  0.35596  0.33930  0.29566  1.0000
  C   C427      1.0  0.67244  0.08883  0.24625  1.0000
  C   C428      1.0  0.66557  0.29864  0.40630  1.0000
  C   C429      1.0  0.67278  0.27626  0.39935  1.0000
  H   H504      1.0  0.67297  0.23619  0.36035  1.0000
  N   N30       1.0  0.67916  0.10868  0.26700  1.0000
  C   C430      1.0  0.35915  0.20470  0.01569  1.0000
  Fe  Fe57      1.0  0.61575  0.27129  0.62024  1.0000
  S   S113      1.0  0.59980  0.25252  0.66535  1.0000
  S   S114      1.0  0.61229  0.25514  0.56653  1.0000
  Fe  Fe58      1.0  0.63612  0.30653  0.66804  1.0000
  S   S115      1.0  0.62169  0.29060  0.71584  1.0000
  C   C431      1.0  0.36105  0.21957  0.98664  1.0000
  Fe  Fe59      1.0  0.63313  0.25733  0.69195  1.0000
  S   S116      1.0  0.64645  0.23261  0.73268  1.0000
  Fe  Fe60      1.0  0.58949  0.28700  0.68590  1.0000
  S   S117      1.0  0.55706  0.29892  0.71458  1.0000
  S   S118      1.0  0.65007  0.27350  0.64588  1.0000
  S   S119      1.0  0.60300  0.30558  0.63895  1.0000
  Fe  Fe61      1.0  0.41503  0.25873  0.86945  1.0000
  S   S120      1.0  0.42137  0.23355  0.82611  1.0000
  S   S121      1.0  0.42491  0.24541  0.92345  1.0000
  Fe  Fe62      1.0  0.39443  0.29354  0.81922  1.0000
  S   S122      1.0  0.39945  0.27106  0.77251  1.0000
  S   S123      1.0  0.37530  0.32766  0.81909  1.0000
  Fe  Fe63      1.0  0.38655  0.24358  0.80747  1.0000
  H   H505      1.0  0.67786  0.38029  0.68771  1.0000
  Fe  Fe64      1.0  0.43420  0.26272  0.79427  1.0000
  S   S124      1.0  0.46385  0.25299  0.75728  1.0000
  S   S125      1.0  0.37905  0.26651  0.85293  1.0000
  S   S126      1.0  0.43028  0.28746  0.83905  1.0000
  C   C432      1.0  0.35642  0.33837  0.71843  1.0000
  N   N31       1.0  0.36423  0.21030  0.95096  1.0000
  H   H506      1.0  0.45878  0.27943  0.67180  1.0000
  C   C433      1.0  0.51418  0.28278  0.61433  1.0000
  H   H507      1.0  0.37990  0.31583  0.74555  1.0000
  C   C434      1.0  0.39198  0.38825  0.79303  1.0000
  C   C435      1.0  0.64384  0.35652  0.77782  1.0000
  C   C436      1.0  0.53971  0.20743  0.76415  1.0000
  C   C437      1.0  0.49068  0.29558  0.66429  1.0000
  C   C438      1.0  0.66317  0.38027  0.89100  1.0000
  C   C439      1.0  0.60377  0.26656  0.52565  1.0000
  H   H508      1.0  0.65650  0.19771  0.78040  1.0000
  H   H509      1.0  0.65723  0.36550  0.90616  1.0000
  H   H510      1.0  0.45553  0.29330  0.99164  1.0000
  C   C440      1.0  0.53194  0.28507  0.72768  1.0000
  C   C441      1.0  0.52620  0.26396  0.71437  1.0000
  C   C442      1.0  0.50533  0.25444  0.72386  1.0000
  C   C443      1.0  0.49009  0.26571  0.74702  1.0000
  C   C444      1.0  0.49603  0.28661  0.76079  1.0000
  C   C445      1.0  0.51678  0.29626  0.75100  1.0000
  H   H511      1.0  0.53743  0.25527  0.69600  1.0000
  H   H512      1.0  0.50083  0.23832  0.71294  1.0000
  H   H513      1.0  0.48447  0.29549  0.77854  1.0000
  H   H514      1.0  0.52098  0.31266  0.76130  1.0000
  C   C446      1.0  0.47859  0.26454  0.98663  1.0000
  H   H515      1.0  0.67711  0.31126  0.72354  1.0000
  H   H516      1.0  0.66583  0.38308  0.78877  1.0000
  C   C447      1.0  0.36119  0.33761  0.78127  1.0000
  C   C448      1.0  0.41776  0.25863  0.96373  1.0000
  C   C449      1.0  0.40916  0.28098  0.96542  1.0000
  C   C450      1.0  0.36653  0.42092  0.80111  1.0000
  H   H517      1.0  0.40634  0.29052  0.94163  1.0000
  H   H518      1.0  0.54533  0.19511  0.74493  1.0000
  H   H519      1.0  0.65311  0.33450  0.87186  1.0000
  C   C451      1.0  0.63340  0.33702  0.78943  1.0000
  S   S127      1.0  0.36316  0.21793  0.78399  1.0000
  H   H520      1.0  0.59443  0.29997  0.54424  1.0000
  C   C452      1.0  0.42139  0.24651  0.99492  1.0000
  H   H521      1.0  0.38634  0.40503  0.84202  1.0000
  C   C453      1.0  0.55424  0.27336  0.61642  1.0000
  C   C454      1.0  0.37087  0.40366  0.74409  1.0000
  H   H522      1.0  0.67214  0.40664  0.83592  1.0000
  H   H523      1.0  0.55214  0.27197  0.54655  1.0000
  H   H524      1.0  0.39899  0.30886  0.99910  1.0000
  C   C455      1.0  0.49241  0.24875  0.00416  1.0000
  H   H525      1.0  0.52201  0.27686  0.54391  1.0000
  C   C456      1.0  0.47386  0.28065  0.65544  1.0000
  H   H526      1.0  0.54567  0.31722  0.60939  1.0000
  C   C457      1.0  0.59514  0.28881  0.52193  1.0000
  H   H527      1.0  0.38735  0.18297  0.96666  1.0000
  C   C458      1.0  0.67652  0.20246  0.69732  1.0000
  H   H528      1.0  0.57095  0.27314  0.60247  1.0000
  N   N32       1.0  0.53592  0.28337  0.59458  1.0000
  C   C459      1.0  0.54150  0.30717  0.58595  1.0000
  H   H529      1.0  0.49006  0.22210  0.80583  1.0000
  C   C460      1.0  0.36073  0.24325  0.99394  1.0000
  H   H530      1.0  0.52366  0.30748  0.65366  1.0000
  H   H531      1.0  0.34729  0.18815  0.91542  1.0000
  H   H532      1.0  0.52712  0.31605  0.57246  1.0000
  H   H533      1.0  0.50576  0.19454  0.76305  1.0000
  C   C461      1.0  0.50797  0.22221  0.79879  1.0000
  H   H534      1.0  0.55676  0.30801  0.56866  1.0000
  H   H535      1.0  0.39393  0.37454  0.74131  1.0000
  H   H536      1.0  0.36274  0.25595  0.97390  1.0000
  N   N33       1.0  0.57857  0.22522  0.76761  1.0000
  C   C462      1.0  0.59318  0.22036  0.79813  1.0000
  C   C463      1.0  0.58560  0.20904  0.73955  1.0000
  C   C464      1.0  0.58318  0.24837  0.75468  1.0000
  C   C465      1.0  0.55434  0.22384  0.77802  1.0000
  C   C466      1.0  0.54472  0.23916  0.80304  1.0000
  H   H537      1.0  0.40343  0.37530  0.80375  1.0000
  C   C467      1.0  0.52184  0.23840  0.81298  1.0000
  C   C468      1.0  0.51687  0.20675  0.77450  1.0000
  H   H538      1.0  0.53403  0.25197  0.56583  1.0000
  H   H539      1.0  0.58989  0.20329  0.80919  1.0000
  H   H540      1.0  0.61160  0.22073  0.79091  1.0000
  H   H541      1.0  0.59033  0.23303  0.81925  1.0000
  H   H542      1.0  0.60376  0.21085  0.73180  1.0000
  H   H543      1.0  0.57551  0.21203  0.71550  1.0000
  H   H544      1.0  0.58402  0.19109  0.74805  1.0000
  H   H545      1.0  0.60118  0.24983  0.74616  1.0000
  H   H546      1.0  0.57227  0.25285  0.73212  1.0000
  H   H547      1.0  0.58013  0.26177  0.77460  1.0000
  H   H548      1.0  0.55470  0.25212  0.81473  1.0000
  H   H549      1.0  0.55624  0.28298  0.64104  1.0000
  H   H550      1.0  0.51459  0.25079  0.83111  1.0000
  C   C469      1.0  0.53582  0.27049  0.56131  1.0000
  H   H551      1.0  0.48861  0.30587  0.68758  1.0000
  H   H552      1.0  0.64799  0.39104  0.88410  1.0000
  S   S128      1.0  0.65462  0.33971  0.67109  1.0000
  C   C470      1.0  0.51066  0.29649  0.64441  1.0000
  H   H553      1.0  0.55066  0.25555  0.62382  1.0000
  C   C471      1.0  0.67553  0.34513  0.70256  1.0000
  H   H554      1.0  0.34632  0.17908  0.95950  1.0000
  C   C472      1.0  0.49654  0.26786  0.60575  1.0000
  C   C473      1.0  0.38214  0.40488  0.81458  1.0000
  C   C474      1.0  0.36692  0.32911  0.74824  1.0000
  C   C475      1.0  0.36002  0.42050  0.76558  1.0000
  H   H555      1.0  0.62882  0.31403  0.83216  1.0000
  H   H556      1.0  0.36693  0.40168  0.71685  1.0000
  C   C476      1.0  0.38642  0.19776  0.94870  1.0000
  H   H557      1.0  0.50150  0.23560  0.98947  1.0000
  C   C477      1.0  0.65079  0.34119  0.84587  1.0000
  C   C478      1.0  0.66165  0.36121  0.83494  1.0000
  C   C479      1.0  0.46667  0.28134  0.00529  1.0000
  H   H558      1.0  0.49773  0.25654  0.58372  1.0000
  H   H559      1.0  0.36659  0.22054  0.89690  1.0000
  C   C480      1.0  0.66402  0.20791  0.72775  1.0000
  C   C481      1.0  0.35056  0.46028  0.75510  1.0000
  H   H560      1.0  0.62274  0.32780  0.77187  1.0000
  C   C482      1.0  0.38660  0.38785  0.75781  1.0000
  H   H561      1.0  0.35926  0.43341  0.81889  1.0000
  C   C483      1.0  0.47673  0.26689  0.62617  1.0000
  H   H562      1.0  0.46362  0.25516  0.61964  1.0000
  H   H563      1.0  0.64135  0.36221  0.75113  1.0000
  H   H564      1.0  0.35991  0.18651  0.01235  1.0000
  H   H565      1.0  0.39000  0.19127  0.92187  1.0000
  H   H566      1.0  0.47670  0.26353  0.95857  1.0000
  C   C484      1.0  0.36401  0.22802  0.92334  1.0000
  H   H567      1.0  0.40057  0.20899  0.95544  1.0000
  H   H568      1.0  0.37812  0.23991  0.92644  1.0000
  C   C485      1.0  0.63688  0.32933  0.82337  1.0000
  C   C486      1.0  0.40501  0.29133  0.99804  1.0000
  H   H569      1.0  0.35407  0.46516  0.78242  1.0000
  H   H570      1.0  0.67532  0.21351  0.67482  1.0000
  H   H571      1.0  0.36648  0.46226  0.73965  1.0000
  C   C487      1.0  0.65788  0.36845  0.79998  1.0000
  N   N34       1.0  0.67631  0.37343  0.85930  1.0000
  H   H572      1.0  0.42822  0.22928  0.99393  1.0000
  H   H573      1.0  0.35105  0.43499  0.69765  1.0000
  C   C488      1.0  0.66591  0.19362  0.75676  1.0000
  H   H574      1.0  0.34766  0.23801  0.92314  1.0000
  H   H575      1.0  0.67367  0.39022  0.90922  1.0000
  H   H576      1.0  0.36139  0.33206  0.69292  1.0000
  Fe  Fe65      1.0  0.44436  0.75142  0.33429  1.0000
  S   S129      1.0  0.42418  0.71997  0.34399  1.0000
  S   S130      1.0  0.48318  0.74909  0.32725  1.0000
  Fe  Fe66      1.0  0.40251  0.78271  0.34899  1.0000
  S   S131      1.0  0.37948  0.75379  0.35888  1.0000
  S   S132      1.0  0.38957  0.81859  0.35976  1.0000
  Fe  Fe67      1.0  0.40851  0.73895  0.38984  1.0000
  S   S133      1.0  0.40153  0.72262  0.44252  1.0000
  Fe  Fe68      1.0  0.39681  0.73755  0.31241  1.0000
  S   S134      1.0  0.37614  0.72313  0.26826  1.0000
  S   S135      1.0  0.43060  0.76881  0.38287  1.0000
  S   S136      1.0  0.41791  0.76799  0.29977  1.0000
  Fe  Fe69      1.0  0.58367  0.76182  0.18186  1.0000
  S   S137      1.0  0.59727  0.73902  0.13893  1.0000
  S   S138      1.0  0.54526  0.76167  0.19111  1.0000
  Fe  Fe70      1.0  0.63072  0.78173  0.19298  1.0000
  S   S139      1.0  0.64750  0.76023  0.15147  1.0000
  S   S140      1.0  0.65195  0.80491  0.22549  1.0000
  Fe  Fe71      1.0  0.61652  0.76893  0.11954  1.0000
  S   S141      1.0  0.61747  0.78460  0.06512  1.0000
  Fe  Fe72      1.0  0.62691  0.73235  0.17479  1.0000
  S   S142      1.0  0.64092  0.69650  0.18307  1.0000
  S   S143      1.0  0.60094  0.79242  0.16011  1.0000
  S   S144      1.0  0.61209  0.75320  0.21872  1.0000
  H   H577      1.0  0.36082  0.83347  0.50138  1.0000
  H   H578      1.0  0.59942  0.66411  0.21811  1.0000
  H   H579      1.0  0.56832  0.71691  0.19829  1.0000
  H   H580      1.0  0.64453  0.71792  0.25133  1.0000
  H   H581      1.0  0.49611  0.70927  0.24211  1.0000
  H   H582      1.0  0.56348  0.67488  0.30059  1.0000
  C   C489      1.0  0.62007  0.76975  0.02511  1.0000
  C   C490      1.0  0.52838  0.68421  0.30481  1.0000
  H   H583      1.0  0.59391  0.69477  0.28054  1.0000
  C   C491      1.0  0.38403  0.62924  0.19566  1.0000
  H   H584      1.0  0.62381  0.73644  0.04775  1.0000
  C   C492      1.0  0.66111  0.83152  0.16829  1.0000
  C   C493      1.0  0.57362  0.69859  0.19837  1.0000
  C   C494      1.0  0.40209  0.64449  0.24772  1.0000
  H   H585      1.0  0.65427  0.81518  0.03043  1.0000
  C   C495      1.0  0.36598  0.68101  0.29587  1.0000
  H   H586      1.0  0.41371  0.67867  0.24408  1.0000
  H   H587      1.0  0.57061  0.65464  0.21773  1.0000
  H   H588      1.0  0.55808  0.75172  0.07252  1.0000
  C   C496      1.0  0.45628  0.72866  0.47811  1.0000
  C   C497      1.0  0.58265  0.66532  0.23203  1.0000
  H   H589      1.0  0.37581  0.68550  0.31836  1.0000
  C   C498      1.0  0.39985  0.73857  0.48157  1.0000
  C   C499      1.0  0.40290  0.76201  0.48171  1.0000
  H   H590      1.0  0.54301  0.71507  0.05356  1.0000
  H   H591      1.0  0.40724  0.77062  0.45775  1.0000
  C   C500      1.0  0.62291  0.74613  0.02380  1.0000
  H   H592      1.0  0.56205  0.68919  0.18128  1.0000
  H   H593      1.0  0.59076  0.69743  0.18574  1.0000
  H   H594      1.0  0.58364  0.72008  0.25889  1.0000
  C   C501      1.0  0.52851  0.75897  0.22968  1.0000
  C   C502      1.0  0.50467  0.76033  0.22703  1.0000
  C   C503      1.0  0.49056  0.75792  0.25667  1.0000
  C   C504      1.0  0.50013  0.75383  0.28938  1.0000
  C   C505      1.0  0.52400  0.75269  0.29210  1.0000
  C   C506      1.0  0.53813  0.75535  0.26249  1.0000
  H   H595      1.0  0.49704  0.76322  0.20182  1.0000
  H   H596      1.0  0.47226  0.75886  0.25414  1.0000
  H   H597      1.0  0.53157  0.74948  0.31726  1.0000
  H   H598      1.0  0.55639  0.75440  0.26502  1.0000
  C   C507      1.0  0.39486  0.72755  0.51315  1.0000
  H   H599      1.0  0.35581  0.79755  0.40021  1.0000
  C   C508      1.0  0.65394  0.70190  0.25170  1.0000
  H   H600      1.0  0.35926  0.85648  0.37577  1.0000
  H   H601      1.0  0.38437  0.58256  0.20733  1.0000
  H   H602      1.0  0.46849  0.76251  0.47599  1.0000
  H   H603      1.0  0.37202  0.77927  0.42775  1.0000
  H   H604      1.0  0.66217  0.70424  0.30618  1.0000
  H   H605      1.0  0.40214  0.68360  0.18288  1.0000
  H   H606      1.0  0.40670  0.64271  0.27491  1.0000
  H   H607      1.0  0.35797  0.64782  0.31561  1.0000
  H   H608      1.0  0.66739  0.85160  0.05366  1.0000
  C   C509      1.0  0.35587  0.65968  0.29423  1.0000
  C   C510      1.0  0.35091  0.84586  0.35721  1.0000
  H   H609      1.0  0.36357  0.80729  0.44237  1.0000
  C   C511      1.0  0.35787  0.79225  0.42777  1.0000
  C   C512      1.0  0.38540  0.60396  0.14581  1.0000
  H   H610      1.0  0.64822  0.82223  0.15498  1.0000
  H   H611      1.0  0.35885  0.57764  0.18394  1.0000
  N   N35       1.0  0.37202  0.61125  0.17702  1.0000
  C   C513      1.0  0.38867  0.65005  0.17864  1.0000
  H   H612      1.0  0.60692  0.70328  0.24086  1.0000
  H   H613      1.0  0.49345  0.69617  0.30302  1.0000
  C   C514      1.0  0.39113  0.62696  0.23086  1.0000
  N   N36       1.0  0.58899  0.83359  0.25515  1.0000
  C   C515      1.0  0.59997  0.81244  0.26881  1.0000
  C   C516      1.0  0.60477  0.84341  0.22905  1.0000
  C   C517      1.0  0.58622  0.85017  0.28404  1.0000
  C   C518      1.0  0.56647  0.82835  0.24087  1.0000
  C   C519      1.0  0.54925  0.81972  0.26302  1.0000
  C   C520      1.0  0.56109  0.83102  0.20501  1.0000
  C   C521      1.0  0.52800  0.81428  0.25014  1.0000
  C   C522      1.0  0.53982  0.82532  0.19238  1.0000
  C   C523      1.0  0.52332  0.81701  0.21488  1.0000
  H   H614      1.0  0.60201  0.79951  0.24783  1.0000
  H   H615      1.0  0.61726  0.81545  0.27905  1.0000
  H   H616      1.0  0.59004  0.80471  0.29027  1.0000
  H   H617      1.0  0.60883  0.83132  0.20747  1.0000
  H   H618      1.0  0.62151  0.84723  0.24064  1.0000
  H   H619      1.0  0.59772  0.85954  0.21783  1.0000
  H   H620      1.0  0.57674  0.84323  0.30665  1.0000
  H   H621      1.0  0.60295  0.85530  0.29422  1.0000
  H   H622      1.0  0.57685  0.86581  0.27517  1.0000
  H   H623      1.0  0.55219  0.81667  0.29039  1.0000
  H   H624      1.0  0.57313  0.83703  0.18596  1.0000
  H   H625      1.0  0.51527  0.80720  0.26735  1.0000
  H   H626      1.0  0.53626  0.82682  0.16479  1.0000
  H   H627      1.0  0.50707  0.81204  0.20482  1.0000
  C   C524      1.0  0.51089  0.70131  0.25428  1.0000
  C   C525      1.0  0.54912  0.68223  0.28679  1.0000
  H   H628      1.0  0.38731  0.61795  0.12664  1.0000
  C   C526      1.0  0.59025  0.70239  0.25461  1.0000
  C   C527      1.0  0.36223  0.82621  0.34445  1.0000
  H   H629      1.0  0.38778  0.61212  0.24642  1.0000
  C   C528      1.0  0.36357  0.69632  0.26815  1.0000
  C   C529      1.0  0.39942  0.66755  0.19591  1.0000
  C   C530      1.0  0.66648  0.82621  0.20279  1.0000
  H   H630      1.0  0.38360  0.65314  0.15205  1.0000
  C   C531      1.0  0.65552  0.68859  0.22158  1.0000
  H   H631      1.0  0.53167  0.70675  0.21011  1.0000
  N   N37       1.0  0.57397  0.68918  0.23433  1.0000
  C   C532      1.0  0.53160  0.69970  0.23612  1.0000
  C   C533      1.0  0.55147  0.69020  0.25201  1.0000
  H   H632      1.0  0.58545  0.65751  0.25807  1.0000
  H   H633      1.0  0.52709  0.67862  0.33168  1.0000
  H   H634      1.0  0.66939  0.65751  0.19938  1.0000
  C   C534      1.0  0.50934  0.69389  0.28866  1.0000
  C   C535      1.0  0.40608  0.66478  0.23039  1.0000
  H   H635      1.0  0.66764  0.85337  0.12447  1.0000
  C   C536      1.0  0.45026  0.71065  0.49949  1.0000
  C   C537      1.0  0.36810  0.59072  0.19858  1.0000
  C   C538      1.0  0.66810  0.66795  0.22252  1.0000
  H   H636      1.0  0.34901  0.70198  0.21749  1.0000
  C   C539      1.0  0.66411  0.69418  0.28274  1.0000
  H   H637      1.0  0.40275  0.59776  0.15320  1.0000
  H   H638      1.0  0.40210  0.79256  0.51256  1.0000
  H   H639      1.0  0.44332  0.69567  0.48779  1.0000
  C   C540      1.0  0.67213  0.84917  0.15104  1.0000
  H   H640      1.0  0.45410  0.72753  0.45012  1.0000
  C   C541      1.0  0.46427  0.74840  0.49280  1.0000
  H   H641      1.0  0.35064  0.63442  0.14673  1.0000
  C   C542      1.0  0.40013  0.77437  0.51288  1.0000
  H   H642      1.0  0.35505  0.75959  0.47592  1.0000
  C   C543      1.0  0.55679  0.74789  0.04498  1.0000
  C   C544      1.0  0.54839  0.72725  0.03420  1.0000
  H   H643      1.0  0.39255  0.70941  0.51328  1.0000
  C   C545      1.0  0.67130  0.84687  0.02691  1.0000
  H   H644      1.0  0.36008  0.79751  0.31024  1.0000
  H   H645      1.0  0.37705  0.59003  0.13167  1.0000
  C   C546      1.0  0.34949  0.62020  0.16562  1.0000
  C   C547      1.0  0.35139  0.81255  0.32048  1.0000
  C   C548      1.0  0.56385  0.76357  0.02029  1.0000
  H   H646      1.0  0.66033  0.56971  0.38201  1.0000
  C   C549      1.0  0.35082  0.69025  0.23908  1.0000
  H   H647      1.0  0.34926  0.78665  0.49509  1.0000
  H   H648      1.0  0.57073  0.77947  0.02889  1.0000
  H   H649      1.0  0.35736  0.59486  0.22196  1.0000
  C   C550      1.0  0.67674  0.56620  0.39375  1.0000
  H   H650      1.0  0.67053  0.58943  0.43625  1.0000
  C   C551      1.0  0.67692  0.67365  0.28359  1.0000
  C   C552      1.0  0.67906  0.66067  0.25322  1.0000
  Fe  Fe73      1.0  0.39397  0.76826  0.63866  1.0000
  S   S145      1.0  0.41875  0.78909  0.66726  1.0000
  S   S146      1.0  0.39016  0.77996  0.58229  1.0000
  Fe  Fe74      1.0  0.37786  0.74631  0.70745  1.0000
  S   S147      1.0  0.40182  0.76616  0.74074  1.0000
  H   H651      1.0  0.49790  0.72591  0.58935  1.0000
  Fe  Fe75      1.0  0.39127  0.79573  0.70673  1.0000
  S   S148      1.0  0.38530  0.83262  0.72069  1.0000
  Fe  Fe76      1.0  0.42784  0.75796  0.69845  1.0000
  S   S149      1.0  0.46642  0.75117  0.69970  1.0000
  S   S150      1.0  0.36591  0.77693  0.67653  1.0000
  S   S151      1.0  0.40454  0.73610  0.66684  1.0000
  Fe  Fe77      1.0  0.62323  0.78903  0.81847  1.0000
  S   S152      1.0  0.64609  0.75858  0.82928  1.0000
  S   S153      1.0  0.63418  0.82540  0.82427  1.0000
  Fe  Fe78      1.0  0.57957  0.76097  0.81626  1.0000
  S   S154      1.0  0.59956  0.72863  0.82732  1.0000
  S   S155      1.0  0.54050  0.76234  0.81951  1.0000
  Fe  Fe79      1.0  0.61860  0.74853  0.86694  1.0000
  S   S156      1.0  0.62566  0.73256  0.91991  1.0000
  Fe  Fe80      1.0  0.62533  0.74132  0.78872  1.0000
  S   S157      1.0  0.63870  0.71849  0.74463  1.0000
  S   S158      1.0  0.59707  0.77992  0.85877  1.0000
  S   S159      1.0  0.60406  0.77280  0.77498  1.0000
  C   C553      1.0  0.66312  0.70016  0.74719  1.0000
  C   C554      1.0  0.36140  0.69312  0.76978  1.0000
  H   H652      1.0  0.58101  0.75247  0.91765  1.0000
  C   C555      1.0  0.45214  0.71226  0.53572  1.0000
  C   C556      1.0  0.34827  0.83158  0.55428  1.0000
  H   H653      1.0  0.65579  0.68338  0.69898  1.0000
  H   H654      1.0  0.55277  0.76527  0.91368  1.0000
  C   C557      1.0  0.66813  0.85589  0.81971  1.0000
  C   C558      1.0  0.62468  0.73502  0.99137  1.0000
  H   H655      1.0  0.66426  0.80967  0.76751  1.0000
  H   H656      1.0  0.45156  0.77036  0.58937  1.0000
  H   H657      1.0  0.50231  0.83232  0.85590  1.0000
  H   H658      1.0  0.35115  0.68959  0.91392  1.0000
  C   C559      1.0  0.35782  0.67422  0.79160  1.0000
  H   H659      1.0  0.54088  0.70582  0.99159  1.0000
  H   H660      1.0  0.67518  0.71328  0.79564  1.0000
  C   C560      1.0  0.66897  0.82022  0.97932  1.0000
  H   H661      1.0  0.48809  0.74067  0.62796  1.0000
  H   H662      1.0  0.43736  0.71042  0.60564  1.0000
  C   C561      1.0  0.48664  0.75424  0.73360  1.0000
  C   C562      1.0  0.50999  0.75281  0.72518  1.0000
  C   C563      1.0  0.52667  0.75502  0.75105  1.0000
  C   C564      1.0  0.52022  0.75867  0.78585  1.0000
  C   C565      1.0  0.49686  0.76006  0.79429  1.0000
  C   C566      1.0  0.48018  0.75782  0.76840  1.0000
  H   H663      1.0  0.51527  0.74990  0.69844  1.0000
  H   H664      1.0  0.54452  0.75390  0.74407  1.0000
  H   H665      1.0  0.49164  0.76289  0.82107  1.0000
  H   H666      1.0  0.46237  0.75839  0.77549  1.0000
  C   C567      1.0  0.62048  0.77098  0.96128  1.0000
  C   C568      1.0  0.62346  0.74736  0.96000  1.0000
  C   C569      1.0  0.54727  0.72214  0.99868  1.0000
  H   H667      1.0  0.61949  0.78066  0.93734  1.0000
  C   C570      1.0  0.46630  0.75019  0.52896  1.0000
  C   C571      1.0  0.51866  0.81946  0.80948  1.0000
  C   C572      1.0  0.39498  0.76337  0.54438  1.0000
  H   H668      1.0  0.36092  0.87481  0.70647  1.0000
  H   H669      1.0  0.35642  0.82637  0.65831  1.0000
  H   H670      1.0  0.38850  0.73118  0.56854  1.0000
  C   C573      1.0  0.45182  0.81995  0.72537  1.0000
  H   H671      1.0  0.42711  0.85304  0.75240  1.0000
  H   H672      1.0  0.45605  0.86207  0.75223  1.0000
  H   H673      1.0  0.45647  0.80160  0.72169  1.0000
  H   H674      1.0  0.43453  0.82271  0.71436  1.0000
  H   H675      1.0  0.46342  0.83030  0.70923  1.0000
  C   C574      1.0  0.67087  0.82505  0.77828  1.0000
  H   H676      1.0  0.56926  0.77136  0.96721  1.0000
  H   H677      1.0  0.47230  0.76597  0.53908  1.0000
  H   H678      1.0  0.52925  0.72358  0.89658  1.0000
  H   H679      1.0  0.67390  0.95492  0.76570  1.0000
  C   C575      1.0  0.55470  0.73758  0.97279  1.0000
  H   H680      1.0  0.66543  0.92719  0.71680  1.0000
  C   C576      1.0  0.50009  0.82785  0.82879  1.0000
  C   C577      1.0  0.39266  0.73984  0.54452  1.0000
  C   C578      1.0  0.51592  0.81344  0.77478  1.0000
  H   H681      1.0  0.66640  0.72674  0.63824  1.0000
  C   C579      1.0  0.35646  0.84095  0.72630  1.0000
  H   H682      1.0  0.41896  0.81308  0.77037  1.0000
  H   H683      1.0  0.66933  0.74819  0.69155  1.0000
  C   C580      1.0  0.56297  0.74909  0.91187  1.0000
  H   H684      1.0  0.65932  0.86441  0.84109  1.0000
  C   C581      1.0  0.61887  0.78210  0.99371  1.0000
  H   H685      1.0  0.44671  0.69783  0.55062  1.0000
  H   H686      1.0  0.66904  0.81714  0.87443  1.0000
  C   C582      1.0  0.45550  0.71437  0.60995  1.0000
  H   H687      1.0  0.57000  0.70627  0.90119  1.0000
  C   C583      1.0  0.66769  0.68457  0.72012  1.0000
  H   H688      1.0  0.56253  0.74386  0.88400  1.0000
  H   H689      1.0  0.53515  0.81709  0.82156  1.0000
  H   H690      1.0  0.66310  0.80400  0.97059  1.0000
  H   H691      1.0  0.61651  0.80037  0.99451  1.0000
  H   H692      1.0  0.53036  0.80631  0.76025  1.0000
  N   N38       1.0  0.55406  0.73137  0.93542  1.0000
  H   H693      1.0  0.43427  0.81686  0.80964  1.0000
  H   H694      1.0  0.49158  0.75594  0.58830  1.0000
  C   C584      1.0  0.47525  0.82403  0.77817  1.0000
  C   C585      1.0  0.47869  0.83017  0.81345  1.0000
  H   H695      1.0  0.49365  0.80955  0.73270  1.0000
  C   C586      1.0  0.53033  0.72743  0.92498  1.0000
  C   C587      1.0  0.56800  0.71027  0.92946  1.0000
  H   H696      1.0  0.58541  0.71194  0.94006  1.0000
  C   C588      1.0  0.66549  0.82237  0.90186  1.0000
  C   C589      1.0  0.49457  0.81543  0.75925  1.0000
  H   H697      1.0  0.56061  0.69519  0.94205  1.0000
  H   H698      1.0  0.51924  0.74274  0.93010  1.0000
  H   H699      1.0  0.44151  0.85617  0.79250  1.0000
  H   H700      1.0  0.44215  0.79385  0.78105  1.0000
  H   H701      1.0  0.52290  0.71292  0.93912  1.0000
  C   C590      1.0  0.43629  0.81197  0.78183  1.0000
  H   H702      1.0  0.37833  0.69930  0.76589  1.0000
  H   H703      1.0  0.45721  0.71696  0.63862  1.0000
  C   C591      1.0  0.66395  0.82638  0.01379  1.0000
  N   N39       1.0  0.45235  0.82650  0.76268  1.0000
  H   H704      1.0  0.36094  0.85113  0.63224  1.0000
  H   H705      1.0  0.46478  0.83657  0.82957  1.0000
  C   C592      1.0  0.65951  0.83584  0.80614  1.0000
  C   C593      1.0  0.56292  0.75861  0.98471  1.0000
  C   C594      1.0  0.44398  0.85047  0.76513  1.0000
  H   H706      1.0  0.37214  0.66593  0.80432  1.0000
  C   C595      1.0  0.46028  0.73218  0.55160  1.0000
  H   H707      1.0  0.65364  0.83747  0.90103  1.0000
  H   H708      1.0  0.65615  0.80817  0.91375  1.0000
  C   C596      1.0  0.35070  0.67079  0.91523  1.0000
  N   N40       1.0  0.46217  0.73475  0.58986  1.0000
  C   C597      1.0  0.48596  0.73953  0.59914  1.0000
  H   H709      1.0  0.66140  0.69780  0.60168  1.0000
  C   C598      1.0  0.44723  0.75397  0.60168  1.0000
  H   H710      1.0  0.36939  0.82333  0.61665  1.0000
  H   H711      1.0  0.42918  0.75089  0.59548  1.0000
  H   H712      1.0  0.62702  0.71675  0.99060  1.0000
  H   H713      1.0  0.44834  0.75647  0.63031  1.0000
  H   H714      1.0  0.46641  0.69925  0.60308  1.0000
  H   H715      1.0  0.36568  0.66448  0.93025  1.0000
  H   H716      1.0  0.35298  0.66475  0.88779  1.0000
  C   C599      1.0  0.35592  0.83309  0.63124  1.0000
  H   H717      1.0  0.36013  0.81776  0.56029  1.0000
  C   C600      1.0  0.34895  0.86299  0.71709  1.0000
  C   C601      1.0  0.34874  0.84037  0.52041  1.0000
  H   H718      1.0  0.67206  0.94957  0.66749  1.0000
  H   H719      1.0  0.67751  0.66842  0.64116  1.0000
  H   H720      1.0  0.67005  0.98431  0.63337  1.0000
  H   H721      1.0  0.67823  0.68890  0.56521  1.0000
  C   C602      1.0  0.67834  0.69969  0.58903  1.0000
  H   H722      1.0  0.34653  0.80875  0.74714  1.0000
  C   C603      1.0  0.67851  0.70142  0.77459  1.0000
  S   S160      1.0  0.34631  0.72763  0.72500  1.0000
  Fe  Fe81      1.0  0.79440  0.12298  0.28672  1.0000
  S   S161      1.0  0.76012  0.12103  0.26256  1.0000
  S   S162      1.0  0.82380  0.12773  0.24866  1.0000
  Fe  Fe82      1.0  0.77509  0.11274  0.35930  1.0000
  S   S163      1.0  0.73912  0.11018  0.34006  1.0000
  S   S164      1.0  0.78925  0.10729  0.41393  1.0000
  Fe  Fe83      1.0  0.75500  0.08999  0.29537  1.0000
  S   S165      1.0  0.73696  0.06145  0.26733  1.0000
  Fe  Fe84      1.0  0.74695  0.14130  0.30836  1.0000
  S   S166      1.0  0.72558  0.17269  0.29365  1.0000
  S   S167      1.0  0.79033  0.09039  0.31667  1.0000
  S   S168      1.0  0.78187  0.14532  0.33051  1.0000
  Fe  Fe85      1.0  0.72031  0.39284  0.18167  1.0000
  S   S169      1.0  0.74457  0.39555  0.22603  1.0000
  C   C604      1.0  0.71936  0.28115  0.25906  1.0000
  Fe  Fe86      1.0  0.75373  0.41267  0.12883  1.0000
  S   S170      1.0  0.78055  0.41570  0.16982  1.0000
  S   S171      1.0  0.76564  0.42681  0.07649  1.0000
  Fe  Fe87      1.0  0.77048  0.38130  0.18779  1.0000
  S   S172      1.0  0.79211  0.35137  0.20676  1.0000
  Fe  Fe88      1.0  0.75249  0.43014  0.20429  1.0000
  S   S173      1.0  0.76368  0.46020  0.23737  1.0000
  S   S174      1.0  0.74589  0.37687  0.14430  1.0000
  S   S175      1.0  0.72597  0.42865  0.16247  1.0000
  Fe  Fe89      1.0  0.89485  0.23510  0.19199  1.0000
  S   S176      1.0  0.91022  0.26925  0.20159  1.0000
  S   S177      1.0  0.87506  0.22107  0.23794  1.0000
  Fe  Fe90      1.0  0.91220  0.23284  0.11731  1.0000
  S   S178      1.0  0.92832  0.26631  0.12178  1.0000
  S   S179      1.0  0.91632  0.21316  0.06680  1.0000
  Fe  Fe91      1.0  0.94124  0.25449  0.17396  1.0000
  S   S180      1.0  0.97925  0.26070  0.18149  1.0000
  Fe  Fe92      1.0  0.89617  0.27807  0.14876  1.0000
  S   S181      1.0  0.88066  0.31150  0.12944  1.0000
  S   S182      1.0  0.92686  0.21978  0.16788  1.0000
  S   S183      1.0  0.87893  0.24506  0.14090  1.0000
  C   C605      1.0  0.91071  0.25191  0.02679  1.0000
  H   H723      1.0  0.68436  0.22615  0.46933  1.0000
  H   H724      1.0  0.76607  0.23394  0.24682  1.0000
  H   H725      1.0  0.90687  0.26078  0.05088  1.0000
  H   H726      1.0  0.69945  0.08861  0.30298  1.0000
  H   H727      1.0  0.96188  0.31866  0.13095  1.0000
  C   C606      1.0  0.99735  0.25596  0.21796  1.0000
  C   C607      1.0  0.98900  0.24985  0.25082  1.0000
  H   H728      1.0  0.95082  0.20067  0.22858  1.0000
  H   H729      1.0  0.70688  0.23629  0.44217  1.0000
  H   H730      1.0  0.97092  0.24816  0.25470  1.0000
  C   C608      1.0  0.73523  0.01940  0.23624  1.0000
  C   C609      1.0  0.77449  0.49599  0.09638  1.0000
  H   H731      1.0  0.69321  0.33795  0.29896  1.0000
  H   H732      1.0  0.72670  0.40070  0.05424  1.0000
  C   C610      1.0  0.93853  0.31417  0.05094  1.0000
  C   C611      1.0  0.81635  0.34044  0.18412  1.0000
  C   C612      1.0  0.82536  0.35142  0.15497  1.0000
  C   C613      1.0  0.84510  0.34241  0.13834  1.0000
  C   C614      1.0  0.85575  0.32226  0.15049  1.0000
  C   C615      1.0  0.84648  0.31112  0.17927  1.0000
  C   C616      1.0  0.82693  0.32025  0.19609  1.0000
  H   H733      1.0  0.81740  0.36706  0.14573  1.0000
  H   H734      1.0  0.85230  0.35123  0.11632  1.0000
  H   H735      1.0  0.85456  0.29562  0.18886  1.0000
  H   H736      1.0  0.82013  0.31171  0.21871  1.0000
  C   C617      1.0  0.75289  0.48836  0.24501  1.0000
  C   C618      1.0  0.73217  0.49646  0.23156  1.0000
  H   H737      1.0  0.72189  0.48532  0.21644  1.0000
  C   C619      1.0  0.79000  0.09226  0.18191  1.0000
  H   H738      1.0  0.83329  0.09256  0.19914  1.0000
  H   H739      1.0  0.70460  0.36571  0.25363  1.0000
  C   C620      1.0  0.83712  0.15419  0.24493  1.0000
  C   C621      1.0  0.83349  0.17126  0.26977  1.0000
  C   C622      1.0  0.84500  0.19175  0.26687  1.0000
  C   C623      1.0  0.85993  0.19558  0.23882  1.0000
  C   C624      1.0  0.86342  0.17864  0.21369  1.0000
  C   C625      1.0  0.85216  0.15795  0.21691  1.0000
  H   H740      1.0  0.82207  0.16855  0.29154  1.0000
  H   H741      1.0  0.84230  0.20471  0.28653  1.0000
  H   H742      1.0  0.87499  0.18133  0.19211  1.0000
  H   H743      1.0  0.85512  0.14483  0.19761  1.0000
  C   C626      1.0  0.78752  0.11269  0.48511  1.0000
  C   C627      1.0  0.77480  0.11191  0.45430  1.0000
  C   C628      1.0  0.75108  0.11356  0.45664  1.0000
  H   H744      1.0  0.80586  0.11147  0.48355  1.0000
  H   H745      1.0  0.74109  0.11287  0.43321  1.0000
  H   H746      1.0  0.78334  0.06691  0.23762  1.0000
  H   H747      1.0  0.85222  0.32477  0.06235  1.0000
  C   C629      1.0  0.69778  0.18076  0.30756  1.0000
  H   H748      1.0  0.78139  0.05711  0.43130  1.0000
  C   C630      1.0  0.95148  0.29565  0.03808  1.0000
  H   H749      1.0  0.73558  0.50620  0.33411  1.0000
  C   C631      1.0  0.68336  0.33980  0.27543  1.0000
  C   C632      1.0  0.74786  0.03357  0.25769  1.0000
  C   C633      1.0  0.85804  0.20482  0.02283  1.0000
  C   C634      1.0  0.96278  0.19728  0.24922  1.0000
  H   H750      1.0  0.70616  0.29394  0.26424  1.0000
  H   H751      1.0  0.74949  0.46327  0.12389  1.0000
  H   H752      1.0  0.00851  0.18743  0.32000  1.0000
  C   C635      1.0  0.76320  0.04597  0.51386  1.0000
  H   H753      1.0  0.70205  0.31415  0.21651  1.0000
  C   C636      1.0  0.68989  0.35552  0.24974  1.0000
  C   C637      1.0  0.76598  0.02589  0.15795  1.0000
  C   C638      1.0  0.73741  0.28515  0.23513  1.0000
  H   H754      1.0  0.74851  0.02087  0.16106  1.0000
  H   H755      1.0  0.74295  0.34233  0.22849  1.0000
  C   C639      1.0  0.97274  0.19320  0.31004  1.0000
  H   H756      1.0  0.68065  0.27333  0.37414  1.0000
  H   H757      1.0  0.75496  0.29383  0.16968  1.0000
  C   C640      1.0  0.75294  0.24715  0.24996  1.0000
  H   H758      1.0  0.71264  0.29855  0.17954  1.0000
  N   N41       1.0  0.73847  0.30706  0.21622  1.0000
  C   C641      1.0  0.79640  0.05183  0.17219  1.0000
  C   C642      1.0  0.79050  0.47383  0.14298  1.0000
  C   C643      1.0  0.91679  0.18584  0.27541  1.0000
  H   H759      1.0  0.99746  0.24041  0.30366  1.0000
  H   H760      1.0  0.85961  0.23250  0.05905  1.0000
  C   C644      1.0  0.78087  0.01290  0.13718  1.0000
  H   H761      1.0  0.80758  0.48087  0.13848  1.0000
  H   H762      1.0  0.69785  0.12273  0.22370  1.0000
  C   C645      1.0  0.95561  0.19715  0.28465  1.0000
  C   C646      1.0  0.95935  0.31254  0.10469  1.0000
  C   C647      1.0  0.85810  0.22767  0.03192  1.0000
  H   H763      1.0  0.77510  0.48031  0.08008  1.0000
  C   C648      1.0  0.68464  0.10090  0.30284  1.0000
  C   C649      1.0  0.00412  0.24552  0.27857  1.0000
  H   H764      1.0  0.72191  0.11677  0.49107  1.0000
  H   H765      1.0  0.01163  0.26935  0.07698  1.0000
  H   H766      1.0  0.00555  0.32485  0.31505  1.0000
  C   C650      1.0  0.80145  0.06781  0.22946  1.0000
  H   H767      1.0  0.92514  0.32186  0.03526  1.0000
  C   C651      1.0  0.00605  0.26725  0.04962  1.0000
  C   C652      1.0  0.97513  0.24462  0.07010  1.0000
  H   H768      1.0  0.77397  0.30590  0.20104  1.0000
  H   H769      1.0  0.78183  0.49704  0.27564  1.0000
  H   H770      1.0  0.71707  0.32858  0.18357  1.0000
  C   C653      1.0  0.99556  0.18976  0.30027  1.0000
  C   C654      1.0  0.80192  0.05868  0.47713  1.0000
  H   H771      1.0  0.01100  0.28259  0.03471  1.0000
  S   S184      1.0  0.68579  0.37649  0.18506  1.0000
  C   C655      1.0  0.71667  0.31221  0.19822  1.0000
  H   H772      1.0  0.80170  0.50300  0.18764  1.0000
  C   C656      1.0  0.73450  0.40823  0.03150  1.0000
  C   C657      1.0  0.75440  0.26757  0.23148  1.0000
  N   N42       1.0  0.93143  0.20189  0.29387  1.0000
  C   C658      1.0  0.92501  0.22541  0.28315  1.0000
  C   C659      1.0  0.92638  0.19979  0.33175  1.0000
  H   H773      1.0  0.77190  0.09081  0.18988  1.0000
  H   H774      1.0  0.98440  0.28611  0.10991  1.0000
  H   H775      1.0  0.78978  0.45815  0.12687  1.0000
  H   H776      1.0  0.72938  0.32653  0.26223  1.0000
  H   H777      1.0  0.81016  0.05161  0.23744  1.0000
  H   H778      1.0  0.90719  0.23012  0.29097  1.0000
  H   H779      1.0  0.93635  0.23795  0.29500  1.0000
  H   H780      1.0  0.93077  0.18242  0.34151  1.0000
  H   H781      1.0  0.93558  0.21248  0.34720  1.0000
  H   H782      1.0  0.90794  0.20297  0.33754  1.0000
  H   H783      1.0  0.96907  0.19302  0.33765  1.0000
  C   C660      1.0  0.75331  0.42188  0.03537  1.0000
  C   C661      1.0  0.82821  0.07719  0.18462  1.0000
  H   H784      1.0  0.69683  0.21040  0.27449  1.0000
  C   C662      1.0  0.91584  0.22859  0.02725  1.0000
  H   H785      1.0  0.76910  0.26920  0.21471  1.0000
  H   H786      1.0  0.91665  0.18866  0.24674  1.0000
  H   H787      1.0  0.79597  0.10783  0.19501  1.0000
  C   C663      1.0  0.83234  0.34849  0.03118  1.0000
  C   C664      1.0  0.74027  0.11567  0.48949  1.0000
  H   H788      1.0  0.80869  0.08171  0.24504  1.0000
  H   H789      1.0  0.77858  0.03591  0.28715  1.0000
  C   C665      1.0  0.81116  0.03828  0.15052  1.0000
  H   H790      1.0  0.93166  0.33627  0.09460  1.0000
  C   C666      1.0  0.78201  0.05456  0.45929  1.0000
  C   C667      1.0  0.74263  0.32540  0.24148  1.0000
  H   H791      1.0  0.99071  0.19476  0.21255  1.0000
  H   H792      1.0  0.97911  0.24773  0.09796  1.0000
  H   H793      1.0  0.73523  0.48984  0.13171  1.0000
  H   H794      1.0  0.71420  0.10398  0.25071  1.0000
  N   N43       1.0  0.77203  0.49051  0.13396  1.0000
  H   H795      1.0  0.70115  0.23959  0.37782  1.0000
  H   H796      1.0  0.74782  0.47454  0.16738  1.0000
  C   C668      1.0  0.69146  0.22581  0.44235  1.0000
  H   H797      1.0  0.81660  0.06445  0.46270  1.0000
  C   C669      1.0  0.68762  0.20057  0.29345  1.0000
  C   C670      1.0  0.73475  0.24363  0.27264  1.0000
  C   C671      1.0  0.75018  0.47915  0.13946  1.0000
  C   C672      1.0  0.76573  0.50308  0.26523  1.0000
  H   H798      1.0  0.75661  0.32396  0.17487  1.0000
  N   N44       1.0  0.80406  0.07188  0.19151  1.0000
  H   H799      1.0  0.71900  0.02547  0.22641  1.0000
  H   H800      1.0  0.95659  0.24152  0.06886  1.0000
  C   C673      1.0  0.98561  0.19382  0.23975  1.0000
  H   H801      1.0  0.70383  0.25796  0.29491  1.0000
  H   H802      1.0  0.68658  0.07580  0.24421  1.0000
  H   H803      1.0  0.82360  0.35517  0.05407  1.0000
  H   H804      1.0  0.75934  0.32272  0.25447  1.0000
  C   C674      1.0  0.76878  0.02538  0.27028  1.0000
  H   H805      1.0  0.89865  0.18780  0.28380  1.0000
  H   H806      1.0  0.73377  0.22772  0.28681  1.0000
  H   H807      1.0  0.76002  0.50666  0.08660  1.0000
  H   H808      1.0  0.92587  0.22774  0.25439  1.0000
  C   C675      1.0  0.77357  0.04499  0.17537  1.0000
  C   C676      1.0  0.68556  0.16798  0.33163  1.0000
  H   H809      1.0  0.92234  0.16790  0.28029  1.0000
  H   H810      1.0  0.83132  0.08084  0.15654  1.0000
  C   C677      1.0  0.00199  0.19013  0.26524  1.0000
  H   H811      1.0  0.69335  0.15292  0.34306  1.0000
  H   H812      1.0  0.76147  0.05417  0.19189  1.0000
  H   H813      1.0  0.85951  0.19204  0.04313  1.0000
  H   H814      1.0  0.74713  0.04548  0.46361  1.0000
  H   H815      1.0  0.75212  0.50135  0.38870  1.0000
  H   H816      1.0  0.79058  0.09532  0.15329  1.0000
  H   H817      1.0  0.78908  0.46821  0.17069  1.0000
  H   H818      1.0  0.70684  0.13179  0.26631  1.0000
  C   C678      1.0  0.97227  0.29391  0.09222  1.0000
  C   C679      1.0  0.70036  0.11728  0.25119  1.0000
  N   N45       1.0  0.98124  0.26385  0.04718  1.0000
  H   H819      1.0  0.78813  0.36631  0.03545  1.0000
  C   C680      1.0  0.71799  0.26062  0.27719  1.0000
  H   H820      1.0  0.83992  0.06315  0.19331  1.0000
  H   H821      1.0  0.82882  0.04200  0.14654  1.0000
  C   C681      1.0  0.75677  0.30750  0.18927  1.0000
  C   C682      1.0  0.96850  0.28464  0.05869  1.0000
  H   H822      1.0  0.68906  0.21224  0.37621  1.0000
  C   C683      1.0  0.76271  0.04815  0.47758  1.0000
  C   C684      1.0  0.94230  0.32245  0.08427  1.0000
  H   H823      1.0  0.81793  0.39318  0.04123  1.0000
  C   C685      1.0  0.68496  0.23055  0.38115  1.0000
  C   C686      1.0  0.84869  0.33108  0.03623  1.0000
  C   C687      1.0  0.80339  0.01912  0.13339  1.0000
  H   H824      1.0  0.79037  0.50526  0.09126  1.0000
  H   H825      1.0  0.72647  0.50516  0.41427  1.0000
  H   H826      1.0  0.70784  0.50757  0.35392  1.0000
  H   H827      1.0  0.68891  0.11548  0.31966  1.0000
  H   H828      1.0  0.69704  0.20790  0.43705  1.0000
  H   H829      1.0  0.98420  0.22854  0.06239  1.0000
  C   C688      1.0  0.77222  0.51162  0.15484  1.0000
  C   C689      1.0  0.80257  0.05674  0.51346  1.0000
  Fe  Fe93      1.0  0.75338  0.11919  0.61563  1.0000
  S   S185      1.0  0.73472  0.09905  0.65629  1.0000
  S   S186      1.0  0.73837  0.11839  0.56096  1.0000
  Fe  Fe94      1.0  0.78566  0.13825  0.67063  1.0000
  S   S187      1.0  0.76995  0.11849  0.71425  1.0000
  S   S188      1.0  0.81221  0.16536  0.67633  1.0000
  Fe  Fe95      1.0  0.76920  0.08897  0.67685  1.0000
  S   S189      1.0  0.77968  0.05119  0.68287  1.0000
  Fe  Fe96      1.0  0.73688  0.13013  0.68983  1.0000
  S   S190      1.0  0.70990  0.14341  0.72766  1.0000
  S   S191      1.0  0.78800  0.10801  0.63455  1.0000
  S   S192      1.0  0.75252  0.15098  0.64782  1.0000
  Fe  Fe97      1.0  0.74659  0.39165  0.80421  1.0000
  S   S193      1.0  0.78122  0.40527  0.79109  1.0000
  S   S194      1.0  0.73003  0.35991  0.78363  1.0000
  Fe  Fe98      1.0  0.74578  0.41313  0.87772  1.0000
  S   S195      1.0  0.77987  0.42823  0.87004  1.0000
  S   S196      1.0  0.72408  0.40900  0.92662  1.0000
  Fe  Fe99      1.0  0.76752  0.43805  0.81604  1.0000
  S   S197      1.0  0.77673  0.47465  0.80180  1.0000
  Fe  Fe100     1.0  0.79107  0.39512  0.84552  1.0000
  S   S198      1.0  0.82031  0.37360  0.86714  1.0000
  S   S199      1.0  0.73227  0.42488  0.82571  1.0000
  S   S200      1.0  0.75781  0.37967  0.85686  1.0000
  Fe  Fe101     1.0  0.93603  0.24179  0.79973  1.0000
  S   S201      1.0  0.92032  0.22161  0.84357  1.0000
  S   S202      1.0  0.96692  0.22932  0.76763  1.0000
  Fe  Fe102     1.0  0.89658  0.27673  0.79994  1.0000
  S   S203      1.0  0.87804  0.25930  0.84295  1.0000
  S   S204      1.0  0.88257  0.30809  0.77260  1.0000
  Fe  Fe103     1.0  0.91221  0.25560  0.86828  1.0000
  S   S205      1.0  0.91303  0.26836  0.92425  1.0000
  Fe  Fe104     1.0  0.88718  0.22688  0.81487  1.0000
  S   S206      1.0  0.85959  0.20045  0.81428  1.0000
  S   S207      1.0  0.93034  0.27541  0.82655  1.0000
  S   S208      1.0  0.90325  0.24463  0.76961  1.0000
  C   C690      1.0  0.78453  0.33490  0.79333  1.0000
  H   H830      1.0  0.94747  0.29004  0.01218  1.0000
  C   C691      1.0  0.99489  0.23967  0.76210  1.0000
  N   N46       1.0  0.78272  0.04917  0.57160  1.0000
  H   H831      1.0  0.76719  0.30407  0.72427  1.0000
  H   H832      1.0  0.99340  0.26292  0.80525  1.0000
  H   H833      1.0  0.83215  0.30453  0.74284  1.0000
  C   C692      1.0  0.83789  0.35605  0.84029  1.0000
  C   C693      1.0  0.84938  0.33731  0.85529  1.0000
  C   C694      1.0  0.86322  0.32266  0.83478  1.0000
  C   C695      1.0  0.86591  0.32678  0.79910  1.0000
  C   C696      1.0  0.85489  0.34586  0.78420  1.0000
  C   C697      1.0  0.84072  0.36036  0.80464  1.0000
  H   H834      1.0  0.84749  0.33398  0.88287  1.0000
  H   H835      1.0  0.87203  0.30837  0.84674  1.0000
  H   H836      1.0  0.85732  0.34942  0.75677  1.0000
  H   H837      1.0  0.83225  0.37502  0.79298  1.0000
  C   C698      1.0  0.76977  0.49547  0.76934  1.0000
  H   H838      1.0  0.80902  0.07300  0.58124  1.0000
  H   H839      1.0  0.74452  0.47632  0.74333  1.0000
  H   H840      1.0  0.73781  0.02279  0.78609  1.0000
  C   C699      1.0  0.91455  0.25249  0.96333  1.0000
  C   C700      1.0  0.92033  0.22930  0.96382  1.0000
  H   H841      1.0  0.69167  0.25303  0.73517  1.0000
  H   H842      1.0  0.92468  0.22065  0.93973  1.0000
  C   C701      1.0  0.86071  0.32187  0.00790  1.0000
  C   C702      1.0  0.73575  0.41391  0.96823  1.0000
  C   C703      1.0  0.75463  0.42744  0.97215  1.0000
  C   C704      1.0  0.69239  0.16832  0.72560  1.0000
  H   H843      1.0  0.76235  0.43511  0.94948  1.0000
  C   C705      1.0  0.92075  0.21735  0.99567  1.0000
  C   C706      1.0  0.82234  0.29345  0.75917  1.0000
  H   H844      1.0  0.81836  0.06088  0.52556  1.0000
  C   C707      1.0  0.72563  0.40446  0.99806  1.0000
  C   C708      1.0  0.82533  0.17451  0.71507  1.0000
  C   C709      1.0  0.82150  0.16417  0.74739  1.0000
  C   C710      1.0  0.83213  0.17228  0.77751  1.0000
  C   C711      1.0  0.84682  0.19064  0.77561  1.0000
  C   C712      1.0  0.85051  0.20105  0.74335  1.0000
  C   C713      1.0  0.83980  0.19302  0.71331  1.0000
  H   H845      1.0  0.81052  0.14983  0.74911  1.0000
  H   H846      1.0  0.82921  0.16405  0.80230  1.0000
  H   H847      1.0  0.86173  0.21518  0.74144  1.0000
  H   H848      1.0  0.84292  0.20109  0.68842  1.0000
  C   C714      1.0  0.85696  0.23802  0.97089  1.0000
  H   H849      1.0  0.83492  0.40125  0.00424  1.0000
  H   H850      1.0  0.69207  0.01762  0.65005  1.0000
  H   H851      1.0  0.76424  0.06475  0.61462  1.0000
  C   C715      1.0  0.68578  0.39432  0.84410  1.0000
  H   H852      1.0  0.69631  0.40331  0.86331  1.0000
  H   H853      1.0  0.79029  0.01327  0.57215  1.0000
  C   C716      1.0  0.77141  0.03052  0.71431  1.0000
  H   H854      1.0  0.96050  0.27800  0.75674  1.0000
  C   C717      1.0  0.84012  0.34745  0.96901  1.0000
  C   C718      1.0  0.75589  0.03558  0.74126  1.0000
  C   C719      1.0  0.70054  0.37210  0.73014  1.0000
  C   C720      1.0  0.70877  0.35507  0.75249  1.0000
  H   H855      1.0  0.74863  0.05261  0.74363  1.0000
  H   H856      1.0  0.69027  0.34331  0.88465  1.0000
  H   H857      1.0  0.71092  0.39410  0.99532  1.0000
  H   H858      1.0  0.80387  0.32492  0.71105  1.0000
  H   H859      1.0  0.78672  0.11550  0.54136  1.0000
  H   H860      1.0  0.00211  0.21816  0.71772  1.0000
  C   C721      1.0  0.83318  0.27300  0.76902  1.0000
  C   C722      1.0  0.82230  0.25794  0.79112  1.0000
  H   H861      1.0  0.85040  0.26906  0.76000  1.0000
  H   H862      1.0  0.83099  0.24223  0.79880  1.0000
  N   N47       1.0  0.75610  0.20392  0.74160  1.0000
  C   C723      1.0  0.75865  0.18685  0.71354  1.0000
  C   C724      1.0  0.77906  0.21052  0.75271  1.0000
  C   C725      1.0  0.74497  0.19276  0.77179  1.0000
  C   C726      1.0  0.74311  0.22398  0.72820  1.0000
  C   C727      1.0  0.72075  0.23006  0.73997  1.0000
  C   C728      1.0  0.75253  0.23771  0.70157  1.0000
  C   C729      1.0  0.70890  0.24897  0.72633  1.0000
  C   C730      1.0  0.74050  0.25656  0.68809  1.0000
  C   C731      1.0  0.71874  0.26221  0.70051  1.0000
  H   H863      1.0  0.76819  0.17130  0.72243  1.0000
  H   H864      1.0  0.78831  0.19636  0.76626  1.0000
  H   H865      1.0  0.77799  0.22522  0.77075  1.0000
  H   H866      1.0  0.79025  0.21496  0.73032  1.0000
  H   H867      1.0  0.72845  0.18553  0.76442  1.0000
  H   H868      1.0  0.75538  0.17801  0.78159  1.0000
  H   H869      1.0  0.74211  0.20475  0.79383  1.0000
  H   H870      1.0  0.71172  0.22017  0.75903  1.0000
  H   H871      1.0  0.76908  0.23357  0.69037  1.0000
  C   C732      1.0  0.85642  0.33001  0.97438  1.0000
  H   H872      1.0  0.74787  0.26654  0.66732  1.0000
  H   H873      1.0  0.70553  0.35218  0.84655  1.0000
  H   H874      1.0  0.73517  0.50670  0.70019  1.0000
  N   N48       1.0  0.85574  0.20866  0.92333  1.0000
  C   C733      1.0  0.84936  0.18479  0.91722  1.0000
  C   C734      1.0  0.83938  0.22353  0.90386  1.0000
  C   C735      1.0  0.87874  0.21150  0.90847  1.0000
  C   C736      1.0  0.85600  0.21492  0.96070  1.0000
  H   H875      1.0  0.85745  0.18043  0.98265  1.0000
  C   C737      1.0  0.85696  0.19841  0.98781  1.0000
  C   C738      1.0  0.90998  0.26374  0.99493  1.0000
  H   H876      1.0  0.81873  0.04348  0.57964  1.0000
  H   H877      1.0  0.80124  0.36885  0.93978  1.0000
  H   H878      1.0  0.83276  0.18116  0.92983  1.0000
  H   H879      1.0  0.84787  0.18106  0.88882  1.0000
  H   H880      1.0  0.86254  0.17241  0.92677  1.0000
  H   H881      1.0  0.82231  0.22380  0.91659  1.0000
  H   H882      1.0  0.83741  0.21776  0.87645  1.0000
  H   H883      1.0  0.84505  0.24126  0.90147  1.0000
  H   H884      1.0  0.89157  0.20060  0.92223  1.0000
  H   H885      1.0  0.87953  0.20677  0.88044  1.0000
  H   H886      1.0  0.88420  0.22935  0.91051  1.0000
  H   H887      1.0  0.85820  0.25149  0.95186  1.0000
  C   C739      1.0  0.75298  0.11628  0.52030  1.0000
  H   H888      1.0  0.70779  0.36745  0.88674  1.0000
  C   C740      1.0  0.80717  0.38307  0.95606  1.0000
  H   H889      1.0  0.77787  0.02424  0.61203  1.0000
  H   H890      1.0  0.76047  0.02074  0.57478  1.0000
  H   H891      1.0  0.74172  0.18158  0.70442  1.0000
  H   H892      1.0  0.76813  0.19328  0.69049  1.0000
  H   H893      1.0  0.90569  0.28171  0.99476  1.0000
  H   H894      1.0  0.82307  0.38950  0.94414  1.0000
  H   H895      1.0  0.79235  0.25186  0.82163  1.0000
  C   C741      1.0  0.00870  0.23089  0.73482  1.0000
  H   H896      1.0  0.97750  0.27327  0.64130  1.0000
  H   H897      1.0  0.77450  0.38218  0.00183  1.0000
  H   H898      1.0  0.70706  0.38902  0.73171  1.0000
  C   C742      1.0  0.85747  0.24423  0.00601  1.0000
  N   N49       1.0  0.95579  0.28613  0.70247  1.0000
  C   C743      1.0  0.94297  0.30357  0.68217  1.0000
  C   C744      1.0  0.94730  0.26338  0.69357  1.0000
  C   C745      1.0  0.95066  0.29016  0.74002  1.0000
  C   C746      1.0  0.98030  0.28736  0.69366  1.0000
  H   H899      1.0  0.80359  0.05441  0.61680  1.0000
  H   H900      1.0  0.70056  0.17846  0.67299  1.0000
  C   C747      1.0  0.99635  0.29650  0.71678  1.0000
  C   C748      1.0  0.78808  0.36902  0.00676  1.0000
  C   C749      1.0  0.77760  0.02581  0.58301  1.0000
  H   H901      1.0  0.94515  0.30097  0.65362  1.0000
  H   H902      1.0  0.92441  0.30335  0.68824  1.0000
  H   H903      1.0  0.94885  0.32089  0.68818  1.0000
  H   H904      1.0  0.94581  0.26070  0.66510  1.0000
  H   H905      1.0  0.93008  0.26054  0.70473  1.0000
  H   H906      1.0  0.95882  0.24965  0.70383  1.0000
  H   H907      1.0  0.95430  0.30776  0.74809  1.0000
  H   H908      1.0  0.93232  0.28801  0.74634  1.0000
  C   C750      1.0  0.97645  0.25722  0.01068  1.0000
  C   C751      1.0  0.75327  0.49217  0.74402  1.0000
  C   C752      1.0  0.98869  0.27986  0.66064  1.0000
  H   H909      1.0  0.79075  0.35041  0.72833  1.0000
  C   C753      1.0  0.69089  0.18268  0.69634  1.0000
  H   H910      1.0  0.83781  0.35304  0.94236  1.0000
  H   H911      1.0  0.81684  0.34026  0.74604  1.0000
  C   C754      1.0  0.76484  0.06499  0.58563  1.0000
  C   C755      1.0  0.80054  0.26336  0.80377  1.0000
  C   C756      1.0  0.70026  0.33312  0.74990  1.0000
  H   H912      1.0  0.77795  0.35233  0.78708  1.0000
  C   C757      1.0  0.80454  0.05526  0.58777  1.0000
  N   N50       1.0  0.81045  0.37602  0.99296  1.0000
  C   C758      1.0  0.80049  0.33458  0.73554  1.0000
  H   H913      1.0  0.86595  0.32288  0.95239  1.0000
  C   C759      1.0  0.78947  0.28372  0.79394  1.0000
  C   C760      1.0  0.79994  0.29930  0.77103  1.0000
  C   C761      1.0  0.00370  0.25608  0.78403  1.0000
  C   C762      1.0  0.74981  0.01860  0.76537  1.0000
  H   H914      1.0  0.92499  0.19936  0.99589  1.0000
  H   H915      1.0  0.80072  0.33670  0.80756  1.0000
  H   H916      1.0  0.75342  0.30919  0.76578  1.0000
  N   N51       1.0  0.78795  0.32088  0.76154  1.0000
  H   H917      1.0  0.99175  0.30259  0.74246  1.0000
  H   H918      1.0  0.77210  0.32759  0.81187  1.0000
  H   H919      1.0  0.76801  0.08264  0.57715  1.0000
  C   C763      1.0  0.76546  0.31620  0.74638  1.0000
  C   C764      1.0  0.76313  0.43165  0.00559  1.0000
  H   H920      1.0  0.77277  0.28744  0.80484  1.0000
  H   H921      1.0  0.75681  0.33198  0.73638  1.0000
  H   H922      1.0  0.70923  0.27658  0.68960  1.0000
  C   C765      1.0  0.78306  0.05050  0.53303  1.0000
  H   H923      1.0  0.80583  0.41101  0.00858  1.0000
  H   H924      1.0  0.70645  0.31986  0.76720  1.0000
  H   H925      1.0  0.98655  0.24181  0.00256  1.0000
  H   H926      1.0  0.74750  0.06105  0.57692  1.0000
  C   C766      1.0  0.68405  0.36709  0.70516  1.0000
  C   C767      1.0  0.77671  0.11487  0.51795  1.0000
  H   H927      1.0  0.71650  0.01581  0.70215  1.0000
  H   H928      1.0  0.98052  0.27099  0.99192  1.0000
  H   H929      1.0  0.68085  0.16305  0.77829  1.0000
  C   C768      1.0  0.68364  0.32817  0.72518  1.0000
  C   C769      1.0  0.82755  0.35726  0.99740  1.0000
  H   H930      1.0  0.79411  0.39706  0.95350  1.0000
  C   C770      1.0  0.69574  0.35839  0.86980  1.0000
  H   H931      1.0  0.77743  0.44255  0.00835  1.0000
  C   C771      1.0  0.74802  0.50947  0.71953  1.0000
  H   H932      1.0  0.74767  0.04132  0.52690  1.0000
  H   H933      1.0  0.95834  0.25286  0.00744  1.0000
  H   H934      1.0  0.69702  0.39031  0.82126  1.0000
  H   H935      1.0  0.78278  0.35305  0.99425  1.0000
  H   H936      1.0  0.87346  0.30850  0.01201  1.0000
  H   H937      1.0  0.85851  0.26195  0.01317  1.0000
  C   C772      1.0  0.81764  0.39617  0.01260  1.0000
  C   C773      1.0  0.67979  0.17397  0.75560  1.0000
  C   C774      1.0  0.01185  0.28027  0.65216  1.0000
  Fe  Fe105     1.0  0.73574  0.89956  0.15599  1.0000
  S   S209      1.0  0.76363  0.88735  0.11956  1.0000
  S   S210      1.0  0.70235  0.88308  0.14435  1.0000
  Fe  Fe106     1.0  0.76520  0.93548  0.18917  1.0000
  S   S211      1.0  0.79476  0.92558  0.15413  1.0000
  S   S212      1.0  0.77537  0.96133  0.23044  1.0000
  Fe  Fe107     1.0  0.76961  0.92413  0.11076  1.0000
  S   S213      1.0  0.77899  0.93844  0.05779  1.0000
  Fe  Fe108     1.0  0.78631  0.88955  0.16590  1.0000
  S   S214      1.0  0.81600  0.86421  0.17070  1.0000
  S   S215      1.0  0.74050  0.93682  0.14456  1.0000
  S   S216      1.0  0.75802  0.89893  0.20349  1.0000
  Fe  Fe109     1.0  0.71822  0.63774  0.32347  1.0000
  S   S217      1.0  0.73690  0.62722  0.27494  1.0000
  C   C775      1.0  0.76285  0.59955  0.49454  1.0000
  Fe  Fe110     1.0  0.75074  0.60973  0.36990  1.0000
  S   S218      1.0  0.77217  0.59763  0.32380  1.0000
  S   S219      1.0  0.76197  0.59686  0.42315  1.0000
  Fe  Fe111     1.0  0.76848  0.63389  0.30524  1.0000
  S   S220      1.0  0.79258  0.65770  0.27815  1.0000
  Fe  Fe112     1.0  0.73866  0.59193  0.29796  1.0000
  S   S221      1.0  0.72689  0.56203  0.26526  1.0000
  S   S222      1.0  0.74971  0.64613  0.35294  1.0000
  S   S223      1.0  0.71738  0.60216  0.34500  1.0000
  Fe  Fe113     1.0  0.89574  0.77485  0.38811  1.0000
  S   S224      1.0  0.91933  0.74686  0.36960  1.0000
  S   S225      1.0  0.89074  0.78931  0.44257  1.0000
  Fe  Fe114     1.0  0.87435  0.78136  0.31550  1.0000
  S   S226      1.0  0.89668  0.75356  0.29113  1.0000
  S   S227      1.0  0.84167  0.79973  0.29841  1.0000
  Fe  Fe115     1.0  0.88929  0.73407  0.34052  1.0000
  S   S228      1.0  0.87905  0.69793  0.35066  1.0000
  Fe  Fe116     1.0  0.92537  0.76858  0.32197  1.0000
  S   S229      1.0  0.96271  0.77723  0.31107  1.0000
  S   S230      1.0  0.86551  0.76057  0.36258  1.0000
  S   S231      1.0  0.90317  0.79773  0.34279  1.0000
  C   C776      1.0  0.90220  0.77805  0.48159  1.0000
  C   C777      1.0  0.85737  0.87701  0.27352  1.0000
  C   C778      1.0  0.91816  0.75997  0.48156  1.0000
  C   C779      1.0  0.72814  0.63266  0.49992  1.0000
  H   H938      1.0  0.92362  0.75235  0.45721  1.0000
  C   C780      1.0  0.98374  0.76951  0.27896  1.0000
  C   C781      1.0  0.97879  0.75704  0.24915  1.0000
  C   C782      1.0  0.00617  0.77660  0.28343  1.0000
  H   H939      1.0  0.76409  0.53371  0.35019  1.0000
  H   H940      1.0  0.96168  0.75146  0.24524  1.0000
  H   H941      1.0  0.74225  0.52733  0.13046  1.0000
  C   C783      1.0  0.68244  0.57735  0.42426  1.0000
  C   C784      1.0  0.75274  0.60809  0.46398  1.0000
  C   C785      1.0  0.73534  0.62474  0.46679  1.0000
  H   H942      1.0  0.72698  0.68434  0.27502  1.0000
  H   H943      1.0  0.72733  0.63136  0.44348  1.0000
  H   H944      1.0  0.75625  0.68932  0.26679  1.0000
  C   C786      1.0  0.81607  0.66912  0.29950  1.0000
  C   C787      1.0  0.82380  0.66047  0.33133  1.0000
  C   C788      1.0  0.84309  0.66949  0.34686  1.0000
  C   C789      1.0  0.85431  0.68768  0.33128  1.0000
  C   C790      1.0  0.84616  0.69674  0.29995  1.0000
  C   C791      1.0  0.82737  0.68721  0.28382  1.0000
  H   H945      1.0  0.81532  0.64643  0.34348  1.0000
  H   H946      1.0  0.84943  0.66215  0.37083  1.0000
  H   H947      1.0  0.85484  0.71056  0.28754  1.0000
  H   H948      1.0  0.82162  0.69380  0.25900  1.0000
  C   C792      1.0  0.73751  0.53380  0.25798  1.0000
  H   H949      1.0  0.80068  0.53809  0.22028  1.0000
  H   H950      1.0  0.80507  0.89068  0.23696  1.0000
  H   H951      1.0  0.86660  0.87787  0.24913  1.0000
  H   H952      1.0  0.76850  0.53691  0.28645  1.0000
  C   C793      1.0  0.86735  0.72755  0.51229  1.0000
  H   H953      1.0  0.87762  0.84749  0.28869  1.0000
  C   C794      1.0  0.82302  0.84672  0.20679  1.0000
  C   C795      1.0  0.80778  0.84356  0.23442  1.0000
  C   C796      1.0  0.81385  0.82905  0.26216  1.0000
  C   C797      1.0  0.83517  0.81762  0.26264  1.0000
  C   C798      1.0  0.85036  0.82065  0.23492  1.0000
  C   C799      1.0  0.84424  0.83510  0.20705  1.0000
  H   H954      1.0  0.79127  0.85211  0.23439  1.0000
  H   H955      1.0  0.80202  0.82674  0.28356  1.0000
  H   H956      1.0  0.86675  0.81181  0.23494  1.0000
  H   H957      1.0  0.85603  0.83726  0.18556  1.0000
  H   H958      1.0  0.87193  0.67802  0.41803  1.0000
  C   C800      1.0  0.83447  0.87096  0.33685  1.0000
  H   H959      1.0  0.79302  0.99713  0.27166  1.0000
  N   N52       1.0  0.97144  0.78658  0.41997  1.0000
  H   H960      1.0  0.74685  0.90265  0.04592  1.0000
  C   C801      1.0  0.83255  0.93306  0.27645  1.0000
  C   C802      1.0  0.76440  0.98921  0.23979  1.0000
  C   C803      1.0  0.75504  0.54906  0.16918  1.0000
  H   H961      1.0  0.00786  0.78832  0.41357  1.0000
  C   C804      1.0  0.98894  0.77644  0.47777  1.0000
  H   H962      1.0  0.85721  0.84204  0.34426  1.0000
  H   H963      1.0  0.80086  0.92058  0.23064  1.0000
  H   H964      1.0  0.82543  0.86826  0.36120  1.0000
  C   C805      1.0  0.97143  0.76237  0.40931  1.0000
  C   C806      1.0  0.78868  0.51550  0.18087  1.0000
  H   H965      1.0  0.82135  0.93434  0.29990  1.0000
  H   H966      1.0  0.75065  0.52234  0.42173  1.0000
  H   H967      1.0  0.81361  0.89957  0.32290  1.0000
  H   H968      1.0  0.73354  0.98670  0.21077  1.0000
  H   H969      1.0  0.90317  0.70817  0.46283  1.0000
  H   H970      1.0  0.82695  0.94736  0.25911  1.0000
  C   C807      1.0  0.76781  0.92663  0.01942  1.0000
  C   C808      1.0  0.84801  0.71554  0.43987  1.0000
  N   N53       1.0  0.75033  0.81852  0.15325  1.0000
  C   C809      1.0  0.72619  0.81272  0.14828  1.0000
  C   C810      1.0  0.75068  0.83819  0.17723  1.0000
  C   C811      1.0  0.75951  0.82552  0.11881  1.0000
  C   C812      1.0  0.76459  0.79962  0.16757  1.0000
  C   C813      1.0  0.75579  0.77818  0.17677  1.0000
  C   C814      1.0  0.78816  0.80245  0.17289  1.0000
  C   C815      1.0  0.76994  0.76069  0.18985  1.0000
  C   C816      1.0  0.80207  0.78499  0.18642  1.0000
  C   C817      1.0  0.79303  0.76407  0.19454  1.0000
  H   H971      1.0  0.71760  0.80876  0.17349  1.0000
  H   H972      1.0  0.71616  0.82714  0.13666  1.0000
  H   H973      1.0  0.72458  0.79816  0.13016  1.0000
  H   H974      1.0  0.74451  0.83354  0.20374  1.0000
  H   H975      1.0  0.73965  0.85255  0.16774  1.0000
  H   H976      1.0  0.76798  0.84497  0.17989  1.0000
  H   H977      1.0  0.76090  0.81085  0.10062  1.0000
  H   H978      1.0  0.74845  0.83890  0.10641  1.0000
  H   H979      1.0  0.77663  0.83287  0.12075  1.0000
  H   H980      1.0  0.73806  0.77444  0.17404  1.0000
  H   H981      1.0  0.79605  0.81828  0.16665  1.0000
  H   H982      1.0  0.76299  0.74442  0.19661  1.0000
  H   H983      1.0  0.81998  0.78776  0.19069  1.0000
  H   H984      1.0  0.80390  0.75053  0.20492  1.0000
  C   C818      1.0  0.84432  0.91209  0.22557  1.0000
  H   H985      1.0  0.83782  0.92612  0.20847  1.0000
  C   C819      1.0  0.75033  0.54460  0.36208  1.0000
  H   H986      1.0  0.99265  0.81522  0.41245  1.0000
  C   C820      1.0  0.74347  0.99739  0.22720  1.0000
  H   H987      1.0  0.96945  0.76053  0.38061  1.0000
  C   C821      1.0  0.78831  0.53568  0.20000  1.0000
  H   H988      1.0  0.84718  0.73403  0.44582  1.0000
  H   H989      1.0  0.70739  0.86529  0.21543  1.0000
  H   H990      1.0  0.99191  0.79622  0.37578  1.0000
  H   H991      1.0  0.84970  0.71389  0.41097  1.0000
  C   C822      1.0  0.82782  0.88877  0.31466  1.0000
  C   C823      1.0  0.83897  0.89228  0.28217  1.0000
  H   H992      1.0  0.88765  0.73281  0.44656  1.0000
  C   C824      1.0  0.97183  0.78828  0.45849  1.0000
  C   C825      1.0  0.89531  0.78785  0.51347  1.0000
  C   C826      1.0  0.95545  0.80141  0.47796  1.0000
  H   H993      1.0  0.85347  0.67163  0.50813  1.0000
  H   H994      1.0  0.85133  0.67144  0.45010  1.0000
  H   H995      1.0  0.68871  0.64475  0.25355  1.0000
  H   H996      1.0  0.99186  0.74244  0.20111  1.0000
  C   C827      1.0  0.77692  0.00333  0.26147  1.0000
  H   H997      1.0  0.81488  0.00887  0.11718  1.0000
  H   H998      1.0  0.95063  0.81667  0.40937  1.0000
  H   H999      1.0  0.77070  0.56758  0.21020  1.0000
  H   H1000     1.0  0.85025  0.93606  0.28480  1.0000
  S   S232      1.0  0.68991  0.66495  0.32306  1.0000
  C   C828      1.0  0.86797  0.67962  0.44639  1.0000
  C   C829      1.0  0.68895  0.86136  0.16780  1.0000
  H   H1001     1.0  0.95110  0.79626  0.37544  1.0000
  H   H1002     1.0  0.89319  0.70953  0.41876  1.0000
  H   H1003     1.0  0.70838  0.58236  0.46228  1.0000
  C   C830      1.0  0.71932  0.55811  0.42324  1.0000
  H   H1004     1.0  0.85776  0.91308  0.02470  1.0000
  H   H1005     1.0  0.84305  0.89622  0.21006  1.0000
  H   H1006     1.0  0.77627  0.58663  0.49269  1.0000
  H   H1007     1.0  0.75823  0.55471  0.38294  1.0000
  H   H1008     1.0  0.95727  0.75341  0.42218  1.0000
  H   H1009     1.0  0.88138  0.66959  0.46040  1.0000
  H   H1010     1.0  0.79533  0.90865  0.27221  1.0000
  H   H1011     1.0  0.73585  0.55626  0.43511  1.0000
  C   C831      1.0  0.99598  0.75198  0.22410  1.0000
  H   H1012     1.0  0.77498  0.99788  0.12416  1.0000
  H   H1013     1.0  0.94157  0.81081  0.46590  1.0000
  C   C832      1.0  0.85247  0.85626  0.32752  1.0000
  C   C833      1.0  0.74048  0.51428  0.40118  1.0000
  C   C834      1.0  0.75255  0.90891  0.02091  1.0000
  C   C835      1.0  0.88871  0.71396  0.44622  1.0000
  C   C836      1.0  0.95588  0.80191  0.51438  1.0000
  H   H1014     1.0  0.86254  0.91524  0.23042  1.0000
  C   C837      1.0  0.80707  0.90747  0.24939  1.0000
  N   N54       1.0  0.86714  0.70371  0.45786  1.0000
  C   C838      1.0  0.86400  0.85940  0.29611  1.0000
  C   C839      1.0  0.69463  0.85583  0.20218  1.0000
  N   N55       1.0  0.83107  0.91083  0.25868  1.0000
  H   H1015     1.0  0.83144  0.70843  0.44778  1.0000
  H   H1016     1.0  0.79356  0.88127  0.03097  1.0000
  C   C840      1.0  0.70369  0.57330  0.43897  1.0000
  C   C841      1.0  0.71413  0.54638  0.39219  1.0000
  C   C842      1.0  0.77147  0.55236  0.19431  1.0000
  H   H1017     1.0  0.87165  0.74234  0.49721  1.0000
  C   C843      1.0  0.75816  0.52568  0.27160  1.0000
  C   C844      1.0  0.86402  0.70630  0.49606  1.0000
  C   C845      1.0  0.72240  0.51799  0.34572  1.0000
  N   N56       1.0  0.73888  0.71512  0.29802  1.0000
  C   C846      1.0  0.74447  0.70349  0.33138  1.0000
  C   C847      1.0  0.71526  0.72454  0.30135  1.0000
  C   C848      1.0  0.73930  0.69798  0.26977  1.0000
  C   C849      1.0  0.75581  0.73255  0.29037  1.0000
  C   C850      1.0  0.77937  0.72669  0.29045  1.0000
  C   C851      1.0  0.74967  0.75564  0.28318  1.0000
  C   C852      1.0  0.79579  0.74307  0.28563  1.0000
  C   C853      1.0  0.76625  0.77187  0.27816  1.0000
  C   C854      1.0  0.78922  0.76563  0.27982  1.0000
  H   H1018     1.0  0.74648  0.71592  0.35281  1.0000
  H   H1019     1.0  0.73096  0.69170  0.33954  1.0000
  H   H1020     1.0  0.76038  0.69284  0.32954  1.0000
  H   H1021     1.0  0.71386  0.73783  0.32185  1.0000
  H   H1022     1.0  0.70329  0.71118  0.30915  1.0000
  H   H1023     1.0  0.70886  0.73153  0.27620  1.0000
  H   H1024     1.0  0.73494  0.70581  0.24421  1.0000
  H   H1025     1.0  0.78526  0.70936  0.29469  1.0000
  H   H1026     1.0  0.73219  0.76162  0.28163  1.0000
  H   H1027     1.0  0.81373  0.73827  0.28674  1.0000
  H   H1028     1.0  0.76134  0.78944  0.27313  1.0000
  H   H1029     1.0  0.80201  0.77827  0.27620  1.0000
  H   H1030     1.0  0.70854  0.52510  0.22743  1.0000
  C   C855      1.0  0.99189  0.79704  0.40487  1.0000
  H   H1031     1.0  0.82500  0.90019  0.05960  1.0000
  C   C856      1.0  0.95120  0.79810  0.40426  1.0000
  H   H1032     1.0  0.74428  0.55679  0.34174  1.0000
  H   H1033     1.0  0.74163  0.56187  0.16558  1.0000
  N   N57       1.0  0.73137  0.53100  0.37545  1.0000
  C   C857      1.0  0.68326  0.83841  0.21971  1.0000
  H   H1034     1.0  0.71689  0.52940  0.32402  1.0000
  H   H1035     1.0  0.68695  0.54340  0.35372  1.0000
  H   H1036     1.0  0.71458  0.64541  0.50184  1.0000
  C   C858      1.0  0.82573  0.89726  0.03171  1.0000
  C   C859      1.0  0.75545  0.52912  0.14949  1.0000
  H   H1037     1.0  0.98750  0.75300  0.41569  1.0000
  H   H1038     1.0  0.93520  0.79076  0.41417  1.0000
  H   H1039     1.0  0.00152  0.76554  0.08583  1.0000
  H   H1040     1.0  0.01025  0.78631  0.30626  1.0000
  H   H1041     1.0  0.94002  0.73830  0.51301  1.0000
  H   H1042     1.0  0.01202  0.77318  0.12753  1.0000
  C   C860      1.0  0.72459  0.51903  0.23800  1.0000
  H   H1043     1.0  0.00946  0.79425  0.09357  1.0000
  C   C861      1.0  0.69229  0.55097  0.37774  1.0000
  H   H1044     1.0  0.68739  0.83444  0.24649  1.0000
  H   H1045     1.0  0.00217  0.76644  0.46482  1.0000
  C   C862      1.0  0.92737  0.75201  0.51318  1.0000
  H   H1046     1.0  0.88298  0.80186  0.51371  1.0000
  C   C863      1.0  0.98899  0.77683  0.51423  1.0000
  H   H1047     1.0  0.68945  0.87719  0.01602  1.0000
  Fe  Fe117     1.0  0.75418  0.90390  0.86475  1.0000
  S   S233      1.0  0.73010  0.91788  0.82449  1.0000
  S   S234      1.0  0.74225  0.89383  0.91911  1.0000
  Fe  Fe118     1.0  0.79258  0.89727  0.81094  1.0000
  S   S235      1.0  0.77162  0.91088  0.76640  1.0000
  S   S236      1.0  0.82831  0.88164  0.81055  1.0000
  Fe  Fe119     1.0  0.75949  0.93809  0.80416  1.0000
  S   S237      1.0  0.74993  0.97550  0.79354  1.0000
  Fe  Fe120     1.0  0.74381  0.89007  0.78993  1.0000
  S   S238      1.0  0.72270  0.86711  0.75704  1.0000
  S   S239      1.0  0.78264  0.92599  0.84754  1.0000
  S   S240      1.0  0.76571  0.87451  0.83125  1.0000
  Fe  Fe121     1.0  0.74514  0.63720  0.70063  1.0000
  S   S241      1.0  0.77599  0.61475  0.71209  1.0000
  S   S242      1.0  0.72919  0.65618  0.74695  1.0000
  Fe  Fe122     1.0  0.74644  0.62496  0.62252  1.0000
  S   S243      1.0  0.77666  0.60133  0.62892  1.0000
  S   S244      1.0  0.72867  0.63450  0.57170  1.0000
  Fe  Fe123     1.0  0.75940  0.58896  0.67814  1.0000
  S   S245      1.0  0.75059  0.55190  0.68959  1.0000
  Fe  Fe124     1.0  0.79042  0.62918  0.66241  1.0000
  S   S246      1.0  0.82570  0.64218  0.65075  1.0000
  S   S247      1.0  0.72786  0.61099  0.66914  1.0000
  S   S248      1.0  0.76095  0.65334  0.65357  1.0000
  Fe  Fe125     1.0  0.92114  0.76491  0.63690  1.0000
  S   S249      1.0  0.93025  0.74297  0.68339  1.0000
  S   S250      1.0  0.93376  0.75259  0.58392  1.0000
  Fe  Fe126     1.0  0.89401  0.79924  0.68103  1.0000
  S   S251      1.0  0.90142  0.78025  0.73015  1.0000
  S   S252      1.0  0.86842  0.82876  0.67788  1.0000
  Fe  Fe127     1.0  0.93748  0.77587  0.71013  1.0000
  S   S253      1.0  0.96423  0.78136  0.75214  1.0000
  Fe  Fe128     1.0  0.89376  0.74904  0.69962  1.0000
  S   S254      1.0  0.86930  0.72578  0.72702  1.0000
  S   S255      1.0  0.93058  0.79765  0.66258  1.0000
  S   S256      1.0  0.88418  0.76823  0.65136  1.0000
  C   C864      1.0  0.99367  0.77371  0.75474  1.0000
  C   C865      1.0  0.78087  0.51631  0.76972  1.0000
  H   H1048     1.0  0.68840  0.86101  0.89803  1.0000
  H   H1049     1.0  0.72235  0.52318  0.88304  1.0000
  C   C866      1.0  0.84404  0.90465  0.01194  1.0000
  H   H1050     1.0  0.70308  0.95810  0.77745  1.0000
  H   H1051     1.0  0.71878  0.98159  0.73765  1.0000
  C   C867      1.0  0.83659  0.66638  0.67114  1.0000
  C   C868      1.0  0.85590  0.67646  0.65674  1.0000
  C   C869      1.0  0.86563  0.69516  0.67297  1.0000
  C   C870      1.0  0.85647  0.70355  0.70430  1.0000
  C   C871      1.0  0.83709  0.69361  0.71864  1.0000
  C   C872      1.0  0.82701  0.67527  0.70192  1.0000
  H   H1052     1.0  0.86353  0.66952  0.63316  1.0000
  H   H1053     1.0  0.88063  0.70259  0.66177  1.0000
  H   H1054     1.0  0.82998  0.69990  0.74298  1.0000
  H   H1055     1.0  0.81226  0.66752  0.71336  1.0000
  C   C873      1.0  0.75914  0.53029  0.71988  1.0000
  H   H1056     1.0  0.69792  0.61691  0.76447  1.0000
  C   C874      1.0  0.70148  0.80659  0.92105  1.0000
  H   H1057     1.0  0.74616  0.57639  0.75668  1.0000
  H   H1058     1.0  0.78443  0.54944  0.74589  1.0000
  H   H1059     1.0  0.69064  0.65752  0.60191  1.0000
  H   H1060     1.0  0.69287  0.79206  0.93347  1.0000
  H   H1061     1.0  0.98249  0.67992  0.86581  1.0000
  C   C875      1.0  0.92067  0.76202  0.54504  1.0000
  H   H1062     1.0  0.71719  0.68309  0.56721  1.0000
  H   H1063     1.0  0.89924  0.78774  0.56945  1.0000
  H   H1064     1.0  0.70758  0.61485  0.80797  1.0000
  C   C876      1.0  0.73568  0.59081  0.76748  1.0000
  C   C877      1.0  0.73837  0.62419  0.53050  1.0000
  H   H1065     1.0  0.79266  0.00405  0.69113  1.0000
  H   H1066     1.0  0.72344  0.71032  0.58549  1.0000
  H   H1067     1.0  0.76379  0.60086  0.55082  1.0000
  C   C878      1.0  0.83883  0.86650  0.77366  1.0000
  C   C879      1.0  0.85805  0.85193  0.77706  1.0000
  C   C880      1.0  0.86721  0.84011  0.74803  1.0000
  C   C881      1.0  0.85747  0.84313  0.71519  1.0000
  C   C882      1.0  0.83827  0.85771  0.71179  1.0000
  C   C883      1.0  0.82881  0.86913  0.74096  1.0000
  H   H1068     1.0  0.86599  0.84988  0.80221  1.0000
  H   H1069     1.0  0.88208  0.82905  0.75094  1.0000
  H   H1070     1.0  0.83067  0.86020  0.68646  1.0000
  H   H1071     1.0  0.81412  0.88042  0.73795  1.0000
  C   C884      1.0  0.77454  0.99122  0.73594  1.0000
  C   C885      1.0  0.75916  0.99634  0.76306  1.0000
  H   H1072     1.0  0.78183  0.97421  0.73361  1.0000
  C   C886      1.0  0.69853  0.68763  0.77438  1.0000
  C   C887      1.0  0.70336  0.67250  0.74682  1.0000
  C   C888      1.0  0.78061  0.00820  0.71179  1.0000
  H   H1073     1.0  0.71048  0.68895  0.79544  1.0000
  H   H1074     1.0  0.97190  0.78901  0.56077  1.0000
  C   C889      1.0  0.90443  0.77984  0.54510  1.0000
  C   C890      1.0  0.69894  0.85475  0.77711  1.0000
  C   C891      1.0  0.68137  0.83457  0.95673  1.0000
  C   C892      1.0  0.00515  0.76121  0.72868  1.0000
  C   C893      1.0  0.76697  0.92505  0.95571  1.0000
  C   C894      1.0  0.75191  0.90717  0.95726  1.0000
  C   C895      1.0  0.74473  0.89919  0.98997  1.0000
  H   H1075     1.0  0.77243  0.93151  0.93071  1.0000
  H   H1076     1.0  0.73309  0.88539  0.99143  1.0000
  H   H1077     1.0  0.73302  0.68420  0.60572  1.0000
  C   C896      1.0  0.72007  0.53541  0.86211  1.0000
  C   C897      1.0  0.71856  0.69273  0.59203  1.0000
  C   C898      1.0  0.69926  0.60505  0.78714  1.0000
  H   H1078     1.0  0.71188  0.55912  0.73658  1.0000
  H   H1079     1.0  0.70750  0.66178  0.63946  1.0000
  H   H1080     1.0  0.73039  0.69163  0.66245  1.0000
  C   C899      1.0  0.68370  0.86126  0.00564  1.0000
  H   H1081     1.0  0.71555  0.84863  0.91075  1.0000
  H   H1082     1.0  0.69094  0.65865  0.69934  1.0000
  C   C900      1.0  0.72590  0.54613  0.80194  1.0000
  H   H1083     1.0  0.73773  0.51434  0.82421  1.0000
  H   H1084     1.0  0.91563  0.67923  0.80333  1.0000
  H   H1085     1.0  0.73359  0.94501  0.73966  1.0000
  C   C901      1.0  0.86542  0.73014  0.54844  1.0000
  H   H1086     1.0  0.85796  0.71392  0.59739  1.0000
  N   N58       1.0  0.71262  0.58400  0.77815  1.0000
  C   C902      1.0  0.71452  0.56745  0.80717  1.0000
  N   N59       1.0  0.93118  0.70918  0.78252  1.0000
  C   C903      1.0  0.91274  0.69797  0.80216  1.0000
  C   C904      1.0  0.92472  0.73368  0.78002  1.0000
  C   C905      1.0  0.93205  0.69931  0.74701  1.0000
  C   C906      1.0  0.95385  0.70645  0.79867  1.0000
  C   C907      1.0  0.95797  0.69263  0.82854  1.0000
  C   C908      1.0  0.97278  0.71769  0.78421  1.0000
  C   C909      1.0  0.97967  0.69053  0.84303  1.0000
  C   C910      1.0  0.99434  0.71551  0.79896  1.0000
  C   C911      1.0  0.99779  0.70198  0.82832  1.0000
  H   H1087     1.0  0.91093  0.70480  0.82908  1.0000
  C   C912      1.0  0.68202  0.96349  0.67619  1.0000
  H   H1088     1.0  0.72820  0.92954  0.70061  1.0000
  H   H1089     1.0  0.92590  0.74222  0.80574  1.0000
  H   H1090     1.0  0.90704  0.73643  0.77054  1.0000
  H   H1091     1.0  0.93572  0.74293  0.76154  1.0000
  H   H1092     1.0  0.93633  0.68078  0.74787  1.0000
  H   H1093     1.0  0.91544  0.70161  0.73349  1.0000
  H   H1094     1.0  0.94509  0.70721  0.73018  1.0000
  H   H1095     1.0  0.94474  0.68328  0.84119  1.0000
  H   H1096     1.0  0.97107  0.72836  0.76134  1.0000
  C   C913      1.0  0.69585  0.96195  0.70635  1.0000
  H   H1097     1.0  0.00847  0.72443  0.78753  1.0000
  C   C914      1.0  0.85715  0.68822  0.51806  1.0000
  N   N60       1.0  0.82694  0.88911  0.91980  1.0000
  C   C915      1.0  0.84690  0.87472  0.90895  1.0000
  C   C916      1.0  0.80638  0.87869  0.90550  1.0000
  C   C917      1.0  0.82882  0.91184  0.90347  1.0000
  C   C918      1.0  0.82637  0.89136  0.95825  1.0000
  H   H1098     1.0  0.71734  0.80944  0.93576  1.0000
  H   H1099     1.0  0.73301  0.54151  0.77685  1.0000
  C   C919      1.0  0.72197  0.93278  0.72768  1.0000
  C   C920      1.0  0.69299  0.66913  0.62437  1.0000
  H   H1100     1.0  0.69438  0.88060  0.81631  1.0000
  H   H1101     1.0  0.84642  0.85765  0.92135  1.0000
  H   H1102     1.0  0.84745  0.87221  0.88012  1.0000
  H   H1103     1.0  0.86324  0.88236  0.91588  1.0000
  H   H1104     1.0  0.80418  0.86120  0.91561  1.0000
  H   H1105     1.0  0.80732  0.87724  0.87663  1.0000
  H   H1106     1.0  0.79078  0.88915  0.91152  1.0000
  H   H1107     1.0  0.84490  0.92011  0.90996  1.0000
  H   H1108     1.0  0.82853  0.91082  0.87445  1.0000
  H   H1109     1.0  0.81451  0.92343  0.91195  1.0000
  H   H1110     1.0  0.79330  0.87608  0.96849  1.0000
  H   H1111     1.0  0.78666  0.94841  0.98531  1.0000
  H   H1112     1.0  0.69862  0.82669  0.74118  1.0000
  H   H1113     1.0  0.99702  0.78954  0.80492  1.0000
  H   H1114     1.0  0.99613  0.75620  0.70566  1.0000
  H   H1115     1.0  0.94271  0.81129  0.52878  1.0000
  C   C921      1.0  0.70161  0.73329  0.70585  1.0000
  C   C922      1.0  0.85491  0.69110  0.55415  1.0000
  C   C923      1.0  0.77568  0.53359  0.74516  1.0000
  H   H1116     1.0  0.69846  0.86732  0.95614  1.0000
  C   C924      1.0  0.85933  0.71191  0.56935  1.0000
  H   H1117     1.0  0.84981  0.67703  0.57053  1.0000
  C   C925      1.0  0.75581  0.60762  0.52760  1.0000
  C   C926      1.0  0.68874  0.85532  0.97104  1.0000
  C   C927      1.0  0.77491  0.93469  0.98669  1.0000
  C   C928      1.0  0.68312  0.73653  0.68388  1.0000
  H   H1118     1.0  0.86885  0.74635  0.56031  1.0000
  H   H1119     1.0  0.77377  0.84012  0.75586  1.0000
  N   N61       1.0  0.69709  0.69265  0.61275  1.0000
  C   C929      1.0  0.71871  0.71735  0.69733  1.0000
  C   C930      1.0  0.97237  0.78938  0.53249  1.0000
  H   H1120     1.0  0.73252  0.71399  0.71530  1.0000
  H   H1121     1.0  0.69730  0.58789  0.84798  1.0000
  C   C931      1.0  0.68797  0.86511  0.80567  1.0000
  H   H1122     1.0  0.70192  0.83922  0.87232  1.0000
  N   N62       1.0  0.81661  0.77993  0.70692  1.0000
  C   C932      1.0  0.82070  0.79240  0.67392  1.0000
  C   C933      1.0  0.83637  0.78262  0.73003  1.0000
  C   C934      1.0  0.81559  0.75541  0.69826  1.0000
  C   C935      1.0  0.79575  0.78937  0.72413  1.0000
  C   C936      1.0  0.79430  0.81260  0.73395  1.0000
  C   C937      1.0  0.77631  0.77626  0.73105  1.0000
  C   C938      1.0  0.77456  0.82223  0.74903  1.0000
  C   C939      1.0  0.75664  0.78608  0.74628  1.0000
  C   C940      1.0  0.75573  0.80903  0.75506  1.0000
  H   H1123     1.0  0.82351  0.81073  0.67829  1.0000
  H   H1124     1.0  0.83623  0.78581  0.66002  1.0000
  H   H1125     1.0  0.80607  0.79118  0.65599  1.0000
  H   H1126     1.0  0.83991  0.80069  0.73514  1.0000
  H   H1127     1.0  0.85222  0.77511  0.71823  1.0000
  H   H1128     1.0  0.83372  0.77409  0.75559  1.0000
  H   H1129     1.0  0.83158  0.74899  0.68532  1.0000
  H   H1130     1.0  0.81359  0.74480  0.72211  1.0000
  H   H1131     1.0  0.80158  0.75204  0.67994  1.0000
  H   H1132     1.0  0.80843  0.82359  0.72978  1.0000
  H   H1133     1.0  0.77585  0.75842  0.72490  1.0000
  H   H1134     1.0  0.74193  0.77588  0.75120  1.0000
  C   C941      1.0  0.70677  0.00122  0.69487  1.0000
  H   H1135     1.0  0.68161  0.60126  0.79536  1.0000
  H   H1136     1.0  0.74041  0.81670  0.76652  1.0000
  C   C942      1.0  0.70806  0.98148  0.71506  1.0000
  C   C943      1.0  0.69876  0.70739  0.64379  1.0000
  H   H1137     1.0  0.68604  0.90698  0.73309  1.0000
  H   H1138     1.0  0.89593  0.70079  0.78931  1.0000
  C   C944      1.0  0.84450  0.90164  0.97579  1.0000
  H   H1139     1.0  0.69919  0.58579  0.72596  1.0000
  N   N63       1.0  0.68672  0.82744  0.92047  1.0000
  H   H1140     1.0  0.85901  0.90778  0.96156  1.0000
  C   C945      1.0  0.80809  0.88370  0.97930  1.0000
  C   C946      1.0  0.71731  0.70453  0.66688  1.0000
  C   C947      1.0  0.70156  0.57350  0.74782  1.0000
  H   H1141     1.0  0.74506  0.59789  0.78979  1.0000
  H   H1142     1.0  0.73487  0.60408  0.74689  1.0000
  C   C948      1.0  0.00577  0.78001  0.78450  1.0000
  H   H1143     1.0  0.70219  0.56001  0.89417  1.0000
  C   C949      1.0  0.69031  0.83471  0.76344  1.0000
  C   C950      1.0  0.72866  0.53041  0.82899  1.0000
  N   N64       1.0  0.69798  0.94120  0.72809  1.0000
  C   C951      1.0  0.70873  0.55616  0.86827  1.0000
  C   C952      1.0  0.70599  0.57207  0.84133  1.0000
  H   H1144     1.0  0.72410  0.91660  0.74249  1.0000
  H   H1145     1.0  0.68465  0.56697  0.75516  1.0000
  C   C953      1.0  0.68158  0.72383  0.65328  1.0000
  H   H1146     1.0  0.70644  0.80102  0.89422  1.0000
  H   H1147     1.0  0.68882  0.91669  0.68937  1.0000
  H   H1148     1.0  0.69072  0.93104  0.78111  1.0000
  H   H1149     1.0  0.70214  0.74242  0.73030  1.0000
  C   C954      1.0  0.68764  0.67070  0.72004  1.0000
  H   H1150     1.0  0.79365  0.51911  0.78916  1.0000
  H   H1151     1.0  0.00168  0.76699  0.52853  1.0000
  C   C955      1.0  0.69866  0.84485  0.89968  1.0000
  C   C956      1.0  0.69111  0.94657  0.76456  1.0000
  C   C957      1.0  0.68385  0.92232  0.71612  1.0000
  C   C958      1.0  0.69309  0.00221  0.66553  1.0000
  C   C959      1.0  0.68071  0.98341  0.65623  1.0000
  H   H1152     1.0  0.68006  0.71758  0.58026  1.0000
  C   C960      1.0  0.80798  0.88656  0.01548  1.0000
