data_image0
_chemical_formula_structural       FeS2FeS2FeHFeS3FeS2FeS2FeSFeS3FeS2H3FeSFeHS2C6H4C6H5C2H2C4H2CHC6H13C2HNC9H12CNH2NCSCHCHC5H3C2HCH2FeHCH3C4HCHSNCHC2SHC7HCH2C2HCH5CH3C3H3CH13CNFeS2FeS2FeHFeS3FeS2FeS2FeSFeS3FeS2H4CFeHS2C6H4C6H4C2HCHCHC2H4C6H4C2HCHC2HC3SNC2H6CNC5H10NC9H15C2HCHCHCSH5FeCHC4NC2H2SHNC4HFeH8CH3CHCH2CHCHC2H2CH3NHCH2CHC3H3C7H6C2HCFeS2FeS2FeNFeCS2FeSCFeSHFeSFeS3C7H3CH6C3H4CHC6H5C2HCSHSC4H2C2H11CSC3HCH2CH2NCHC2H2CH4CHCH3CH2CH4C3SNCH2NC8HC2H4C2H3CHCH5CHCHC5HNCHCH7CHC3HCH2CFeHSFeS2FeHFeHS2FeSCFeSCFeSFeS3HC6H5SH2C4NC3HCHC6H6CHCH4C2SCH2NH2C2HC3HCH2C2HCH2CHC2H4CHCH3CH3CNHC2HCHCH3CHCH2C2H3SC2H2C4HC2H5CHCHCH3CH2FeSHFeSHFeSFeSHSFeS2FeS2FeSHCSHFeSFeHSFeSFeS3C6H4C6H5C2H2CH4C9H2CHCHCSH4C2HCN2SCSCH3C2HCH3CNC9H15CSH12C2HC2NH2C4HCH3C3HC3H5C2HCHCSNCH6CH2CH3C3HC2H2C3H2CH4C2FeH2C2H3CHCSC2H3NHFeS2FeSHFeSFeS3FeS2FeSCFeSCS2HFeSHNSFeSFeS3C6H4C6H4NC3SHCH6C6H2CHC3H4CH4CH2FeC4H2CH4C2H8CFeCHC3HCHC2H4C2HC2H4CHCHC2H3CHCHN2C2HCSC3HC3H6CHC2HCH2NH2SH7C2HNCH3FeS2FeS2FeSFeS3CHSFeS2FeHFeHS2FeS2FeS2FeSFeHS2C2HC4H2C3HNHFeHCH3NC6H4C2H2C6H4C6H5CH4CHCH4C2H2CH3C6H2CHNH4CH2CH2C2H3CHC2HC2HC2HCH5C3HC2HNH4C2H4C2H6C2NSC2H2CH3CHCH3C2HSHCHC2H4C2FeC2HCHC3HC2SFeS2FeS2FeSFeS3HCNFeS2FeCFeS3FeS2FeS2FeSFeHS2HC3HCHCH2C4H8C6H8C6H4C6H6C2SCHC2H2C2SCHCNCHNHC10H2CH9CNC4HC2H13CH7C2H5CHC5H2CHCHSHCSCHSHCHCHC2HNH3CHCHFeS2FeS2FeSFeHS2FeS2FeS2FeSFeHS2HCH2CH3CH4C7H5CH4CHCH3NHCHC2SH3C6H2CH3C4NHC2HCH6CH2C3HC2HC2H4CHC4HCHC2HNSCHC2H2CHCH3CHCH2C2H3CH2CH3NC6HCH3CH2C3HSH2CH2C3HSHCFeS2FeS2FeHFeCS2FeS2FeS2FeCFeHS2HC2H2C5H3C7H5CH2CH4C2NHCHC5H3SC4SH2NCHC4HCH3CHCH8CH2NHCHCSC3SCHC2HCHSHCH2C3H7C3H5CH3C2HC3H2CH3NCH2NCH2C2H2NH3CHC2H6SC2HC5H2CHC4H2CSHFeS2FeS2FeSHS2CFeS2FeS2FeCFeCS2FeS2FeS2FeHFeS3C3H4CH2C2HCHC3H2SC8H4NCH2C6H4C6H4NCH3C2HCHCHCHCH5SCH5CHCH4CH4C2HC2H2C2H6C3HCNSHC3H2C3HCH3CHC2HN2CH5C2H3SH2CHCHC2HNC3H3SHCHC2H2CH3C2H5FeC2HFeS2FeS2FeSHS2CFeS2FeS2FeSFeHS2FeS2FeS2FeHFeS3CH2C2HC2SNH2CHCH2C2H3C7H5CHC7H4C6H5CH2CH6CH5C3H2CH2CH5C2H2C4H4CH3C4NC2NCHCSCH6FeSHC2H2CHC2HNC9H7CH2CSCHC2H3CH5C3H4C2FeS2FeCSFeSFeS3FeS2FeS2FeHFeHS2FeS2FeS2FeSFeHS2HC2HCHSC3HNHCHC7HCHC6H4C6H6CHCH3C2H2CHCHCHCH3NC4H2CHCHC2HCH6C2HC2H2CS2C2HCH2CHNCH9C2H2CH2NH3SHCHC2HC2H4CHCH3NC2H3NCHCHCH2CH2C2H4CHCHCH3CH2CH3C2H5CH2CFeS2NCSFeHFeS3FeS2FeS2FeCFeS3FeS2FeS2FeSFeCS2CH2C3H2C2HCH3C6H2CHC6H4C6H5C2H3C2H2C2HCNHCH3C2HCHCH6CH2CH3C2H2CHCH2CNC3HCHC2HCH5CHCH2FeH4CH2C3HCNCHCH5C2H2C2HSCSC2H6NH5CHC3H4CH2C5HCHCHCHCFeS2FeS2FeNFeHS2FeS2FeS2FeCFeHS2CH2CH2C6H5C6H2C4HNHNC5H2CHCHC4HSH3CHC3H4CH3NH2CHC2H2CH5C3HNCH2CH4C4NCH2CH6CH2CH3CH2CH2C3HCHC2H8CHC5HCSHCHCHCHCH3C2HCH2C3HCFeS2FeS2FeHFeCS2FeS2FeS2FeHFeHS2HSH2CHC6H4CHCH2C2HC5H3C6H3CH2NC9H14C2H2C2H3C3NH5CNHSHC2H2CHCH2CH6C4H2SHC2H3C2H2CHFeS2FeS2FeSFeS3FeS2CSH2FeSHSFeS2FeS2FeNFeHS2H2SCH3C2H2CHC6H4C6H4C6H5C2Fe2C4H2SCNC2HCH7CH3CSH2C4HNCHCH7CHC2NC9H14NC7H11CHCH3C2HCSC2H4C4H2C2H2CHC3H4CH2C2HCH4CSCHC2HCSH3FeS2FeS2FeSFeS3FeSHFeSHCFeSHSFeS2FeS2FeHFeHS2CH2SCH2CFeH2CHC6H4C6H4C6H4CNC2HNC3HCHNH3CH4CHCH4SC2H4CHCHC3H5CHCHCHC3H4CH3CHCNC7H10C3NH3CSH2CH3C2HCH2C2H5CHCHC2HC3H3C2H3NCHCNC2H3CH2C2HCH4CHCHC2FeS2FeS2CSFeSHSFeSCFeSHFeSFeS3FeS2FeS2FeHFeHS3CH3C3H3CH3SH2C6H4CHCHC8H3C6H3C3H4CH2CHC3H2SHCHSH5CH2C2HC3H2CHC2H6NCHC2HCH8CHC2H4CH2CH2C3H3FeH3SCH2NC2NCH3C2HCHC2NH4CH8C2HN2C3HC3HC2SC2HC2H6C3HNHCH2C4HCH3FeS2FeS2H2FeSHSFeSHFeS2FeSFeS3FeS2FeS2FeNFeHS2HCHC6H2C2H2C2HC6H4C3HC7H4C6H6CH2C4H3CH6C3H2CSHC2H4SH2C2H3SHCH8C3H2CHNCH7CFeC5HSC2HC2SCHC2SCNCH3NH2C2NH7C2HCH3C3H2CHCHC3HCH3FeS2FeSHFeSFeS3FeSHFeSHFeSFeS3C6H2CH2C2H2CHCNC2HC6H4C3H2CHC2HCH5C4H4NC6HC2H2CH10CSCHCH7C4H3CH2C2HCHSH5CHCH2CNC10H5CHCNCHCH2SC2SHC3H4S2CH2CFeSHFeS2FeSFeS3FeS2FeSHFeSFeS3C3HC2HCHCHC3H2CHCH2SC6H6C3HCHCHCH3CHC4H4NHC3H2CHSH4CH4CHC3SNC2NCHC3HCNHCHCHNH2C3H3C2H2C2H2CHCH2CHCH2CH2CHCHCHC2H4C4HCH3C6HC2HCH3C2H4CHCHNH2CSH2CSH6C2HC2HC2FeS2FeS2FeSFeS3FeS2FeS2FeSFeS3FeSH2SHFeSHS2H2CH5C6H4C6H5C6H4CNH3C3HFeC2H2CHC2HCH2C2H3C2H2C2NHSCH3C2HNC9H11C3NH4C2H2CHC3HCHC2H2FeCHNC9H15C3H4C2H2NC2NHC2H3CHCHC2HCH6CH4CHC2HCH4SC2HC2H2CHFeSHFeSHFeSFeS3FeS2FeS2FeSFeS3FeSHFeSHFeSCHSHSHC2HCHC6H4C6H5C6H4CHCHCH2CSCHCHCHSC2HCNC9H16CSCH5C2H3C2H6CNHC3SCHC2HNHCNH5CH5C2H3CHC2NCSC2HC2H2CHC2H5CH3FeSH3NC2H3C3HCH
_chemical_formula_sum              "Fe256 S512 H2304 C1920 N128"
_cell_length_a       74.746
_cell_length_b       74.8298
_cell_length_c       45.8658
_cell_angle_alpha    89.3742
_cell_angle_beta     89.4342
_cell_angle_gamma    87.764

_space_group_name_H-M_alt    "P 1"
_space_group_IT_number       1

loop_
  _space_group_symop_operation_xyz
  'x, y, z'

loop_
  _atom_site_type_symbol
  _atom_site_label
  _atom_site_symmetry_multiplicity
  _atom_site_fract_x
  _atom_site_fract_y
  _atom_site_fract_z
  _atom_site_occupancy
  Fe  Fe1       1.0  0.06178  0.10434  0.32987  1.0000
  S   S1        1.0  0.03354  0.11165  0.34404  1.0000
  S   S2        1.0  0.07637  0.12836  0.31153  1.0000
  Fe  Fe2       1.0  0.05557  0.06422  0.34040  1.0000
  S   S3        1.0  0.02725  0.06919  0.35571  1.0000
  S   S4        1.0  0.06539  0.03561  0.33197  1.0000
  Fe  Fe3       1.0  0.02538  0.08834  0.31762  1.0000
  H   H1        1.0  0.25402  0.29303  0.39337  1.0000
  Fe  Fe4       1.0  0.03827  0.09189  0.38065  1.0000
  S   S5        1.0  0.16622  0.24551  0.49913  1.0000
  S   S6        1.0  0.05307  0.08223  0.30083  1.0000
  S   S7        1.0  0.06711  0.08574  0.36808  1.0000
  Fe  Fe5       1.0  0.19816  0.20713  0.31533  1.0000
  S   S8        1.0  0.18242  0.23131  0.29922  1.0000
  S   S9        1.0  0.22736  0.21181  0.32400  1.0000
  Fe  Fe6       1.0  0.16455  0.18424  0.31766  1.0000
  S   S10       1.0  0.14676  0.20690  0.30137  1.0000
  S   S11       1.0  0.15463  0.15688  0.33077  1.0000
  Fe  Fe7       1.0  0.16920  0.21228  0.26956  1.0000
  S   S12       1.0  0.16834  0.21312  0.22009  1.0000
  Fe  Fe8       1.0  0.16197  0.22350  0.33295  1.0000
  S   S13       1.0  0.14836  0.24349  0.36364  1.0000
  S   S14       1.0  0.18616  0.18835  0.28398  1.0000
  S   S15       1.0  0.17852  0.20049  0.35087  1.0000
  Fe  Fe9       1.0  0.16326  0.28568  0.09457  1.0000
  S   S16       1.0  0.17920  0.30983  0.08415  1.0000
  S   S17       1.0  0.15579  0.28345  0.14261  1.0000
  H   H2        1.0  0.19541  0.27750  0.15622  1.0000
  H   H3        1.0  0.04643  0.03590  0.38765  1.0000
  H   H4        1.0  0.03739  0.01132  0.42060  1.0000
  Fe  Fe10      1.0  0.19505  0.29198  0.05341  1.0000
  S   S18       1.0  0.22506  0.28595  0.05600  1.0000
  Fe  Fe11      1.0  0.15971  0.31459  0.04753  1.0000
  H   H5        1.0  0.17568  0.13400  0.24031  1.0000
  S   S19       1.0  0.18017  0.26749  0.06614  1.0000
  S   S20       1.0  0.14293  0.29145  0.05945  1.0000
  C   C1        1.0  0.15969  0.26382  0.16381  1.0000
  C   C2        1.0  0.15733  0.26461  0.19423  1.0000
  C   C3        1.0  0.16018  0.24925  0.21184  1.0000
  C   C4        1.0  0.16522  0.23292  0.19907  1.0000
  C   C5        1.0  0.16776  0.23216  0.16870  1.0000
  C   C6        1.0  0.16510  0.24756  0.15113  1.0000
  H   H6        1.0  0.15318  0.27716  0.20420  1.0000
  H   H7        1.0  0.15816  0.25000  0.23520  1.0000
  H   H8        1.0  0.17172  0.21959  0.15865  1.0000
  H   H9        1.0  0.16703  0.24681  0.12776  1.0000
  C   C7        1.0  0.15390  0.24408  0.40111  1.0000
  C   C8        1.0  0.16391  0.23017  0.41457  1.0000
  C   C9        1.0  0.16743  0.23068  0.44463  1.0000
  C   C10       1.0  0.16131  0.24528  0.46146  1.0000
  C   C11       1.0  0.15147  0.25930  0.44800  1.0000
  C   C12       1.0  0.14766  0.25861  0.41802  1.0000
  H   H10       1.0  0.16882  0.21891  0.40200  1.0000
  H   H11       1.0  0.17511  0.21981  0.45483  1.0000
  H   H12       1.0  0.14656  0.27056  0.46075  1.0000
  H   H13       1.0  0.13984  0.26940  0.40787  1.0000
  H   H14       1.0  0.14634  0.16990  0.27103  1.0000
  C   C13       1.0  0.04434  0.00817  0.40041  1.0000
  C   C14       1.0  0.02486  0.04241  0.27318  1.0000
  H   H15       1.0  0.18022  0.15734  0.23992  1.0000
  H   H16       1.0  0.11654  0.15131  0.22203  1.0000
  C   C15       1.0  0.11267  0.11380  0.26286  1.0000
  C   C16       1.0  0.01747  0.08944  0.45086  1.0000
  C   C17       1.0  0.23971  0.19252  0.27650  1.0000
  C   C18       1.0  0.24369  0.20468  0.29820  1.0000
  H   H17       1.0  0.15667  0.13859  0.19519  1.0000
  H   H18       1.0  0.22652  0.18715  0.27565  1.0000
  C   C19       1.0  0.13728  0.33102  0.14637  1.0000
  H   H19       1.0  0.03568  0.03457  0.26165  1.0000
  C   C20       1.0  0.13236  0.14976  0.32728  1.0000
  C   C21       1.0  0.11937  0.15991  0.31197  1.0000
  C   C22       1.0  0.10229  0.15318  0.30771  1.0000
  C   C23       1.0  0.09778  0.13645  0.31931  1.0000
  C   C24       1.0  0.11049  0.12662  0.33571  1.0000
  C   C25       1.0  0.12775  0.13320  0.33944  1.0000
  H   H20       1.0  0.12245  0.17286  0.30307  1.0000
  H   H21       1.0  0.09249  0.16091  0.29516  1.0000
  H   H22       1.0  0.10717  0.11376  0.34484  1.0000
  H   H23       1.0  0.13764  0.12528  0.35149  1.0000
  H   H24       1.0  0.13318  0.17415  0.23905  1.0000
  H   H25       1.0  0.15607  0.12172  0.27460  1.0000
  H   H26       1.0  0.13342  0.10089  0.28830  1.0000
  H   H27       1.0  0.15608  0.17987  0.23937  1.0000
  H   H28       1.0  0.09427  0.13001  0.23751  1.0000
  H   H29       1.0  0.21108  0.28347  0.47856  1.0000
  H   H30       1.0  0.22835  0.20690  0.18936  1.0000
  H   H31       1.0  0.03085  0.09375  0.24962  1.0000
  H   H32       1.0  0.03257  0.09552  0.19557  1.0000
  C   C26       1.0  0.05869  0.01830  0.35579  1.0000
  C   C27       1.0  0.04942  0.02214  0.38172  1.0000
  H   H33       1.0  0.10251  0.10475  0.27017  1.0000
  N   N1        1.0  0.12493  0.18721  0.40036  1.0000
  C   C28       1.0  0.12589  0.19695  0.37202  1.0000
  C   C29       1.0  0.12152  0.20068  0.42344  1.0000
  C   C30       1.0  0.14273  0.17822  0.40521  1.0000
  C   C31       1.0  0.11081  0.17382  0.40154  1.0000
  C   C32       1.0  0.10889  0.16269  0.42659  1.0000
  C   C33       1.0  0.09860  0.17147  0.37843  1.0000
  C   C34       1.0  0.09592  0.14971  0.42803  1.0000
  C   C35       1.0  0.08561  0.15851  0.38020  1.0000
  C   C36       1.0  0.08437  0.14755  0.40479  1.0000
  H   H34       1.0  0.11332  0.20490  0.36744  1.0000
  H   H35       1.0  0.13678  0.20671  0.37171  1.0000
  H   H36       1.0  0.12878  0.18757  0.35376  1.0000
  H   H37       1.0  0.10804  0.20737  0.42095  1.0000
  H   H38       1.0  0.13153  0.21135  0.42261  1.0000
  H   H39       1.0  0.12216  0.19469  0.44570  1.0000
  H   H40       1.0  0.14523  0.16717  0.38939  1.0000
  H   H41       1.0  0.15380  0.18766  0.40250  1.0000
  H   H42       1.0  0.14411  0.17239  0.42746  1.0000
  H   H43       1.0  0.11749  0.16387  0.44520  1.0000
  H   H44       1.0  0.09892  0.17923  0.35848  1.0000
  H   H45       1.0  0.09485  0.14115  0.44716  1.0000
  C   C37       1.0  0.21645  0.26320  0.13316  1.0000
  N   N2        1.0  0.22406  0.23189  0.21216  1.0000
  H   H46       1.0  0.16391  0.16129  0.19628  1.0000
  H   H47       1.0  0.01120  0.01100  0.32144  1.0000
  N   N3        1.0  0.01146  0.03049  0.28621  1.0000
  C   C38       1.0  0.25296  0.18699  0.25622  1.0000
  S   S21       1.0  0.03140  0.10118  0.42653  1.0000
  C   C39       1.0  0.01488  0.09585  0.47933  1.0000
  H   H48       1.0  0.03136  0.05043  0.29012  1.0000
  C   C40       1.0  0.21936  0.21324  0.20603  1.0000
  H   H49       1.0  0.14074  0.15719  0.19392  1.0000
  C   C41       1.0  0.20807  0.25700  0.18331  1.0000
  C   C42       1.0  0.17049  0.14736  0.24762  1.0000
  C   C43       1.0  0.13884  0.13850  0.24583  1.0000
  C   C44       1.0  0.21293  0.23812  0.23738  1.0000
  C   C45       1.0  0.23265  0.27585  0.44915  1.0000
  H   H50       1.0  0.24762  0.24592  0.22331  1.0000
  H   H51       1.0  0.03198  0.02389  0.47160  1.0000
  H   H52       1.0  0.12062  0.32623  0.07711  1.0000
  C   C46       1.0  0.12089  0.14029  0.23597  1.0000
  C   C47       1.0  0.14304  0.12386  0.26497  1.0000
  H   H53       1.0  0.21564  0.22983  0.25733  1.0000
  C   C48       1.0  0.20172  0.26874  0.44226  1.0000
  H   H54       1.0  0.01883  0.05223  0.25741  1.0000
  H   H55       1.0  0.24212  0.22871  0.15989  1.0000
  Fe  Fe12      1.0  0.16165  0.27571  0.02959  1.0000
  H   H56       1.0  0.19609  0.25375  0.40400  1.0000
  C   C49       1.0  0.01440  0.03438  0.01114  1.0000
  H   H57       1.0  0.13338  0.31815  0.15498  1.0000
  H   H58       1.0  0.22687  0.25204  0.38669  1.0000
  H   H59       1.0  0.24229  0.28222  0.46261  1.0000
  C   C50       1.0  0.24110  0.29331  0.03053  1.0000
  C   C51       1.0  0.01876  0.02147  0.05903  1.0000
  C   C52       1.0  0.20640  0.25993  0.41653  1.0000
  C   C53       1.0  0.23854  0.30929  0.01483  1.0000
  H   H60       1.0  0.01746  0.02259  0.08253  1.0000
  C   C54       1.0  0.02004  0.09249  0.20619  1.0000
  H   H61       1.0  0.01717  0.13068  0.23401  1.0000
  S   S22       1.0  0.20591  0.32109  0.49708  1.0000
  N   N4        1.0  0.15220  0.15156  0.23639  1.0000
  C   C55       1.0  0.02292  0.01678  0.48581  1.0000
  H   H62       1.0  0.23775  0.32499  0.46164  1.0000
  C   C56       1.0  0.22423  0.25910  0.40682  1.0000
  C   C57       1.0  0.22953  0.24945  0.13442  1.0000
  S   S23       1.0  0.17737  0.29919  0.01523  1.0000
  H   H63       1.0  0.07446  0.13732  0.40574  1.0000
  C   C58       1.0  0.22139  0.24294  0.18544  1.0000
  C   C59       1.0  0.01304  0.03577  0.04131  1.0000
  C   C60       1.0  0.23199  0.23942  0.16011  1.0000
  C   C61       1.0  0.10805  0.12811  0.24446  1.0000
  C   C62       1.0  0.13011  0.11169  0.27310  1.0000
  C   C63       1.0  0.00852  0.07432  0.44228  1.0000
  C   C64       1.0  0.14664  0.16961  0.24685  1.0000
  H   H64       1.0  0.19898  0.26040  0.20102  1.0000
  C   C65       1.0  0.15342  0.15213  0.20407  1.0000
  H   H65       1.0  0.17074  0.14771  0.27193  1.0000
  H   H66       1.0  0.16495  0.32274  0.14267  1.0000
  C   C66       1.0  0.23793  0.26720  0.42286  1.0000
  C   C67       1.0  0.21482  0.27661  0.45857  1.0000
  H   H67       1.0  0.20538  0.21278  0.19788  1.0000
  C   C68       1.0  0.02053  0.01996  0.30987  1.0000
  H   H68       1.0  0.10388  0.32321  0.01920  1.0000
  H   H69       1.0  0.07664  0.15664  0.36208  1.0000
  H   H70       1.0  0.21565  0.25217  0.24305  1.0000
  H   H71       1.0  0.23764  0.24649  0.11521  1.0000
  H   H72       1.0  0.18791  0.26950  0.44961  1.0000
  C   C69       1.0  0.20579  0.26698  0.15754  1.0000
  H   H73       1.0  0.22025  0.20463  0.22594  1.0000
  H   H74       1.0  0.21443  0.27082  0.11312  1.0000
  H   H75       1.0  0.25262  0.26380  0.36709  1.0000
  C   C70       1.0  0.11556  0.33940  0.07062  1.0000
  C   C71       1.0  0.24174  0.31864  0.48198  1.0000
  C   C72       1.0  0.01911  0.09145  0.23685  1.0000
  H   H76       1.0  0.24986  0.17743  0.23967  1.0000
  H   H77       1.0  0.02591  0.02882  0.32681  1.0000
  H   H78       1.0  0.19837  0.23710  0.23303  1.0000
  C   C73       1.0  0.24310  0.23201  0.22121  1.0000
  H   H79       1.0  0.02197  0.10737  0.48625  1.0000
  H   H80       1.0  0.24524  0.22522  0.24267  1.0000
  H   H81       1.0  0.25682  0.24306  0.38704  1.0000
  H   H82       1.0  0.01052  0.06918  0.42051  1.0000
  H   H83       1.0  0.22611  0.31708  0.01714  1.0000
  H   H84       1.0  0.09173  0.33825  0.09743  1.0000
  H   H85       1.0  0.14649  0.33343  0.46900  1.0000
  H   H86       1.0  0.00737  0.04794  0.05091  1.0000
  H   H87       1.0  0.25233  0.22484  0.20576  1.0000
  H   H88       1.0  0.16946  0.33589  0.46105  1.0000
  H   H89       1.0  0.03226  0.01187  0.30145  1.0000
  H   H90       1.0  0.10813  0.29343  0.02117  1.0000
  H   H91       1.0  0.13211  0.31285  0.00456  1.0000
  C   C74       1.0  0.15512  0.33362  0.13926  1.0000
  N   N5        1.0  0.25692  0.26690  0.41325  1.0000
  Fe  Fe13      1.0  0.05291  0.11411  0.82800  1.0000
  S   S24       1.0  0.02434  0.12062  0.84103  1.0000
  S   S25       1.0  0.06862  0.13681  0.80787  1.0000
  Fe  Fe14      1.0  0.04854  0.07430  0.84096  1.0000
  S   S26       1.0  0.01981  0.07795  0.85540  1.0000
  S   S27       1.0  0.06366  0.04778  0.83538  1.0000
  Fe  Fe15      1.0  0.01724  0.09624  0.81616  1.0000
  H   H92       1.0  0.02232  0.01835  0.97496  1.0000
  Fe  Fe16      1.0  0.02935  0.10195  0.87907  1.0000
  S   S28       1.0  0.02164  0.11283  0.92384  1.0000
  S   S29       1.0  0.04532  0.09103  0.80025  1.0000
  S   S30       1.0  0.05853  0.09690  0.86756  1.0000
  Fe  Fe17      1.0  0.19211  0.21371  0.80028  1.0000
  S   S31       1.0  0.17928  0.24057  0.78981  1.0000
  S   S32       1.0  0.22229  0.21338  0.80663  1.0000
  Fe  Fe18      1.0  0.15539  0.19710  0.81259  1.0000
  S   S33       1.0  0.14031  0.22318  0.80353  1.0000
  S   S34       1.0  0.14363  0.17175  0.83214  1.0000
  Fe  Fe19      1.0  0.15927  0.22540  0.76498  1.0000
  S   S35       1.0  0.14809  0.23339  0.72046  1.0000
  Fe  Fe20      1.0  0.16185  0.23601  0.82922  1.0000
  S   S36       1.0  0.15977  0.25959  0.86016  1.0000
  S   S37       1.0  0.17327  0.19845  0.77259  1.0000
  S   S38       1.0  0.17560  0.20994  0.84101  1.0000
  Fe  Fe21      1.0  0.17708  0.28675  0.58153  1.0000
  S   S39       1.0  0.17285  0.31540  0.56686  1.0000
  S   S40       1.0  0.18871  0.28014  0.62597  1.0000
  H   H93       1.0  0.19442  0.23999  0.93255  1.0000
  H   H94       1.0  0.03856  0.04620  0.88374  1.0000
  H   H95       1.0  0.23747  0.28572  0.95907  1.0000
  H   H96       1.0  0.20669  0.22862  0.85826  1.0000
  C   C75       1.0  0.01135  0.09199  0.73587  1.0000
  Fe  Fe22      1.0  0.14743  0.30599  0.54728  1.0000
  H   H97       1.0  0.08426  0.33549  0.55113  1.0000
  S   S41       1.0  0.19244  0.27866  0.54120  1.0000
  S   S42       1.0  0.15093  0.27774  0.56469  1.0000
  C   C76       1.0  0.17703  0.26760  0.65239  1.0000
  C   C77       1.0  0.18471  0.26439  0.67987  1.0000
  C   C78       1.0  0.17589  0.25417  0.70117  1.0000
  C   C79       1.0  0.15933  0.24704  0.69507  1.0000
  C   C80       1.0  0.15161  0.25037  0.66763  1.0000
  C   C81       1.0  0.16042  0.26058  0.64636  1.0000
  H   H98       1.0  0.19758  0.26973  0.68471  1.0000
  H   H99       1.0  0.18200  0.25162  0.72218  1.0000
  H   H100      1.0  0.13886  0.24477  0.66273  1.0000
  H   H101      1.0  0.15446  0.26274  0.62521  1.0000
  C   C82       1.0  0.15882  0.25745  0.89857  1.0000
  C   C83       1.0  0.16373  0.27189  0.91567  1.0000
  C   C84       1.0  0.16247  0.27103  0.94627  1.0000
  C   C85       1.0  0.15572  0.25590  0.96005  1.0000
  C   C86       1.0  0.15103  0.24136  0.94295  1.0000
  C   C87       1.0  0.15279  0.24202  0.91234  1.0000
  H   H102      1.0  0.16857  0.28382  0.90517  1.0000
  H   H103      1.0  0.16653  0.28217  0.95905  1.0000
  H   H104      1.0  0.14584  0.22958  0.95340  1.0000
  H   H105      1.0  0.14898  0.23081  0.89938  1.0000
  C   C88       1.0  0.14385  0.12994  0.78769  1.0000
  C   C89       1.0  0.21078  0.26372  0.86541  1.0000
  H   H106      1.0  0.07258  0.00988  0.83445  1.0000
  C   C90       1.0  0.20546  0.23371  0.88093  1.0000
  H   H107      1.0  0.11476  0.29732  0.60556  1.0000
  C   C91       1.0  0.01703  0.02453  0.82169  1.0000
  H   H108      1.0  0.15657  0.11320  0.82020  1.0000
  C   C92       1.0  0.23452  0.20063  0.75313  1.0000
  C   C93       1.0  0.23848  0.20967  0.77865  1.0000
  H   H109      1.0  0.14174  0.29400  0.98604  1.0000
  H   H110      1.0  0.22124  0.19573  0.75025  1.0000
  H   H111      1.0  0.09385  0.28347  0.99507  1.0000
  H   H112      1.0  0.13387  0.09056  0.81943  1.0000
  C   C94       1.0  0.12258  0.16246  0.82536  1.0000
  C   C95       1.0  0.11740  0.14761  0.84206  1.0000
  C   C96       1.0  0.10097  0.13955  0.83714  1.0000
  C   C97       1.0  0.08949  0.14633  0.81541  1.0000
  C   C98       1.0  0.09469  0.16116  0.79869  1.0000
  C   C99       1.0  0.11112  0.16922  0.80363  1.0000
  H   H113      1.0  0.12625  0.14224  0.85879  1.0000
  H   H114      1.0  0.09739  0.12805  0.85001  1.0000
  H   H115      1.0  0.08596  0.16648  0.78176  1.0000
  H   H116      1.0  0.11496  0.18059  0.79055  1.0000
  C   C100      1.0  0.03108  0.00710  0.78332  1.0000
  C   C101      1.0  0.20618  0.22285  0.62145  1.0000
  H   H117      1.0  0.10427  0.29132  0.63996  1.0000
  C   C102      1.0  0.14534  0.11478  0.80548  1.0000
  H   H118      1.0  0.23058  0.23956  0.58657  1.0000
  C   C103      1.0  0.13033  0.30263  0.67401  1.0000
  C   C104      1.0  0.09779  0.32633  0.99841  1.0000
  H   H119      1.0  0.02336  0.09240  0.74866  1.0000
  C   C105      1.0  0.25216  0.30292  0.53489  1.0000
  C   C106      1.0  0.05622  0.02979  0.85698  1.0000
  C   C107      1.0  0.04361  0.03277  0.87926  1.0000
  S   S43       1.0  0.15169  0.25513  0.99816  1.0000
  N   N6        1.0  0.20429  0.22833  0.59044  1.0000
  C   C108      1.0  0.18578  0.23443  0.58253  1.0000
  C   C109      1.0  0.21619  0.24329  0.58370  1.0000
  H   H120      1.0  0.23594  0.23707  0.85457  1.0000
  H   H121      1.0  0.18483  0.23875  0.55922  1.0000
  H   H122      1.0  0.17612  0.22358  0.58539  1.0000
  H   H123      1.0  0.18111  0.24611  0.59580  1.0000
  H   H124      1.0  0.21297  0.25491  0.59806  1.0000
  H   H125      1.0  0.21478  0.24798  0.56069  1.0000
  C   C110      1.0  0.08191  0.33639  0.94564  1.0000
  N   N7        1.0  0.10335  0.09026  0.78644  1.0000
  C   C111      1.0  0.08888  0.09399  0.76494  1.0000
  C   C112      1.0  0.11172  0.07248  0.77951  1.0000
  C   C113      1.0  0.09485  0.08927  0.81571  1.0000
  C   C114      1.0  0.11714  0.10398  0.78638  1.0000
  C   C115      1.0  0.11595  0.11972  0.76869  1.0000
  H   H126      1.0  0.09432  0.09489  0.74232  1.0000
  H   H127      1.0  0.07896  0.08325  0.76507  1.0000
  H   H128      1.0  0.08116  0.10665  0.76998  1.0000
  H   H129      1.0  0.11898  0.07285  0.75820  1.0000
  H   H130      1.0  0.10155  0.06200  0.77834  1.0000
  H   H131      1.0  0.12141  0.06769  0.79635  1.0000
  H   H132      1.0  0.08840  0.10240  0.82165  1.0000
  H   H133      1.0  0.08435  0.07909  0.81663  1.0000
  H   H134      1.0  0.10457  0.08549  0.83308  1.0000
  H   H135      1.0  0.10470  0.12287  0.75473  1.0000
  N   N8        1.0  0.05853  0.15796  0.89614  1.0000
  C   C116      1.0  0.06511  0.13903  0.89621  1.0000
  C   C117      1.0  0.05246  0.16268  0.92608  1.0000
  C   C118      1.0  0.04260  0.15930  0.87698  1.0000
  C   C119      1.0  0.07315  0.16962  0.88673  1.0000
  C   C120      1.0  0.08919  0.16997  0.90306  1.0000
  C   C121      1.0  0.07213  0.18068  0.86131  1.0000
  C   C122      1.0  0.10332  0.18062  0.89440  1.0000
  C   C123      1.0  0.08627  0.19143  0.85309  1.0000
  C   C124      1.0  0.10184  0.19134  0.86950  1.0000
  H   H136      1.0  0.05446  0.12989  0.90345  1.0000
  H   H137      1.0  0.06953  0.13495  0.87396  1.0000
  H   H138      1.0  0.07658  0.13646  0.91107  1.0000
  H   H139      1.0  0.06316  0.16025  0.94245  1.0000
  H   H140      1.0  0.04104  0.15448  0.93336  1.0000
  H   H141      1.0  0.04803  0.17704  0.92724  1.0000
  H   H142      1.0  0.04604  0.15508  0.85428  1.0000
  H   H143      1.0  0.03188  0.15037  0.88473  1.0000
  H   H144      1.0  0.03661  0.17314  0.87630  1.0000
  H   H145      1.0  0.09111  0.16174  0.92235  1.0000
  H   H146      1.0  0.06079  0.18093  0.84690  1.0000
  H   H147      1.0  0.11569  0.18027  0.90659  1.0000
  H   H148      1.0  0.08547  0.19937  0.83319  1.0000
  H   H149      1.0  0.11306  0.19913  0.86232  1.0000
  H   H150      1.0  0.23517  0.21765  0.61918  1.0000
  C   C125      1.0  0.20433  0.24966  0.93718  1.0000
  C   C126      1.0  0.23554  0.24319  0.87669  1.0000
  H   H151      1.0  0.22372  0.20856  0.57434  1.0000
  C   C127      1.0  0.06280  0.01227  0.85166  1.0000
  H   H152      1.0  0.17780  0.22549  0.63462  1.0000
  C   C128      1.0  0.19135  0.22196  0.64101  1.0000
  H   H153      1.0  0.18217  0.21603  0.68473  1.0000
  C   C129      1.0  0.22543  0.21247  0.66189  1.0000
  S   S44       1.0  0.16021  0.29920  0.50380  1.0000
  H   H154      1.0  0.13750  0.31478  0.96665  1.0000
  H   H155      1.0  0.21962  0.27531  0.86576  1.0000
  H   H156      1.0  0.23167  0.27316  0.63833  1.0000
  H   H157      1.0  0.15262  0.32020  0.63927  1.0000
  H   H158      1.0  0.19702  0.26870  0.87150  1.0000
  Fe  Fe23      1.0  0.16589  0.27191  0.52281  1.0000
  C   C130      1.0  0.22844  0.26908  0.92437  1.0000
  H   H159      1.0  0.20763  0.21637  0.54802  1.0000
  C   C131      1.0  0.24798  0.19731  0.73189  1.0000
  C   C132      1.0  0.03752  0.01835  0.89593  1.0000
  C   C133      1.0  0.09343  0.32120  0.94696  1.0000
  C   C134      1.0  0.24555  0.25341  0.66488  1.0000
  N   N9        1.0  0.11406  0.29976  0.97590  1.0000
  C   C135      1.0  0.02779  0.02352  0.79678  1.0000
  C   C136      1.0  0.25242  0.31560  0.99697  1.0000
  H   H160      1.0  0.09261  0.31768  0.61966  1.0000
  H   H161      1.0  0.02570  0.08904  0.69509  1.0000
  S   S45       1.0  0.11938  0.31890  0.55112  1.0000
  H   H162      1.0  0.13770  0.28938  0.67469  1.0000
  N   N10       1.0  0.12656  0.30863  0.64364  1.0000
  C   C137      1.0  0.11724  0.29405  0.62900  1.0000
  C   C138      1.0  0.14379  0.31092  0.62802  1.0000
  C   C139      1.0  0.02167  0.01878  0.99852  1.0000
  C   C140      1.0  0.11619  0.32592  0.64377  1.0000
  H   H163      1.0  0.22406  0.30428  0.54629  1.0000
  Fe  Fe24      1.0  0.18599  0.30633  0.52485  1.0000
  H   H164      1.0  0.12200  0.29718  0.93059  1.0000
  H   H165      1.0  0.10267  0.28459  0.94136  1.0000
  H   H166      1.0  0.03393  0.03545  0.78838  1.0000
  H   H167      1.0  0.17347  0.33956  0.51522  1.0000
  H   H168      1.0  0.24497  0.18985  0.71263  1.0000
  H   H169      1.0  0.12534  0.28124  0.62940  1.0000
  H   H170      1.0  0.24113  0.23297  0.89226  1.0000
  H   H171      1.0  0.15168  0.29805  0.62608  1.0000
  C   C141      1.0  0.23395  0.30691  0.52958  1.0000
  H   H172      1.0  0.23378  0.25049  0.67787  1.0000
  H   H173      1.0  0.25613  0.29726  0.55572  1.0000
  H   H174      1.0  0.09578  0.31414  0.92680  1.0000
  C   C142      1.0  0.20947  0.21298  0.57157  1.0000
  H   H175      1.0  0.20116  0.20129  0.57670  1.0000
  C   C143      1.0  0.22826  0.27559  0.95287  1.0000
  H   H176      1.0  0.24485  0.25437  0.87546  1.0000
  H   H177      1.0  0.19104  0.23750  0.88408  1.0000
  C   C144      1.0  0.11582  0.28932  0.94855  1.0000
  H   H178      1.0  0.13881  0.31200  0.68579  1.0000
  C   C145      1.0  0.13211  0.30560  0.98357  1.0000
  H   H179      1.0  0.11769  0.30134  0.68679  1.0000
  C   C146      1.0  0.13223  0.10195  0.80489  1.0000
  C   C147      1.0  0.21665  0.25571  0.91572  1.0000
  H   H180      1.0  0.19459  0.25164  0.98154  1.0000
  H   H181      1.0  0.14138  0.31634  0.60563  1.0000
  C   C148      1.0  0.12923  0.13238  0.76932  1.0000
  H   H182      1.0  0.12786  0.14453  0.75629  1.0000
  H   H183      1.0  0.21026  0.25910  0.84239  1.0000
  H   H184      1.0  0.15373  0.14016  0.78886  1.0000
  N   N11       1.0  0.21704  0.24911  0.88535  1.0000
  H   H185      1.0  0.25057  0.32823  0.98548  1.0000
  C   C149      1.0  0.22328  0.21770  0.63274  1.0000
  H   H186      1.0  0.21229  0.20808  0.70318  1.0000
  H   H187      1.0  0.02772  0.02082  0.91306  1.0000
  C   C150      1.0  0.09907  0.32832  0.63068  1.0000
  H   H188      1.0  0.23866  0.20880  0.67014  1.0000
  C   C151      1.0  0.10166  0.31563  0.97358  1.0000
  C   C152      1.0  0.19365  0.21654  0.67006  1.0000
  C   C153      1.0  0.21064  0.21199  0.68054  1.0000
  H   H189      1.0  0.12468  0.27712  0.95146  1.0000
  H   H190      1.0  0.01485  0.03731  0.83239  1.0000
  H   H191      1.0  0.20916  0.22230  0.89570  1.0000
  C   C154      1.0  0.20421  0.25633  0.96558  1.0000
  C   C155      1.0  0.01177  0.02632  0.50503  1.0000
  C   C156      1.0  0.01264  0.09012  0.70546  1.0000
  C   C157      1.0  0.21618  0.26920  0.97343  1.0000
  C   C158      1.0  0.00976  0.00911  0.83366  1.0000
  C   C159      1.0  0.24442  0.26617  0.64255  1.0000
  C   C160      1.0  0.00955  0.10010  0.94965  1.0000
  H   H192      1.0  0.21596  0.27433  0.99544  1.0000
  H   H193      1.0  0.01082  0.12007  0.98301  1.0000
  H   H194      1.0  0.23780  0.27475  0.90909  1.0000
  H   H195      1.0  0.01224  0.04076  0.50591  1.0000
  H   H196      1.0  0.00975  0.04551  0.99750  1.0000
  H   H197      1.0  0.14975  0.33855  0.52100  1.0000
  C   C161      1.0  0.25597  0.21536  0.78272  1.0000
  C   C162      1.0  0.10779  0.28744  0.99913  1.0000
  H   H198      1.0  0.11645  0.27497  0.00052  1.0000
  C   C163      1.0  0.22868  0.31504  0.50330  1.0000
  Fe  Fe25      1.0  0.06108  0.44027  0.07691  1.0000
  S   S46       1.0  0.03217  0.44564  0.08745  1.0000
  S   S47       1.0  0.08079  0.46175  0.06732  1.0000
  Fe  Fe26      1.0  0.05891  0.39975  0.08554  1.0000
  S   S48       1.0  0.02940  0.40232  0.09713  1.0000
  S   S49       1.0  0.07251  0.37197  0.09160  1.0000
  Fe  Fe27      1.0  0.02751  0.42177  0.05912  1.0000
  N   N12       1.0  0.04714  0.37069  0.17534  1.0000
  Fe  Fe28      1.0  0.03646  0.42586  0.12418  1.0000
  C   C164      1.0  0.03774  0.38606  0.22279  1.0000
  S   S50       1.0  0.05646  0.41769  0.04581  1.0000
  S   S51       1.0  0.06596  0.42202  0.11527  1.0000
  Fe  Fe29      1.0  0.04502  0.56859  0.19985  1.0000
  S   S52       1.0  0.07381  0.57187  0.18700  1.0000
  C   C165      1.0  0.01514  0.40422  0.48692  1.0000
  Fe  Fe30      1.0  0.03149  0.57763  0.13861  1.0000
  S   S53       1.0  0.05916  0.58179  0.12099  1.0000
  H   H199      1.0  0.14663  0.59050  0.14762  1.0000
  Fe  Fe31      1.0  0.06691  0.55691  0.14652  1.0000
  S   S54       1.0  0.08768  0.53644  0.13056  1.0000
  Fe  Fe32      1.0  0.06400  0.59652  0.16273  1.0000
  S   S55       1.0  0.07711  0.62362  0.15923  1.0000
  S   S56       1.0  0.03903  0.55164  0.16120  1.0000
  S   S57       1.0  0.03544  0.59434  0.17854  1.0000
  C   C166      1.0  0.12405  0.35972  0.49212  1.0000
  C   C167      1.0  0.09660  0.63173  0.17580  1.0000
  C   C168      1.0  0.10749  0.62115  0.19433  1.0000
  C   C169      1.0  0.12316  0.62808  0.20602  1.0000
  C   C170      1.0  0.12809  0.64565  0.19945  1.0000
  C   C171      1.0  0.11701  0.65633  0.18140  1.0000
  C   C172      1.0  0.10139  0.64938  0.16967  1.0000
  H   H200      1.0  0.10388  0.60764  0.19968  1.0000
  H   H201      1.0  0.09549  0.36299  0.49838  1.0000
  H   H202      1.0  0.09306  0.65770  0.15542  1.0000
  C   C173      1.0  0.10114  0.66503  0.25986  1.0000
  H   H203      1.0  0.03302  0.49476  0.14573  1.0000
  H   H204      1.0  0.13882  0.57197  0.11090  1.0000
  H   H205      1.0  0.18597  0.35900  0.47818  1.0000
  H   H206      1.0  0.07710  0.65020  0.33079  1.0000
  H   H207      1.0  0.02518  0.46025  0.40931  1.0000
  H   H208      1.0  0.06879  0.35600  0.15375  1.0000
  C   C174      1.0  0.09266  0.36364  0.07489  1.0000
  C   C175      1.0  0.10240  0.37382  0.05500  1.0000
  C   C176      1.0  0.11860  0.36678  0.04296  1.0000
  H   H209      1.0  0.03184  0.57510  0.01615  1.0000
  H   H210      1.0  0.17664  0.37687  0.49917  1.0000
  H   H211      1.0  0.05298  0.51486  0.17137  1.0000
  H   H212      1.0  0.09744  0.38710  0.04885  1.0000
  C   C177      1.0  0.17364  0.36777  0.48097  1.0000
  H   H213      1.0  0.09199  0.60656  0.10505  1.0000
  C   C178      1.0  0.08135  0.48221  0.08627  1.0000
  C   C179      1.0  0.09814  0.48885  0.09224  1.0000
  C   C180      1.0  0.09960  0.50536  0.10591  1.0000
  C   C181      1.0  0.08432  0.51576  0.11339  1.0000
  C   C182      1.0  0.06735  0.50936  0.10720  1.0000
  C   C183      1.0  0.06588  0.49253  0.09370  1.0000
  H   H214      1.0  0.11014  0.48120  0.08612  1.0000
  H   H215      1.0  0.11274  0.51019  0.11040  1.0000
  H   H216      1.0  0.05547  0.51744  0.11242  1.0000
  H   H217      1.0  0.05286  0.48775  0.08829  1.0000
  H   H218      1.0  0.11978  0.57743  0.15421  1.0000
  C   C184      1.0  0.14075  0.36809  0.48969  1.0000
  C   C185      1.0  0.14947  0.63516  0.13833  1.0000
  H   H219      1.0  0.06262  0.38703  0.14621  1.0000
  C   C186      1.0  0.05587  0.47295  0.19998  1.0000
  S   S58       1.0  0.14823  0.65364  0.21392  1.0000
  H   H220      1.0  0.07072  0.49844  0.16805  1.0000
  S   S59       1.0  0.14636  0.34174  0.03637  1.0000
  C   C187      1.0  0.12453  0.34482  0.14198  1.0000
  C   C188      1.0  0.13861  0.39498  0.10557  1.0000
  C   C189      1.0  0.10815  0.38823  0.49826  1.0000
  C   C190      1.0  0.05921  0.50285  0.18223  1.0000
  H   H221      1.0  0.01223  0.34438  0.24796  1.0000
  H   H222      1.0  0.13433  0.58391  0.07739  1.0000
  C   C191      1.0  0.02880  0.51067  0.21903  1.0000
  C   C192      1.0  0.03793  0.37099  0.20410  1.0000
  H   H223      1.0  0.12427  0.41128  0.49865  1.0000
  H   H224      1.0  0.02771  0.40406  0.49845  1.0000
  H   H225      1.0  0.13126  0.65228  0.11401  1.0000
  H   H226      1.0  0.17189  0.37574  0.46050  1.0000
  H   H227      1.0  0.04743  0.46107  0.20177  1.0000
  H   H228      1.0  0.17429  0.35112  0.12193  1.0000
  H   H229      1.0  0.11239  0.62850  0.09930  1.0000
  H   H230      1.0  0.13157  0.61975  0.22011  1.0000
  H   H231      1.0  0.02290  0.37760  0.15226  1.0000
  H   H232      1.0  0.02047  0.44205  0.23013  1.0000
  H   H233      1.0  0.15237  0.39462  0.49098  1.0000
  C   C193      1.0  0.01942  0.37100  0.25850  1.0000
  S   S60       1.0  0.02973  0.43405  0.17088  1.0000
  C   C194      1.0  0.01961  0.57706  0.02871  1.0000
  C   C195      1.0  0.16253  0.37871  0.08143  1.0000
  C   C196      1.0  0.01868  0.56011  0.29535  1.0000
  H   H234      1.0  0.12324  0.34532  0.49238  1.0000
  C   C197      1.0  0.15357  0.61776  0.14783  1.0000
  H   H235      1.0  0.03303  0.57505  0.07022  1.0000
  H   H236      1.0  0.12061  0.66985  0.17607  1.0000
  C   C198      1.0  0.13475  0.63860  0.12048  1.0000
  H   H237      1.0  0.06031  0.47615  0.22236  1.0000
  H   H238      1.0  0.10764  0.66850  0.23953  1.0000
  N   N13       1.0  0.04616  0.48852  0.18638  1.0000
  C   C199      1.0  0.09439  0.66950  0.31109  1.0000
  H   H239      1.0  0.04577  0.39906  0.16653  1.0000
  C   C200      1.0  0.02867  0.35585  0.21416  1.0000
  C   C201      1.0  0.09920  0.34631  0.08224  1.0000
  H   H240      1.0  0.12598  0.37474  0.02749  1.0000
  H   H241      1.0  0.02282  0.54629  0.29929  1.0000
  C   C202      1.0  0.16028  0.34992  0.12733  1.0000
  H   H242      1.0  0.10616  0.60324  0.07309  1.0000
  H   H243      1.0  0.11989  0.56662  0.09001  1.0000
  H   H244      1.0  0.02339  0.59361  0.24547  1.0000
  H   H245      1.0  0.11060  0.34263  0.14712  1.0000
  C   C203      1.0  0.00770  0.56920  0.31598  1.0000
  H   H246      1.0  0.06790  0.46866  0.18693  1.0000
  C   C204      1.0  0.03407  0.36731  0.15206  1.0000
  H   H247      1.0  0.11881  0.37110  0.12655  1.0000
  H   H248      1.0  0.00871  0.45161  0.38521  1.0000
  H   H249      1.0  0.06504  0.50695  0.20327  1.0000
  C   C205      1.0  0.05579  0.38769  0.16785  1.0000
  H   H250      1.0  0.10055  0.57202  0.13405  1.0000
  H   H251      1.0  0.07110  0.35799  0.19266  1.0000
  C   C206      1.0  0.01419  0.42438  0.19511  1.0000
  H   H252      1.0  0.15731  0.64609  0.14576  1.0000
  H   H253      1.0  0.09363  0.58532  0.08770  1.0000
  H   H254      1.0  0.16470  0.61529  0.16251  1.0000
  H   H255      1.0  0.05573  0.34274  0.17774  1.0000
  C   C207      1.0  0.01677  0.48163  0.21042  1.0000
  C   C208      1.0  0.02869  0.38591  0.24962  1.0000
  C   C209      1.0  0.02032  0.57705  0.05940  1.0000
  S   S61       1.0  0.03757  0.55679  0.24390  1.0000
  N   N14       1.0  0.15765  0.35714  0.48745  1.0000
  C   C210      1.0  0.14762  0.36425  0.12220  1.0000
  H   H256      1.0  0.10109  0.59309  0.15223  1.0000
  H   H257      1.0  0.01323  0.44083  0.41929  1.0000
  N   N15       1.0  0.11681  0.59162  0.11292  1.0000
  C   C211      1.0  0.12798  0.57798  0.09712  1.0000
  C   C212      1.0  0.10930  0.58318  0.13950  1.0000
  C   C213      1.0  0.10154  0.59701  0.09382  1.0000
  C   C214      1.0  0.12788  0.60673  0.12124  1.0000
  C   C215      1.0  0.12398  0.62470  0.11215  1.0000
  C   C216      1.0  0.14303  0.60371  0.13935  1.0000
  C   C217      1.0  0.01202  0.48616  0.49464  1.0000
  C   C218      1.0  0.01949  0.35595  0.24090  1.0000
  H   H258      1.0  0.16727  0.39142  0.07179  1.0000
  C   C219      1.0  0.06128  0.35622  0.17493  1.0000
  C   C220      1.0  0.01501  0.40542  0.45627  1.0000
  H   H259      1.0  0.04406  0.39835  0.21697  1.0000
  H   H260      1.0  0.15324  0.37308  0.06552  1.0000
  H   H261      1.0  0.02833  0.39768  0.26324  1.0000
  H   H262      1.0  0.03097  0.47200  0.15772  1.0000
  C   C221      1.0  0.12950  0.36122  0.13005  1.0000
  C   C222      1.0  0.09058  0.65003  0.25999  1.0000
  H   H263      1.0  0.05158  0.47875  0.14302  1.0000
  H   H264      1.0  0.13171  0.39854  0.12645  1.0000
  H   H265      1.0  0.02754  0.40627  0.44440  1.0000
  C   C223      1.0  0.04011  0.48335  0.15704  1.0000
  H   H266      1.0  0.17060  0.40271  0.12267  1.0000
  C   C224      1.0  0.01185  0.45418  0.40847  1.0000
  H   H267      1.0  0.01194  0.37127  0.27891  1.0000
  H   H268      1.0  0.03850  0.52092  0.21624  1.0000
  H   H269      1.0  0.14339  0.40769  0.09593  1.0000
  H   H270      1.0  0.06621  0.39092  0.18390  1.0000
  H   H271      1.0  0.07376  0.63307  0.28549  1.0000
  C   C225      1.0  0.02428  0.56881  0.26971  1.0000
  H   H272      1.0  0.12854  0.39005  0.09015  1.0000
  C   C226      1.0  0.01895  0.58669  0.26490  1.0000
  H   H273      1.0  0.08911  0.64246  0.24015  1.0000
  C   C227      1.0  0.08194  0.64473  0.28550  1.0000
  C   C228      1.0  0.12427  0.39688  0.49619  1.0000
  C   C229      1.0  0.16640  0.38931  0.13033  1.0000
  C   C230      1.0  0.08385  0.65443  0.31099  1.0000
  C   C231      1.0  0.12541  0.34964  0.05099  1.0000
  H   H274      1.0  0.04045  0.36766  0.12997  1.0000
  N   N16       1.0  0.15352  0.38153  0.11009  1.0000
  C   C232      1.0  0.03053  0.49384  0.20492  1.0000
  H   H275      1.0  0.17886  0.38080  0.13254  1.0000
  C   C233      1.0  0.01243  0.43114  0.22352  1.0000
  H   H276      1.0  0.16040  0.39089  0.15252  1.0000
  H   H277      1.0  0.17436  0.36928  0.08261  1.0000
  H   H278      1.0  0.01710  0.46862  0.20036  1.0000
  H   H279      1.0  0.01360  0.52745  0.24905  1.0000
  H   H280      1.0  0.02829  0.34389  0.20125  1.0000
  H   H281      1.0  0.02811  0.35401  0.15426  1.0000
  H   H282      1.0  0.15293  0.35012  0.44285  1.0000
  C   C234      1.0  0.01444  0.51468  0.23800  1.0000
  H   H283      1.0  0.00955  0.48960  0.40465  1.0000
  C   C235      1.0  0.15651  0.34364  0.46407  1.0000
  C   C236      1.0  0.14039  0.38706  0.49187  1.0000
  C   C237      1.0  0.10802  0.36971  0.49592  1.0000
  H   H284      1.0  0.08359  0.34944  0.01615  1.0000
  C   C238      1.0  0.00785  0.59570  0.28534  1.0000
  H   H285      1.0  0.00748  0.55454  0.20626  1.0000
  H   H286      1.0  0.00737  0.49687  0.45239  1.0000
  C   C239      1.0  0.00717  0.48474  0.46536  1.0000
  Fe  Fe33      1.0  0.03696  0.44104  0.59601  1.0000
  H   H287      1.0  0.05899  0.55822  0.56172  1.0000
  S   S62       1.0  0.02681  0.46989  0.60003  1.0000
  Fe  Fe34      1.0  0.06180  0.40805  0.58413  1.0000
  S   S63       1.0  0.04035  0.38875  0.59476  1.0000
  S   S64       1.0  0.09088  0.39905  0.57509  1.0000
  Fe  Fe35      1.0  0.02242  0.40764  0.56838  1.0000
  H   H288      1.0  0.05320  0.55381  0.52470  1.0000
  Fe  Fe36      1.0  0.03390  0.40685  0.63265  1.0000
  H   H289      1.0  0.03950  0.55102  0.60145  1.0000
  S   S65       1.0  0.04422  0.42594  0.55499  1.0000
  S   S66       1.0  0.05642  0.42511  0.62390  1.0000
  Fe  Fe37      1.0  0.04109  0.58312  0.70681  1.0000
  S   S67       1.0  0.06948  0.57680  0.69257  1.0000
  C   C240      1.0  0.16070  0.34771  0.51557  1.0000
  Fe  Fe38      1.0  0.02976  0.59092  0.64408  1.0000
  S   S68       1.0  0.05739  0.58550  0.62578  1.0000
  C   C241      1.0  0.08990  0.34498  0.63062  1.0000
  Fe  Fe39      1.0  0.05786  0.56165  0.65594  1.0000
  S   S69       1.0  0.07093  0.53514  0.64233  1.0000
  Fe  Fe40      1.0  0.06698  0.60132  0.66404  1.0000
  S   S70       1.0  0.09265  0.61713  0.65963  1.0000
  S   S71       1.0  0.02973  0.56595  0.67217  1.0000
  S   S72       1.0  0.03904  0.60872  0.68035  1.0000
  H   H290      1.0  0.07702  0.34663  0.62003  1.0000
  C   C242      1.0  0.10117  0.63688  0.67482  1.0000
  C   C243      1.0  0.11958  0.63995  0.67180  1.0000
  C   C244      1.0  0.12697  0.65557  0.68279  1.0000
  C   C245      1.0  0.01931  0.54169  0.53734  1.0000
  C   C246      1.0  0.08626  0.34146  0.99685  1.0000
  C   C247      1.0  0.09020  0.64968  0.68904  1.0000
  H   H291      1.0  0.12819  0.63019  0.66071  1.0000
  H   H292      1.0  0.01590  0.47234  0.53576  1.0000
  H   H293      1.0  0.07598  0.64776  0.69100  1.0000
  H   H294      1.0  0.04175  0.42982  0.71049  1.0000
  H   H295      1.0  0.06178  0.47200  0.67874  1.0000
  S   S73       1.0  0.03746  0.57839  0.75566  1.0000
  H   H296      1.0  0.04964  0.52144  0.53772  1.0000
  H   H297      1.0  0.04377  0.61213  0.83913  1.0000
  C   C248      1.0  0.01908  0.58532  0.77806  1.0000
  C   C249      1.0  0.04505  0.52633  0.55947  1.0000
  C   C250      1.0  0.09848  0.37647  0.57010  1.0000
  C   C251      1.0  0.08676  0.36315  0.56277  1.0000
  N   N17       1.0  0.03262  0.45749  0.70579  1.0000
  C   C252      1.0  0.04685  0.44359  0.71198  1.0000
  C   C253      1.0  0.02011  0.60116  0.53168  1.0000
  C   C254      1.0  0.11688  0.37193  0.57246  1.0000
  H   H298      1.0  0.07261  0.36645  0.56069  1.0000
  C   C255      1.0  0.12341  0.34120  0.65669  1.0000
  H   H299      1.0  0.12603  0.38215  0.57818  1.0000
  C   C256      1.0  0.03941  0.48696  0.61473  1.0000
  C   C257      1.0  0.05809  0.48641  0.61298  1.0000
  C   C258      1.0  0.06760  0.50122  0.62192  1.0000
  C   C259      1.0  0.05853  0.51650  0.63305  1.0000
  C   C260      1.0  0.03990  0.51669  0.63603  1.0000
  C   C261      1.0  0.03036  0.50204  0.62656  1.0000
  H   H300      1.0  0.06517  0.47488  0.60377  1.0000
  H   H301      1.0  0.08204  0.50095  0.61977  1.0000
  H   H302      1.0  0.03284  0.52822  0.64519  1.0000
  H   H303      1.0  0.01589  0.50249  0.62807  1.0000
  H   H304      1.0  0.01653  0.46610  0.66910  1.0000
  H   H305      1.0  0.03204  0.60475  0.51977  1.0000
  C   C262      1.0  0.03831  0.50543  0.73189  1.0000
  H   H306      1.0  0.01415  0.47454  0.99760  1.0000
  C   C263      1.0  0.04751  0.55718  0.54655  1.0000
  H   H307      1.0  0.09363  0.59035  0.73971  1.0000
  H   H308      1.0  0.16144  0.35735  0.53381  1.0000
  H   H309      1.0  0.05931  0.63494  0.86706  1.0000
  H   H310      1.0  0.04097  0.57075  0.54542  1.0000
  C   C264      1.0  0.11182  0.34111  0.55935  1.0000
  C   C265      1.0  0.05505  0.48083  0.69419  1.0000
  S   S74       1.0  0.01411  0.42372  0.60758  1.0000
  C   C266      1.0  0.11422  0.35785  0.65611  1.0000
  H   H311      1.0  0.05877  0.52334  0.71833  1.0000
  H   H312      1.0  0.05713  0.52749  0.57331  1.0000
  N   N18       1.0  0.03479  0.54364  0.55685  1.0000
  H   H313      1.0  0.05820  0.44401  0.69619  1.0000
  H   H314      1.0  0.01953  0.53914  0.59646  1.0000
  C   C267      1.0  0.06438  0.63092  0.84579  1.0000
  C   C268      1.0  0.06197  0.49775  0.69772  1.0000
  H   H315      1.0  0.02728  0.40321  0.99059  1.0000
  C   C269      1.0  0.12350  0.35430  0.56747  1.0000
  C   C270      1.0  0.09758  0.66534  0.69993  1.0000
  C   C271      1.0  0.07956  0.63862  0.83404  1.0000
  H   H316      1.0  0.01954  0.48577  0.74161  1.0000
  C   C272      1.0  0.02035  0.60043  0.56237  1.0000
  H   H317      1.0  0.02055  0.45482  0.74854  1.0000
  H   H318      1.0  0.08626  0.64869  0.84628  1.0000
  C   C273      1.0  0.05567  0.61807  0.83010  1.0000
  C   C274      1.0  0.09752  0.35975  0.64300  1.0000
  H   H319      1.0  0.09743  0.59093  0.77838  1.0000
  C   C275      1.0  0.05353  0.51009  0.71627  1.0000
  H   H320      1.0  0.05756  0.61161  0.74317  1.0000
  H   H321      1.0  0.14113  0.65767  0.68025  1.0000
  C   C276      1.0  0.08781  0.59496  0.76092  1.0000
  H   H322      1.0  0.13760  0.35098  0.56984  1.0000
  C   C277      1.0  0.10066  0.62325  0.75103  1.0000
  C   C278      1.0  0.01463  0.40571  0.97974  1.0000
  H   H323      1.0  0.02539  0.56278  0.50526  1.0000
  H   H324      1.0  0.10518  0.61848  0.72911  1.0000
  H   H325      1.0  0.06946  0.35830  0.96941  1.0000
  H   H326      1.0  0.07552  0.58727  0.76439  1.0000
  C   C279      1.0  0.03961  0.47555  0.70985  1.0000
  H   H327      1.0  0.05232  0.44511  0.73427  1.0000
  C   C280      1.0  0.09342  0.34560  0.55729  1.0000
  H   H328      1.0  0.07455  0.61551  0.71658  1.0000
  H   H329      1.0  0.03710  0.51570  0.56977  1.0000
  H   H330      1.0  0.11195  0.62023  0.76616  1.0000
  C   C281      1.0  0.08614  0.63350  0.80657  1.0000
  H   H331      1.0  0.01650  0.47569  0.95817  1.0000
  H   H332      1.0  0.05485  0.60291  0.79135  1.0000
  H   H333      1.0  0.01509  0.50361  0.98058  1.0000
  C   C282      1.0  0.06998  0.61900  0.73905  1.0000
  N   N19       1.0  0.08404  0.61459  0.76084  1.0000
  H   H334      1.0  0.09788  0.64011  0.79874  1.0000
  C   C283      1.0  0.06215  0.61285  0.80269  1.0000
  C   C284      1.0  0.01709  0.45370  0.72508  1.0000
  H   H335      1.0  0.09859  0.63803  0.74885  1.0000
  C   C285      1.0  0.01946  0.58095  0.80797  1.0000
  H   H336      1.0  0.03237  0.60352  0.57394  1.0000
  C   C286      1.0  0.02825  0.54913  0.58617  1.0000
  H   H337      1.0  0.03102  0.57371  0.81686  1.0000
  H   H338      1.0  0.06622  0.63354  0.73911  1.0000
  H   H339      1.0  0.03812  0.45685  0.65938  1.0000
  C   C287      1.0  0.01230  0.40364  0.70140  1.0000
  H   H340      1.0  0.09058  0.37275  0.64196  1.0000
  C   C288      1.0  0.07762  0.62033  0.79006  1.0000
  H   H341      1.0  0.02026  0.56198  0.58502  1.0000
  H   H342      1.0  0.07377  0.50153  0.68549  1.0000
  C   C289      1.0  0.11599  0.66843  0.69683  1.0000
  C   C290      1.0  0.03136  0.48844  0.72885  1.0000
  H   H343      1.0  0.02264  0.39137  0.94073  1.0000
  H   H344      1.0  0.02395  0.39179  0.74022  1.0000
  H   H345      1.0  0.09153  0.64377  0.60568  1.0000
  S   S75       1.0  0.03050  0.39664  0.67896  1.0000
  C   C291      1.0  0.01251  0.39917  0.73123  1.0000
  C   C292      1.0  0.00818  0.47068  0.97654  1.0000
  H   H346      1.0  0.12014  0.36943  0.66553  1.0000
  H   H347      1.0  0.02116  0.44231  0.67131  1.0000
  C   C293      1.0  0.02684  0.45561  0.67517  1.0000
  C   C294      1.0  0.09956  0.65548  0.60758  1.0000
  C   C295      1.0  0.11668  0.65552  0.59539  1.0000
  C   C296      1.0  0.01198  0.39905  0.95145  1.0000
  H   H348      1.0  0.07986  0.66985  0.63338  1.0000
  C   C297      1.0  0.09301  0.67021  0.62322  1.0000
  C   C298      1.0  0.07832  0.34648  0.97053  1.0000
  H   H349      1.0  0.01586  0.49892  0.50306  1.0000
  H   H350      1.0  0.00939  0.45576  0.97595  1.0000
  H   H351      1.0  0.14058  0.66962  0.58917  1.0000
  H   H352      1.0  0.01256  0.43986  0.72230  1.0000
  H   H353      1.0  0.12183  0.64385  0.58375  1.0000
  C   C299      1.0  0.12731  0.67032  0.59873  1.0000
  H   H354      1.0  0.03189  0.51509  0.74647  1.0000
  C   C300      1.0  0.01209  0.47122  0.51308  1.0000
  H   H355      1.0  0.00967  0.53583  0.98309  1.0000
  C   C301      1.0  0.01653  0.55236  0.51183  1.0000
  H   H356      1.0  0.13638  0.34045  0.66691  1.0000
  H   H357      1.0  0.00737  0.52041  0.56310  1.0000
  H   H358      1.0  0.00743  0.44309  0.51662  1.0000
  C   C302      1.0  0.00732  0.45477  0.50231  1.0000
  H   H359      1.0  0.07580  0.34046  0.92514  1.0000
  H   H360      1.0  0.09576  0.39583  0.50260  1.0000
  Fe  Fe41      1.0  0.03538  0.91169  0.37205  1.0000
  S   S76       1.0  0.06063  0.92545  0.38340  1.0000
  H   H361      1.0  0.09276  0.70832  0.26827  1.0000
  Fe  Fe42      1.0  0.02134  0.91277  0.43484  1.0000
  S   S77       1.0  0.04563  0.92615  0.45059  1.0000
  H   H362      1.0  0.11467  0.71675  0.26166  1.0000
  Fe  Fe43      1.0  0.04263  0.94350  0.41044  1.0000
  S   S78       1.0  0.04223  0.97335  0.41843  1.0000
  Fe  Fe44      1.0  0.06154  0.90668  0.42229  1.0000
  S   S79       1.0  0.08805  0.89432  0.43931  1.0000
  H   H363      1.0  0.21272  0.73332  0.40401  1.0000
  S   S80       1.0  0.03728  0.89189  0.40947  1.0000
  Fe  Fe45      1.0  0.15021  0.80108  0.43611  1.0000
  S   S81       1.0  0.14127  0.77439  0.45278  1.0000
  S   S82       1.0  0.12666  0.81779  0.41703  1.0000
  Fe  Fe46      1.0  0.18977  0.79017  0.44780  1.0000
  S   S83       1.0  0.18298  0.76331  0.46588  1.0000
  S   S84       1.0  0.21952  0.79314  0.44026  1.0000
  Fe  Fe47      1.0  0.16452  0.76230  0.42748  1.0000
  S   S85       1.0  0.16651  0.73704  0.40037  1.0000
  H   H364      1.0  0.23090  0.70592  0.12233  1.0000
  C   C303      1.0  0.23333  0.79718  0.47026  1.0000
  S   S86       1.0  0.17230  0.78847  0.40826  1.0000
  H   H365      1.0  0.10548  0.78332  0.07903  1.0000
  Fe  Fe48      1.0  0.19067  0.70545  0.19800  1.0000
  S   S87       1.0  0.17312  0.73042  0.19338  1.0000
  Fe  Fe49      1.0  0.16059  0.77808  0.48932  1.0000
  H   H366      1.0  0.21968  0.77064  0.03801  1.0000
  S   S88       1.0  0.13867  0.70518  0.20181  1.0000
  Fe  Fe50      1.0  0.15616  0.71408  0.16478  1.0000
  S   S89       1.0  0.14422  0.72151  0.12094  1.0000
  Fe  Fe51      1.0  0.15752  0.71920  0.23108  1.0000
  S   S90       1.0  0.14613  0.73789  0.26588  1.0000
  S   S91       1.0  0.17459  0.68970  0.16667  1.0000
  S   S92       1.0  0.17608  0.69520  0.23770  1.0000
  C   C304      1.0  0.16592  0.76779  0.06699  1.0000
  C   C305      1.0  0.15500  0.75543  0.05408  1.0000
  C   C306      1.0  0.14803  0.74150  0.07103  1.0000
  C   C307      1.0  0.15214  0.73975  0.10077  1.0000
  C   C308      1.0  0.16286  0.75225  0.11367  1.0000
  C   C309      1.0  0.16974  0.76621  0.09681  1.0000
  H   H367      1.0  0.15211  0.75646  0.03104  1.0000
  H   H368      1.0  0.13971  0.73183  0.06096  1.0000
  H   H369      1.0  0.16585  0.75116  0.13665  1.0000
  H   H370      1.0  0.17812  0.77582  0.10688  1.0000
  C   C310      1.0  0.16098  0.73753  0.36293  1.0000
  C   C311      1.0  0.15182  0.75227  0.35033  1.0000
  C   C312      1.0  0.14754  0.75221  0.32051  1.0000
  C   C313      1.0  0.15277  0.73767  0.30284  1.0000
  C   C314      1.0  0.16228  0.72308  0.31529  1.0000
  C   C315      1.0  0.16614  0.72292  0.34531  1.0000
  H   H371      1.0  0.14775  0.76359  0.36366  1.0000
  H   H372      1.0  0.14011  0.76352  0.31110  1.0000
  H   H373      1.0  0.16645  0.71181  0.30196  1.0000
  H   H374      1.0  0.17327  0.71148  0.35489  1.0000
  H   H375      1.0  0.13771  0.83509  0.06115  1.0000
  C   C316      1.0  0.23683  0.70445  0.21485  1.0000
  C   C317      1.0  0.23343  0.69302  0.23840  1.0000
  H   H376      1.0  0.22846  0.72806  0.32623  1.0000
  H   H377      1.0  0.13539  0.82967  0.02365  1.0000
  C   C318      1.0  0.08391  0.83747  0.48821  1.0000
  H   H378      1.0  0.09211  0.83251  0.40181  1.0000
  H   H379      1.0  0.01838  0.88963  0.27142  1.0000
  H   H380      1.0  0.07880  0.82827  0.47267  1.0000
  H   H381      1.0  0.20122  0.75467  0.40697  1.0000
  C   C319      1.0  0.02800  0.00406  0.01588  1.0000
  C   C320      1.0  0.24392  0.75481  0.04519  1.0000
  C   C321      1.0  0.22298  0.77217  0.36982  1.0000
  C   C322      1.0  0.09833  0.87276  0.43362  1.0000
  C   C323      1.0  0.11561  0.86901  0.44458  1.0000
  C   C324      1.0  0.12443  0.85220  0.44021  1.0000
  C   C325      1.0  0.11608  0.83898  0.42455  1.0000
  C   C326      1.0  0.09875  0.84269  0.41377  1.0000
  C   C327      1.0  0.08983  0.85936  0.41857  1.0000
  H   H382      1.0  0.12227  0.87920  0.45647  1.0000
  H   H383      1.0  0.13780  0.84964  0.44845  1.0000
  C   C328      1.0  0.24734  0.68772  0.25749  1.0000
  H   H384      1.0  0.07631  0.86174  0.41091  1.0000
  C   C329      1.0  0.04829  0.99023  0.39329  1.0000
  H   H385      1.0  0.13369  0.68020  0.25324  1.0000
  C   C330      1.0  0.22227  0.73195  0.07923  1.0000
  S   S93       1.0  0.16862  0.80543  0.47397  1.0000
  H   H386      1.0  0.06040  0.97255  0.36140  1.0000
  H   H387      1.0  0.18573  0.72754  0.07518  1.0000
  H   H388      1.0  0.10718  0.78890  0.48710  1.0000
  H   H389      1.0  0.12268  0.80331  0.00852  1.0000
  C   C331      1.0  0.21503  0.74767  0.06541  1.0000
  C   C332      1.0  0.14389  0.79782  0.12836  1.0000
  H   H390      1.0  0.19292  0.75637  0.35736  1.0000
  C   C333      1.0  0.05725  0.98632  0.36706  1.0000
  N   N20       1.0  0.11442  0.69129  0.28433  1.0000
  N   N21       1.0  0.21063  0.72050  0.09725  1.0000
  S   S94       1.0  0.03121  0.90046  0.32693  1.0000
  C   C334      1.0  0.24180  0.80340  0.02081  1.0000
  S   S95       1.0  0.01730  0.93115  0.39619  1.0000
  C   C335      1.0  0.19459  0.71574  0.08056  1.0000
  H   H391      1.0  0.06963  0.99728  0.32836  1.0000
  H   H392      1.0  0.11340  0.78747  0.03275  1.0000
  H   H393      1.0  0.22469  0.69534  0.08860  1.0000
  C   C336      1.0  0.20468  0.73045  0.12353  1.0000
  C   C337      1.0  0.11544  0.70065  0.31266  1.0000
  H   H394      1.0  0.22021  0.68788  0.24150  1.0000
  C   C338      1.0  0.11932  0.77887  0.11879  1.0000
  H   H395      1.0  0.22400  0.78738  0.09919  1.0000
  H   H396      1.0  0.13724  0.78896  0.03041  1.0000
  H   H397      1.0  0.18591  0.70659  0.09323  1.0000
  C   C339      1.0  0.21964  0.70350  0.10730  1.0000
  N   N22       1.0  0.09266  0.88807  0.33788  1.0000
  C   C340      1.0  0.08826  0.88343  0.30740  1.0000
  C   C341      1.0  0.10830  0.87644  0.34682  1.0000
  C   C342      1.0  0.07715  0.88378  0.35659  1.0000
  C   C343      1.0  0.09641  0.90723  0.34146  1.0000
  C   C344      1.0  0.09089  0.92059  0.32074  1.0000
  C   C345      1.0  0.10442  0.91328  0.36736  1.0000
  C   C346      1.0  0.09367  0.93871  0.32550  1.0000
  C   C347      1.0  0.10714  0.93142  0.37186  1.0000
  C   C348      1.0  0.10178  0.94411  0.35097  1.0000
  H   H398      1.0  0.09888  0.88763  0.29190  1.0000
  H   H399      1.0  0.08676  0.86878  0.30485  1.0000
  H   H400      1.0  0.07514  0.88965  0.30053  1.0000
  H   H401      1.0  0.12078  0.88058  0.33563  1.0000
  H   H402      1.0  0.10641  0.86210  0.34184  1.0000
  H   H403      1.0  0.11059  0.87658  0.37074  1.0000
  H   H404      1.0  0.06489  0.89150  0.34967  1.0000
  H   H405      1.0  0.07416  0.86934  0.35587  1.0000
  H   H406      1.0  0.07941  0.88730  0.37967  1.0000
  H   H407      1.0  0.08395  0.91745  0.30104  1.0000
  H   H408      1.0  0.10795  0.90418  0.38503  1.0000
  H   H409      1.0  0.08910  0.94871  0.30966  1.0000
  H   H410      1.0  0.11289  0.93569  0.39215  1.0000
  H   H411      1.0  0.10351  0.95821  0.35488  1.0000
  H   H412      1.0  0.10199  0.70557  0.32036  1.0000
  C   C349      1.0  0.14128  0.80651  0.10148  1.0000
  S   S96       1.0  0.22008  0.71042  0.18912  1.0000
  H   H413      1.0  0.25539  0.78131  0.45288  1.0000
  H   H414      1.0  0.13541  0.77689  0.15735  1.0000
  H   H415      1.0  0.15054  0.81675  0.09590  1.0000
  H   H416      1.0  0.12173  0.69186  0.32975  1.0000
  H   H417      1.0  0.22379  0.75228  0.41843  1.0000
  H   H418      1.0  0.21395  0.81401  0.49302  1.0000
  H   H419      1.0  0.23707  0.79901  0.04196  1.0000
  H   H420      1.0  0.19497  0.72283  0.13686  1.0000
  H   H421      1.0  0.22496  0.75675  0.17888  1.0000
  H   H422      1.0  0.20105  0.75164  0.06765  1.0000
  H   H423      1.0  0.09534  0.81087  0.05776  1.0000
  H   H424      1.0  0.10378  0.82722  0.03302  1.0000
  C   C350      1.0  0.12437  0.79696  0.03046  1.0000
  C   C351      1.0  0.21439  0.74799  0.40150  1.0000
  H   H425      1.0  0.23278  0.77658  0.38603  1.0000
  C   C352      1.0  0.13782  0.82371  0.04575  1.0000
  C   C353      1.0  0.23740  0.74277  0.36448  1.0000
  N   N23       1.0  0.22034  0.75264  0.37148  1.0000
  H   H426      1.0  0.19846  0.70910  0.05972  1.0000
  H   H427      1.0  0.24472  0.67851  0.27523  1.0000
  C   C354      1.0  0.24099  0.72831  0.07558  1.0000
  C   C355      1.0  0.10646  0.82010  0.05415  1.0000
  C   C356      1.0  0.22750  0.80837  0.49294  1.0000
  C   C357      1.0  0.13299  0.68599  0.27541  1.0000
  H   H428      1.0  0.03106  0.99143  0.46897  1.0000
  C   C358      1.0  0.22247  0.77250  0.13946  1.0000
  H   H429      1.0  0.10566  0.83024  0.07175  1.0000
  H   H430      1.0  0.21619  0.73305  0.13779  1.0000
  H   H431      1.0  0.21035  0.69513  0.12025  1.0000
  C   C359      1.0  0.07599  0.85473  0.48802  1.0000
  C   C360      1.0  0.04288  0.97404  0.02289  1.0000
  C   C361      1.0  0.00953  0.92710  0.06235  1.0000
  H   H432      1.0  0.15472  0.80153  0.14233  1.0000
  C   C362      1.0  0.02611  0.00577  0.04665  1.0000
  C   C363      1.0  0.12654  0.81608  0.50195  1.0000
  C   C364      1.0  0.25099  0.79013  0.47019  1.0000
  H   H433      1.0  0.20868  0.75236  0.32849  1.0000
  H   H434      1.0  0.03023  0.99521  0.06164  1.0000
  H   H435      1.0  0.14179  0.69766  0.27494  1.0000
  H   H436      1.0  0.24776  0.71681  0.08545  1.0000
  H   H437      1.0  0.19814  0.74356  0.11801  1.0000
  C   C365      1.0  0.06250  0.00034  0.34844  1.0000
  C   C366      1.0  0.02236  0.99815  0.48461  1.0000
  H   H438      1.0  0.20814  0.77493  0.14199  1.0000
  C   C367      1.0  0.12741  0.80164  0.08243  1.0000
  H   H439      1.0  0.15153  0.81729  0.04507  1.0000
  C   C368      1.0  0.25576  0.72186  0.33451  1.0000
  S   S97       1.0  0.17569  0.78505  0.04681  1.0000
  N   N24       1.0  0.12420  0.81052  0.05380  1.0000
  C   C369      1.0  0.25413  0.71089  0.21099  1.0000
  H   H440      1.0  0.03204  0.96871  0.03691  1.0000
  H   H441      1.0  0.01159  0.99283  0.28128  1.0000
  H   H442      1.0  0.24012  0.83655  0.43504  1.0000
  H   H443      1.0  0.25597  0.78255  0.09303  1.0000
  H   H444      1.0  0.21031  0.78000  0.37465  1.0000
  H   H445      1.0  0.10193  0.80742  0.46355  1.0000
  C   C370      1.0  0.23142  0.77951  0.11540  1.0000
  H   H446      1.0  0.12381  0.71265  0.31086  1.0000
  H   H447      1.0  0.20222  0.73431  0.35263  1.0000
  C   C371      1.0  0.11637  0.78770  0.09214  1.0000
  H   H448      1.0  0.10701  0.69893  0.24025  1.0000
  H   H449      1.0  0.05348  0.97936  0.03689  1.0000
  H   H450      1.0  0.22776  0.77621  0.34776  1.0000
  C   C372      1.0  0.20551  0.74870  0.35149  1.0000
  C   C373      1.0  0.23195  0.76235  0.16022  1.0000
  C   C374      1.0  0.23937  0.73082  0.34058  1.0000
  H   H451      1.0  0.25230  0.75382  0.40036  1.0000
  C   C375      1.0  0.24992  0.77655  0.11207  1.0000
  C   C376      1.0  0.25156  0.73962  0.05869  1.0000
  H   H452      1.0  0.11113  0.76782  0.12529  1.0000
  H   H453      1.0  0.04900  0.96217  0.01147  1.0000
  C   C377      1.0  0.13302  0.78395  0.13690  1.0000
  C   C378      1.0  0.22567  0.75880  0.04851  1.0000
  C   C379      1.0  0.10688  0.70434  0.26272  1.0000
  H   H454      1.0  0.21518  0.80723  0.00339  1.0000
  H   H455      1.0  0.01456  0.93639  0.32496  1.0000
  C   C380      1.0  0.25282  0.74507  0.38175  1.0000
  H   H456      1.0  0.25454  0.84845  0.47868  1.0000
  H   H457      1.0  0.01534  0.93962  0.06788  1.0000
  H   H458      1.0  0.08561  0.79992  0.49007  1.0000
  H   H459      1.0  0.25217  0.76359  0.03221  1.0000
  C   C381      1.0  0.25415  0.83329  0.43908  1.0000
  C   C382      1.0  0.25042  0.75921  0.15700  1.0000
  Fe  Fe52      1.0  0.15810  0.68176  0.20569  1.0000
  H   H460      1.0  0.09530  0.67635  0.33157  1.0000
  H   H461      1.0  0.03751  0.96388  0.48460  1.0000
  C   C383      1.0  0.10005  0.80226  0.48623  1.0000
  C   C384      1.0  0.10335  0.67529  0.28535  1.0000
  H   H462      1.0  0.06540  0.85826  0.47276  1.0000
  H   H463      1.0  0.13898  0.67574  0.29055  1.0000
  H   H464      1.0  0.12888  0.82280  0.48057  1.0000
  C   C385      1.0  0.01121  0.92948  0.30526  1.0000
  H   H465      1.0  0.01124  0.96842  0.45429  1.0000
  C   C386      1.0  0.01333  0.90318  0.27505  1.0000
  S   S98       1.0  0.02273  0.93360  0.00783  1.0000
  C   C387      1.0  0.01175  0.92035  0.03403  1.0000
  C   C388      1.0  0.01775  0.91195  0.30079  1.0000
  H   H466      1.0  0.13344  0.80266  0.50121  1.0000
  H   H467      1.0  0.25688  0.71963  0.19274  1.0000
  H   H468      1.0  0.25654  0.81678  0.40216  1.0000
  N   N25       1.0  0.01049  0.96868  0.50140  1.0000
  H   H469      1.0  0.25704  0.71277  0.31619  1.0000
  Fe  Fe53      1.0  0.02459  0.91854  0.89651  1.0000
  S   S99       1.0  0.04938  0.93187  0.88107  1.0000
  S   S100      1.0  0.17291  0.81988  0.98852  1.0000
  Fe  Fe54      1.0  0.03134  0.92678  0.96131  1.0000
  S   S101      1.0  0.05691  0.94012  0.94972  1.0000
  H   H470      1.0  0.13205  0.85005  0.87640  1.0000
  Fe  Fe55      1.0  0.04173  0.95351  0.91311  1.0000
  S   S102      1.0  0.03557  0.98347  0.91239  1.0000
  Fe  Fe56      1.0  0.06242  0.91707  0.91930  1.0000
  S   S103      1.0  0.09090  0.90505  0.91405  1.0000
  S   S104      1.0  0.01603  0.94104  0.92584  1.0000
  S   S105      1.0  0.03780  0.90261  0.93333  1.0000
  Fe  Fe57      1.0  0.15087  0.81578  0.95654  1.0000
  S   S106      1.0  0.14859  0.78660  0.96849  1.0000
  S   S107      1.0  0.12311  0.82963  0.96005  1.0000
  Fe  Fe58      1.0  0.19187  0.81126  0.95266  1.0000
  S   S108      1.0  0.19187  0.78230  0.96473  1.0000
  C   C389      1.0  0.12084  0.77974  0.83530  1.0000
  Fe  Fe59      1.0  0.16913  0.78137  0.93318  1.0000
  S   S109      1.0  0.16853  0.75760  0.90302  1.0000
  C   C390      1.0  0.12417  0.71592  0.63492  1.0000
  S   S110      1.0  0.15058  0.77488  0.53608  1.0000
  S   S111      1.0  0.17004  0.81006  0.91892  1.0000
  H   H471      1.0  0.12290  0.80398  0.90927  1.0000
  Fe  Fe60      1.0  0.19104  0.70225  0.73410  1.0000
  S   S112      1.0  0.19427  0.73025  0.71789  1.0000
  H   H472      1.0  0.21895  0.78648  0.91737  1.0000
  N   N26       1.0  0.23280  0.77177  0.57849  1.0000
  S   S113      1.0  0.15277  0.72959  0.69588  1.0000
  Fe  Fe61      1.0  0.17990  0.72148  0.67791  1.0000
  S   S114      1.0  0.19080  0.72646  0.63195  1.0000
  Fe  Fe62      1.0  0.16702  0.73567  0.73765  1.0000
  S   S115      1.0  0.16221  0.76087  0.76459  1.0000
  S   S116      1.0  0.17863  0.69265  0.69274  1.0000
  S   S117      1.0  0.16425  0.70801  0.75572  1.0000
  C   C391      1.0  0.16184  0.76117  0.56234  1.0000
  C   C392      1.0  0.17677  0.75025  0.55498  1.0000
  C   C393      1.0  0.18533  0.73949  0.57648  1.0000
  C   C394      1.0  0.17917  0.73968  0.60553  1.0000
  C   C395      1.0  0.16421  0.75056  0.61289  1.0000
  C   C396      1.0  0.15555  0.76120  0.59134  1.0000
  H   H473      1.0  0.18162  0.74997  0.53268  1.0000
  H   H474      1.0  0.19675  0.73094  0.57052  1.0000
  H   H475      1.0  0.15945  0.75097  0.63524  1.0000
  H   H476      1.0  0.14405  0.76966  0.59725  1.0000
  C   C397      1.0  0.16800  0.75909  0.86446  1.0000
  C   C398      1.0  0.16641  0.77550  0.84957  1.0000
  C   C399      1.0  0.16496  0.77591  0.81892  1.0000
  C   C400      1.0  0.16530  0.75997  0.80290  1.0000
  C   C401      1.0  0.16752  0.74364  0.81781  1.0000
  C   C402      1.0  0.16878  0.74322  0.84840  1.0000
  H   H477      1.0  0.16571  0.78782  0.86167  1.0000
  H   H478      1.0  0.16325  0.78860  0.80759  1.0000
  H   H479      1.0  0.16790  0.73128  0.80586  1.0000
  H   H480      1.0  0.17007  0.73046  0.85967  1.0000
  N   N27       1.0  0.13275  0.70093  0.61821  1.0000
  C   C403      1.0  0.25391  0.73325  0.83947  1.0000
  C   C404      1.0  0.02896  0.96073  0.50385  1.0000
  C   C405      1.0  0.05673  0.99778  0.86845  1.0000
  S   S118      1.0  0.21274  0.68982  0.76292  1.0000
  H   H481      1.0  0.03567  0.96555  0.52367  1.0000
  C   C406      1.0  0.25373  0.81563  0.96659  1.0000
  H   H482      1.0  0.11125  0.81412  0.55466  1.0000
  H   H483      1.0  0.24236  0.69478  0.80058  1.0000
  H   H484      1.0  0.07643  0.88130  0.50523  1.0000
  H   H485      1.0  0.22093  0.78254  0.85106  1.0000
  H   H486      1.0  0.11477  0.84368  0.54132  1.0000
  H   H487      1.0  0.03079  0.96929  0.85485  1.0000
  C   C407      1.0  0.09971  0.88430  0.92804  1.0000
  C   C408      1.0  0.11808  0.87993  0.92430  1.0000
  C   C409      1.0  0.12561  0.86348  0.93459  1.0000
  C   C410      1.0  0.11476  0.85111  0.94847  1.0000
  C   C411      1.0  0.09642  0.85549  0.95230  1.0000
  C   C412      1.0  0.08892  0.87198  0.94220  1.0000
  H   H488      1.0  0.12656  0.88940  0.91349  1.0000
  H   H489      1.0  0.13977  0.86040  0.93168  1.0000
  C   C413      1.0  0.12109  0.68556  0.61465  1.0000
  H   H490      1.0  0.07478  0.87514  0.94521  1.0000
  C   C414      1.0  0.10358  0.68501  0.62702  1.0000
  C   C415      1.0  0.10486  0.80641  0.53729  1.0000
  C   C416      1.0  0.01489  0.91012  0.54582  1.0000
  H   H491      1.0  0.22549  0.74448  0.92094  1.0000
  H   H492      1.0  0.06189  0.98433  0.86427  1.0000
  H   H493      1.0  0.12101  0.77271  0.81469  1.0000
  H   H494      1.0  0.21034  0.74146  0.89127  1.0000
  C   C417      1.0  0.24771  0.69310  0.77874  1.0000
  H   H495      1.0  0.14617  0.72015  0.59108  1.0000
  H   H496      1.0  0.01674  0.98851  0.96670  1.0000
  H   H497      1.0  0.23070  0.77759  0.53254  1.0000
  H   H498      1.0  0.13508  0.83085  0.89920  1.0000
  C   C418      1.0  0.02115  0.96287  0.84034  1.0000
  H   H499      1.0  0.10264  0.82730  0.90560  1.0000
  H   H500      1.0  0.15737  0.68478  0.62182  1.0000
  Fe  Fe63      1.0  0.17155  0.79056  0.99860  1.0000
  C   C419      1.0  0.01426  0.90906  0.51527  1.0000
  C   C420      1.0  0.23526  0.81440  0.97184  1.0000
  C   C421      1.0  0.01295  0.99211  0.82059  1.0000
  C   C422      1.0  0.24106  0.72054  0.64238  1.0000
  H   H501      1.0  0.02742  0.96720  0.97315  1.0000
  H   H502      1.0  0.20964  0.77860  0.55186  1.0000
  C   C423      1.0  0.09611  0.86355  0.52548  1.0000
  H   H503      1.0  0.14622  0.69833  0.57631  1.0000
  H   H504      1.0  0.21991  0.75757  0.54384  1.0000
  H   H505      1.0  0.01655  0.95068  0.85189  1.0000
  H   H506      1.0  0.23397  0.68649  0.70942  1.0000
  C   C424      1.0  0.24294  0.68840  0.72739  1.0000
  C   C425      1.0  0.11882  0.80792  0.86245  1.0000
  H   H507      1.0  0.20521  0.75798  0.91790  1.0000
  H   H508      1.0  0.08787  0.84602  0.96294  1.0000
  H   H509      1.0  0.09043  0.80545  0.54308  1.0000
  H   H510      1.0  0.14570  0.68895  0.65555  1.0000
  H   H511      1.0  0.23138  0.71520  0.62765  1.0000
  H   H512      1.0  0.13351  0.82362  0.51886  1.0000
  H   H513      1.0  0.10097  0.83173  0.82483  1.0000
  H   H514      1.0  0.10096  0.87381  0.53957  1.0000
  C   C426      1.0  0.21387  0.77308  0.86563  1.0000
  Fe  Fe64      1.0  0.15195  0.70113  0.71273  1.0000
  C   C427      1.0  0.12394  0.77012  0.86104  1.0000
  H   H515      1.0  0.20234  0.78056  0.87600  1.0000
  C   C428      1.0  0.13796  0.70812  0.58917  1.0000
  C   C429      1.0  0.22292  0.77133  0.55052  1.0000
  C   C430      1.0  0.02372  0.99162  0.79489  1.0000
  H   H516      1.0  0.15805  0.70627  0.63793  1.0000
  C   C431      1.0  0.05099  0.99259  0.98244  1.0000
  H   H517      1.0  0.11123  0.79267  0.53836  1.0000
  C   C432      1.0  0.24185  0.75602  0.87341  1.0000
  C   C433      1.0  0.08220  0.86778  0.50635  1.0000
  H   H518      1.0  0.24388  0.74020  0.55244  1.0000
  H   H519      1.0  0.23038  0.76066  0.62184  1.0000
  H   H520      1.0  0.11149  0.85125  0.83718  1.0000
  H   H521      1.0  0.05739  0.98056  0.97191  1.0000
  C   C434      1.0  0.01072  0.98845  0.50301  1.0000
  C   C435      1.0  0.25139  0.76446  0.57460  1.0000
  H   H522      1.0  0.06147  0.99944  0.99468  1.0000
  C   C436      1.0  0.01565  0.92757  0.78567  1.0000
  C   C437      1.0  0.10098  0.83255  0.88301  1.0000
  H   H523      1.0  0.04672  0.00152  0.96408  1.0000
  H   H524      1.0  0.12490  0.83401  0.81998  1.0000
  H   H525      1.0  0.24524  0.72882  0.71400  1.0000
  H   H526      1.0  0.12764  0.77154  0.90726  1.0000
  C   C438      1.0  0.01705  0.92166  0.81481  1.0000
  H   H527      1.0  0.22283  0.74653  0.59366  1.0000
  C   C439      1.0  0.11334  0.83645  0.83512  1.0000
  H   H528      1.0  0.11628  0.80491  0.81497  1.0000
  C   C440      1.0  0.22347  0.76071  0.60044  1.0000
  C   C441      1.0  0.23103  0.77957  0.90775  1.0000
  H   H529      1.0  0.02704  0.93335  0.77495  1.0000
  H   H530      1.0  0.14502  0.83086  0.86350  1.0000
  H   H531      1.0  0.02872  0.95819  0.82073  1.0000
  C   C442      1.0  0.21645  0.75164  0.90519  1.0000
  H   H532      1.0  0.21789  0.79618  0.58965  1.0000
  C   C443      1.0  0.13286  0.83515  0.87622  1.0000
  H   H533      1.0  0.08840  0.82717  0.87451  1.0000
  N   N28       1.0  0.11651  0.82765  0.86391  1.0000
  N   N29       1.0  0.10713  0.81468  0.50800  1.0000
  C   C444      1.0  0.23191  0.79058  0.58866  1.0000
  C   C445      1.0  0.11831  0.79836  0.83581  1.0000
  H   H534      1.0  0.25168  0.72289  0.82372  1.0000
  C   C446      1.0  0.23591  0.69113  0.75545  1.0000
  S   S119      1.0  0.12429  0.68875  0.71027  1.0000
  C   C447      1.0  0.09825  0.83273  0.50731  1.0000
  C   C448      1.0  0.12205  0.79766  0.88825  1.0000
  C   C449      1.0  0.23935  0.74248  0.85250  1.0000
  H   H535      1.0  0.20939  0.76570  0.60418  1.0000
  C   C450      1.0  0.04404  0.00084  0.89063  1.0000
  C   C451      1.0  0.23690  0.72198  0.67189  1.0000
  C   C452      1.0  0.12461  0.77907  0.88744  1.0000
  H   H536      1.0  0.09789  0.69561  0.64039  1.0000
  H   H537      1.0  0.22404  0.71763  0.67985  1.0000
  H   H538      1.0  0.12593  0.71202  0.57610  1.0000
  H   H539      1.0  0.02766  0.90872  0.55670  1.0000
  H   H540      1.0  0.23729  0.79178  0.61106  1.0000
  H   H541      1.0  0.13322  0.72732  0.63687  1.0000
  C   C453      1.0  0.24930  0.72856  0.69132  1.0000
  H   H542      1.0  0.12650  0.75576  0.86039  1.0000
  C   C454      1.0  0.14917  0.69495  0.63398  1.0000
  C   C455      1.0  0.02199  0.97945  0.98423  1.0000
  H   H543      1.0  0.02955  0.92263  0.82622  1.0000
  C   C456      1.0  0.10398  0.84628  0.52616  1.0000
  H   H544      1.0  0.12086  0.71171  0.65769  1.0000
  H   H545      1.0  0.09897  0.84734  0.88500  1.0000
  N   N30       1.0  0.22619  0.76503  0.88780  1.0000
  H   H546      1.0  0.23511  0.82216  0.53171  1.0000
  H   H547      1.0  0.23852  0.79014  0.89616  1.0000
  S   S120      1.0  0.21972  0.82092  0.94446  1.0000
  H   H548      1.0  0.23908  0.77443  0.92657  1.0000
  H   H549      1.0  0.11177  0.72126  0.62418  1.0000
  H   H550      1.0  0.20779  0.76290  0.85172  1.0000
  H   H551      1.0  0.22608  0.73871  0.84641  1.0000
  H   H552      1.0  0.23955  0.79940  0.57373  1.0000
  H   H553      1.0  0.02648  0.90684  0.50279  1.0000
  H   H554      1.0  0.02683  0.97915  0.78391  1.0000
  C   C457      1.0  0.23952  0.81300  0.51478  1.0000
  C   C458      1.0  0.22936  0.80809  0.99896  1.0000
  H   H555      1.0  0.08893  0.67526  0.71057  1.0000
  N   N31       1.0  0.03586  0.98779  0.00187  1.0000
  C   C459      1.0  0.25473  0.74779  0.56061  1.0000
  H   H556      1.0  0.02903  0.94585  0.50511  1.0000
  H   H557      1.0  0.01049  0.97545  0.99802  1.0000
  H   H558      1.0  0.03968  0.00631  0.76419  1.0000
  Fe  Fe65      1.0  0.33760  0.21539  0.18291  1.0000
  S   S121      1.0  0.33023  0.18716  0.19237  1.0000
  S   S122      1.0  0.33210  0.22196  0.13515  1.0000
  Fe  Fe66      1.0  0.34367  0.22192  0.24736  1.0000
  S   S123      1.0  0.33627  0.19423  0.26115  1.0000
  S   S124      1.0  0.35411  0.24181  0.27956  1.0000
  Fe  Fe67      1.0  0.35334  0.18493  0.22298  1.0000
  S   S125      1.0  0.36844  0.15806  0.23069  1.0000
  Fe  Fe68      1.0  0.31377  0.19828  0.22940  1.0000
  S   S126      1.0  0.28636  0.18637  0.23140  1.0000
  S   S127      1.0  0.36231  0.21247  0.21087  1.0000
  S   S128      1.0  0.31968  0.22677  0.21839  1.0000
  C   C460      1.0  0.48587  0.00833  0.23296  1.0000
  H   H559      1.0  0.27362  0.30045  0.07610  1.0000
  S   S129      1.0  0.35785  0.28711  0.05700  1.0000
  Fe  Fe69      1.0  0.32404  0.28026  0.43279  1.0000
  S   S130      1.0  0.32111  0.30891  0.44816  1.0000
  S   S131      1.0  0.31137  0.26827  0.39293  1.0000
  Fe  Fe70      1.0  0.34889  0.30355  0.46676  1.0000
  H   H560      1.0  0.46754  0.00710  0.19709  1.0000
  Fe  Fe71      1.0  0.31071  0.29692  0.49024  1.0000
  H   H561      1.0  0.42719  0.13311  0.24913  1.0000
  S   S132      1.0  0.35213  0.27548  0.44901  1.0000
  S   S133      1.0  0.31169  0.26905  0.47347  1.0000
  Fe  Fe72      1.0  0.44998  0.09554  0.16785  1.0000
  S   S134      1.0  0.47930  0.09662  0.17913  1.0000
  S   S135      1.0  0.43504  0.12250  0.16131  1.0000
  Fe  Fe73      1.0  0.45144  0.05454  0.16667  1.0000
  S   S136      1.0  0.48051  0.05308  0.17785  1.0000
  S   S137      1.0  0.43878  0.02752  0.16842  1.0000
  Fe  Fe74      1.0  0.47385  0.07423  0.21075  1.0000
  S   S138      1.0  0.48121  0.06796  0.25786  1.0000
  Fe  Fe75      1.0  0.48331  0.07533  0.14503  1.0000
  H   H562      1.0  0.47863  0.08706  0.07733  1.0000
  S   S139      1.0  0.44435  0.07455  0.20166  1.0000
  S   S140      1.0  0.45449  0.07549  0.13149  1.0000
  C   C461      1.0  0.47224  0.03803  0.01084  1.0000
  C   C462      1.0  0.43650  0.13338  0.26792  1.0000
  H   H563      1.0  0.38207  0.25271  0.00698  1.0000
  C   C463      1.0  0.43768  0.10130  0.26830  1.0000
  C   C464      1.0  0.34492  0.20577  0.44823  1.0000
  C   C465      1.0  0.36789  0.22656  0.43879  1.0000
  C   C466      1.0  0.49013  0.08350  0.06378  1.0000
  H   H564      1.0  0.32890  0.30722  0.12174  1.0000
  H   H565      1.0  0.26361  0.24422  0.44078  1.0000
  C   C467      1.0  0.28276  0.31162  0.07916  1.0000
  C   C468      1.0  0.32404  0.14915  0.15821  1.0000
  C   C469      1.0  0.36139  0.19866  0.34007  1.0000
  H   H566      1.0  0.37249  0.23826  0.42606  1.0000
  N   N32       1.0  0.30194  0.30559  0.07917  1.0000
  H   H567      1.0  0.40838  0.33538  0.47245  1.0000
  Fe  Fe76      1.0  0.34772  0.29402  0.01153  1.0000
  H   H568      1.0  0.43170  0.03213  0.10630  1.0000
  C   C470      1.0  0.32347  0.28442  0.14736  1.0000
  H   H569      1.0  0.36549  0.23631  0.37894  1.0000
  H   H570      1.0  0.50240  0.09991  0.24951  1.0000
  H   H571      1.0  0.31020  0.15320  0.16219  1.0000
  N   N33       1.0  0.44880  0.11733  0.26871  1.0000
  C   C471      1.0  0.38686  0.14844  0.21084  1.0000
  C   C472      1.0  0.39576  0.15784  0.18894  1.0000
  C   C473      1.0  0.41041  0.14965  0.17394  1.0000
  C   C474      1.0  0.41623  0.13195  0.18043  1.0000
  C   C475      1.0  0.40709  0.12242  0.20191  1.0000
  C   C476      1.0  0.39262  0.13069  0.21723  1.0000
  H   H572      1.0  0.39145  0.17146  0.18372  1.0000
  H   H573      1.0  0.41733  0.15710  0.15724  1.0000
  H   H574      1.0  0.41114  0.10867  0.20659  1.0000
  H   H575      1.0  0.38574  0.12325  0.23398  1.0000
  C   C477      1.0  0.27023  0.19367  0.25737  1.0000
  C   C478      1.0  0.27420  0.20594  0.27892  1.0000
  H   H576      1.0  0.28317  0.28140  0.00580  1.0000
  H   H577      1.0  0.28749  0.21114  0.27998  1.0000
  C   C479      1.0  0.34198  0.24895  0.31096  1.0000
  C   C480      1.0  0.32467  0.24337  0.31693  1.0000
  C   C481      1.0  0.31546  0.24941  0.34212  1.0000
  C   C482      1.0  0.32355  0.26085  0.36174  1.0000
  C   C483      1.0  0.34097  0.26620  0.35603  1.0000
  C   C484      1.0  0.35007  0.26037  0.33063  1.0000
  H   H578      1.0  0.31834  0.23453  0.30201  1.0000
  H   H579      1.0  0.30201  0.24516  0.34636  1.0000
  H   H580      1.0  0.34729  0.27511  0.37086  1.0000
  H   H581      1.0  0.36345  0.26476  0.32612  1.0000
  C   C485      1.0  0.33929  0.24041  0.11429  1.0000
  C   C486      1.0  0.35278  0.25134  0.12374  1.0000
  C   C487      1.0  0.35833  0.26559  0.10592  1.0000
  C   C488      1.0  0.35050  0.26898  0.07857  1.0000
  C   C489      1.0  0.33704  0.25800  0.06914  1.0000
  C   C490      1.0  0.33145  0.24383  0.08697  1.0000
  H   H582      1.0  0.35896  0.24879  0.14468  1.0000
  H   H583      1.0  0.36877  0.27401  0.11336  1.0000
  H   H584      1.0  0.33091  0.26036  0.04816  1.0000
  H   H585      1.0  0.32102  0.23540  0.07955  1.0000
  H   H586      1.0  0.29837  0.12925  0.18539  1.0000
  C   C491      1.0  0.30593  0.29569  0.05199  1.0000
  H   H587      1.0  0.49215  0.14437  0.32426  1.0000
  H   H588      1.0  0.34120  0.10691  0.21061  1.0000
  H   H589      1.0  0.47739  0.09219  0.02372  1.0000
  H   H590      1.0  0.32977  0.15429  0.22955  1.0000
  C   C492      1.0  0.31997  0.29631  0.12417  1.0000
  H   H591      1.0  0.34276  0.19885  0.08125  1.0000
  C   C493      1.0  0.47955  0.02067  0.05529  1.0000
  H   H592      1.0  0.36354  0.19388  0.31801  1.0000
  H   H593      1.0  0.37008  0.20352  0.10924  1.0000
  H   H594      1.0  0.26415  0.22072  0.31619  1.0000
  H   H595      1.0  0.30845  0.15522  0.21198  1.0000
  C   C494      1.0  0.33240  0.15630  0.13353  1.0000
  C   C495      1.0  0.33631  0.11891  0.22289  1.0000
  H   H596      1.0  0.49229  0.06079  0.31628  1.0000
  H   H597      1.0  0.27000  0.31733  0.47076  1.0000
  C   C496      1.0  0.35189  0.21285  0.04281  1.0000
  H   H598      1.0  0.49207  0.12071  0.36212  1.0000
  H   H599      1.0  0.48306  0.04725  0.09371  1.0000
  H   H600      1.0  0.34809  0.12606  0.23088  1.0000
  C   C497      1.0  0.31319  0.26945  0.15143  1.0000
  C   C498      1.0  0.47194  0.13252  0.29814  1.0000
  C   C499      1.0  0.31278  0.32184  0.07848  1.0000
  C   C500      1.0  0.35040  0.15214  0.12772  1.0000
  C   C501      1.0  0.35091  0.19395  0.38965  1.0000
  C   C502      1.0  0.48945  0.08639  0.03340  1.0000
  H   H601      1.0  0.32516  0.22898  0.41390  1.0000
  H   H602      1.0  0.35051  0.17420  0.35567  1.0000
  C   C503      1.0  0.36565  0.22291  0.02967  1.0000
  H   H603      1.0  0.33938  0.21064  0.03215  1.0000
  N   N34       1.0  0.32456  0.13089  0.20467  1.0000
  H   H604      1.0  0.36027  0.12500  0.18487  1.0000
  H   H605      1.0  0.30927  0.33072  0.05953  1.0000
  H   H606      1.0  0.48284  0.02252  0.23497  1.0000
  H   H607      1.0  0.39496  0.21991  0.08700  1.0000
  C   C504      1.0  0.26029  0.25737  0.38533  1.0000
  H   H608      1.0  0.42951  0.00993  0.06670  1.0000
  H   H609      1.0  0.29179  0.25429  0.13511  1.0000
  C   C505      1.0  0.50440  0.09476  0.27139  1.0000
  H   H610      1.0  0.44375  0.14599  0.26543  1.0000
  H   H611      1.0  0.45155  0.11617  0.22182  1.0000
  C   C506      1.0  0.46048  0.11801  0.29457  1.0000
  C   C507      1.0  0.38303  0.21778  0.07443  1.0000
  H   H612      1.0  0.27893  0.31833  0.09996  1.0000
  H   H613      1.0  0.26248  0.29312  0.42987  1.0000
  H   H614      1.0  0.35695  0.15795  0.10890  1.0000
  C   C508      1.0  0.48307  0.13350  0.32236  1.0000
  H   H615      1.0  0.31171  0.14157  0.24362  1.0000
  C   C509      1.0  0.31834  0.14610  0.22316  1.0000
  C   C510      1.0  0.50384  0.02709  0.27727  1.0000
  H   H616      1.0  0.48941  0.03032  0.28178  1.0000
  C   C511      1.0  0.36006  0.14068  0.14641  1.0000
  C   C512      1.0  0.35371  0.20576  0.07102  1.0000
  H   H617      1.0  0.32736  0.31835  0.07593  1.0000
  C   C513      1.0  0.48145  0.03369  0.10315  1.0000
  C   C514      1.0  0.35510  0.21167  0.39739  1.0000
  H   H618      1.0  0.30259  0.30397  0.03230  1.0000
  C   C515      1.0  0.36912  0.20841  0.08692  1.0000
  H   H619      1.0  0.34209  0.24507  0.41099  1.0000
  H   H620      1.0  0.34502  0.18476  0.40491  1.0000
  H   H621      1.0  0.33363  0.23912  0.44616  1.0000
  H   H622      1.0  0.34279  0.21176  0.47025  1.0000
  H   H623      1.0  0.32036  0.29172  0.05052  1.0000
  C   C516      1.0  0.33748  0.23366  0.42440  1.0000
  C   C517      1.0  0.46091  0.10455  0.31676  1.0000
  C   C518      1.0  0.38146  0.22477  0.04613  1.0000
  H   H624      1.0  0.46772  0.12929  0.23890  1.0000
  C   C519      1.0  0.48302  0.12020  0.34381  1.0000
  C   C520      1.0  0.35401  0.18765  0.36133  1.0000
  H   H625      1.0  0.27970  0.32116  0.06086  1.0000
  N   N35       1.0  0.35141  0.21910  0.42675  1.0000
  H   H626      1.0  0.36571  0.23149  0.46147  1.0000
  H   H627      1.0  0.35478  0.19436  0.45097  1.0000
  H   H628      1.0  0.37907  0.21629  0.43928  1.0000
  H   H629      1.0  0.27469  0.25749  0.37870  1.0000
  C   C521      1.0  0.45990  0.11708  0.24174  1.0000
  C   C522      1.0  0.36575  0.21599  0.34703  1.0000
  H   H630      1.0  0.33177  0.20062  0.44184  1.0000
  H   H631      1.0  0.31282  0.10967  0.18112  1.0000
  H   H632      1.0  0.31642  0.25991  0.16876  1.0000
  H   H633      1.0  0.42908  0.10118  0.24864  1.0000
  C   C523      1.0  0.25728  0.28330  0.02726  1.0000
  C   C524      1.0  0.36251  0.22252  0.37510  1.0000
  H   H634      1.0  0.37416  0.13763  0.14210  1.0000
  H   H635      1.0  0.37127  0.22459  0.33027  1.0000
  H   H636      1.0  0.29838  0.28325  0.05068  1.0000
  H   H637      1.0  0.48831  0.03345  0.12456  1.0000
  H   H638      1.0  0.46691  0.03234  0.10741  1.0000
  H   H639      1.0  0.39265  0.23190  0.03745  1.0000
  C   C525      1.0  0.50575  0.07624  0.07650  1.0000
  C   C526      1.0  0.50441  0.08221  0.01559  1.0000
  N   N36       1.0  0.48868  0.01935  0.08380  1.0000
  S   S141      1.0  0.37406  0.32004  0.47011  1.0000
  C   C527      1.0  0.48105  0.03622  0.03751  1.0000
  C   C528      1.0  0.35183  0.13348  0.17116  1.0000
  H   H640      1.0  0.42855  0.10081  0.28757  1.0000
  H   H641      1.0  0.30219  0.11461  0.21570  1.0000
  C   C529      1.0  0.47196  0.10579  0.34104  1.0000
  H   H642      1.0  0.42824  0.13436  0.28821  1.0000
  H   H643      1.0  0.45320  0.09269  0.31562  1.0000
  H   H644      1.0  0.47258  0.14308  0.28199  1.0000
  C   C530      1.0  0.30882  0.12066  0.19632  1.0000
  H   H645      1.0  0.44619  0.08872  0.26763  1.0000
  C   C531      1.0  0.33357  0.13772  0.17808  1.0000
  H   H646      1.0  0.48891  0.04721  0.04426  1.0000
  H   H647      1.0  0.33464  0.28645  0.16170  1.0000
  H   H648      1.0  0.46959  0.10540  0.24192  1.0000
  C   C532      1.0  0.29557  0.27818  0.10929  1.0000
  C   C533      1.0  0.43438  0.01806  0.11083  1.0000
  H   H649      1.0  0.32499  0.16551  0.11927  1.0000
  S   S142      1.0  0.49829  0.09418  0.48013  1.0000
  H   H650      1.0  0.32920  0.11404  0.24269  1.0000
  C   C534      1.0  0.45992  0.00897  0.01792  1.0000
  H   H651      1.0  0.47246  0.09518  0.35735  1.0000
  C   C535      1.0  0.49594  0.07930  0.28054  1.0000
  C   C536      1.0  0.30575  0.29361  0.10449  1.0000
  H   H652      1.0  0.31064  0.32988  0.09856  1.0000
  H   H653      1.0  0.26823  0.26544  0.45659  1.0000
  H   H654      1.0  0.28493  0.27489  0.09472  1.0000
  H   H655      1.0  0.27678  0.28586  0.40078  1.0000
  C   C537      1.0  0.43850  0.01236  0.13921  1.0000
  C   C538      1.0  0.27096  0.28941  0.00885  1.0000
  Fe  Fe77      1.0  0.33939  0.26659  0.49111  1.0000
  C   C539      1.0  0.29931  0.26631  0.13239  1.0000
  C   C540      1.0  0.25997  0.31420  0.48701  1.0000
  H   H656      1.0  0.28251  0.25656  0.42867  1.0000
  C   C541      1.0  0.26275  0.28552  0.40917  1.0000
  H   H657      1.0  0.35926  0.25744  0.01720  1.0000
  C   C542      1.0  0.26825  0.25789  0.43583  1.0000
  C   C543      1.0  0.26097  0.21134  0.29940  1.0000
  C   C544      1.0  0.38319  0.33818  0.45018  1.0000
  H   H658      1.0  0.25920  0.27075  0.03896  1.0000
  C   C545      1.0  0.49888  0.07265  0.30893  1.0000
  C   C546      1.0  0.46886  0.00695  0.04447  1.0000
  S   S143      1.0  0.33454  0.32104  0.00246  1.0000
  Fe  Fe78      1.0  0.34021  0.22797  0.68872  1.0000
  S   S144      1.0  0.33328  0.19903  0.68678  1.0000
  S   S145      1.0  0.34906  0.24722  0.65330  1.0000
  Fe  Fe79      1.0  0.33353  0.23035  0.75507  1.0000
  S   S146      1.0  0.32620  0.20146  0.75833  1.0000
  S   S147      1.0  0.33013  0.25291  0.78795  1.0000
  Fe  Fe80      1.0  0.34971  0.19577  0.72761  1.0000
  S   S148      1.0  0.37110  0.17379  0.73792  1.0000
  Fe  Fe81      1.0  0.31045  0.20696  0.71741  1.0000
  S   S149      1.0  0.28196  0.19909  0.70847  1.0000
  S   S150      1.0  0.35808  0.22444  0.72767  1.0000
  S   S151      1.0  0.31628  0.23602  0.71585  1.0000
  H   H659      1.0  0.38968  0.10221  0.70112  1.0000
  C   C547      1.0  0.26936  0.21225  0.76135  1.0000
  N   N37       1.0  0.37052  0.31677  0.86783  1.0000
  Fe  Fe82      1.0  0.34602  0.28298  0.94810  1.0000
  S   S152      1.0  0.33238  0.30890  0.93441  1.0000
  S   S153      1.0  0.35583  0.26002  0.91927  1.0000
  Fe  Fe83      1.0  0.35241  0.32213  0.96272  1.0000
  C   C548      1.0  0.34548  0.11121  0.69151  1.0000
  Fe  Fe84      1.0  0.31564  0.30587  0.97505  1.0000
  S   S154      1.0  0.28629  0.31492  0.97344  1.0000
  S   S155      1.0  0.36716  0.29631  0.97394  1.0000
  S   S156      1.0  0.32766  0.27871  0.98668  1.0000
  Fe  Fe85      1.0  0.44333  0.09948  0.67251  1.0000
  S   S157      1.0  0.47268  0.10149  0.68334  1.0000
  S   S158      1.0  0.42286  0.12220  0.66165  1.0000
  Fe  Fe86      1.0  0.44663  0.05854  0.66706  1.0000
  S   S159      1.0  0.47581  0.05747  0.67732  1.0000
  S   S160      1.0  0.43040  0.03368  0.66333  1.0000
  Fe  Fe87      1.0  0.46898  0.07732  0.71247  1.0000
  S   S161      1.0  0.47810  0.06891  0.75810  1.0000
  Fe  Fe88      1.0  0.47744  0.08138  0.64742  1.0000
  H   H660      1.0  0.50146  0.12957  0.53013  1.0000
  S   S162      1.0  0.43933  0.07684  0.70420  1.0000
  S   S163      1.0  0.44860  0.08094  0.63444  1.0000
  H   H661      1.0  0.50651  0.04998  0.72146  1.0000
  C   C549      1.0  0.49419  0.07876  0.78050  1.0000
  C   C550      1.0  0.48328  0.09088  0.53488  1.0000
  C   C551      1.0  0.48373  0.08804  0.56532  1.0000
  H   H662      1.0  0.26278  0.23462  0.68825  1.0000
  C   C552      1.0  0.36306  0.11318  0.70026  1.0000
  H   H663      1.0  0.47167  0.08998  0.57828  1.0000
  C   C553      1.0  0.29032  0.27961  0.59215  1.0000
  H   H664      1.0  0.39653  0.29123  0.85371  1.0000
  H   H665      1.0  0.29045  0.24322  0.58711  1.0000
  C   C554      1.0  0.39688  0.22634  0.67544  1.0000
  C   C555      1.0  0.37075  0.30427  0.84296  1.0000
  C   C556      1.0  0.38527  0.27900  0.81691  1.0000
  C   C557      1.0  0.43581  0.01764  0.63633  1.0000
  H   H666      1.0  0.45216  0.03483  0.61025  1.0000
  H   H667      1.0  0.31088  0.26203  0.65222  1.0000
  H   H668      1.0  0.34180  0.31925  0.87291  1.0000
  H   H669      1.0  0.28534  0.29262  0.60126  1.0000
  H   H670      1.0  0.47980  0.12850  0.56945  1.0000
  H   H671      1.0  0.31906  0.27614  0.62415  1.0000
  H   H672      1.0  0.36655  0.12508  0.71194  1.0000
  H   H673      1.0  0.25922  0.22220  0.80252  1.0000
  C   C558      1.0  0.38453  0.15867  0.71642  1.0000
  C   C559      1.0  0.39777  0.14775  0.73020  1.0000
  C   C560      1.0  0.40928  0.13611  0.71398  1.0000
  C   C561      1.0  0.40779  0.13538  0.68364  1.0000
  C   C562      1.0  0.39425  0.14595  0.66994  1.0000
  C   C563      1.0  0.38256  0.15736  0.68622  1.0000
  H   H674      1.0  0.39930  0.14849  0.75359  1.0000
  H   H675      1.0  0.41959  0.12807  0.72489  1.0000
  H   H676      1.0  0.39285  0.14537  0.64652  1.0000
  H   H677      1.0  0.37203  0.16508  0.67545  1.0000
  H   H678      1.0  0.35156  0.33682  0.85114  1.0000
  H   H679      1.0  0.48930  0.06066  0.81635  1.0000
  H   H680      1.0  0.39873  0.32197  0.86494  1.0000
  H   H681      1.0  0.28275  0.21678  0.76475  1.0000
  C   C564      1.0  0.33675  0.25380  0.82491  1.0000
  C   C565      1.0  0.34902  0.24135  0.83713  1.0000
  C   C566      1.0  0.35472  0.24337  0.86611  1.0000
  C   C567      1.0  0.34814  0.25777  0.88309  1.0000
  C   C568      1.0  0.33576  0.27012  0.87093  1.0000
  C   C569      1.0  0.33012  0.26812  0.84200  1.0000
  H   H682      1.0  0.35427  0.23031  0.82417  1.0000
  H   H683      1.0  0.36429  0.23374  0.87534  1.0000
  H   H684      1.0  0.33049  0.28119  0.88375  1.0000
  H   H685      1.0  0.32062  0.27781  0.83269  1.0000
  C   C570      1.0  0.34786  0.24462  0.61519  1.0000
  C   C571      1.0  0.35119  0.25948  0.59737  1.0000
  C   C572      1.0  0.35039  0.25831  0.56691  1.0000
  C   C573      1.0  0.34658  0.24214  0.55384  1.0000
  C   C574      1.0  0.34359  0.22709  0.57162  1.0000
  C   C575      1.0  0.34405  0.22835  0.60229  1.0000
  H   H686      1.0  0.35438  0.27205  0.60716  1.0000
  H   H687      1.0  0.35313  0.26986  0.55354  1.0000
  H   H688      1.0  0.34070  0.21449  0.56166  1.0000
  H   H689      1.0  0.34153  0.21677  0.61583  1.0000
  H   H690      1.0  0.39946  0.33166  0.95240  1.0000
  H   H691      1.0  0.30300  0.28243  0.58020  1.0000
  C   C576      1.0  0.26525  0.30656  0.51372  1.0000
  C   C577      1.0  0.26543  0.20317  0.73585  1.0000
  S   S164      1.0  0.28801  0.30246  0.52262  1.0000
  C   C578      1.0  0.45008  0.00886  0.59053  1.0000
  H   H692      1.0  0.28950  0.24126  0.66005  1.0000
  C   C579      1.0  0.50598  0.00735  0.98015  1.0000
  C   C580      1.0  0.25965  0.27024  0.62608  1.0000
  H   H693      1.0  0.37142  0.31540  0.91484  1.0000
  H   H694      1.0  0.34568  0.29071  0.78531  1.0000
  C   C581      1.0  0.49995  0.08343  0.57897  1.0000
  C   C582      1.0  0.27715  0.24845  0.65440  1.0000
  S   S165      1.0  0.50172  0.08170  0.61736  1.0000
  C   C583      1.0  0.30659  0.27231  0.63574  1.0000
  H   H695      1.0  0.38616  0.29968  0.89746  1.0000
  C   C584      1.0  0.35667  0.30394  0.82233  1.0000
  N   N38       1.0  0.29311  0.26573  0.61531  1.0000
  C   C585      1.0  0.35694  0.29134  0.80002  1.0000
  H   H696      1.0  0.39493  0.22249  0.69866  1.0000
  N   N39       1.0  0.39486  0.21114  0.65529  1.0000
  H   H697      1.0  0.38667  0.23733  0.67131  1.0000
  C   C586      1.0  0.39439  0.21867  0.62515  1.0000
  C   C587      1.0  0.37743  0.20307  0.66125  1.0000
  C   C588      1.0  0.40930  0.19731  0.65989  1.0000
  C   C589      1.0  0.41298  0.19053  0.68835  1.0000
  C   C590      1.0  0.41918  0.18928  0.63645  1.0000
  C   C591      1.0  0.42602  0.17695  0.69311  1.0000
  C   C592      1.0  0.43200  0.17548  0.64147  1.0000
  C   C593      1.0  0.43543  0.16935  0.66971  1.0000
  C   C594      1.0  0.26881  0.30587  0.99442  1.0000
  C   C595      1.0  0.37105  0.27875  0.79756  1.0000
  H   H698      1.0  0.47315  0.03006  0.73033  1.0000
  H   H699      1.0  0.41037  0.23201  0.67309  1.0000
  C   C596      1.0  0.37279  0.30654  0.89554  1.0000
  H   H700      1.0  0.39076  0.20851  0.60891  1.0000
  H   H701      1.0  0.37640  0.19796  0.68409  1.0000
  H   H702      1.0  0.36610  0.21290  0.65793  1.0000
  H   H703      1.0  0.37535  0.19160  0.64658  1.0000
  H   H704      1.0  0.40525  0.19505  0.70712  1.0000
  H   H705      1.0  0.41698  0.19311  0.61400  1.0000
  H   H706      1.0  0.42822  0.17166  0.71496  1.0000
  H   H707      1.0  0.43901  0.16910  0.62332  1.0000
  H   H708      1.0  0.44489  0.15820  0.67340  1.0000
  C   C597      1.0  0.37620  0.09994  0.69404  1.0000
  N   N40       1.0  0.38625  0.07021  0.67319  1.0000
  C   C598      1.0  0.40086  0.07803  0.65570  1.0000
  C   C599      1.0  0.39362  0.06340  0.70129  1.0000
  C   C600      1.0  0.37998  0.05460  0.65692  1.0000
  C   C601      1.0  0.37208  0.08415  0.67898  1.0000
  H   H709      1.0  0.49952  0.00781  0.00136  1.0000
  C   C602      1.0  0.35399  0.08254  0.67033  1.0000
  C   C603      1.0  0.34095  0.09594  0.67656  1.0000
  H   H710      1.0  0.34499  0.31286  0.82338  1.0000
  H   H711      1.0  0.40782  0.08844  0.66772  1.0000
  H   H712      1.0  0.41135  0.06774  0.64951  1.0000
  H   H713      1.0  0.39995  0.07401  0.71393  1.0000
  H   H714      1.0  0.40419  0.05269  0.69793  1.0000
  H   H715      1.0  0.38295  0.05777  0.71532  1.0000
  H   H716      1.0  0.39110  0.22344  0.98708  1.0000
  H   H717      1.0  0.39110  0.04448  0.65299  1.0000
  H   H718      1.0  0.36944  0.04754  0.66929  1.0000
  H   H719      1.0  0.38402  0.22972  0.62294  1.0000
  H   H720      1.0  0.34955  0.07107  0.65874  1.0000
  H   H721      1.0  0.32723  0.09450  0.66981  1.0000
  H   H722      1.0  0.47358  0.05013  0.99780  1.0000
  C   C604      1.0  0.49894  0.08880  0.51784  1.0000
  H   H723      1.0  0.37065  0.26851  0.78104  1.0000
  H   H724      1.0  0.39568  0.08440  0.63526  1.0000
  H   H725      1.0  0.28083  0.27533  0.57526  1.0000
  H   H726      1.0  0.38541  0.33890  0.88304  1.0000
  H   H727      1.0  0.40745  0.22429  0.61885  1.0000
  H   H728      1.0  0.36266  0.29607  0.89759  1.0000
  H   H729      1.0  0.33537  0.12158  0.69637  1.0000
  C   C605      1.0  0.34591  0.22977  0.98746  1.0000
  C   C606      1.0  0.44669  0.02169  0.61234  1.0000
  H   H730      1.0  0.30542  0.23904  0.61713  1.0000
  H   H731      1.0  0.37480  0.05866  0.63506  1.0000
  H   H732      1.0  0.31232  0.25225  0.58687  1.0000
  H   H733      1.0  0.30125  0.28421  0.64784  1.0000
  H   H734      1.0  0.45819  0.01222  0.57174  1.0000
  C   C607      1.0  0.35360  0.32779  0.87034  1.0000
  H   H735      1.0  0.37600  0.22759  0.95749  1.0000
  C   C608      1.0  0.38527  0.29168  0.83911  1.0000
  C   C609      1.0  0.30059  0.24934  0.60107  1.0000
  C   C610      1.0  0.49921  0.12890  0.60354  1.0000
  C   C611      1.0  0.50659  0.13005  0.55204  1.0000
  C   C612      1.0  0.27658  0.26154  0.63170  1.0000
  H   H736      1.0  0.39612  0.26903  0.81509  1.0000
  H   H737      1.0  0.47080  0.09497  0.52458  1.0000
  C   C613      1.0  0.26187  0.24451  0.67071  1.0000
  H   H738      1.0  0.35356  0.33665  0.88973  1.0000
  C   C614      1.0  0.38544  0.32915  0.86474  1.0000
  H   H739      1.0  0.36597  0.25694  0.97950  1.0000
  S   S166      1.0  0.33805  0.29397  0.51011  1.0000
  H   H740      1.0  0.34492  0.23657  0.96574  1.0000
  C   C615      1.0  0.46595  0.01835  0.72423  1.0000
  S   S167      1.0  0.34573  0.24053  0.51543  1.0000
  C   C616      1.0  0.37704  0.22195  0.98009  1.0000
  H   H741      1.0  0.44195  0.02711  0.74684  1.0000
  S   S168      1.0  0.50348  0.08721  0.97783  1.0000
  H   H742      1.0  0.50226  0.09858  0.74924  1.0000
  C   C617      1.0  0.49386  0.12946  0.57456  1.0000
  H   H743      1.0  0.48763  0.00736  0.69923  1.0000
  C   C618      1.0  0.49706  0.07170  0.80871  1.0000
  H   H744      1.0  0.48935  0.12747  0.62084  1.0000
  C   C619      1.0  0.50429  0.09306  0.77090  1.0000
  C   C620      1.0  0.44833  0.01670  0.73366  1.0000
  H   H745      1.0  0.34248  0.21565  0.98370  1.0000
  N   N41       1.0  0.36405  0.23103  0.00014  1.0000
  H   H746      1.0  0.37468  0.20738  0.97897  1.0000
  H   H747      1.0  0.45454  0.02601  0.98067  1.0000
  H   H748      1.0  0.38440  0.33695  0.84399  1.0000
  C   C621      1.0  0.46159  0.02447  0.00114  1.0000
  H   H749      1.0  0.33548  0.23631  0.00169  1.0000
  C   C622      1.0  0.36802  0.25030  0.00108  1.0000
  H   H750      1.0  0.25785  0.28042  0.60938  1.0000
  Fe  Fe89      1.0  0.43539  0.59101  0.32114  1.0000
  S   S169      1.0  0.46018  0.60426  0.33654  1.0000
  S   S170      1.0  0.40739  0.60251  0.30951  1.0000
  Fe  Fe90      1.0  0.45308  0.55302  0.32785  1.0000
  S   S171      1.0  0.47888  0.56353  0.34332  1.0000
  S   S172      1.0  0.45088  0.52321  0.32023  1.0000
  Fe  Fe91      1.0  0.46185  0.58226  0.37073  1.0000
  S   S173      1.0  0.46390  0.58380  0.42009  1.0000
  Fe  Fe92      1.0  0.47522  0.58423  0.30760  1.0000
  H   H751      1.0  0.37693  0.40197  0.45827  1.0000
  S   S174      1.0  0.43605  0.57032  0.35726  1.0000
  S   S175      1.0  0.45052  0.57247  0.29025  1.0000
  Fe  Fe93      1.0  0.43218  0.40224  0.41955  1.0000
  S   S176      1.0  0.45793  0.38783  0.43151  1.0000
  S   S177      1.0  0.40687  0.38810  0.40657  1.0000
  Fe  Fe94      1.0  0.44873  0.43916  0.42570  1.0000
  S   S178      1.0  0.47563  0.42715  0.43863  1.0000
  S   S179      1.0  0.44353  0.46930  0.42757  1.0000
  Fe  Fe95      1.0  0.47118  0.40788  0.40233  1.0000
  S   S180      1.0  0.49427  0.39806  0.37360  1.0000
  Fe  Fe96      1.0  0.46008  0.40837  0.46663  1.0000
  H   H752      1.0  0.43904  0.51931  0.25778  1.0000
  S   S181      1.0  0.44527  0.42104  0.38752  1.0000
  S   S182      1.0  0.43334  0.42162  0.45655  1.0000
  H   H753      1.0  0.41336  0.36400  0.35722  1.0000
  C   C623      1.0  0.49693  0.47199  0.22421  1.0000
  H   H754      1.0  0.49028  0.37439  0.27910  1.0000
  H   H755      1.0  0.50537  0.47047  0.08687  1.0000
  C   C624      1.0  0.49676  0.52990  0.46304  1.0000
  H   H756      1.0  0.49832  0.55682  0.01975  1.0000
  H   H757      1.0  0.37173  0.61756  0.30287  1.0000
  H   H758      1.0  0.35381  0.38006  0.46936  1.0000
  C   C625      1.0  0.38120  0.65974  0.37421  1.0000
  H   H759      1.0  0.49859  0.47738  0.05116  1.0000
  H   H760      1.0  0.42616  0.39297  0.31282  1.0000
  H   H761      1.0  0.35937  0.64842  0.29365  1.0000
  H   H762      1.0  0.48343  0.53369  0.29163  1.0000
  C   C626      1.0  0.39456  0.64628  0.37750  1.0000
  C   C627      1.0  0.44887  0.50833  0.35019  1.0000
  C   C628      1.0  0.45272  0.48996  0.34631  1.0000
  C   C629      1.0  0.45112  0.47779  0.36977  1.0000
  C   C630      1.0  0.44536  0.48389  0.39716  1.0000
  C   C631      1.0  0.44125  0.50222  0.40085  1.0000
  C   C632      1.0  0.44316  0.51442  0.37756  1.0000
  H   H763      1.0  0.45702  0.48512  0.32516  1.0000
  H   H764      1.0  0.45429  0.46370  0.36669  1.0000
  H   H765      1.0  0.43660  0.50698  0.42189  1.0000
  H   H766      1.0  0.43989  0.52849  0.38064  1.0000
  H   H767      1.0  0.44895  0.34295  0.24426  1.0000
  C   C633      1.0  0.38101  0.36319  0.41571  1.0000
  H   H768      1.0  0.47396  0.42580  0.28151  1.0000
  H   H769      1.0  0.48351  0.47777  0.21832  1.0000
  H   H770      1.0  0.47082  0.59229  0.23620  1.0000
  H   H771      1.0  0.41214  0.36382  0.31862  1.0000
  C   C634      1.0  0.48398  0.50905  0.42911  1.0000
  H   H772      1.0  0.41544  0.57170  0.23541  1.0000
  C   C635      1.0  0.37367  0.64601  0.29566  1.0000
  H   H773      1.0  0.48228  0.53589  0.39224  1.0000
  H   H774      1.0  0.49036  0.45454  0.27325  1.0000
  H   H775      1.0  0.47142  0.59266  0.18194  1.0000
  N   N42       1.0  0.50222  0.47767  0.25371  1.0000
  H   H776      1.0  0.47107  0.41898  0.33435  1.0000
  C   C636      1.0  0.36596  0.38000  0.48207  1.0000
  H   H777      1.0  0.39417  0.51996  0.28906  1.0000
  C   C637      1.0  0.39830  0.36845  0.42289  1.0000
  C   C638      1.0  0.40824  0.35809  0.44294  1.0000
  S   S183      1.0  0.49966  0.58840  0.27874  1.0000
  H   H778      1.0  0.49861  0.59898  0.00791  1.0000
  H   H779      1.0  0.42171  0.36167  0.44794  1.0000
  H   H780      1.0  0.45958  0.37527  0.36526  1.0000
  C   C639      1.0  0.46668  0.53506  0.44570  1.0000
  C   C640      1.0  0.40374  0.65672  0.29510  1.0000
  C   C641      1.0  0.41079  0.63923  0.30058  1.0000
  C   C642      1.0  0.39932  0.62495  0.30324  1.0000
  C   C643      1.0  0.38074  0.62848  0.30080  1.0000
  C   C644      1.0  0.49697  0.40553  0.33721  1.0000
  H   H781      1.0  0.47076  0.58239  0.48139  1.0000
  H   H782      1.0  0.42509  0.63678  0.30248  1.0000
  C   C645      1.0  0.48334  0.58998  0.22455  1.0000
  H   H783      1.0  0.47225  0.38035  0.32259  1.0000
  H   H784      1.0  0.48261  0.50137  0.29115  1.0000
  H   H785      1.0  0.41638  0.63587  0.40359  1.0000
  C   C646      1.0  0.37894  0.39237  0.47596  1.0000
  C   C647      1.0  0.40600  0.64632  0.40125  1.0000
  C   C648      1.0  0.49554  0.43618  0.06874  1.0000
  C   C649      1.0  0.37347  0.34815  0.42927  1.0000
  N   N43       1.0  0.43813  0.37013  0.33514  1.0000
  H   H786      1.0  0.44543  0.39778  0.33382  1.0000
  C   C650      1.0  0.47079  0.35818  0.25906  1.0000
  C   C651      1.0  0.43338  0.38953  0.33335  1.0000
  H   H787      1.0  0.47479  0.50620  0.03569  1.0000
  C   C652      1.0  0.48320  0.58539  0.47047  1.0000
  H   H788      1.0  0.46693  0.54924  0.45288  1.0000
  H   H789      1.0  0.47574  0.47397  0.27143  1.0000
  H   H790      1.0  0.39610  0.63576  0.36149  1.0000
  H   H791      1.0  0.46074  0.52719  0.46382  1.0000
  H   H792      1.0  0.47891  0.35574  0.23967  1.0000
  H   H793      1.0  0.48505  0.50847  0.48874  1.0000
  C   C653      1.0  0.50234  0.53546  0.25641  1.0000
  H   H794      1.0  0.40722  0.51302  0.25775  1.0000
  H   H795      1.0  0.47740  0.50752  0.40767  1.0000
  C   C654      1.0  0.44325  0.35447  0.28646  1.0000
  C   C655      1.0  0.45476  0.55188  0.21430  1.0000
  C   C656      1.0  0.48369  0.58703  0.43990  1.0000
  H   H796      1.0  0.45342  0.35233  0.36345  1.0000
  C   C657      1.0  0.49982  0.59087  0.42598  1.0000
  C   C658      1.0  0.49992  0.58765  0.17831  1.0000
  H   H797      1.0  0.39124  0.53924  0.22905  1.0000
  C   C659      1.0  0.44939  0.36517  0.30950  1.0000
  C   C660      1.0  0.48372  0.59024  0.19381  1.0000
  H   H798      1.0  0.42629  0.35728  0.50117  1.0000
  H   H799      1.0  0.38941  0.56064  0.24673  1.0000
  H   H800      1.0  0.37281  0.65920  0.35519  1.0000
  H   H801      1.0  0.43157  0.37948  0.48950  1.0000
  C   C661      1.0  0.45390  0.35104  0.26170  1.0000
  H   H802      1.0  0.39643  0.55083  0.30745  1.0000
  C   C662      1.0  0.47747  0.51730  0.02110  1.0000
  C   C663      1.0  0.40409  0.65980  0.42189  1.0000
  C   C664      1.0  0.45375  0.53563  0.22917  1.0000
  C   C665      1.0  0.49831  0.64245  0.22017  1.0000
  H   H803      1.0  0.40893  0.56692  0.28756  1.0000
  C   C666      1.0  0.49060  0.54580  0.01216  1.0000
  H   H804      1.0  0.34438  0.67100  0.40986  1.0000
  C   C667      1.0  0.38516  0.66023  0.29257  1.0000
  C   C668      1.0  0.49085  0.53826  0.41145  1.0000
  H   H805      1.0  0.50489  0.53439  0.40526  1.0000
  N   N44       1.0  0.48488  0.52813  0.43763  1.0000
  S   S184      1.0  0.48200  0.44482  0.01509  1.0000
  C   C669      1.0  0.48495  0.41903  0.29282  1.0000
  H   H806      1.0  0.44177  0.57741  0.20544  1.0000
  C   C670      1.0  0.49867  0.58771  0.48706  1.0000
  C   C671      1.0  0.49160  0.52623  0.27592  1.0000
  H   H807      1.0  0.41774  0.51825  0.29183  1.0000
  H   H808      1.0  0.46492  0.52597  0.22802  1.0000
  C   C672      1.0  0.44810  0.36642  0.36256  1.0000
  H   H809      1.0  0.43943  0.36867  0.38219  1.0000
  C   C673      1.0  0.42119  0.36040  0.33714  1.0000
  H   H810      1.0  0.43022  0.34874  0.28687  1.0000
  H   H811      1.0  0.50667  0.64880  0.17701  1.0000
  H   H812      1.0  0.45736  0.53476  0.42696  1.0000
  C   C674      1.0  0.47721  0.36864  0.28128  1.0000
  H   H813      1.0  0.42041  0.54889  0.30649  1.0000
  C   C675      1.0  0.46674  0.37202  0.30616  1.0000
  H   H814      1.0  0.49234  0.53149  0.05294  1.0000
  H   H815      1.0  0.49297  0.63398  0.26435  1.0000
  C   C676      1.0  0.49566  0.43184  0.03905  1.0000
  C   C677      1.0  0.49130  0.50754  0.27534  1.0000
  H   H816      1.0  0.37322  0.37102  0.40005  1.0000
  H   H817      1.0  0.34561  0.67031  0.37076  1.0000
  H   H818      1.0  0.48603  0.44627  0.07676  1.0000
  C   C678      1.0  0.44069  0.56457  0.21639  1.0000
  H   H819      1.0  0.46665  0.55482  0.20161  1.0000
  H   H820      1.0  0.37903  0.54212  0.26285  1.0000
  C   C679      1.0  0.48324  0.41511  0.32274  1.0000
  H   H821      1.0  0.50251  0.54994  0.25709  1.0000
  H   H822      1.0  0.42459  0.39392  0.35189  1.0000
  H   H823      1.0  0.48978  0.55296  0.41482  1.0000
  N   N45       1.0  0.40789  0.54120  0.26683  1.0000
  C   C680      1.0  0.40675  0.52226  0.27660  1.0000
  C   C681      1.0  0.40840  0.55244  0.29316  1.0000
  C   C682      1.0  0.39124  0.54599  0.25057  1.0000
  C   C683      1.0  0.42390  0.54448  0.24844  1.0000
  C   C684      1.0  0.42553  0.56104  0.23334  1.0000
  C   C685      1.0  0.43863  0.53192  0.24611  1.0000
  H   H824      1.0  0.48506  0.64857  0.21725  1.0000
  C   C686      1.0  0.48725  0.53151  0.03088  1.0000
  H   H825      1.0  0.47596  0.50103  0.44466  1.0000
  H   H826      1.0  0.49648  0.45714  0.22273  1.0000
  H   H827      1.0  0.41309  0.65976  0.44031  1.0000
  C   C687      1.0  0.50276  0.63438  0.24676  1.0000
  H   H828      1.0  0.49761  0.50260  0.42729  1.0000
  H   H829      1.0  0.41277  0.66760  0.29283  1.0000
  C   C688      1.0  0.39501  0.39178  0.49132  1.0000
  C   C689      1.0  0.50200  0.49748  0.25501  1.0000
  C   C690      1.0  0.48989  0.46939  0.27509  1.0000
  H   H830      1.0  0.42385  0.34566  0.33806  1.0000
  S   S185      1.0  0.49973  0.58873  0.13961  1.0000
  H   H831      1.0  0.50036  0.59213  0.40246  1.0000
  H   H832      1.0  0.40496  0.40107  0.48458  1.0000
  C   C691      1.0  0.49924  0.58735  0.24011  1.0000
  H   H833      1.0  0.50254  0.49388  0.07849  1.0000
  H   H834      1.0  0.49359  0.47234  0.29795  1.0000
  C   C692      1.0  0.50068  0.41409  0.27740  1.0000
  C   C693      1.0  0.49503  0.51853  0.48784  1.0000
  C   C694      1.0  0.40069  0.34314  0.45660  1.0000
  H   H835      1.0  0.36002  0.34451  0.42405  1.0000
  S   S186      1.0  0.50174  0.41867  0.23959  1.0000
  H   H836      1.0  0.50656  0.47607  0.20700  1.0000
  C   C695      1.0  0.39071  0.67330  0.41892  1.0000
  Fe  Fe97      1.0  0.43958  0.59551  0.81791  1.0000
  S   S187      1.0  0.46398  0.61081  0.82839  1.0000
  S   S188      1.0  0.41119  0.60734  0.81229  1.0000
  Fe  Fe98      1.0  0.45904  0.55916  0.82966  1.0000
  S   S189      1.0  0.48419  0.57217  0.84247  1.0000
  S   S190      1.0  0.46325  0.52926  0.82563  1.0000
  Fe  Fe99      1.0  0.46665  0.59188  0.86684  1.0000
  H   H837      1.0  0.41754  0.66798  0.77093  1.0000
  Fe  Fe100     1.0  0.47928  0.58946  0.80269  1.0000
  C   C696      1.0  0.42977  0.37071  0.50901  1.0000
  S   S191      1.0  0.44171  0.57734  0.85739  1.0000
  S   S192      1.0  0.45467  0.57565  0.78898  1.0000
  Fe  Fe101     1.0  0.45166  0.40828  0.93505  1.0000
  S   S193      1.0  0.48106  0.41005  0.94574  1.0000
  S   S194      1.0  0.44197  0.37945  0.93534  1.0000
  Fe  Fe102     1.0  0.44835  0.44871  0.92336  1.0000
  S   S195      1.0  0.47718  0.45298  0.93256  1.0000
  S   S196      1.0  0.43068  0.47324  0.91391  1.0000
  Fe  Fe103     1.0  0.48247  0.42816  0.90628  1.0000
  C   C697      1.0  0.42857  0.64163  0.92202  1.0000
  Fe  Fe104     1.0  0.47321  0.43469  0.97103  1.0000
  H   H838      1.0  0.46067  0.35652  0.88655  1.0000
  S   S197      1.0  0.45370  0.42514  0.89399  1.0000
  S   S198      1.0  0.44375  0.43176  0.96343  1.0000
  H   H839      1.0  0.37793  0.59864  0.76467  1.0000
  C   C698      1.0  0.48043  0.40948  0.53565  1.0000
  C   C699      1.0  0.48422  0.40234  0.56349  1.0000
  H   H840      1.0  0.35139  0.66521  0.76637  1.0000
  H   H841      1.0  0.47805  0.39018  0.57060  1.0000
  C   C700      1.0  0.47924  0.38611  0.87736  1.0000
  C   C701      1.0  0.47372  0.51477  0.92793  1.0000
  C   C702      1.0  0.48726  0.42549  0.79312  1.0000
  C   C703      1.0  0.48822  0.42662  0.82367  1.0000
  C   C704      1.0  0.44742  0.53180  0.94414  1.0000
  H   H842      1.0  0.49269  0.38042  0.88307  1.0000
  H   H843      1.0  0.47434  0.42619  0.78268  1.0000
  H   H844      1.0  0.47610  0.42835  0.83655  1.0000
  C   C705      1.0  0.48589  0.59509  0.93674  1.0000
  C   C706      1.0  0.45368  0.51388  0.84988  1.0000
  C   C707      1.0  0.43838  0.51838  0.86638  1.0000
  C   C708      1.0  0.43117  0.50568  0.88557  1.0000
  C   C709      1.0  0.43947  0.48862  0.88881  1.0000
  C   C710      1.0  0.45480  0.48418  0.87234  1.0000
  C   C711      1.0  0.46175  0.49671  0.85268  1.0000
  H   H845      1.0  0.43194  0.53151  0.86402  1.0000
  H   H846      1.0  0.41918  0.50907  0.89807  1.0000
  H   H847      1.0  0.46121  0.47102  0.87454  1.0000
  H   H848      1.0  0.47356  0.49311  0.83990  1.0000
  H   H849      1.0  0.49229  0.47612  0.79433  1.0000
  C   C712      1.0  0.48530  0.60025  0.96613  1.0000
  H   H850      1.0  0.36707  0.67039  0.91379  1.0000
  H   H851      1.0  0.37786  0.62652  0.82276  1.0000
  C   C713      1.0  0.47110  0.51730  0.99252  1.0000
  H   H852      1.0  0.47405  0.60837  0.97413  1.0000
  H   H853      1.0  0.35924  0.35679  0.50715  1.0000
  H   H854      1.0  0.44655  0.62844  0.87720  1.0000
  H   H855      1.0  0.42972  0.34422  0.94765  1.0000
  C   C714      1.0  0.49610  0.41075  0.58210  1.0000
  C   C715      1.0  0.48466  0.55425  0.64340  1.0000
  N   N46       1.0  0.42105  0.63931  0.89253  1.0000
  H   H856      1.0  0.46750  0.54597  0.90171  1.0000
  C   C716      1.0  0.38542  0.35689  0.94475  1.0000
  H   H857      1.0  0.46667  0.50789  0.71240  1.0000
  C   C717      1.0  0.39843  0.37895  0.51381  1.0000
  C   C718      1.0  0.41999  0.37133  0.93977  1.0000
  C   C719      1.0  0.40462  0.38244  0.93673  1.0000
  C   C720      1.0  0.38748  0.37521  0.93893  1.0000
  C   C721      1.0  0.39408  0.61607  0.73914  1.0000
  H   H858      1.0  0.40592  0.39657  0.93240  1.0000
  H   H859      1.0  0.37571  0.38394  0.93629  1.0000
  H   H860      1.0  0.49116  0.48493  0.71783  1.0000
  S   S199      1.0  0.50422  0.59071  0.77407  1.0000
  C   C722      1.0  0.41551  0.64179  0.79062  1.0000
  C   C723      1.0  0.40428  0.62987  0.80476  1.0000
  C   C724      1.0  0.38662  0.63561  0.81168  1.0000
  C   C725      1.0  0.38010  0.65296  0.80409  1.0000
  S   S200      1.0  0.36343  0.34851  0.94594  1.0000
  H   H861      1.0  0.42910  0.63753  0.78499  1.0000
  H   H862      1.0  0.44146  0.53311  0.92207  1.0000
  N   N47       1.0  0.34571  0.64909  0.72954  1.0000
  C   C726      1.0  0.34087  0.65635  0.75857  1.0000
  H   H863      1.0  0.48718  0.55754  0.97047  1.0000
  C   C727      1.0  0.48039  0.37592  0.82737  1.0000
  C   C728      1.0  0.36236  0.63777  0.73206  1.0000
  C   C729      1.0  0.37906  0.64293  0.72015  1.0000
  C   C730      1.0  0.36239  0.62144  0.74815  1.0000
  H   H864      1.0  0.33448  0.67240  0.70703  1.0000
  C   C731      1.0  0.37803  0.61076  0.75147  1.0000
  H   H865      1.0  0.43443  0.65501  0.92402  1.0000
  H   H866      1.0  0.44212  0.54335  0.95716  1.0000
  H   H867      1.0  0.40607  0.61982  0.87012  1.0000
  C   C732      1.0  0.34738  0.66447  0.70906  1.0000
  H   H868      1.0  0.49812  0.58647  0.51057  1.0000
  C   C733      1.0  0.47268  0.54678  0.92437  1.0000
  H   H869      1.0  0.46728  0.55977  0.93312  1.0000
  H   H870      1.0  0.31835  0.64695  0.71545  1.0000
  H   H871      1.0  0.46992  0.51486  0.90457  1.0000
  H   H872      1.0  0.32804  0.66441  0.75799  1.0000
  H   H873      1.0  0.46223  0.34862  0.84958  1.0000
  H   H874      1.0  0.49298  0.55468  0.76070  1.0000
  H   H875      1.0  0.35046  0.61705  0.75910  1.0000
  H   H876      1.0  0.38666  0.35546  0.53466  1.0000
  C   C734      1.0  0.49286  0.49635  0.70342  1.0000
  H   H877      1.0  0.44215  0.51938  0.95403  1.0000
  H   H878      1.0  0.32674  0.62807  0.73528  1.0000
  N   N48       1.0  0.46726  0.53138  0.94278  1.0000
  H   H879      1.0  0.49312  0.53594  0.73657  1.0000
  C   C735      1.0  0.50388  0.59238  0.73555  1.0000
  H   H880      1.0  0.48278  0.56070  0.66505  1.0000
  C   C736      1.0  0.50606  0.52002  0.51212  1.0000
  S   S201      1.0  0.50445  0.59898  0.63575  1.0000
  C   C737      1.0  0.46872  0.35706  0.86592  1.0000
  C   C738      1.0  0.50442  0.42626  0.57278  1.0000
  C   C739      1.0  0.47287  0.38206  0.80051  1.0000
  S   S202      1.0  0.50090  0.42034  0.73797  1.0000
  C   C740      1.0  0.50048  0.58457  0.92664  1.0000
  H   H881      1.0  0.45163  0.39775  0.84481  1.0000
  C   C741      1.0  0.40729  0.65364  0.88648  1.0000
  C   C742      1.0  0.33072  0.63841  0.71918  1.0000
  H   H882      1.0  0.44335  0.37579  0.83733  1.0000
  C   C743      1.0  0.47436  0.53161  0.97281  1.0000
  H   H883      1.0  0.48856  0.51311  0.92880  1.0000
  S   S203      1.0  0.46801  0.60169  0.91345  1.0000
  H   H884      1.0  0.48298  0.53463  0.77212  1.0000
  C   C744      1.0  0.48833  0.42527  0.52673  1.0000
  H   H885      1.0  0.41837  0.64033  0.93958  1.0000
  H   H886      1.0  0.50532  0.36520  0.84629  1.0000
  C   C745      1.0  0.41284  0.62160  0.89136  1.0000
  C   C746      1.0  0.40856  0.66583  0.86259  1.0000
  C   C747      1.0  0.41794  0.35294  0.94523  1.0000
  H   H887      1.0  0.41944  0.66514  0.84693  1.0000
  H   H888      1.0  0.40469  0.37103  0.57090  1.0000
  H   H889      1.0  0.43941  0.63134  0.92683  1.0000
  H   H890      1.0  0.47191  0.54841  0.63665  1.0000
  H   H891      1.0  0.35139  0.65994  0.68683  1.0000
  H   H892      1.0  0.45916  0.38698  0.79869  1.0000
  H   H893      1.0  0.47754  0.38822  0.75504  1.0000
  C   C748      1.0  0.41575  0.36674  0.55580  1.0000
  C   C749      1.0  0.40888  0.65901  0.78252  1.0000
  C   C750      1.0  0.48114  0.52392  0.68134  1.0000
  H   H894      1.0  0.48960  0.52540  0.60846  1.0000
  H   H895      1.0  0.47592  0.59964  0.67803  1.0000
  H   H896      1.0  0.44305  0.36927  0.51974  1.0000
  H   H897      1.0  0.47530  0.59621  0.73201  1.0000
  H   H898      1.0  0.40269  0.61974  0.90883  1.0000
  C   C751      1.0  0.48830  0.59705  0.68965  1.0000
  H   H899      1.0  0.38064  0.65546  0.70873  1.0000
  H   H900      1.0  0.33925  0.64568  0.77531  1.0000
  H   H901      1.0  0.50300  0.54374  0.59717  1.0000
  C   C752      1.0  0.39109  0.66463  0.78884  1.0000
  C   C753      1.0  0.48326  0.38271  0.77502  1.0000
  H   H902      1.0  0.42305  0.61041  0.89376  1.0000
  C   C754      1.0  0.43628  0.63906  0.87149  1.0000
  C   C755      1.0  0.50151  0.53311  0.61406  1.0000
  C   C756      1.0  0.49725  0.52594  0.66502  1.0000
  H   H903      1.0  0.48105  0.40002  0.86960  1.0000
  H   H904      1.0  0.50164  0.53393  0.81569  1.0000
  C   C757      1.0  0.49454  0.53982  0.75967  1.0000
  H   H905      1.0  0.40730  0.63652  0.71506  1.0000
  H   H906      1.0  0.43324  0.39587  0.55154  1.0000
  H   H907      1.0  0.33433  0.63161  0.69836  1.0000
  N   N49       1.0  0.49973  0.54068  0.64375  1.0000
  C   C758      1.0  0.45154  0.38355  0.85241  1.0000
  H   H908      1.0  0.46991  0.53338  0.67980  1.0000
  H   H909      1.0  0.40629  0.60806  0.74274  1.0000
  N   N50       1.0  0.41584  0.37816  0.52908  1.0000
  C   C759      1.0  0.39461  0.63213  0.72362  1.0000
  H   H910      1.0  0.36661  0.65724  0.81007  1.0000
  H   H911      1.0  0.42853  0.36740  0.56800  1.0000
  C   C760      1.0  0.47908  0.50929  0.70024  1.0000
  C   C761      1.0  0.50131  0.37740  0.77544  1.0000
  H   H912      1.0  0.44428  0.38367  0.87376  1.0000
  H   H913      1.0  0.43180  0.63620  0.84897  1.0000
  N   N51       1.0  0.47004  0.37570  0.85509  1.0000
  H   H914      1.0  0.41444  0.35237  0.55054  1.0000
  H   H915      1.0  0.46792  0.50250  0.93744  1.0000
  H   H916      1.0  0.48751  0.54730  0.92246  1.0000
  C   C762      1.0  0.48790  0.59510  0.72024  1.0000
  H   H917      1.0  0.48716  0.56530  0.62753  1.0000
  C   C763      1.0  0.42092  0.39632  0.53799  1.0000
  C   C764      1.0  0.38499  0.36632  0.51916  1.0000
  H   H918      1.0  0.40996  0.40322  0.55064  1.0000
  H   H919      1.0  0.47152  0.38674  0.89818  1.0000
  H   H920      1.0  0.48979  0.50869  0.79614  1.0000
  H   H921      1.0  0.44331  0.65189  0.87135  1.0000
  H   H922      1.0  0.50115  0.58060  0.90405  1.0000
  H   H923      1.0  0.48206  0.35077  0.87094  1.0000
  S   S204      1.0  0.46615  0.39805  0.51238  1.0000
  C   C765      1.0  0.50034  0.43356  0.54519  1.0000
  C   C766      1.0  0.50288  0.42322  0.77603  1.0000
  H   H924      1.0  0.38996  0.64682  0.92322  1.0000
  C   C767      1.0  0.40078  0.34577  0.94796  1.0000
  C   C768      1.0  0.50216  0.48401  0.78308  1.0000
  C   C769      1.0  0.49920  0.59498  0.98532  1.0000
  C   C770      1.0  0.50460  0.59603  0.67410  1.0000
  C   C771      1.0  0.48422  0.54596  0.98360  1.0000
  H   H925      1.0  0.46348  0.50603  0.98597  1.0000
  H   H926      1.0  0.49889  0.40517  0.60349  1.0000
  C   C772      1.0  0.50085  0.50270  0.78394  1.0000
  H   H927      1.0  0.42440  0.40502  0.51913  1.0000
  C   C773      1.0  0.39193  0.65568  0.90481  1.0000
  C   C774      1.0  0.50485  0.42536  0.83743  1.0000
  C   C775      1.0  0.49870  0.37008  0.82678  1.0000
  C   C776      1.0  0.37874  0.66911  0.89963  1.0000
  H   H928      1.0  0.48544  0.43093  0.50542  1.0000
  H   H929      1.0  0.50470  0.51104  0.53066  1.0000
  C   C777      1.0  0.36901  0.36695  0.50350  1.0000
  S   S205      1.0  0.50668  0.42567  0.87588  1.0000
  H   H930      1.0  0.50667  0.44560  0.53789  1.0000
  Fe  Fe105     1.0  0.34177  0.81499  0.04929  1.0000
  S   S206      1.0  0.35722  0.78937  0.03899  1.0000
  S   S207      1.0  0.35284  0.84159  0.06418  1.0000
  Fe  Fe106     1.0  0.30542  0.79786  0.03814  1.0000
  S   S208      1.0  0.31853  0.77139  0.02666  1.0000
  S   S209      1.0  0.27521  0.79861  0.04406  1.0000
  Fe  Fe107     1.0  0.33600  0.77570  0.06543  1.0000
  S   S210      1.0  0.33965  0.75169  0.09591  1.0000
  H   H931      1.0  0.36348  0.82856  0.00598  1.0000
  S   S211      1.0  0.34320  0.79089  0.45386  1.0000
  S   S212      1.0  0.32184  0.80130  0.07844  1.0000
  C   C778      1.0  0.44133  0.99400  0.14499  1.0000
  Fe  Fe108     1.0  0.33116  0.73095  0.26370  1.0000
  S   S213      1.0  0.33103  0.70249  0.24859  1.0000
  S   S214      1.0  0.33482  0.75523  0.23430  1.0000
  Fe  Fe109     1.0  0.32655  0.72058  0.32838  1.0000
  S   S215      1.0  0.32631  0.69137  0.31757  1.0000
  S   S216      1.0  0.32136  0.72528  0.37672  1.0000
  Fe  Fe110     1.0  0.34919  0.69623  0.28685  1.0000
  C   C779      1.0  0.47168  0.99100  0.49213  1.0000
  Fe  Fe111     1.0  0.30815  0.70021  0.28077  1.0000
  C   C780      1.0  0.49188  0.97316  0.46110  1.0000
  S   S217      1.0  0.35063  0.72510  0.30009  1.0000
  S   S218      1.0  0.30710  0.72905  0.29339  1.0000
  Fe  Fe112     1.0  0.44148  0.90298  0.06345  1.0000
  S   S219      1.0  0.46944  0.89688  0.07977  1.0000
  S   S220      1.0  0.42846  0.87779  0.04660  1.0000
  Fe  Fe113     1.0  0.44573  0.94341  0.07297  1.0000
  S   S221      1.0  0.47357  0.93971  0.09029  1.0000
  S   S222      1.0  0.43476  0.97172  0.06549  1.0000
  Fe  Fe114     1.0  0.47757  0.92060  0.05288  1.0000
  H   H932      1.0  0.30247  0.76854  0.10279  1.0000
  Fe  Fe115     1.0  0.46272  0.91649  0.11541  1.0000
  S   S223      1.0  0.46532  0.90908  0.16361  1.0000
  S   S224      1.0  0.45028  0.92551  0.03415  1.0000
  S   S225      1.0  0.43422  0.92151  0.10056  1.0000
  C   C781      1.0  0.43614  0.98713  0.09419  1.0000
  C   C782      1.0  0.44046  0.98144  0.12249  1.0000
  C   C783      1.0  0.50581  0.98553  0.45900  1.0000
  H   H933      1.0  0.44272  0.96733  0.12717  1.0000
  H   H934      1.0  0.36340  0.72883  0.22704  1.0000
  H   H935      1.0  0.30329  0.81988  0.45742  1.0000
  H   H936      1.0  0.35638  0.70243  0.19586  1.0000
  C   C784      1.0  0.48345  0.91469  0.18596  1.0000
  H   H937      1.0  0.28563  0.78609  0.10340  1.0000
  H   H938      1.0  0.42218  0.84062  0.13019  1.0000
  C   C785      1.0  0.50231  0.99945  0.30389  1.0000
  C   C786      1.0  0.28332  0.79946  0.37984  1.0000
  H   H939      1.0  0.39071  0.69798  0.15094  1.0000
  C   C787      1.0  0.29591  0.78712  0.42384  1.0000
  H   H940      1.0  0.49177  0.99053  0.08610  1.0000
  C   C788      1.0  0.38450  0.73969  0.12294  1.0000
  C   C789      1.0  0.48723  0.91053  0.44450  1.0000
  C   C790      1.0  0.28435  0.74382  0.13048  1.0000
  H   H941      1.0  0.36584  0.83384  0.12619  1.0000
  H   H942      1.0  0.28602  0.83995  0.48952  1.0000
  S   S226      1.0  0.37719  0.68252  0.28478  1.0000
  C   C791      1.0  0.37697  0.72257  0.23047  1.0000
  C   C792      1.0  0.38042  0.74018  0.17538  1.0000
  C   C793      1.0  0.37433  0.85101  0.06084  1.0000
  C   C794      1.0  0.38921  0.84143  0.04949  1.0000
  C   C795      1.0  0.40567  0.84980  0.04565  1.0000
  C   C796      1.0  0.40768  0.86767  0.05392  1.0000
  C   C797      1.0  0.39304  0.87701  0.06654  1.0000
  C   C798      1.0  0.37644  0.86876  0.06972  1.0000
  H   H943      1.0  0.38804  0.82759  0.04364  1.0000
  H   H944      1.0  0.41694  0.84240  0.03608  1.0000
  H   H945      1.0  0.39431  0.89077  0.07295  1.0000
  H   H946      1.0  0.36509  0.87626  0.07881  1.0000
  N   N52       1.0  0.47998  0.97291  0.48715  1.0000
  C   C799      1.0  0.27998  0.83520  0.46976  1.0000
  H   H947      1.0  0.33553  0.68935  0.38805  1.0000
  H   H948      1.0  0.28323  0.71740  0.34717  1.0000
  C   C800      1.0  0.33840  0.77185  0.43324  1.0000
  C   C801      1.0  0.32921  0.75763  0.44544  1.0000
  C   C802      1.0  0.32424  0.74341  0.42779  1.0000
  C   C803      1.0  0.32846  0.74325  0.39786  1.0000
  C   C804      1.0  0.33791  0.75731  0.38571  1.0000
  C   C805      1.0  0.34287  0.77155  0.40339  1.0000
  H   H949      1.0  0.32570  0.75771  0.46838  1.0000
  H   H950      1.0  0.31696  0.73256  0.43737  1.0000
  H   H951      1.0  0.34129  0.75729  0.36272  1.0000
  H   H952      1.0  0.35003  0.78250  0.39383  1.0000
  C   C806      1.0  0.33548  0.75411  0.19579  1.0000
  C   C807      1.0  0.33389  0.73793  0.18126  1.0000
  C   C808      1.0  0.33520  0.73741  0.15065  1.0000
  C   C809      1.0  0.33770  0.75311  0.13425  1.0000
  C   C810      1.0  0.33900  0.76935  0.14872  1.0000
  C   C811      1.0  0.33802  0.76981  0.17940  1.0000
  H   H953      1.0  0.33176  0.72581  0.19360  1.0000
  H   H954      1.0  0.33431  0.72478  0.13959  1.0000
  H   H955      1.0  0.34104  0.78150  0.13633  1.0000
  H   H956      1.0  0.33928  0.78238  0.19050  1.0000
  N   N53       1.0  0.27970  0.76329  0.13070  1.0000
  C   C812      1.0  0.37695  0.84194  0.13209  1.0000
  H   H957      1.0  0.38437  0.88314  0.15719  1.0000
  H   H958      1.0  0.38407  0.74662  0.10204  1.0000
  H   H959      1.0  0.28209  0.76574  0.08378  1.0000
  C   C813      1.0  0.39449  0.83549  0.12776  1.0000
  C   C814      1.0  0.28204  0.81671  0.42580  1.0000
  H   H960      1.0  0.38652  0.73327  0.23457  1.0000
  C   C815      1.0  0.50247  0.91727  0.48948  1.0000
  H   H961      1.0  0.29187  0.79040  0.36589  1.0000
  C   C816      1.0  0.36734  0.69740  0.36312  1.0000
  H   H962      1.0  0.31895  0.81295  0.41791  1.0000
  C   C817      1.0  0.36969  0.69687  0.20294  1.0000
  H   H963      1.0  0.35237  0.71127  0.41099  1.0000
  C   C818      1.0  0.38787  0.71224  0.15108  1.0000
  H   H964      1.0  0.49566  0.91276  0.25784  1.0000
  H   H965      1.0  0.46682  0.99462  0.05632  1.0000
  H   H966      1.0  0.40525  0.69325  0.19554  1.0000
  H   H967      1.0  0.46438  0.99599  0.47245  1.0000
  H   H968      1.0  0.48163  0.00099  0.49784  1.0000
  S   S227      1.0  0.32385  0.81386  0.01001  1.0000
  C   C819      1.0  0.28771  0.77126  0.10403  1.0000
  H   H969      1.0  0.37406  0.68642  0.18714  1.0000
  H   H970      1.0  0.37688  0.74831  0.19404  1.0000
  H   H971      1.0  0.47032  0.94619  0.48364  1.0000
  H   H972      1.0  0.47033  0.90607  0.22547  1.0000
  H   H973      1.0  0.45677  0.96343  0.46529  1.0000
  C   C820      1.0  0.43303  0.00546  0.08848  1.0000
  H   H974      1.0  0.40814  0.90081  0.14549  1.0000
  C   C821      1.0  0.28976  0.82368  0.45122  1.0000
  H   H975      1.0  0.40028  0.69554  0.23350  1.0000
  H   H976      1.0  0.28126  0.71079  0.22717  1.0000
  H   H977      1.0  0.28003  0.81171  0.36664  1.0000
  H   H978      1.0  0.47278  0.97456  0.18977  1.0000
  C   C822      1.0  0.48726  0.91168  0.47515  1.0000
  H   H979      1.0  0.27734  0.73712  0.11259  1.0000
  H   H980      1.0  0.47574  0.90764  0.48771  1.0000
  H   H981      1.0  0.29902  0.74117  0.12715  1.0000
  H   H982      1.0  0.36778  0.68972  0.22412  1.0000
  C   C823      1.0  0.50174  0.96183  0.41320  1.0000
  C   C824      1.0  0.38097  0.74913  0.14847  1.0000
  H   H983      1.0  0.50006  0.92426  0.15103  1.0000
  C   C825      1.0  0.49903  0.92177  0.17426  1.0000
  C   C826      1.0  0.26795  0.70589  0.23045  1.0000
  H   H984      1.0  0.37594  0.70859  0.41578  1.0000
  H   H985      1.0  0.37624  0.71463  0.25105  1.0000
  C   C827      1.0  0.37368  0.85908  0.14289  1.0000
  C   C828      1.0  0.38368  0.72134  0.17744  1.0000
  H   H986      1.0  0.35997  0.86414  0.14548  1.0000
  H   H987      1.0  0.31779  0.80254  0.38371  1.0000
  H   H988      1.0  0.42531  0.86354  0.19409  1.0000
  H   H989      1.0  0.37791  0.76340  0.14724  1.0000
  H   H990      1.0  0.28079  0.73788  0.38890  1.0000
  H   H991      1.0  0.39003  0.68332  0.43569  1.0000
  C   C829      1.0  0.48234  0.91152  0.21622  1.0000
  C   C830      1.0  0.40053  0.70301  0.21228  1.0000
  C   C831      1.0  0.40884  0.84615  0.13430  1.0000
  H   H992      1.0  0.39692  0.82232  0.11859  1.0000
  C   C832      1.0  0.40602  0.86375  0.14518  1.0000
  N   N54       1.0  0.29252  0.80396  0.40723  1.0000
  S   S228      1.0  0.50301  0.92150  0.02531  1.0000
  H   H993      1.0  0.44449  0.87449  0.17934  1.0000
  C   C833      1.0  0.46517  0.96034  0.48472  1.0000
  C   C834      1.0  0.31000  0.81145  0.39892  1.0000
  C   C835      1.0  0.34677  0.67917  0.38988  1.0000
  H   H994      1.0  0.30813  0.82483  0.38832  1.0000
  H   H995      1.0  0.30304  0.76991  0.15487  1.0000
  C   C836      1.0  0.49668  0.91530  0.23462  1.0000
  C   C837      1.0  0.38793  0.86991  0.14938  1.0000
  C   C838      1.0  0.26298  0.79460  0.49217  1.0000
  H   H996      1.0  0.44404  0.98944  0.16702  1.0000
  C   C839      1.0  0.47694  0.99961  0.21089  1.0000
  H   H997      1.0  0.40872  0.89253  0.18288  1.0000
  H   H998      1.0  0.27665  0.78931  0.49171  1.0000
  H   H999      1.0  0.43769  0.86434  0.11527  1.0000
  C   C840      1.0  0.49170  0.97160  0.22468  1.0000
  H   H1000     1.0  0.50001  0.87264  0.46284  1.0000
  C   C841      1.0  0.43223  0.87717  0.12423  1.0000
  C   C842      1.0  0.41627  0.89309  0.16189  1.0000
  H   H1001     1.0  0.42396  0.88372  0.10684  1.0000
  N   N55       1.0  0.38270  0.71127  0.20537  1.0000
  N   N56       1.0  0.42148  0.87490  0.15124  1.0000
  C   C843      1.0  0.47983  0.98129  0.20676  1.0000
  H   H1002     1.0  0.43901  0.85307  0.16619  1.0000
  H   H1003     1.0  0.30387  0.78924  0.44382  1.0000
  H   H1004     1.0  0.42821  0.90116  0.16599  1.0000
  H   H1005     1.0  0.28323  0.78116  0.43102  1.0000
  H   H1006     1.0  0.47559  0.90569  0.43368  1.0000
  C   C844      1.0  0.43303  0.86606  0.17368  1.0000
  C   C845      1.0  0.28822  0.77134  0.15623  1.0000
  H   H1007     1.0  0.45140  0.99847  0.01070  1.0000
  H   H1008     1.0  0.28085  0.73705  0.15134  1.0000
  H   H1009     1.0  0.44397  0.88554  0.12794  1.0000
  S   S229      1.0  0.28192  0.68628  0.27718  1.0000
  H   H1010     1.0  0.27083  0.79223  0.38433  1.0000
  H   H1011     1.0  0.49385  0.95731  0.22153  1.0000
  C   C846      1.0  0.26002  0.76629  0.13290  1.0000
  H   H1012     1.0  0.30345  0.77697  0.41051  1.0000
  C   C847      1.0  0.26914  0.73604  0.37546  1.0000
  H   H1013     1.0  0.38088  0.70308  0.36223  1.0000
  C   C848      1.0  0.26383  0.82181  0.42031  1.0000
  C   C849      1.0  0.36342  0.70105  0.41462  1.0000
  H   H1014     1.0  0.39073  0.71403  0.10425  1.0000
  N   N57       1.0  0.36439  0.68762  0.39095  1.0000
  C   C850      1.0  0.37878  0.67364  0.39489  1.0000
  C   C851      1.0  0.38808  0.72131  0.12425  1.0000
  C   C852      1.0  0.49033  0.96113  0.43752  1.0000
  H   H1015     1.0  0.28462  0.78589  0.15766  1.0000
  H   H1016     1.0  0.48058  0.95085  0.43741  1.0000
  H   H1017     1.0  0.35728  0.70863  0.36010  1.0000
  S   S230      1.0  0.50206  0.91241  0.38953  1.0000
  H   H1018     1.0  0.28433  0.76491  0.17720  1.0000
  C   C853      1.0  0.26466  0.69406  0.25355  1.0000
  H   H1019     1.0  0.41077  0.71336  0.21387  1.0000
  C   C854      1.0  0.50225  0.91523  0.42787  1.0000
  C   C855      1.0  0.27059  0.72446  0.35191  1.0000
  H   H1020     1.0  0.50037  0.95244  0.39556  1.0000
  H   H1021     1.0  0.36069  0.69472  0.43619  1.0000
  C   C856      1.0  0.50069  0.98016  0.24683  1.0000
  H   H1022     1.0  0.47205  0.99984  0.10433  1.0000
  H   H1023     1.0  0.37288  0.88734  0.01208  1.0000
  H   H1024     1.0  0.49232  0.87923  0.00809  1.0000
  C   C857      1.0  0.49808  0.99882  0.25167  1.0000
  C   C858      1.0  0.48639  0.00200  0.09921  1.0000
  H   H1025     1.0  0.48754  0.00061  0.30722  1.0000
  H   H1026     1.0  0.26577  0.73657  0.05583  1.0000
  H   H1027     1.0  0.49339  0.00144  0.12054  1.0000
  H   H1028     1.0  0.36624  0.68866  0.34385  1.0000
  H   H1029     1.0  0.50644  0.98503  0.30562  1.0000
  Fe  Fe116     1.0  0.33422  0.79483  0.50099  1.0000
  C   C859      1.0  0.26025  0.80462  0.01563  1.0000
  C   C860      1.0  0.26222  0.83998  0.46371  1.0000
  H   H1030     1.0  0.25718  0.75135  0.17379  1.0000
  Fe  Fe117     1.0  0.33962  0.81964  0.55270  1.0000
  S   S231      1.0  0.35303  0.79353  0.53923  1.0000
  S   S232      1.0  0.35349  0.84167  0.57720  1.0000
  Fe  Fe118     1.0  0.30200  0.80620  0.53804  1.0000
  S   S233      1.0  0.31289  0.77937  0.52358  1.0000
  S   S234      1.0  0.27216  0.81300  0.54153  1.0000
  Fe  Fe119     1.0  0.33047  0.78048  0.56314  1.0000
  S   S235      1.0  0.33467  0.75592  0.59213  1.0000
  H   H1031     1.0  0.34821  0.84683  0.93516  1.0000
  S   S236      1.0  0.34905  0.78221  0.95525  1.0000
  S   S237      1.0  0.31815  0.80625  0.57909  1.0000
  C   C861      1.0  0.47934  0.98525  0.65083  1.0000
  Fe  Fe120     1.0  0.33555  0.73442  0.75957  1.0000
  S   S238      1.0  0.34033  0.70701  0.74180  1.0000
  S   S239      1.0  0.33376  0.75938  0.73072  1.0000
  Fe  Fe121     1.0  0.32834  0.71996  0.82120  1.0000
  S   S240      1.0  0.33201  0.69112  0.80732  1.0000
  S   S241      1.0  0.31847  0.72551  0.86743  1.0000
  Fe  Fe122     1.0  0.35598  0.70060  0.78248  1.0000
  S   S242      1.0  0.50368  0.91736  0.52807  1.0000
  Fe  Fe123     1.0  0.31607  0.69979  0.76782  1.0000
  H   H1032     1.0  0.28041  0.81165  0.98415  1.0000
  S   S243      1.0  0.35329  0.72907  0.79859  1.0000
  S   S244      1.0  0.31036  0.72758  0.78359  1.0000
  Fe  Fe124     1.0  0.43971  0.90694  0.56672  1.0000
  S   S245      1.0  0.46641  0.89652  0.58381  1.0000
  S   S246      1.0  0.42150  0.88762  0.54362  1.0000
  Fe  Fe125     1.0  0.45020  0.94639  0.57475  1.0000
  S   S247      1.0  0.47711  0.93823  0.59246  1.0000
  S   S248      1.0  0.44728  0.97615  0.56481  1.0000
  Fe  Fe126     1.0  0.47838  0.91822  0.55615  1.0000
  H   H1033     1.0  0.49961  0.97874  0.69885  1.0000
  Fe  Fe127     1.0  0.46251  0.91769  0.61825  1.0000
  S   S249      1.0  0.46506  0.91371  0.66738  1.0000
  S   S250      1.0  0.45225  0.92741  0.53712  1.0000
  S   S251      1.0  0.43505  0.92707  0.60274  1.0000
  C   C862      1.0  0.44307  0.99174  0.59294  1.0000
  H   H1034     1.0  0.37017  0.69123  0.87200  1.0000
  H   H1035     1.0  0.38498  0.82017  0.99323  1.0000
  C   C863      1.0  0.40269  0.87156  0.96152  1.0000
  C   C864      1.0  0.46486  0.98999  0.69777  1.0000
  H   H1036     1.0  0.38167  0.80256  0.58071  1.0000
  C   C865      1.0  0.37868  0.87872  0.99533  1.0000
  C   C866      1.0  0.42867  0.00059  0.63861  1.0000
  S   S252      1.0  0.29664  0.68468  0.74074  1.0000
  N   N58       1.0  0.36924  0.83413  0.96065  1.0000
  H   H1037     1.0  0.50153  0.92274  0.65106  1.0000
  H   H1038     1.0  0.48987  0.99508  0.65401  1.0000
  C   C867      1.0  0.27134  0.73708  0.84703  1.0000
  H   H1039     1.0  0.29138  0.75934  0.67050  1.0000
  C   C868      1.0  0.48624  0.91872  0.97196  1.0000
  H   H1040     1.0  0.49753  0.95418  0.50981  1.0000
  H   H1041     1.0  0.45003  0.96640  0.65901  1.0000
  C   C869      1.0  0.39428  0.85598  0.95355  1.0000
  C   C870      1.0  0.49063  0.96747  0.51310  1.0000
  H   H1042     1.0  0.39159  0.81954  0.94061  1.0000
  H   H1043     1.0  0.29298  0.71458  0.70432  1.0000
  H   H1044     1.0  0.34749  0.80519  0.64670  1.0000
  C   C871      1.0  0.38046  0.68089  0.87614  1.0000
  C   C872      1.0  0.37243  0.85430  0.56741  1.0000
  C   C873      1.0  0.37966  0.86564  0.58821  1.0000
  C   C874      1.0  0.39469  0.87589  0.58149  1.0000
  C   C875      1.0  0.40262  0.87499  0.55374  1.0000
  C   C876      1.0  0.39539  0.86361  0.53300  1.0000
  C   C877      1.0  0.38042  0.85333  0.53974  1.0000
  H   H1045     1.0  0.37361  0.86653  0.60968  1.0000
  H   H1046     1.0  0.40005  0.88455  0.59768  1.0000
  H   H1047     1.0  0.40138  0.86282  0.51146  1.0000
  H   H1048     1.0  0.37502  0.84473  0.52347  1.0000
  H   H1049     1.0  0.27298  0.76827  0.69215  1.0000
  C   C878      1.0  0.26622  0.81062  0.98835  1.0000
  H   H1050     1.0  0.37728  0.83226  0.91545  1.0000
  C   C879      1.0  0.44696  0.98861  0.70809  1.0000
  C   C880      1.0  0.34026  0.76647  0.93106  1.0000
  C   C881      1.0  0.32582  0.75604  0.93894  1.0000
  C   C882      1.0  0.31932  0.74360  0.91917  1.0000
  C   C883      1.0  0.32714  0.74145  0.89135  1.0000
  C   C884      1.0  0.34151  0.75196  0.88339  1.0000
  C   C885      1.0  0.34803  0.76439  0.90318  1.0000
  H   H1051     1.0  0.31970  0.75750  0.96028  1.0000
  H   H1052     1.0  0.30819  0.73554  0.92551  1.0000
  H   H1053     1.0  0.34763  0.75047  0.86204  1.0000
  H   H1054     1.0  0.35920  0.77239  0.89686  1.0000
  C   C886      1.0  0.33406  0.75815  0.69222  1.0000
  C   C887      1.0  0.33906  0.74234  0.67779  1.0000
  C   C888      1.0  0.33903  0.74182  0.64712  1.0000
  C   C889      1.0  0.33403  0.75707  0.63060  1.0000
  C   C890      1.0  0.32877  0.77281  0.64501  1.0000
  C   C891      1.0  0.32896  0.77339  0.67568  1.0000
  H   H1055     1.0  0.34318  0.73057  0.69020  1.0000
  H   H1056     1.0  0.34314  0.72958  0.63614  1.0000
  H   H1057     1.0  0.32460  0.78454  0.63254  1.0000
  H   H1058     1.0  0.32499  0.78567  0.68667  1.0000
  H   H1059     1.0  0.49447  0.98289  0.96973  1.0000
  C   C892      1.0  0.49819  0.92061  0.73575  1.0000
  H   H1060     1.0  0.48619  0.96129  0.71341  1.0000
  H   H1061     1.0  0.49717  0.91996  0.75928  1.0000
  C   C893      1.0  0.50052  0.92221  0.67460  1.0000
  H   H1062     1.0  0.42669  0.97458  0.61891  1.0000
  H   H1063     1.0  0.40117  0.84772  0.93756  1.0000
  H   H1064     1.0  0.48469  0.97537  0.63462  1.0000
  H   H1065     1.0  0.41549  0.87477  0.95188  1.0000
  H   H1066     1.0  0.49130  0.95538  0.90538  1.0000
  H   H1067     1.0  0.28265  0.72969  0.83737  1.0000
  C   C894      1.0  0.49609  0.87210  0.96303  1.0000
  H   H1068     1.0  0.30310  0.72914  0.67827  1.0000
  H   H1069     1.0  0.27530  0.69331  0.79244  1.0000
  H   H1070     1.0  0.28794  0.75301  0.87341  1.0000
  H   H1071     1.0  0.29526  0.77242  0.59045  1.0000
  H   H1072     1.0  0.35770  0.82565  0.63603  1.0000
  C   C895      1.0  0.39495  0.88286  0.98245  1.0000
  C   C896      1.0  0.37027  0.86308  0.98787  1.0000
  C   C897      1.0  0.27338  0.68855  0.74640  1.0000
  H   H1073     1.0  0.26105  0.72416  0.60922  1.0000
  H   H1074     1.0  0.36503  0.80932  0.98341  1.0000
  C   C898      1.0  0.28385  0.76552  0.58230  1.0000
  H   H1075     1.0  0.40154  0.82727  0.65879  1.0000
  H   H1076     1.0  0.42328  0.83983  0.57527  1.0000
  C   C899      1.0  0.27214  0.74052  0.55703  1.0000
  H   H1077     1.0  0.30651  0.73239  0.71615  1.0000
  H   H1078     1.0  0.40314  0.81904  0.55181  1.0000
  H   H1079     1.0  0.39649  0.68835  0.83923  1.0000
  H   H1080     1.0  0.47079  0.91365  0.72899  1.0000
  H   H1081     1.0  0.42222  0.84368  0.62862  1.0000
  C   C900      1.0  0.37777  0.85122  0.96666  1.0000
  C   C901      1.0  0.27429  0.75026  0.86744  1.0000
  H   H1082     1.0  0.36763  0.77586  0.64704  1.0000
  H   H1083     1.0  0.28289  0.73626  0.64212  1.0000
  C   C902      1.0  0.37756  0.82409  0.93587  1.0000
  C   C903      1.0  0.28666  0.74934  0.56798  1.0000
  C   C904      1.0  0.48434  0.91786  0.68793  1.0000
  C   C905      1.0  0.43888  0.00186  0.72568  1.0000
  H   H1084     1.0  0.26551  0.78592  0.59608  1.0000
  H   H1085     1.0  0.39205  0.79905  0.67868  1.0000
  H   H1086     1.0  0.39039  0.77761  0.63458  1.0000
  H   H1087     1.0  0.37189  0.78120  0.61009  1.0000
  C   C906      1.0  0.49372  0.96583  0.92188  1.0000
  H   H1088     1.0  0.46929  0.95179  0.65614  1.0000
  H   H1089     1.0  0.26317  0.76953  0.89637  1.0000
  H   H1090     1.0  0.30019  0.74375  0.56522  1.0000
  C   C907      1.0  0.26637  0.73405  0.68147  1.0000
  C   C908      1.0  0.28496  0.75897  0.69246  1.0000
  C   C909      1.0  0.48989  0.96858  0.69303  1.0000
  C   C910      1.0  0.50190  0.87702  0.99043  1.0000
  N   N59       1.0  0.47377  0.97652  0.67850  1.0000
  C   C911      1.0  0.46223  0.96157  0.67083  1.0000
  C   C912      1.0  0.43243  0.98762  0.61715  1.0000
  N   N60       1.0  0.28007  0.74066  0.70138  1.0000
  C   C913      1.0  0.29634  0.72870  0.69992  1.0000
  H   H1091     1.0  0.29485  0.76451  0.70768  1.0000
  C   C914      1.0  0.27013  0.73251  0.65116  1.0000
  S   S253      1.0  0.38337  0.68628  0.77709  1.0000
  C   C915      1.0  0.50315  0.99305  0.96156  1.0000
  H   H1092     1.0  0.47399  0.91692  0.98413  1.0000
  H   H1093     1.0  0.28450  0.74686  0.74658  1.0000
  H   H1094     1.0  0.42012  0.99742  0.65696  1.0000
  H   H1095     1.0  0.47386  0.91549  0.93016  1.0000
  H   H1096     1.0  0.50310  0.86638  0.91904  1.0000
  H   H1097     1.0  0.35467  0.80862  0.60980  1.0000
  Fe  Fe128     1.0  0.33818  0.78736  0.00117  1.0000
  S   S254      1.0  0.32218  0.82197  0.51297  1.0000
  H   H1098     1.0  0.45815  0.95372  0.69041  1.0000
  C   C916      1.0  0.48326  0.91707  0.71854  1.0000
  C   C917      1.0  0.26161  0.68687  0.72297  1.0000
  H   H1099     1.0  0.50197  0.97289  0.86834  1.0000
  H   H1100     1.0  0.37034  0.81165  0.93133  1.0000
  C   C918      1.0  0.34998  0.83730  0.95379  1.0000
  H   H1101     1.0  0.49714  0.95880  0.67865  1.0000
  C   C919      1.0  0.48623  0.91778  0.94133  1.0000
  C   C920      1.0  0.37074  0.82257  0.98696  1.0000
  H   H1102     1.0  0.43878  0.97761  0.70244  1.0000
  N   N61       1.0  0.37613  0.80295  0.64004  1.0000
  C   C921      1.0  0.37848  0.80415  0.67210  1.0000
  C   C922      1.0  0.35822  0.81088  0.63293  1.0000
  C   C923      1.0  0.37660  0.78364  0.63258  1.0000
  C   C924      1.0  0.38981  0.81247  0.62294  1.0000
  C   C925      1.0  0.39083  0.81070  0.59218  1.0000
  C   C926      1.0  0.40162  0.82458  0.63574  1.0000
  C   C927      1.0  0.40305  0.82016  0.57537  1.0000
  C   C928      1.0  0.41368  0.83411  0.61865  1.0000
  C   C929      1.0  0.41438  0.83192  0.58855  1.0000
  H   H1103     1.0  0.37628  0.81812  0.67985  1.0000
  H   H1104     1.0  0.36858  0.79609  0.68435  1.0000
  H   H1105     1.0  0.34351  0.82463  0.94799  1.0000
  H   H1106     1.0  0.35731  0.67403  0.71684  1.0000
  H   H1107     1.0  0.27442  0.72794  0.54584  1.0000
  H   H1108     1.0  0.48105  0.97403  0.92415  1.0000
  H   H1109     1.0  0.48202  0.96636  0.53300  1.0000
  C   C930      1.0  0.27408  0.74140  0.73235  1.0000
  H   H1110     1.0  0.26692  0.68397  0.70144  1.0000
  H   H1111     1.0  0.46778  0.99259  0.64056  1.0000
  C   C931      1.0  0.50216  0.92145  0.98674  1.0000
  S   S255      1.0  0.50128  0.91853  0.88661  1.0000
  C   C932      1.0  0.50210  0.91964  0.92514  1.0000
  H   H1112     1.0  0.50107  0.97711  0.51803  1.0000
  C   C933      1.0  0.25984  0.75965  0.88053  1.0000
  C   C934      1.0  0.39536  0.67929  0.85777  1.0000
  H   H1113     1.0  0.48195  0.87033  0.95955  1.0000
  H   H1114     1.0  0.40179  0.89462  0.98923  1.0000
  H   H1115     1.0  0.49629  0.95833  0.94263  1.0000
  C   C935      1.0  0.26655  0.77309  0.58551  1.0000
  H   H1116     1.0  0.46191  0.99097  0.51068  1.0000
  H   H1117     1.0  0.26190  0.75027  0.73516  1.0000
  H   H1118     1.0  0.34208  0.84272  0.97256  1.0000
  H   H1119     1.0  0.27130  0.72782  0.74113  1.0000
  H   H1120     1.0  0.49443  0.99415  0.88302  1.0000
  C   C936      1.0  0.47411  0.00526  0.70648  1.0000
  C   C937      1.0  0.26638  0.69220  0.77418  1.0000
  C   C938      1.0  0.50556  0.98382  0.88326  1.0000
  H   H1121     1.0  0.35821  0.86001  0.99985  1.0000
  H   H1122     1.0  0.25840  0.82053  0.94569  1.0000
  H   H1123     1.0  0.42508  0.00078  0.73272  1.0000
  H   H1124     1.0  0.45602  0.96108  0.50407  1.0000
  C   C939      1.0  0.25768  0.72572  0.63205  1.0000
  C   C940      1.0  0.25735  0.80631  0.51430  1.0000
  Fe  Fe129     1.0  0.67316  0.22849  0.44372  1.0000
  S   S256      1.0  0.68386  0.20220  0.42745  1.0000
  S   S257      1.0  0.67277  0.25282  0.41381  1.0000
  Fe  Fe130     1.0  0.66735  0.22504  0.00304  1.0000
  C   C941      1.0  0.54231  0.10663  0.07680  1.0000
  S   S258      1.0  0.65595  0.23417  0.04697  1.0000
  Fe  Fe131     1.0  0.70063  0.20144  0.46773  1.0000
  S   S259      1.0  0.73026  0.19457  0.46229  1.0000
  Fe  Fe132     1.0  0.66212  0.19004  0.45470  1.0000
  S   S260      1.0  0.64716  0.16893  0.42989  1.0000
  S   S261      1.0  0.69126  0.22862  0.48263  1.0000
  S   S262      1.0  0.65018  0.21678  0.46870  1.0000
  Fe  Fe133     1.0  0.68326  0.28499  0.18769  1.0000
  S   S263      1.0  0.67968  0.31412  0.20001  1.0000
  S   S264      1.0  0.69652  0.27644  0.14475  1.0000
  Fe  Fe134     1.0  0.67047  0.27176  0.24769  1.0000
  S   S265      1.0  0.66549  0.29958  0.26377  1.0000
  S   S266      1.0  0.66647  0.24704  0.27594  1.0000
  Fe  Fe135     1.0  0.65346  0.30607  0.22002  1.0000
  H   H1125     1.0  0.74392  0.25297  0.46329  1.0000
  Fe  Fe136     1.0  0.69202  0.30526  0.24281  1.0000
  H   H1126     1.0  0.59867  0.08268  0.48111  1.0000
  S   S267      1.0  0.65635  0.27737  0.20512  1.0000
  S   S268      1.0  0.69765  0.27698  0.22909  1.0000
  Fe  Fe137     1.0  0.56050  0.10807  0.44171  1.0000
  S   S269      1.0  0.53271  0.11702  0.42807  1.0000
  S   S270      1.0  0.57838  0.12603  0.46796  1.0000
  Fe  Fe138     1.0  0.55372  0.06905  0.42626  1.0000
  S   S271      1.0  0.52550  0.07509  0.41170  1.0000
  S   S272      1.0  0.56707  0.04139  0.42921  1.0000
  Fe  Fe139     1.0  0.53721  0.09895  0.38945  1.0000
  S   S273      1.0  0.53114  0.10934  0.34371  1.0000
  Fe  Fe140     1.0  0.52332  0.09247  0.45151  1.0000
  H   H1127     1.0  0.50773  0.03413  0.25677  1.0000
  S   S274      1.0  0.56583  0.09175  0.40137  1.0000
  S   S275      1.0  0.55065  0.08466  0.46772  1.0000
  H   H1128     1.0  0.73505  0.28393  0.15982  1.0000
  C   C942      1.0  0.65823  0.21082  0.17145  1.0000
  C   C943      1.0  0.71644  0.26497  0.43108  1.0000
  H   H1129     1.0  0.61375  0.04727  0.46118  1.0000
  C   C944      1.0  0.65083  0.11809  0.44561  1.0000
  H   H1130     1.0  0.67485  0.19185  0.07797  1.0000
  S   S276      1.0  0.68016  0.18663  0.49362  1.0000
  C   C945      1.0  0.74542  0.31678  0.29139  1.0000
  C   C946      1.0  0.54923  0.03080  0.38040  1.0000
  C   C947      1.0  0.55966  0.02546  0.40431  1.0000
  H   H1131     1.0  0.54546  0.04478  0.37718  1.0000
  N   N62       1.0  0.53604  0.12723  0.03307  1.0000
  H   H1132     1.0  0.67781  0.17581  0.14066  1.0000
  C   C948      1.0  0.68816  0.23195  0.17102  1.0000
  H   H1133     1.0  0.63125  0.27499  0.35144  1.0000
  C   C949      1.0  0.62771  0.15759  0.44073  1.0000
  C   C950      1.0  0.61925  0.14694  0.42027  1.0000
  C   C951      1.0  0.60408  0.13726  0.42809  1.0000
  C   C952      1.0  0.59719  0.13818  0.45652  1.0000
  C   C953      1.0  0.60556  0.14895  0.47688  1.0000
  C   C954      1.0  0.62070  0.15867  0.46904  1.0000
  C   C955      1.0  0.75081  0.27524  0.35786  1.0000
  H   H1134     1.0  0.59780  0.12900  0.41222  1.0000
  C   C956      1.0  0.56494  0.10922  0.03898  1.0000
  H   H1135     1.0  0.62706  0.16679  0.48500  1.0000
  C   C957      1.0  0.67251  0.25060  0.37542  1.0000
  C   C958      1.0  0.67401  0.26594  0.35780  1.0000
  C   C959      1.0  0.67278  0.26489  0.32727  1.0000
  C   C960      1.0  0.66989  0.24851  0.31403  1.0000
  C   C961      1.0  0.66893  0.23306  0.33162  1.0000
  C   C962      1.0  0.67030  0.23409  0.36218  1.0000
  H   H1136     1.0  0.67578  0.27876  0.36782  1.0000
  H   H1137     1.0  0.67371  0.27685  0.31406  1.0000
  H   H1138     1.0  0.66677  0.22032  0.32159  1.0000
  H   H1139     1.0  0.66918  0.22220  0.37549  1.0000
  C   C963      1.0  0.68484  0.26571  0.11684  1.0000
  C   C964      1.0  0.66649  0.26292  0.11914  1.0000
  C   C965      1.0  0.65772  0.25393  0.09693  1.0000
  C   C966      1.0  0.66718  0.24746  0.07232  1.0000
  C   C967      1.0  0.68551  0.25041  0.06984  1.0000
  C   C968      1.0  0.69427  0.25953  0.09199  1.0000
  H   H1140     1.0  0.65907  0.26762  0.13809  1.0000
  H   H1141     1.0  0.64352  0.25186  0.09900  1.0000
  H   H1142     1.0  0.69297  0.24544  0.05109  1.0000
  H   H1143     1.0  0.70845  0.26168  0.08997  1.0000
  H   H1144     1.0  0.59226  0.09237  0.44685  1.0000
  H   H1145     1.0  0.59026  0.33580  0.22416  1.0000
  C   C969      1.0  0.62372  0.32887  0.12752  1.0000
  H   H1146     1.0  0.65397  0.11446  0.39954  1.0000
  C   C970      1.0  0.64770  0.10961  0.41937  1.0000
  H   H1147     1.0  0.73984  0.31513  0.31305  1.0000
  H   H1148     1.0  0.70633  0.25969  0.44664  1.0000
  H   H1149     1.0  0.52170  0.11580  0.28382  1.0000
  C   C971      1.0  0.61116  0.06755  0.41429  1.0000
  C   C972      1.0  0.51542  0.10368  0.29081  1.0000
  H   H1150     1.0  0.65426  0.33281  0.29906  1.0000
  H   H1151     1.0  0.57000  0.11464  0.01869  1.0000
  C   C973      1.0  0.66487  0.18026  0.13058  1.0000
  H   H1152     1.0  0.67906  0.21409  0.08780  1.0000
  C   C974      1.0  0.66945  0.21060  0.14624  1.0000
  H   H1153     1.0  0.71090  0.23006  0.42131  1.0000
  C   C975      1.0  0.67848  0.20027  0.09674  1.0000
  H   H1154     1.0  0.63636  0.20244  0.12512  1.0000
  C   C976      1.0  0.75038  0.21822  0.04227  1.0000
  H   H1155     1.0  0.60036  0.14975  0.49894  1.0000
  H   H1156     1.0  0.51399  0.01178  0.06384  1.0000
  H   H1157     1.0  0.73727  0.25949  0.12429  1.0000
  N   N63       1.0  0.50763  0.00748  0.27554  1.0000
  C   C977      1.0  0.61493  0.20215  0.40794  1.0000
  C   C978      1.0  0.62315  0.23115  0.34095  1.0000
  C   C979      1.0  0.64258  0.11224  0.47112  1.0000
  C   C980      1.0  0.52050  0.07159  0.05857  1.0000
  H   H1158     1.0  0.64682  0.21933  0.10389  1.0000
  H   H1159     1.0  0.63016  0.26487  0.40288  1.0000
  C   C981      1.0  0.62746  0.08907  0.44408  1.0000
  H   H1160     1.0  0.58904  0.09291  0.04493  1.0000
  C   C982      1.0  0.63539  0.19513  0.36864  1.0000
  H   H1161     1.0  0.50915  0.13904  0.03229  1.0000
  C   C983      1.0  0.73759  0.24285  0.44956  1.0000
  C   C984      1.0  0.73825  0.21557  0.01961  1.0000
  H   H1162     1.0  0.51804  0.13558  0.06796  1.0000
  C   C985      1.0  0.74123  0.32081  0.23948  1.0000
  H   H1163     1.0  0.69954  0.24052  0.17075  1.0000
  H   H1164     1.0  0.65326  0.22135  0.21469  1.0000
  H   H1165     1.0  0.54663  0.14988  0.05446  1.0000
  H   H1166     1.0  0.63373  0.18056  0.37262  1.0000
  H   H1167     1.0  0.61169  0.18792  0.41191  1.0000
  H   H1168     1.0  0.62338  0.06174  0.40339  1.0000
  C   C986      1.0  0.74498  0.20224  0.48881  1.0000
  C   C987      1.0  0.63119  0.09786  0.47052  1.0000
  H   H1169     1.0  0.60571  0.32068  0.16139  1.0000
  C   C988      1.0  0.57029  0.08933  0.08020  1.0000
  C   C989      1.0  0.54401  0.01811  0.36014  1.0000
  H   H1170     1.0  0.67980  0.23981  0.21420  1.0000
  H   H1171     1.0  0.57880  0.07955  0.09158  1.0000
  C   C990      1.0  0.75206  0.17008  0.03346  1.0000
  S   S277      1.0  0.71048  0.31937  0.27319  1.0000
  S   S278      1.0  0.50752  0.07284  0.11458  1.0000
  C   C991      1.0  0.62829  0.26125  0.35665  1.0000
  C   C992      1.0  0.57602  0.09683  0.05395  1.0000
  H   H1172     1.0  0.65409  0.17790  0.14686  1.0000
  C   C993      1.0  0.54444  0.14485  0.03208  1.0000
  H   H1173     1.0  0.60518  0.07842  0.40028  1.0000
  H   H1174     1.0  0.66242  0.17128  0.11193  1.0000
  C   C994      1.0  0.62613  0.24908  0.33436  1.0000
  H   H1175     1.0  0.59154  0.20820  0.36308  1.0000
  N   N64       1.0  0.61502  0.07412  0.44398  1.0000
  C   C995      1.0  0.51988  0.07462  0.02829  1.0000
  H   H1176     1.0  0.74647  0.28161  0.33760  1.0000
  H   H1177     1.0  0.72283  0.27639  0.44164  1.0000
  H   H1178     1.0  0.62757  0.25342  0.31181  1.0000
  H   H1179     1.0  0.54260  0.12941  0.48811  1.0000
  H   H1180     1.0  0.73248  0.32231  0.22089  1.0000
  H   H1181     1.0  0.60132  0.05671  0.41490  1.0000
  H   H1182     1.0  0.69351  0.22295  0.12827  1.0000
  H   H1183     1.0  0.72404  0.21812  0.02313  1.0000
  H   H1184     1.0  0.60330  0.21056  0.41582  1.0000
  C   C996      1.0  0.51005  0.08143  0.32818  1.0000
  C   C997      1.0  0.68450  0.22166  0.14665  1.0000
  H   H1185     1.0  0.62665  0.20437  0.42203  1.0000
  H   H1186     1.0  0.71299  0.24185  0.38785  1.0000
  C   C998      1.0  0.64743  0.20482  0.10940  1.0000
  H   H1187     1.0  0.73049  0.22605  0.39913  1.0000
  H   H1188     1.0  0.62243  0.22214  0.32281  1.0000
  N   N65       1.0  0.72996  0.25093  0.42242  1.0000
  H   H1189     1.0  0.72458  0.26719  0.36899  1.0000
  H   H1190     1.0  0.72711  0.23677  0.46345  1.0000
  H   H1191     1.0  0.64433  0.19765  0.08899  1.0000
  S   S279      1.0  0.62556  0.31986  0.21917  1.0000
  H   H1192     1.0  0.60036  0.18553  0.36584  1.0000
  C   C999      1.0  0.51821  0.09711  0.31933  1.0000
  H   H1193     1.0  0.63916  0.19695  0.34532  1.0000
  C   C1000     1.0  0.62455  0.23764  0.39248  1.0000
  C   C1001     1.0  0.62275  0.05883  0.46111  1.0000
  H   H1194     1.0  0.62480  0.23406  0.41534  1.0000
  C   C1002     1.0  0.62192  0.22492  0.37025  1.0000
  C   C1003     1.0  0.62759  0.25553  0.38562  1.0000
  H   H1195     1.0  0.51141  0.03324  0.29515  1.0000
  H   H1196     1.0  0.62461  0.14596  0.39833  1.0000
  H   H1197     1.0  0.62510  0.09387  0.49090  1.0000
  H   H1198     1.0  0.64701  0.19902  0.38187  1.0000
  C   C1004     1.0  0.74354  0.25889  0.40300  1.0000
  H   H1199     1.0  0.53619  0.02249  0.34151  1.0000
  C   C1005     1.0  0.63621  0.09531  0.41843  1.0000
  H   H1200     1.0  0.69215  0.19576  0.10373  1.0000
  H   H1201     1.0  0.54889  0.08820  0.11182  1.0000
  H   H1202     1.0  0.60665  0.19903  0.33581  1.0000
  N   N66       1.0  0.61900  0.20579  0.37669  1.0000
  C   C1006     1.0  0.67698  0.23170  0.19545  1.0000
  C   C1007     1.0  0.72078  0.23665  0.40688  1.0000
  H   H1203     1.0  0.51081  0.11685  0.04693  1.0000
  H   H1204     1.0  0.53142  0.07115  0.01482  1.0000
  H   H1205     1.0  0.51201  0.07629  0.35006  1.0000
  N   N67       1.0  0.66526  0.19926  0.12108  1.0000
  C   C1008     1.0  0.60375  0.19945  0.35958  1.0000
  H   H1206     1.0  0.63288  0.31741  0.13066  1.0000
  C   C1009     1.0  0.51775  0.12977  0.04575  1.0000
  H   H1207     1.0  0.53257  0.06577  0.06817  1.0000
  C   C1010     1.0  0.66200  0.22122  0.19565  1.0000
  H   H1208     1.0  0.70862  0.27036  0.41219  1.0000
  H   H1209     1.0  0.64636  0.20304  0.17258  1.0000
  C   C1011     1.0  0.59767  0.07991  0.45748  1.0000
  H   H1210     1.0  0.52241  0.14065  0.49962  1.0000
  H   H1211     1.0  0.58749  0.06950  0.45561  1.0000
  C   C1012     1.0  0.55352  0.09429  0.09165  1.0000
  C   C1013     1.0  0.54763  0.11433  0.04972  1.0000
  H   H1212     1.0  0.65934  0.12951  0.44605  1.0000
  H   H1213     1.0  0.63594  0.05418  0.45191  1.0000
  H   H1214     1.0  0.74215  0.17839  0.04494  1.0000
  H   H1215     1.0  0.52935  0.10944  0.08670  1.0000
  C   C1014     1.0  0.73838  0.26695  0.37602  1.0000
  H   H1216     1.0  0.63423  0.08956  0.39729  1.0000
  C   C1015     1.0  0.73393  0.31830  0.26734  1.0000
  H   H1217     1.0  0.74542  0.22287  0.06321  1.0000
  C   C1016     1.0  0.60835  0.33070  0.14475  1.0000
  H   H1218     1.0  0.62484  0.06235  0.48429  1.0000
  H   H1219     1.0  0.52488  0.11655  0.50228  1.0000
  H   H1220     1.0  0.64476  0.11915  0.49136  1.0000
  C   C1017     1.0  0.74792  0.27706  0.15592  1.0000
  H   H1221     1.0  0.67760  0.33406  0.30422  1.0000
  H   H1222     1.0  0.53166  0.00961  0.24970  1.0000
  C   C1018     1.0  0.74724  0.16138  0.00821  1.0000
  H   H1223     1.0  0.51556  0.01989  0.10056  1.0000
  H   H1224     1.0  0.51123  0.03526  0.07161  1.0000
  H   H1225     1.0  0.74752  0.23179  0.44474  1.0000
  C   C1019     1.0  0.50819  0.02164  0.07966  1.0000
  C   C1020     1.0  0.74914  0.26322  0.13586  1.0000
  H   H1226     1.0  0.53490  0.01154  0.28840  1.0000
  H   H1227     1.0  0.53599  0.15500  0.02006  1.0000
  H   H1228     1.0  0.55769  0.14416  0.02068  1.0000
  H   H1229     1.0  0.68015  0.33888  0.24972  1.0000
  H   H1230     1.0  0.74935  0.13916  0.49544  1.0000
  C   C1021     1.0  0.56457  0.00725  0.40804  1.0000
  H   H1231     1.0  0.65628  0.33872  0.24676  1.0000
  H   H1232     1.0  0.53025  0.10677  0.00260  1.0000
  C   C1022     1.0  0.53404  0.12092  0.00276  1.0000
  Fe  Fe141     1.0  0.67193  0.23575  0.93886  1.0000
  S   S280      1.0  0.68398  0.20889  0.92745  1.0000
  S   S281      1.0  0.67159  0.25996  0.90831  1.0000
  N   N68       1.0  0.53915  0.13066  0.53490  1.0000
  C   C1023     1.0  0.71791  0.25117  0.90735  1.0000
  S   S282      1.0  0.66325  0.21778  0.55451  1.0000
  Fe  Fe142     1.0  0.69976  0.21101  0.96863  1.0000
  H   H1233     1.0  0.51784  0.03041  0.68174  1.0000
  Fe  Fe143     1.0  0.66218  0.19719  0.95555  1.0000
  S   S283      1.0  0.64967  0.17226  0.93651  1.0000
  S   S284      1.0  0.68911  0.23869  0.97847  1.0000
  S   S285      1.0  0.64897  0.22429  0.96418  1.0000
  Fe  Fe144     1.0  0.67017  0.29435  0.67517  1.0000
  S   S286      1.0  0.67917  0.32192  0.68587  1.0000
  S   S287      1.0  0.66851  0.28992  0.62614  1.0000
  Fe  Fe145     1.0  0.66918  0.28362  0.74006  1.0000
  S   S288      1.0  0.67838  0.31018  0.75484  1.0000
  S   S289      1.0  0.66337  0.26034  0.77054  1.0000
  Fe  Fe146     1.0  0.65849  0.32174  0.72183  1.0000
  C   C1024     1.0  0.60755  0.31899  0.78568  1.0000
  Fe  Fe147     1.0  0.69797  0.30797  0.71753  1.0000
  S   S290      1.0  0.72802  0.31138  0.71495  1.0000
  S   S291      1.0  0.64820  0.29506  0.70923  1.0000
  S   S292      1.0  0.69012  0.28048  0.70474  1.0000
  Fe  Fe148     1.0  0.56452  0.10600  0.93915  1.0000
  S   S293      1.0  0.53618  0.11209  0.92455  1.0000
  S   S294      1.0  0.57807  0.12955  0.96099  1.0000
  Fe  Fe149     1.0  0.56066  0.06596  0.92583  1.0000
  S   S295      1.0  0.53230  0.06950  0.91057  1.0000
  S   S296      1.0  0.57338  0.03811  0.93045  1.0000
  Fe  Fe150     1.0  0.54221  0.09368  0.88691  1.0000
  S   S297      1.0  0.53605  0.10284  0.84030  1.0000
  Fe  Fe151     1.0  0.52871  0.08736  0.94955  1.0000
  C   C1025     1.0  0.75510  0.28776  0.64431  1.0000
  S   S298      1.0  0.57118  0.08912  0.89974  1.0000
  S   S299      1.0  0.55646  0.08231  0.96650  1.0000
  C   C1026     1.0  0.55597  0.01364  0.85788  1.0000
  H   H1234     1.0  0.56028  0.11671  0.55924  1.0000
  H   H1235     1.0  0.61417  0.29086  0.75418  1.0000
  C   C1027     1.0  0.51548  0.08088  0.56180  1.0000
  C   C1028     1.0  0.51730  0.12946  0.61023  1.0000
  C   C1029     1.0  0.59033  0.13366  0.85344  1.0000
  H   H1236     1.0  0.52479  0.11134  0.78186  1.0000
  H   H1237     1.0  0.74280  0.33014  0.81459  1.0000
  C   C1030     1.0  0.75397  0.14784  0.51233  1.0000
  C   C1031     1.0  0.56807  0.02184  0.90461  1.0000
  H   H1238     1.0  0.74478  0.21898  0.87650  1.0000
  C   C1032     1.0  0.61521  0.29133  0.88784  1.0000
  H   H1239     1.0  0.59147  0.16156  0.98536  1.0000
  H   H1240     1.0  0.55630  0.04068  0.87391  1.0000
  H   H1241     1.0  0.63254  0.26854  0.87825  1.0000
  C   C1033     1.0  0.62976  0.16052  0.94415  1.0000
  C   C1034     1.0  0.62672  0.14472  0.92881  1.0000
  C   C1035     1.0  0.61110  0.13502  0.93369  1.0000
  C   C1036     1.0  0.59825  0.14099  0.95411  1.0000
  C   C1037     1.0  0.60128  0.15676  0.96952  1.0000
  C   C1038     1.0  0.61690  0.16649  0.96458  1.0000
  H   H1242     1.0  0.63664  0.13988  0.91317  1.0000
  H   H1243     1.0  0.60907  0.12286  0.92181  1.0000
  C   C1039     1.0  0.73859  0.21191  0.51291  1.0000
  H   H1244     1.0  0.61898  0.17859  0.97655  1.0000
  C   C1040     1.0  0.67062  0.25923  0.86988  1.0000
  C   C1041     1.0  0.67498  0.27449  0.85359  1.0000
  C   C1042     1.0  0.67364  0.27477  0.82300  1.0000
  C   C1043     1.0  0.66742  0.25992  0.80851  1.0000
  C   C1044     1.0  0.66348  0.24450  0.82474  1.0000
  C   C1045     1.0  0.66520  0.24408  0.85530  1.0000
  H   H1245     1.0  0.67919  0.28627  0.86475  1.0000
  H   H1246     1.0  0.67693  0.28666  0.81081  1.0000
  H   H1247     1.0  0.65869  0.23293  0.81370  1.0000
  H   H1248     1.0  0.66178  0.23226  0.86763  1.0000
  C   C1046     1.0  0.66750  0.26956  0.60690  1.0000
  C   C1047     1.0  0.66926  0.26993  0.57634  1.0000
  C   C1048     1.0  0.66841  0.25414  0.56004  1.0000
  C   C1049     1.0  0.66553  0.23783  0.57416  1.0000
  C   C1050     1.0  0.66397  0.23744  0.60477  1.0000
  C   C1051     1.0  0.66507  0.25320  0.62112  1.0000
  H   H1249     1.0  0.67107  0.28254  0.56515  1.0000
  H   H1250     1.0  0.66953  0.25464  0.53652  1.0000
  H   H1251     1.0  0.66169  0.22488  0.61585  1.0000
  H   H1252     1.0  0.66365  0.25273  0.64460  1.0000
  H   H1253     1.0  0.59308  0.31703  0.78994  1.0000
  C   C1052     1.0  0.73579  0.32174  0.77134  1.0000
  C   C1053     1.0  0.74229  0.31662  0.74383  1.0000
  H   H1254     1.0  0.72436  0.21461  0.51575  1.0000
  H   H1255     1.0  0.54540  0.10258  0.54078  1.0000
  H   H1256     1.0  0.72150  0.32291  0.77531  1.0000
  C   C1054     1.0  0.57955  0.16335  0.83886  1.0000
  C   C1055     1.0  0.62211  0.12394  0.85516  1.0000
  H   H1257     1.0  0.56557  0.16386  0.89377  1.0000
  H   H1258     1.0  0.52788  0.01338  0.78520  1.0000
  C   C1056     1.0  0.75060  0.21773  0.53387  1.0000
  C   C1057     1.0  0.73973  0.25564  0.86894  1.0000
  H   H1259     1.0  0.52801  0.07707  0.57217  1.0000
  C   C1058     1.0  0.74420  0.27739  0.62621  1.0000
  N   N69       1.0  0.61878  0.30329  0.79563  1.0000
  H   H1260     1.0  0.70524  0.22697  0.87046  1.0000
  C   C1059     1.0  0.74491  0.25258  0.75519  1.0000
  H   H1261     1.0  0.73367  0.16298  0.00012  1.0000
  H   H1262     1.0  0.55424  0.13062  0.86696  1.0000
  H   H1263     1.0  0.59704  0.08981  0.83316  1.0000
  C   C1060     1.0  0.60680  0.31034  0.84666  1.0000
  C   C1061     1.0  0.60029  0.10312  0.84007  1.0000
  H   H1264     1.0  0.54975  0.01765  0.83751  1.0000
  C   C1062     1.0  0.74205  0.16038  0.52479  1.0000
  H   H1265     1.0  0.69723  0.23812  0.78058  1.0000
  C   C1063     1.0  0.74786  0.32581  0.79354  1.0000
  H   H1266     1.0  0.75550  0.25885  0.69992  1.0000
  H   H1267     1.0  0.57324  0.11222  0.83892  1.0000
  H   H1268     1.0  0.54744  0.15271  0.85597  1.0000
  H   H1269     1.0  0.72730  0.25569  0.92416  1.0000
  H   H1270     1.0  0.52365  0.12883  0.99044  1.0000
  H   H1271     1.0  0.61478  0.28841  0.91105  1.0000
  C   C1064     1.0  0.73047  0.26527  0.75920  1.0000
  H   H1272     1.0  0.70944  0.26297  0.90044  1.0000
  H   H1273     1.0  0.72452  0.30893  0.63119  1.0000
  C   C1065     1.0  0.60854  0.13715  0.85880  1.0000
  H   H1274     1.0  0.59236  0.16965  0.84393  1.0000
  H   H1275     1.0  0.72125  0.23077  0.84157  1.0000
  H   H1276     1.0  0.57435  0.14209  0.90392  1.0000
  C   C1066     1.0  0.52918  0.01010  0.71083  1.0000
  C   C1067     1.0  0.62518  0.28011  0.86931  1.0000
  H   H1277     1.0  0.56881  0.17400  0.84106  1.0000
  H   H1278     1.0  0.51920  0.03215  0.98594  1.0000
  C   C1068     1.0  0.71049  0.24211  0.77396  1.0000
  H   H1279     1.0  0.72178  0.21530  0.77438  1.0000
  C   C1069     1.0  0.61688  0.29914  0.82714  1.0000
  H   H1280     1.0  0.74964  0.29840  0.65792  1.0000
  H   H1281     1.0  0.53933  0.15936  0.53338  1.0000
  C   C1070     1.0  0.55965  0.02674  0.87848  1.0000
  N   N70       1.0  0.72452  0.28040  0.62431  1.0000
  C   C1071     1.0  0.71783  0.29683  0.63946  1.0000
  C   C1072     1.0  0.54876  0.14759  0.53619  1.0000
  C   C1073     1.0  0.71559  0.26494  0.63771  1.0000
  H   H1282     1.0  0.70564  0.24816  0.85295  1.0000
  C   C1074     1.0  0.61797  0.10692  0.84595  1.0000
  H   H1283     1.0  0.60022  0.28337  0.78380  1.0000
  C   C1075     1.0  0.71894  0.28218  0.59338  1.0000
  C   C1076     1.0  0.57638  0.15365  0.88896  1.0000
  H   H1284     1.0  0.58016  0.15924  0.81559  1.0000
  C   C1077     1.0  0.51997  0.02629  0.70426  1.0000
  H   H1285     1.0  0.70322  0.29941  0.63642  1.0000
  H   H1286     1.0  0.71971  0.29568  0.66336  1.0000
  H   H1287     1.0  0.52691  0.08114  0.51839  1.0000
  H   H1288     1.0  0.70433  0.28565  0.59156  1.0000
  H   H1289     1.0  0.55921  0.14829  0.51868  1.0000
  C   C1078     1.0  0.61388  0.28771  0.77799  1.0000
  H   H1290     1.0  0.70074  0.26697  0.63768  1.0000
  C   C1079     1.0  0.60600  0.30637  0.87655  1.0000
  H   H1291     1.0  0.51179  0.07339  0.84892  1.0000
  H   H1292     1.0  0.62338  0.27600  0.78085  1.0000
  Fe  Fe152     1.0  0.66959  0.21426  0.50623  1.0000
  H   H1293     1.0  0.72754  0.21655  0.90335  1.0000
  H   H1294     1.0  0.55637  0.13754  0.82927  1.0000
  H   H1295     1.0  0.71826  0.27461  0.85565  1.0000
  H   H1296     1.0  0.70271  0.26998  0.77109  1.0000
  C   C1080     1.0  0.51493  0.08332  0.53136  1.0000
  H   H1297     1.0  0.73208  0.27936  0.75492  1.0000
  H   H1298     1.0  0.54400  0.13070  0.59424  1.0000
  C   C1081     1.0  0.63767  0.30722  0.78924  1.0000
  C   C1082     1.0  0.71358  0.26006  0.76853  1.0000
  C   C1083     1.0  0.71445  0.23690  0.86091  1.0000
  H   H1299     1.0  0.59834  0.31512  0.89114  1.0000
  C   C1084     1.0  0.55227  0.11546  0.53919  1.0000
  N   N71       1.0  0.72766  0.24262  0.88255  1.0000
  C   C1085     1.0  0.74363  0.28434  0.84342  1.0000
  H   H1300     1.0  0.54656  0.12168  0.98978  1.0000
  C   C1086     1.0  0.74787  0.17162  0.54643  1.0000
  H   H1301     1.0  0.71971  0.26287  0.66079  1.0000
  H   H1302     1.0  0.70868  0.24179  0.91827  1.0000
  H   H1303     1.0  0.55570  0.14910  0.55727  1.0000
  H   H1304     1.0  0.71870  0.25231  0.62582  1.0000
  H   H1305     1.0  0.73784  0.29650  0.83372  1.0000
  C   C1087     1.0  0.74135  0.23435  0.76121  1.0000
  C   C1088     1.0  0.52589  0.02013  0.94474  1.0000
  H   H1306     1.0  0.63956  0.31098  0.76598  1.0000
  H   H1307     1.0  0.63587  0.12684  0.85998  1.0000
  C   C1089     1.0  0.74451  0.20930  0.99263  1.0000
  C   C1090     1.0  0.62599  0.28389  0.83943  1.0000
  H   H1308     1.0  0.63411  0.27490  0.82607  1.0000
  S   S300      1.0  0.72968  0.20491  0.96409  1.0000
  C   C1091     1.0  0.58662  0.11624  0.84359  1.0000
  S   S301      1.0  0.67921  0.19714  0.99607  1.0000
  C   C1092     1.0  0.55783  0.14190  0.85224  1.0000
  C   C1093     1.0  0.52521  0.13040  0.55809  1.0000
  H   H1309     1.0  0.61159  0.33156  0.79616  1.0000
  H   H1310     1.0  0.60914  0.32151  0.76177  1.0000
  H   H1311     1.0  0.51139  0.04120  0.77271  1.0000
  H   H1312     1.0  0.58920  0.15958  0.89508  1.0000
  H   H1313     1.0  0.72633  0.29285  0.58192  1.0000
  H   H1314     1.0  0.74553  0.22492  0.55275  1.0000
  N   N72       1.0  0.57618  0.14780  0.85817  1.0000
  H   H1315     1.0  0.73856  0.18149  0.55583  1.0000
  H   H1316     1.0  0.64217  0.31856  0.80251  1.0000
  H   H1317     1.0  0.61243  0.15004  0.86646  1.0000
  H   H1318     1.0  0.53493  0.03054  0.93843  1.0000
  H   H1319     1.0  0.72110  0.26957  0.58106  1.0000
  C   C1094     1.0  0.51987  0.09326  0.81773  1.0000
  H   H1320     1.0  0.59958  0.32233  0.83947  1.0000
  C   C1095     1.0  0.72433  0.22929  0.77038  1.0000
  C   C1096     1.0  0.53014  0.13040  0.58792  1.0000
  C   C1097     1.0  0.73255  0.27166  0.85594  1.0000
  H   H1321     1.0  0.62847  0.09662  0.84357  1.0000
  H   H1322     1.0  0.75611  0.14409  0.97352  1.0000
  H   H1323     1.0  0.64687  0.29551  0.79349  1.0000
  H   H1324     1.0  0.56207  0.11433  0.52080  1.0000
  C   C1098     1.0  0.51714  0.02098  0.97162  1.0000
  H   H1325     1.0  0.72831  0.16162  0.51736  1.0000
  H   H1326     1.0  0.74560  0.25455  0.59679  1.0000
  C   C1099     1.0  0.52568  0.01637  0.76236  1.0000
  C   C1100     1.0  0.51356  0.03738  0.72655  1.0000
  C   C1101     1.0  0.51635  0.03240  0.75550  1.0000
  C   C1102     1.0  0.51707  0.10026  0.78945  1.0000
  C   C1103     1.0  0.50981  0.07890  0.82724  1.0000
  H   H1327     1.0  0.52139  0.12863  0.63283  1.0000
  C   C1104     1.0  0.75299  0.26339  0.61028  1.0000
  H   H1328     1.0  0.75224  0.28000  0.71758  1.0000
  C   C1105     1.0  0.73711  0.22619  0.89396  1.0000
  H   H1329     1.0  0.75142  0.22373  0.75875  1.0000
  C   C1106     1.0  0.53185  0.12927  0.50503  1.0000
  H   H1330     1.0  0.74633  0.22919  0.91205  1.0000
  C   C1107     1.0  0.59664  0.34560  0.14138  1.0000
  Fe  Fe153     1.0  0.55713  0.56285  0.09317  1.0000
  S   S302      1.0  0.52840  0.56288  0.07986  1.0000
  S   S303      1.0  0.57304  0.53666  0.09826  1.0000
  Fe  Fe154     1.0  0.55872  0.60397  0.08929  1.0000
  S   S304      1.0  0.52985  0.60674  0.07512  1.0000
  S   S305      1.0  0.57518  0.62792  0.10243  1.0000
  Fe  Fe155     1.0  0.52457  0.58614  0.11035  1.0000
  N   N73       1.0  0.57241  0.63361  0.49378  1.0000
  Fe  Fe156     1.0  0.53620  0.58314  0.04600  1.0000
  H   H1331     1.0  0.56516  0.62676  0.19791  1.0000
  S   S306      1.0  0.55291  0.58460  0.12619  1.0000
  S   S307      1.0  0.56545  0.58187  0.05780  1.0000
  Fe  Fe157     1.0  0.54703  0.44790  0.18162  1.0000
  S   S308      1.0  0.52171  0.43454  0.17098  1.0000
  S   S309      1.0  0.54226  0.47789  0.18357  1.0000
  Fe  Fe158     1.0  0.56659  0.41170  0.19512  1.0000
  S   S310      1.0  0.54200  0.39614  0.18652  1.0000
  S   S311      1.0  0.59509  0.40036  0.20290  1.0000
  Fe  Fe159     1.0  0.53887  0.41434  0.14720  1.0000
  C   C1108     1.0  0.57271  0.37613  0.13706  1.0000
  Fe  Fe160     1.0  0.52697  0.41805  0.21143  1.0000
  H   H1332     1.0  0.58991  0.40406  0.12065  1.0000
  S   S312      1.0  0.56404  0.42897  0.15457  1.0000
  S   S313      1.0  0.55175  0.43228  0.22316  1.0000
  C   C1109     1.0  0.61728  0.38946  0.27591  1.0000
  H   H1333     1.0  0.63424  0.41191  0.27556  1.0000
  H   H1334     1.0  0.60523  0.64974  0.01288  1.0000
  C   C1110     1.0  0.68353  0.65622  0.08578  1.0000
  H   H1335     1.0  0.60370  0.36474  0.27542  1.0000
  H   H1336     1.0  0.54115  0.62458  0.12999  1.0000
  C   C1111     1.0  0.56437  0.52029  0.12174  1.0000
  C   C1112     1.0  0.57279  0.50319  0.12320  1.0000
  C   C1113     1.0  0.56601  0.48987  0.14170  1.0000
  C   C1114     1.0  0.55091  0.49373  0.15907  1.0000
  C   C1115     1.0  0.54249  0.51081  0.15752  1.0000
  C   C1116     1.0  0.54909  0.52401  0.13874  1.0000
  H   H1337     1.0  0.58463  0.50029  0.11008  1.0000
  H   H1338     1.0  0.57266  0.47678  0.14295  1.0000
  H   H1339     1.0  0.53080  0.51389  0.17087  1.0000
  H   H1340     1.0  0.54252  0.53714  0.13772  1.0000
  H   H1341     1.0  0.66193  0.39402  0.27906  1.0000
  C   C1117     1.0  0.53180  0.46418  0.04616  1.0000
  C   C1118     1.0  0.61572  0.35677  0.10286  1.0000
  C   C1119     1.0  0.57936  0.66553  0.48208  1.0000
  C   C1120     1.0  0.51542  0.58453  0.22462  1.0000
  C   C1121     1.0  0.51073  0.64231  0.19715  1.0000
  C   C1122     1.0  0.64533  0.60444  0.06495  1.0000
  H   H1342     1.0  0.52295  0.61989  0.27123  1.0000
  H   H1343     1.0  0.68518  0.37565  0.26618  1.0000
  C   C1123     1.0  0.59876  0.65512  0.09610  1.0000
  C   C1124     1.0  0.58947  0.64183  0.08167  1.0000
  C   C1125     1.0  0.59192  0.63999  0.05156  1.0000
  C   C1126     1.0  0.60345  0.65134  0.03615  1.0000
  H   H1344     1.0  0.53323  0.49442  0.10049  1.0000
  N   N74       1.0  0.52648  0.48130  0.06056  1.0000
  H   H1345     1.0  0.58491  0.62984  0.04013  1.0000
  N   N75       1.0  0.58824  0.37542  0.11664  1.0000
  C   C1127     1.0  0.51273  0.40064  0.32182  1.0000
  C   C1128     1.0  0.59188  0.36391  0.21377  1.0000
  C   C1129     1.0  0.60311  0.37772  0.20590  1.0000
  C   C1130     1.0  0.62145  0.37362  0.20121  1.0000
  C   C1131     1.0  0.54039  0.52589  0.02724  1.0000
  H   H1346     1.0  0.57777  0.36686  0.21765  1.0000
  H   H1347     1.0  0.56375  0.36480  0.13382  1.0000
  C   C1132     1.0  0.56622  0.62986  0.46391  1.0000
  H   H1348     1.0  0.66741  0.58660  0.05365  1.0000
  C   C1133     1.0  0.59902  0.34632  0.21757  1.0000
  H   H1349     1.0  0.63025  0.38420  0.19508  1.0000
  C   C1134     1.0  0.60329  0.64612  0.50110  1.0000
  C   C1135     1.0  0.66314  0.60039  0.05754  1.0000
  C   C1136     1.0  0.61485  0.66036  0.49945  1.0000
  C   C1137     1.0  0.53733  0.48247  0.08740  1.0000
  H   H1350     1.0  0.55849  0.64136  0.45415  1.0000
  S   S314      1.0  0.53540  0.40356  0.10164  1.0000
  H   H1351     1.0  0.55294  0.65725  0.18706  1.0000
  H   H1352     1.0  0.60940  0.39332  0.10515  1.0000
  H   H1353     1.0  0.70156  0.63478  0.02715  1.0000
  C   C1138     1.0  0.54639  0.65131  0.16797  1.0000
  H   H1354     1.0  0.64672  0.64930  0.07112  1.0000
  C   C1139     1.0  0.51284  0.50736  0.23556  1.0000
  C   C1140     1.0  0.67604  0.66006  0.03496  1.0000
  C   C1141     1.0  0.52876  0.49650  0.04006  1.0000
  H   H1355     1.0  0.68809  0.64678  0.10333  1.0000
  H   H1356     1.0  0.52043  0.63468  0.14082  1.0000
  H   H1357     1.0  0.62581  0.62522  0.07554  1.0000
  H   H1358     1.0  0.55187  0.48304  0.08211  1.0000
  C   C1142     1.0  0.51972  0.62644  0.25060  1.0000
  H   H1359     1.0  0.54815  0.53732  0.03296  1.0000
  H   H1360     1.0  0.52683  0.40116  0.28038  1.0000
  H   H1361     1.0  0.52147  0.50068  0.21975  1.0000
  N   N76       1.0  0.54056  0.63303  0.17484  1.0000
  H   H1362     1.0  0.63096  0.34594  0.27736  1.0000
  H   H1363     1.0  0.52879  0.39925  0.04049  1.0000
  C   C1143     1.0  0.51969  0.41426  0.07803  1.0000
  H   H1364     1.0  0.59170  0.37735  0.06976  1.0000
  C   C1144     1.0  0.52054  0.47024  0.25967  1.0000
  C   C1145     1.0  0.58104  0.37618  0.08660  1.0000
  H   H1365     1.0  0.56574  0.62057  0.16065  1.0000
  H   H1366     1.0  0.53574  0.47069  0.10218  1.0000
  C   C1146     1.0  0.61033  0.66644  0.08070  1.0000
  H   H1367     1.0  0.50943  0.39696  0.47997  1.0000
  H   H1368     1.0  0.54584  0.51282  0.06730  1.0000
  H   H1369     1.0  0.54482  0.61914  0.23205  1.0000
  H   H1370     1.0  0.67036  0.66223  0.09272  1.0000
  H   H1371     1.0  0.54559  0.46462  0.03688  1.0000
  C   C1147     1.0  0.52790  0.63365  0.19991  1.0000
  C   C1148     1.0  0.70116  0.64121  0.04893  1.0000
  C   C1149     1.0  0.51474  0.59182  0.47317  1.0000
  H   H1372     1.0  0.52339  0.39317  0.33288  1.0000
  N   N77       1.0  0.68260  0.64702  0.05736  1.0000
  C   C1150     1.0  0.58510  0.64832  0.49251  1.0000
  H   H1373     1.0  0.66321  0.66693  0.04145  1.0000
  H   H1374     1.0  0.52777  0.58242  0.23648  1.0000
  C   C1151     1.0  0.67009  0.63219  0.05986  1.0000
  H   H1375     1.0  0.57706  0.37626  0.16016  1.0000
  H   H1376     1.0  0.56426  0.38853  0.13379  1.0000
  H   H1377     1.0  0.58518  0.34626  0.15589  1.0000
  H   H1378     1.0  0.52109  0.45532  0.25938  1.0000
  C   C1152     1.0  0.66492  0.34242  0.30290  1.0000
  C   C1153     1.0  0.62854  0.35596  0.20453  1.0000
  C   C1154     1.0  0.66767  0.34744  0.25104  1.0000
  C   C1155     1.0  0.55684  0.62145  0.18025  1.0000
  N   N78       1.0  0.66587  0.35634  0.27964  1.0000
  C   C1156     1.0  0.65183  0.63580  0.06735  1.0000
  H   H1379     1.0  0.52528  0.47453  0.28133  1.0000
  H   H1380     1.0  0.52928  0.42121  0.49278  1.0000
  C   C1157     1.0  0.61654  0.37092  0.27699  1.0000
  H   H1381     1.0  0.53024  0.55517  0.48989  1.0000
  H   H1382     1.0  0.53152  0.45262  0.06167  1.0000
  H   H1383     1.0  0.52830  0.58234  0.18229  1.0000
  H   H1384     1.0  0.55327  0.60749  0.18580  1.0000
  H   H1385     1.0  0.52766  0.59649  0.43167  1.0000
  H   H1386     1.0  0.69454  0.35688  0.28545  1.0000
  C   C1158     1.0  0.62736  0.34183  0.10648  1.0000
  H   H1387     1.0  0.57154  0.38792  0.08343  1.0000
  H   H1388     1.0  0.68180  0.37359  0.30532  1.0000
  C   C1159     1.0  0.63970  0.62210  0.06988  1.0000
  H   H1389     1.0  0.63580  0.59390  0.06678  1.0000
  H   H1390     1.0  0.52639  0.61257  0.15347  1.0000
  H   H1391     1.0  0.52262  0.46080  0.02824  1.0000
  C   C1160     1.0  0.61272  0.66463  0.05057  1.0000
  H   H1392     1.0  0.56576  0.66820  0.47503  1.0000
  H   H1393     1.0  0.61915  0.36651  0.08638  1.0000
  C   C1161     1.0  0.68248  0.36617  0.28442  1.0000
  H   H1394     1.0  0.59174  0.61134  0.49285  1.0000
  H   H1395     1.0  0.53497  0.66043  0.16157  1.0000
  C   C1162     1.0  0.60006  0.35922  0.12039  1.0000
  C   C1163     1.0  0.51292  0.52604  0.23621  1.0000
  C   C1164     1.0  0.53217  0.62600  0.22764  1.0000
  H   H1396     1.0  0.66240  0.34856  0.32461  1.0000
  C   C1165     1.0  0.67543  0.61400  0.05502  1.0000
  H   H1397     1.0  0.55718  0.61837  0.46374  1.0000
  C   C1166     1.0  0.53890  0.51160  0.04690  1.0000
  C   C1167     1.0  0.51526  0.59335  0.44259  1.0000
  H   H1398     1.0  0.57774  0.62649  0.44915  1.0000
  H   H1399     1.0  0.68570  0.67080  0.03097  1.0000
  H   H1400     1.0  0.60493  0.39110  0.14349  1.0000
  H   H1401     1.0  0.64257  0.35298  0.20033  1.0000
  H   H1402     1.0  0.68898  0.60991  0.04914  1.0000
  H   H1403     1.0  0.60506  0.39763  0.27345  1.0000
  H   H1404     1.0  0.50733  0.43103  0.11093  1.0000
  H   H1405     1.0  0.59701  0.65668  0.11938  1.0000
  C   C1168     1.0  0.51952  0.40957  0.04845  1.0000
  H   H1406     1.0  0.53047  0.47455  0.24308  1.0000
  C   C1169     1.0  0.53171  0.62595  0.14879  1.0000
  C   C1170     1.0  0.64935  0.36793  0.27963  1.0000
  C   C1171     1.0  0.64964  0.38694  0.27883  1.0000
  C   C1172     1.0  0.63229  0.36026  0.27844  1.0000
  C   C1173     1.0  0.63378  0.39746  0.27690  1.0000
  H   H1407     1.0  0.66811  0.35742  0.23290  1.0000
  C   C1174     1.0  0.51577  0.58458  0.19389  1.0000
  S   S315      1.0  0.53451  0.59519  0.49295  1.0000
  H   H1408     1.0  0.57353  0.36399  0.08186  1.0000
  C   C1175     1.0  0.52019  0.49676  0.01255  1.0000
  H   H1409     1.0  0.52136  0.53326  0.22111  1.0000
  C   C1176     1.0  0.59860  0.39163  0.12159  1.0000
  H   H1410     1.0  0.55617  0.65125  0.14938  1.0000
  C   C1177     1.0  0.61740  0.34225  0.21328  1.0000
  H   H1411     1.0  0.51150  0.55307  0.44743  1.0000
  C   C1178     1.0  0.51470  0.40512  0.29209  1.0000
  H   H1412     1.0  0.67377  0.65342  0.01378  1.0000
  H   H1413     1.0  0.69297  0.66740  0.08484  1.0000
  H   H1414     1.0  0.70726  0.63186  0.06538  1.0000
  C   C1179     1.0  0.50967  0.54332  0.46462  1.0000
  C   C1180     1.0  0.52054  0.54476  0.48908  1.0000
  H   H1415     1.0  0.51194  0.48592  0.00612  1.0000
  C   C1181     1.0  0.51832  0.39534  0.49845  1.0000
  H   H1416     1.0  0.71010  0.65281  0.04730  1.0000
  H   H1417     1.0  0.50778  0.41493  0.00611  1.0000
  C   C1182     1.0  0.50757  0.41835  0.02897  1.0000
  C   C1183     1.0  0.50741  0.48077  0.06959  1.0000
  C   C1184     1.0  0.50755  0.42752  0.08815  1.0000
  H   H1418     1.0  0.63935  0.34032  0.09309  1.0000
  C   C1185     1.0  0.54055  0.39171  0.54825  1.0000
  Fe  Fe161     1.0  0.54920  0.55984  0.58496  1.0000
  S   S316      1.0  0.52286  0.57275  0.57199  1.0000
  S   S317      1.0  0.54867  0.52957  0.58499  1.0000
  Fe  Fe162     1.0  0.56732  0.59615  0.58650  1.0000
  S   S318      1.0  0.54189  0.61149  0.57469  1.0000
  S   S319      1.0  0.59534  0.60728  0.58888  1.0000
  Fe  Fe163     1.0  0.52862  0.59273  0.60663  1.0000
  H   H1419     1.0  0.57322  0.37166  0.59026  1.0000
  Fe  Fe164     1.0  0.53827  0.58996  0.54150  1.0000
  C   C1186     1.0  0.52048  0.42339  0.82030  1.0000
  S   S320      1.0  0.55431  0.57887  0.62118  1.0000
  S   S321      1.0  0.56436  0.57555  0.55169  1.0000
  Fe  Fe165     1.0  0.55122  0.44940  0.68465  1.0000
  S   S322      1.0  0.52182  0.44816  0.67743  1.0000
  S   S323      1.0  0.56338  0.47620  0.69149  1.0000
  Fe  Fe166     1.0  0.55806  0.40905  0.67594  1.0000
  S   S324      1.0  0.52873  0.40489  0.66804  1.0000
  S   S325      1.0  0.57931  0.38773  0.66265  1.0000
  Fe  Fe167     1.0  0.52898  0.42986  0.64036  1.0000
  H   H1420     1.0  0.52735  0.53427  0.53152  1.0000
  Fe  Fe168     1.0  0.52391  0.42357  0.70599  1.0000
  H   H1421     1.0  0.52312  0.36716  0.80154  1.0000
  S   S326      1.0  0.55844  0.43287  0.64583  1.0000
  S   S327      1.0  0.55317  0.42597  0.71603  1.0000
  H   H1422     1.0  0.52560  0.57116  0.93780  1.0000
  S   S328      1.0  0.52067  0.43657  0.59395  1.0000
  H   H1423     1.0  0.50942  0.37876  0.75587  1.0000
  H   H1424     1.0  0.52562  0.53329  0.81260  1.0000
  C   C1187     1.0  0.51953  0.42238  0.78971  1.0000
  H   H1425     1.0  0.53164  0.42054  0.77683  1.0000
  C   C1188     1.0  0.55296  0.51530  0.61522  1.0000
  C   C1189     1.0  0.54777  0.49753  0.61367  1.0000
  C   C1190     1.0  0.55066  0.48564  0.63718  1.0000
  C   C1191     1.0  0.55908  0.49132  0.66233  1.0000
  C   C1192     1.0  0.56432  0.50911  0.66399  1.0000
  C   C1193     1.0  0.56118  0.52113  0.64052  1.0000
  H   H1426     1.0  0.54139  0.49290  0.59420  1.0000
  H   H1427     1.0  0.54653  0.47200  0.63559  1.0000
  H   H1428     1.0  0.57087  0.51359  0.68336  1.0000
  H   H1429     1.0  0.56532  0.53479  0.64184  1.0000
  C   C1194     1.0  0.52781  0.50420  0.75446  1.0000
  H   H1430     1.0  0.52861  0.54173  0.64735  1.0000
  C   C1195     1.0  0.53193  0.52565  0.00037  1.0000
  H   H1431     1.0  0.51594  0.55510  0.67333  1.0000
  H   H1432     1.0  0.57248  0.37441  0.55117  1.0000
  C   C1196     1.0  0.52902  0.48548  0.75381  1.0000
  C   C1197     1.0  0.50900  0.37099  0.80122  1.0000
  H   H1433     1.0  0.52347  0.51301  0.65701  1.0000
  C   C1198     1.0  0.62625  0.65001  0.57179  1.0000
  C   C1199     1.0  0.62035  0.63263  0.57770  1.0000
  C   C1200     1.0  0.60203  0.62944  0.58144  1.0000
  C   C1201     1.0  0.58963  0.64386  0.57934  1.0000
  C   C1202     1.0  0.59551  0.66125  0.57364  1.0000
  H   H1434     1.0  0.64037  0.65223  0.56894  1.0000
  H   H1435     1.0  0.63006  0.62157  0.57939  1.0000
  H   H1436     1.0  0.57554  0.64167  0.58267  1.0000
  C   C1203     1.0  0.51307  0.53867  0.80237  1.0000
  C   C1204     1.0  0.61151  0.36953  0.72942  1.0000
  C   C1205     1.0  0.59815  0.37923  0.71359  1.0000
  C   C1206     1.0  0.59572  0.37581  0.68398  1.0000
  C   C1207     1.0  0.60680  0.36261  0.67051  1.0000
  C   C1208     1.0  0.54043  0.40737  0.53034  1.0000
  H   H1437     1.0  0.58975  0.38931  0.72431  1.0000
  H   H1438     1.0  0.61330  0.37232  0.75228  1.0000
  H   H1439     1.0  0.53221  0.37495  0.59932  1.0000
  C   C1209     1.0  0.56407  0.37339  0.57126  1.0000
  H   H1440     1.0  0.51348  0.52391  0.61181  1.0000
  H   H1441     1.0  0.53995  0.47870  0.74215  1.0000
  N   N79       1.0  0.61151  0.44543  0.67625  1.0000
  C   C1210     1.0  0.62873  0.43502  0.67283  1.0000
  C   C1211     1.0  0.61468  0.46051  0.69616  1.0000
  C   C1212     1.0  0.59833  0.43389  0.69063  1.0000
  C   C1213     1.0  0.60464  0.45129  0.64733  1.0000
  C   C1214     1.0  0.59942  0.46937  0.64077  1.0000
  C   C1215     1.0  0.60242  0.43861  0.62493  1.0000
  C   C1216     1.0  0.59261  0.47435  0.61346  1.0000
  C   C1217     1.0  0.59564  0.44377  0.59765  1.0000
  C   C1218     1.0  0.59069  0.46160  0.59198  1.0000
  H   H1442     1.0  0.63857  0.44274  0.65996  1.0000
  H   H1443     1.0  0.63484  0.43149  0.69429  1.0000
  H   H1444     1.0  0.62708  0.42205  0.66175  1.0000
  H   H1445     1.0  0.62426  0.46996  0.68639  1.0000
  H   H1446     1.0  0.62031  0.45576  0.71739  1.0000
  H   H1447     1.0  0.60196  0.46808  0.70165  1.0000
  H   H1448     1.0  0.59576  0.42175  0.67775  1.0000
  H   H1449     1.0  0.60287  0.42913  0.71253  1.0000
  H   H1450     1.0  0.58531  0.44138  0.69363  1.0000
  H   H1451     1.0  0.59995  0.47992  0.65658  1.0000
  H   H1452     1.0  0.60544  0.42452  0.62865  1.0000
  H   H1453     1.0  0.58836  0.48817  0.60918  1.0000
  H   H1454     1.0  0.59395  0.43387  0.58097  1.0000
  H   H1455     1.0  0.58509  0.46556  0.57106  1.0000
  C   C1219     1.0  0.52015  0.59106  0.71994  1.0000
  C   C1220     1.0  0.51434  0.57928  0.94580  1.0000
  H   H1456     1.0  0.53818  0.51106  0.74284  1.0000
  H   H1457     1.0  0.52593  0.53934  0.73133  1.0000
  C   C1221     1.0  0.52901  0.37801  0.54006  1.0000
  C   C1222     1.0  0.52623  0.54246  0.75498  1.0000
  H   H1458     1.0  0.60508  0.35983  0.64764  1.0000
  H   H1459     1.0  0.54857  0.38530  0.62078  1.0000
  H   H1460     1.0  0.57033  0.60592  0.50696  1.0000
  C   C1223     1.0  0.50881  0.49803  0.68789  1.0000
  C   C1224     1.0  0.62257  0.35630  0.71594  1.0000
  C   C1225     1.0  0.54044  0.38694  0.60061  1.0000
  N   N80       1.0  0.51202  0.53321  0.77146  1.0000
  H   H1461     1.0  0.53317  0.59209  0.67765  1.0000
  H   H1462     1.0  0.54819  0.41879  0.53527  1.0000
  H   H1463     1.0  0.55481  0.41734  0.58377  1.0000
  H   H1464     1.0  0.52815  0.36585  0.55279  1.0000
  H   H1465     1.0  0.51518  0.51104  0.97217  1.0000
  C   C1226     1.0  0.52052  0.59277  0.68934  1.0000
  N   N81       1.0  0.55191  0.38942  0.57445  1.0000
  H   H1466     1.0  0.53259  0.58909  0.73163  1.0000
  S   S329      1.0  0.53129  0.57672  0.99835  1.0000
  H   H1467     1.0  0.53339  0.42244  0.83080  1.0000
  C   C1227     1.0  0.51801  0.37991  0.51563  1.0000
  C   C1228     1.0  0.55669  0.63892  0.51219  1.0000
  H   H1468     1.0  0.53977  0.53889  0.76366  1.0000
  H   H1469     1.0  0.58473  0.61836  0.52900  1.0000
  C   C1229     1.0  0.62010  0.35288  0.68636  1.0000
  H   H1470     1.0  0.58580  0.67231  0.57217  1.0000
  C   C1230     1.0  0.61383  0.66443  0.56977  1.0000
  H   H1471     1.0  0.52451  0.55730  0.75670  1.0000
  H   H1472     1.0  0.54717  0.62790  0.51449  1.0000
  C   C1231     1.0  0.56320  0.40491  0.58002  1.0000
  H   H1473     1.0  0.53109  0.39871  0.60361  1.0000
  H   H1474     1.0  0.57260  0.40728  0.56157  1.0000
  H   H1475     1.0  0.57143  0.40279  0.60001  1.0000
  H   H1476     1.0  0.56091  0.64254  0.53450  1.0000
  H   H1477     1.0  0.55666  0.36085  0.56995  1.0000
  H   H1478     1.0  0.60884  0.63369  0.50996  1.0000
  C   C1232     1.0  0.51624  0.55018  0.65052  1.0000
  C   C1233     1.0  0.51100  0.51255  0.66900  1.0000
  C   C1234     1.0  0.51380  0.58447  0.97518  1.0000
  C   C1235     1.0  0.58025  0.61664  0.50615  1.0000
  H   H1479     1.0  0.51273  0.55353  0.80445  1.0000
  H   H1480     1.0  0.62851  0.65859  0.50702  1.0000
  S   S330      1.0  0.63919  0.34446  0.73698  1.0000
  H   H1481     1.0  0.50886  0.36957  0.51027  1.0000
  C   C1236     1.0  0.51883  0.53308  0.51268  1.0000
  C   C1237     1.0  0.52955  0.40899  0.50572  1.0000
  H   H1482     1.0  0.62848  0.34277  0.67564  1.0000
  H   H1483     1.0  0.51786  0.56203  0.63600  1.0000
  H   H1484     1.0  0.51954  0.48792  0.69020  1.0000
  C   C1238     1.0  0.51621  0.47541  0.76801  1.0000
  C   C1239     1.0  0.51360  0.51342  0.76966  1.0000
  H   H1485     1.0  0.51717  0.46090  0.76738  1.0000
  H   H1486     1.0  0.53302  0.53693  0.98544  1.0000
  C   C1240     1.0  0.52189  0.51109  0.99299  1.0000
  H   H1487     1.0  0.54878  0.65047  0.50301  1.0000
  Fe  Fe169     1.0  0.68775  0.81390  0.28314  1.0000
  S   S331      1.0  0.69154  0.78560  0.29812  1.0000
  S   S332      1.0  0.71209  0.82941  0.27025  1.0000
  Fe  Fe170     1.0  0.64769  0.81471  0.29780  1.0000
  S   S333      1.0  0.64908  0.78605  0.31459  1.0000
  S   S334      1.0  0.62041  0.82962  0.29372  1.0000
  Fe  Fe171     1.0  0.67445  0.79372  0.33642  1.0000
  S   S335      1.0  0.68796  0.78521  0.37870  1.0000
  Fe  Fe172     1.0  0.66619  0.78042  0.27476  1.0000
  S   S336      1.0  0.66793  0.75394  0.25092  1.0000
  S   S337      1.0  0.67189  0.82264  0.32276  1.0000
  S   S338      1.0  0.66351  0.80840  0.25645  1.0000
  Fe  Fe173     1.0  0.68566  0.70814  0.04881  1.0000
  S   S339      1.0  0.68064  0.73783  0.05132  1.0000
  S   S340      1.0  0.71300  0.69401  0.05249  1.0000
  C   C1241     1.0  0.54895  0.99993  0.36373  1.0000
  S   S341      1.0  0.63803  0.72955  0.04500  1.0000
  H   H1488     1.0  0.73946  0.72918  0.45689  1.0000
  H   H1489     1.0  0.72591  0.74786  0.42142  1.0000
  Fe  Fe174     1.0  0.65784  0.73132  0.08136  1.0000
  S   S342      1.0  0.65008  0.75177  0.11596  1.0000
  H   H1490     1.0  0.71734  0.79269  0.25144  1.0000
  S   S343      1.0  0.66421  0.70159  0.08192  1.0000
  Fe  Fe175     1.0  0.56256  0.91689  0.33983  1.0000
  S   S344      1.0  0.53771  0.90346  0.32602  1.0000
  S   S345      1.0  0.58922  0.90230  0.35014  1.0000
  Fe  Fe176     1.0  0.54382  0.95447  0.33876  1.0000
  S   S346      1.0  0.51771  0.94337  0.32531  1.0000
  S   S347      1.0  0.54238  0.98481  0.33690  1.0000
  Fe  Fe177     1.0  0.52384  0.92184  0.35879  1.0000
  N   N82       1.0  0.73790  0.81323  0.35067  1.0000
  Fe  Fe178     1.0  0.53385  0.92638  0.29399  1.0000
  H   H1491     1.0  0.74131  0.75295  0.46342  1.0000
  S   S348      1.0  0.54886  0.93408  0.37446  1.0000
  S   S349      1.0  0.55983  0.93857  0.30572  1.0000
  H   H1492     1.0  0.60524  0.73359  0.00850  1.0000
  H   H1493     1.0  0.55682  0.91019  0.43033  1.0000
  S   S350      1.0  0.53115  0.92642  0.24454  1.0000
  C   C1242     1.0  0.55913  0.99448  0.38791  1.0000
  H   H1494     1.0  0.68861  0.72060  0.44989  1.0000
  H   H1495     1.0  0.56305  0.98051  0.39081  1.0000
  H   H1496     1.0  0.72943  0.80246  0.39221  1.0000
  C   C1243     1.0  0.72766  0.71581  0.01034  1.0000
  C   C1244     1.0  0.73468  0.81870  0.17311  1.0000
  H   H1497     1.0  0.56434  0.88058  0.48155  1.0000
  H   H1498     1.0  0.68130  0.72437  0.29373  1.0000
  C   C1245     1.0  0.72160  0.83042  0.18467  1.0000
  H   H1499     1.0  0.50812  0.99478  0.47635  1.0000
  C   C1246     1.0  0.61177  0.84924  0.31138  1.0000
  C   C1247     1.0  0.59391  0.85504  0.30621  1.0000
  C   C1248     1.0  0.58674  0.87107  0.31829  1.0000
  C   C1249     1.0  0.59738  0.88155  0.33562  1.0000
  C   C1250     1.0  0.61508  0.87554  0.34144  1.0000
  C   C1251     1.0  0.62226  0.85950  0.32937  1.0000
  H   H1500     1.0  0.58567  0.84718  0.29243  1.0000
  H   H1501     1.0  0.57306  0.87539  0.31406  1.0000
  H   H1502     1.0  0.62340  0.88351  0.35494  1.0000
  H   H1503     1.0  0.63599  0.85522  0.33359  1.0000
  C   C1252     1.0  0.66166  0.75283  0.21395  1.0000
  C   C1253     1.0  0.66621  0.73737  0.19790  1.0000
  C   C1254     1.0  0.66261  0.73667  0.16783  1.0000
  C   C1255     1.0  0.65411  0.75132  0.15384  1.0000
  C   C1256     1.0  0.64921  0.76657  0.17009  1.0000
  C   C1257     1.0  0.65313  0.76742  0.19993  1.0000
  H   H1504     1.0  0.67282  0.72603  0.20864  1.0000
  H   H1505     1.0  0.66639  0.72484  0.15552  1.0000
  H   H1506     1.0  0.64257  0.77793  0.15940  1.0000
  H   H1507     1.0  0.64949  0.77934  0.21209  1.0000
  C   C1258     1.0  0.67484  0.77781  0.40824  1.0000
  C   C1259     1.0  0.65619  0.77770  0.40662  1.0000
  C   C1260     1.0  0.64619  0.77065  0.42990  1.0000
  C   C1261     1.0  0.65481  0.76325  0.45454  1.0000
  C   C1262     1.0  0.67347  0.76352  0.45623  1.0000
  C   C1263     1.0  0.68343  0.77100  0.43331  1.0000
  H   H1508     1.0  0.64944  0.78297  0.38741  1.0000
  H   H1509     1.0  0.63175  0.77052  0.42848  1.0000
  H   H1510     1.0  0.68020  0.75803  0.47526  1.0000
  H   H1511     1.0  0.69785  0.77120  0.43477  1.0000
  H   H1512     1.0  0.52550  0.93068  0.18328  1.0000
  C   C1264     1.0  0.73071  0.70205  0.03074  1.0000
  C   C1265     1.0  0.72822  0.75245  0.37601  1.0000
  Fe  Fe179     1.0  0.64607  0.70032  0.04308  1.0000
  Fe  Fe180     1.0  0.66124  0.73434  0.01485  1.0000
  C   C1266     1.0  0.73536  0.74842  0.40351  1.0000
  C   C1267     1.0  0.70453  0.82445  0.19068  1.0000
  C   C1268     1.0  0.73065  0.81752  0.25480  1.0000
  C   C1269     1.0  0.72962  0.79950  0.24758  1.0000
  H   H1513     1.0  0.52863  0.92556  0.42960  1.0000
  H   H1514     1.0  0.67422  0.69273  0.44361  1.0000
  S   S351      1.0  0.62729  0.67832  0.02992  1.0000
  C   C1270     1.0  0.67794  0.71588  0.37826  1.0000
  N   N83       1.0  0.55717  0.88185  0.42286  1.0000
  C   C1271     1.0  0.54844  0.88316  0.39393  1.0000
  C   C1272     1.0  0.56656  0.89873  0.42724  1.0000
  H   H1515     1.0  0.67747  0.74989  0.32710  1.0000
  C   C1273     1.0  0.54443  0.87893  0.44725  1.0000
  H   H1516     1.0  0.74011  0.82387  0.39402  1.0000
  H   H1517     1.0  0.53819  0.89437  0.39325  1.0000
  H   H1518     1.0  0.55829  0.88567  0.37613  1.0000
  H   H1519     1.0  0.54193  0.87056  0.38824  1.0000
  H   H1520     1.0  0.57549  0.89812  0.44643  1.0000
  H   H1521     1.0  0.57527  0.90204  0.40823  1.0000
  H   H1522     1.0  0.71101  0.80984  0.33591  1.0000
  C   C1274     1.0  0.51736  0.92231  0.47282  1.0000
  H   H1523     1.0  0.61733  0.67658  0.09214  1.0000
  H   H1524     1.0  0.73583  0.76369  0.17414  1.0000
  H   H1525     1.0  0.68709  0.80273  0.19062  1.0000
  C   C1275     1.0  0.74423  0.79051  0.23400  1.0000
  S   S352      1.0  0.70418  0.69056  0.48726  1.0000
  H   H1526     1.0  0.57265  0.00303  0.42649  1.0000
  H   H1527     1.0  0.65705  0.73590  0.41490  1.0000
  C   C1276     1.0  0.74074  0.68948  0.47848  1.0000
  C   C1277     1.0  0.55044  0.87886  0.47654  1.0000
  C   C1278     1.0  0.74667  0.82626  0.24944  1.0000
  C   C1279     1.0  0.72451  0.80299  0.33500  1.0000
  H   H1528     1.0  0.68134  0.68769  0.36565  1.0000
  N   N84       1.0  0.67568  0.71319  0.41014  1.0000
  C   C1280     1.0  0.51718  0.92150  0.44215  1.0000
  H   H1529     1.0  0.74214  0.83062  0.31337  1.0000
  C   C1281     1.0  0.67850  0.73637  0.33595  1.0000
  H   H1530     1.0  0.65603  0.72000  0.44360  1.0000
  H   H1531     1.0  0.71762  0.82248  0.38150  1.0000
  H   H1532     1.0  0.74757  0.84022  0.25498  1.0000
  H   H1533     1.0  0.58033  0.86848  0.40328  1.0000
  H   H1534     1.0  0.72561  0.83879  0.33827  1.0000
  H   H1535     1.0  0.69804  0.78091  0.12720  1.0000
  H   H1536     1.0  0.69057  0.73637  0.42075  1.0000
  C   C1282     1.0  0.74194  0.76141  0.04342  1.0000
  H   H1537     1.0  0.56413  0.85383  0.41879  1.0000
  C   C1283     1.0  0.74836  0.78124  0.08272  1.0000
  C   C1284     1.0  0.52590  0.87620  0.44294  1.0000
  N   N85       1.0  0.57114  0.88824  0.22975  1.0000
  C   C1285     1.0  0.56823  0.87303  0.21003  1.0000
  C   C1286     1.0  0.55748  0.88758  0.25336  1.0000
  C   C1287     1.0  0.56806  0.90499  0.21254  1.0000
  C   C1288     1.0  0.58923  0.88794  0.24269  1.0000
  C   C1289     1.0  0.59421  0.90197  0.26121  1.0000
  C   C1290     1.0  0.60217  0.87377  0.23807  1.0000
  C   C1291     1.0  0.61105  0.90184  0.27420  1.0000
  C   C1292     1.0  0.61899  0.87380  0.25119  1.0000
  C   C1293     1.0  0.62341  0.88778  0.26920  1.0000
  H   H1538     1.0  0.56933  0.85998  0.22195  1.0000
  H   H1539     1.0  0.55459  0.87388  0.20038  1.0000
  H   H1540     1.0  0.57799  0.87281  0.19152  1.0000
  H   H1541     1.0  0.55800  0.89920  0.26815  1.0000
  H   H1542     1.0  0.55935  0.87523  0.26689  1.0000
  H   H1543     1.0  0.54362  0.88790  0.24455  1.0000
  H   H1544     1.0  0.57853  0.90642  0.19535  1.0000
  H   H1545     1.0  0.55472  0.90546  0.20182  1.0000
  H   H1546     1.0  0.56805  0.91712  0.22633  1.0000
  H   H1547     1.0  0.58494  0.91293  0.26647  1.0000
  H   H1548     1.0  0.59955  0.86223  0.22511  1.0000
  H   H1549     1.0  0.61425  0.91235  0.28917  1.0000
  H   H1550     1.0  0.62838  0.86249  0.24841  1.0000
  H   H1551     1.0  0.63620  0.88739  0.28015  1.0000
  N   N86       1.0  0.70913  0.77540  0.16970  1.0000
  C   C1294     1.0  0.72439  0.76399  0.15868  1.0000
  C   C1295     1.0  0.70319  0.76749  0.19781  1.0000
  C   C1296     1.0  0.69440  0.77456  0.14837  1.0000
  C   C1297     1.0  0.71360  0.79430  0.17404  1.0000
  C   C1298     1.0  0.70049  0.80673  0.18527  1.0000
  C   C1299     1.0  0.73085  0.80088  0.16783  1.0000
  C   C1300     1.0  0.74897  0.74005  0.46032  1.0000
  H   H1552     1.0  0.58618  0.69290  0.47377  1.0000
  H   H1553     1.0  0.52914  0.92673  0.48371  1.0000
  H   H1554     1.0  0.72912  0.76869  0.13696  1.0000
  H   H1555     1.0  0.72319  0.78943  0.34471  1.0000
  H   H1556     1.0  0.72055  0.74986  0.15592  1.0000
  H   H1557     1.0  0.69100  0.77444  0.20684  1.0000
  H   H1558     1.0  0.71371  0.76813  0.21465  1.0000
  H   H1559     1.0  0.69985  0.75321  0.19553  1.0000
  H   H1560     1.0  0.68186  0.78144  0.15624  1.0000
  H   H1561     1.0  0.73817  0.68151  0.45955  1.0000
  H   H1562     1.0  0.69088  0.76051  0.14390  1.0000
  C   C1301     1.0  0.51419  0.87406  0.46658  1.0000
  H   H1563     1.0  0.74189  0.79243  0.16009  1.0000
  C   C1302     1.0  0.74814  0.69453  0.03384  1.0000
  H   H1564     1.0  0.67543  0.74509  0.37957  1.0000
  H   H1565     1.0  0.64685  0.71514  0.40854  1.0000
  H   H1566     1.0  0.72229  0.77910  0.06360  1.0000
  C   C1303     1.0  0.68067  0.72198  0.31712  1.0000
  C   C1304     1.0  0.75411  0.74528  0.40730  1.0000
  H   H1567     1.0  0.52421  0.88438  0.01603  1.0000
  C   C1305     1.0  0.65819  0.72135  0.41964  1.0000
  S   S353      1.0  0.64196  0.75288  0.48187  1.0000
  C   C1306     1.0  0.67726  0.73343  0.36602  1.0000
  C   C1307     1.0  0.60865  0.67716  0.48980  1.0000
  H   H1568     1.0  0.71389  0.75483  0.37355  1.0000
  H   H1569     1.0  0.73248  0.75605  0.02829  1.0000
  H   H1570     1.0  0.72485  0.84401  0.18982  1.0000
  H   H1571     1.0  0.75060  0.68386  0.04957  1.0000
  C   C1308     1.0  0.75569  0.80384  0.34864  1.0000
  C   C1309     1.0  0.57067  0.86681  0.42174  1.0000
  C   C1310     1.0  0.69023  0.72188  0.42574  1.0000
  C   C1311     1.0  0.67605  0.69411  0.41952  1.0000
  H   H1572     1.0  0.51990  0.87627  0.42160  1.0000
  H   H1573     1.0  0.57870  0.86567  0.44198  1.0000
  C   C1312     1.0  0.68180  0.70459  0.32835  1.0000
  C   C1313     1.0  0.52043  0.87471  0.49502  1.0000
  H   H1574     1.0  0.68348  0.69345  0.31353  1.0000
  H   H1575     1.0  0.70355  0.71572  0.41988  1.0000
  C   C1314     1.0  0.72636  0.69551  0.49626  1.0000
  H   H1576     1.0  0.53161  0.99026  0.27332  1.0000
  C   C1315     1.0  0.73114  0.81559  0.38102  1.0000
  C   C1316     1.0  0.73943  0.75351  0.35163  1.0000
  C   C1317     1.0  0.68049  0.70148  0.35847  1.0000
  H   H1577     1.0  0.74318  0.77675  0.22755  1.0000
  H   H1578     1.0  0.52759  0.99577  0.43326  1.0000
  H   H1579     1.0  0.69454  0.83349  0.20048  1.0000
  H   H1580     1.0  0.74391  0.79152  0.09792  1.0000
  C   C1318     1.0  0.52725  0.00460  0.27144  1.0000
  H   H1581     1.0  0.73381  0.75657  0.33035  1.0000
  H   H1582     1.0  0.72783  0.80143  0.31152  1.0000
  C   C1319     1.0  0.51344  0.92535  0.19260  1.0000
  C   C1320     1.0  0.73876  0.83125  0.33700  1.0000
  H   H1583     1.0  0.74815  0.82322  0.16946  1.0000
  C   C1321     1.0  0.73619  0.77434  0.06337  1.0000
  H   H1584     1.0  0.68919  0.68725  0.41448  1.0000
  H   H1585     1.0  0.52388  0.97473  0.39278  1.0000
  H   H1586     1.0  0.66514  0.68673  0.40933  1.0000
  H   H1587     1.0  0.61747  0.68832  0.48988  1.0000
  C   C1322     1.0  0.53853  0.87699  0.50000  1.0000
  S   S354      1.0  0.66805  0.70505  0.00990  1.0000
  C   C1323     1.0  0.51712  0.98612  0.43453  1.0000
  H   H1588     1.0  0.74901  0.83932  0.34759  1.0000
  C   C1324     1.0  0.51236  0.92210  0.22282  1.0000
  C   C1325     1.0  0.51506  0.97431  0.41166  1.0000
  H   H1589     1.0  0.71430  0.72168  0.00769  1.0000
  C   C1326     1.0  0.59097  0.67974  0.48101  1.0000
  S   S355      1.0  0.65435  0.70441  0.50197  1.0000
  H   H1590     1.0  0.50874  0.00602  0.32255  1.0000
  H   H1591     1.0  0.50965  0.97197  0.26028  1.0000
  H   H1592     1.0  0.75561  0.73690  0.48154  1.0000
  Fe  Fe181     1.0  0.69458  0.79810  0.78312  1.0000
  S   S356      1.0  0.68077  0.77257  0.77482  1.0000
  S   S357      1.0  0.72439  0.80054  0.78945  1.0000
  Fe  Fe182     1.0  0.65935  0.81964  0.79332  1.0000
  S   S358      1.0  0.64276  0.79562  0.78648  1.0000
  S   S359      1.0  0.65066  0.84915  0.79588  1.0000
  Fe  Fe183     1.0  0.66347  0.78037  0.81343  1.0000
  S   S360      1.0  0.65774  0.75677  0.84312  1.0000
  Fe  Fe184     1.0  0.66130  0.78958  0.74862  1.0000
  S   S361      1.0  0.64758  0.78314  0.70641  1.0000
  S   S362      1.0  0.67853  0.80490  0.82356  1.0000
  S   S363      1.0  0.67661  0.81455  0.75353  1.0000
  Fe  Fe185     1.0  0.68289  0.70287  0.51722  1.0000
  S   S364      1.0  0.68424  0.73215  0.52606  1.0000
  H   H1593     1.0  0.63890  0.82142  0.72841  1.0000
  Fe  Fe186     1.0  0.64643  0.69948  0.54872  1.0000
  S   S365      1.0  0.64540  0.72886  0.55931  1.0000
  H   H1594     1.0  0.55930  0.88878  0.93274  1.0000
  C   C1327     1.0  0.51995  0.87989  0.99486  1.0000
  Fe  Fe187     1.0  0.67432  0.72486  0.57101  1.0000
  S   S366      1.0  0.68784  0.73441  0.61178  1.0000
  H   H1595     1.0  0.72187  0.79782  0.72604  1.0000
  S   S367      1.0  0.67507  0.69514  0.56316  1.0000
  Fe  Fe188     1.0  0.56207  0.90928  0.83767  1.0000
  S   S368      1.0  0.53444  0.90309  0.82251  1.0000
  S   S369      1.0  0.57830  0.88371  0.84945  1.0000
  Fe  Fe189     1.0  0.55259  0.94991  0.83873  1.0000
  S   S370      1.0  0.52445  0.94562  0.82478  1.0000
  S   S371      1.0  0.55590  0.97988  0.83608  1.0000
  Fe  Fe190     1.0  0.52514  0.92280  0.85679  1.0000
  H   H1596     1.0  0.64878  0.73963  0.74650  1.0000
  Fe  Fe191     1.0  0.53661  0.92666  0.79202  1.0000
  H   H1597     1.0  0.63262  0.84487  0.72627  1.0000
  S   S372      1.0  0.55245  0.92823  0.87331  1.0000
  S   S373      1.0  0.56497  0.93158  0.80478  1.0000
  C   C1328     1.0  0.56034  0.99551  0.86341  1.0000
  H   H1598     1.0  0.62763  0.83199  0.75821  1.0000
  H   H1599     1.0  0.63092  0.68051  0.66608  1.0000
  S   S374      1.0  0.65772  0.75697  0.98163  1.0000
  C   C1329     1.0  0.62818  0.83160  0.73404  1.0000
  H   H1600     1.0  0.61003  0.71969  0.68858  1.0000
  H   H1601     1.0  0.56374  0.86561  0.94349  1.0000
  C   C1330     1.0  0.61524  0.72686  0.88139  1.0000
  Fe  Fe192     1.0  0.65534  0.73335  0.51352  1.0000
  H   H1602     1.0  0.74735  0.73966  0.89420  1.0000
  H   H1603     1.0  0.71570  0.84549  0.84683  1.0000
  C   C1331     1.0  0.63770  0.71508  0.67402  1.0000
  H   H1604     1.0  0.52792  0.92915  0.68132  1.0000
  C   C1332     1.0  0.62999  0.85819  0.80969  1.0000
  C   C1333     1.0  0.62470  0.87592  0.80246  1.0000
  C   C1334     1.0  0.60874  0.88386  0.81389  1.0000
  C   C1335     1.0  0.59806  0.87420  0.83312  1.0000
  C   C1336     1.0  0.60325  0.85639  0.84009  1.0000
  C   C1337     1.0  0.61905  0.84836  0.82827  1.0000
  H   H1605     1.0  0.63307  0.88365  0.78812  1.0000
  H   H1606     1.0  0.60491  0.89756  0.80831  1.0000
  H   H1607     1.0  0.59509  0.84880  0.85495  1.0000
  H   H1608     1.0  0.62300  0.83474  0.83417  1.0000
  C   C1338     1.0  0.65917  0.77010  0.67986  1.0000
  C   C1339     1.0  0.65035  0.76568  0.65417  1.0000
  C   C1340     1.0  0.65912  0.75506  0.63284  1.0000
  C   C1341     1.0  0.67670  0.74861  0.63724  1.0000
  C   C1342     1.0  0.68557  0.75317  0.66281  1.0000
  C   C1343     1.0  0.67688  0.76395  0.68401  1.0000
  H   H1609     1.0  0.63670  0.77050  0.65072  1.0000
  H   H1610     1.0  0.65233  0.75194  0.61296  1.0000
  H   H1611     1.0  0.69916  0.74821  0.66642  1.0000
  H   H1612     1.0  0.68381  0.76730  0.70368  1.0000
  C   C1344     1.0  0.65998  0.75711  0.88148  1.0000
  C   C1345     1.0  0.65881  0.77313  0.89688  1.0000
  C   C1346     1.0  0.65851  0.77280  0.92758  1.0000
  C   C1347     1.0  0.65978  0.75651  0.94314  1.0000
  C   C1348     1.0  0.66174  0.74052  0.92772  1.0000
  C   C1349     1.0  0.66157  0.74083  0.89701  1.0000
  H   H1613     1.0  0.65749  0.78573  0.88518  1.0000
  H   H1614     1.0  0.65705  0.78523  0.93934  1.0000
  H   H1615     1.0  0.66309  0.72791  0.93932  1.0000
  H   H1616     1.0  0.66246  0.72839  0.88520  1.0000
  C   C1350     1.0  0.56845  0.99051  0.88976  1.0000
  N   N87       1.0  0.54264  0.98801  0.74817  1.0000
  C   C1351     1.0  0.62797  0.72998  0.71934  1.0000
  C   C1352     1.0  0.64570  0.73255  0.72676  1.0000
  H   H1617     1.0  0.70021  0.83256  0.79299  1.0000
  N   N88       1.0  0.63305  0.70653  0.64626  1.0000
  C   C1353     1.0  0.74189  0.72197  0.99318  1.0000
  C   C1354     1.0  0.74049  0.80060  0.76106  1.0000
  C   C1355     1.0  0.73575  0.79922  0.73177  1.0000
  H   H1618     1.0  0.52047  0.87972  0.88586  1.0000
  C   C1356     1.0  0.61395  0.75081  0.92772  1.0000
  H   H1619     1.0  0.70941  0.84188  0.74537  1.0000
  N   N89       1.0  0.53953  0.87051  0.91880  1.0000
  H   H1620     1.0  0.62985  0.70347  0.95673  1.0000
  H   H1621     1.0  0.53368  0.89665  0.90085  1.0000
  H   H1622     1.0  0.75142  0.76793  0.79624  1.0000
  C   C1357     1.0  0.55828  0.87460  0.92599  1.0000
  H   H1623     1.0  0.72059  0.75159  0.87030  1.0000
  H   H1624     1.0  0.62605  0.70893  0.99407  1.0000
  H   H1625     1.0  0.52914  0.98367  0.78963  1.0000
  H   H1626     1.0  0.70599  0.87637  0.82608  1.0000
  C   C1358     1.0  0.71516  0.87360  0.80721  1.0000
  H   H1627     1.0  0.51756  0.98975  0.87303  1.0000
  C   C1359     1.0  0.52544  0.96542  0.91299  1.0000
  H   H1628     1.0  0.57894  0.99982  0.93040  1.0000
  H   H1629     1.0  0.53935  0.96421  0.77419  1.0000
  H   H1630     1.0  0.54337  0.88103  0.87531  1.0000
  H   H1631     1.0  0.62844  0.73193  0.62474  1.0000
  S   S375      1.0  0.62029  0.68668  0.56257  1.0000
  C   C1360     1.0  0.64893  0.70119  0.62818  1.0000
  C   C1361     1.0  0.60745  0.73934  0.98632  1.0000
  H   H1632     1.0  0.70939  0.88077  0.78785  1.0000
  H   H1633     1.0  0.61729  0.73496  0.73357  1.0000
  H   H1634     1.0  0.73596  0.77305  0.65453  1.0000
  H   H1635     1.0  0.52629  0.84813  0.90036  1.0000
  C   C1362     1.0  0.72313  0.84527  0.74878  1.0000
  H   H1636     1.0  0.53040  0.92557  0.98180  1.0000
  C   C1363     1.0  0.61219  0.73230  0.93401  1.0000
  H   H1637     1.0  0.67327  0.72858  0.71416  1.0000
  C   C1364     1.0  0.73349  0.75246  0.85938  1.0000
  C   C1365     1.0  0.52684  0.87291  0.94362  1.0000
  C   C1366     1.0  0.51544  0.92582  0.69181  1.0000
  H   H1638     1.0  0.57209  0.97660  0.89408  1.0000
  H   H1639     1.0  0.52396  0.95371  0.89857  1.0000
  H   H1640     1.0  0.54940  0.84932  0.89069  1.0000
  H   H1641     1.0  0.69069  0.84867  0.81769  1.0000
  H   H1642     1.0  0.61447  0.76073  0.94458  1.0000
  C   C1367     1.0  0.72934  0.85130  0.77606  1.0000
  H   H1643     1.0  0.74523  0.79954  0.68715  1.0000
  C   C1368     1.0  0.73645  0.75139  0.62420  1.0000
  H   H1644     1.0  0.54599  0.88076  0.97687  1.0000
  C   C1369     1.0  0.53234  0.00465  0.74025  1.0000
  H   H1645     1.0  0.61636  0.71760  0.86340  1.0000
  C   C1370     1.0  0.62398  0.72129  0.69347  1.0000
  C   C1371     1.0  0.51150  0.99206  0.93355  1.0000
  C   C1372     1.0  0.59504  0.71316  0.96633  1.0000
  H   H1646     1.0  0.60853  0.72234  0.63909  1.0000
  H   H1647     1.0  0.54309  0.84226  0.92693  1.0000
  H   H1648     1.0  0.61969  0.68320  0.63169  1.0000
  H   H1649     1.0  0.72872  0.83086  0.82354  1.0000
  C   C1373     1.0  0.55940  0.99271  0.76282  1.0000
  H   H1650     1.0  0.53563  0.97228  0.71110  1.0000
  H   H1651     1.0  0.69170  0.85418  0.78005  1.0000
  H   H1652     1.0  0.65675  0.71298  0.62173  1.0000
  C   C1374     1.0  0.61593  0.75703  0.89905  1.0000
  H   H1653     1.0  0.72813  0.87967  0.81203  1.0000
  C   C1375     1.0  0.73438  0.76043  0.83185  1.0000
  N   N90       1.0  0.61072  0.82726  0.72131  1.0000
  C   C1376     1.0  0.60464  0.81049  0.73504  1.0000
  C   C1377     1.0  0.59735  0.84199  0.72706  1.0000
  C   C1378     1.0  0.58783  0.85132  0.70446  1.0000
  C   C1379     1.0  0.59337  0.84731  0.75612  1.0000
  C   C1380     1.0  0.57527  0.86515  0.71080  1.0000
  C   C1381     1.0  0.58077  0.86111  0.76217  1.0000
  C   C1382     1.0  0.57178  0.87005  0.73957  1.0000
  H   H1654     1.0  0.60358  0.81145  0.75918  1.0000
  H   H1655     1.0  0.60149  0.81947  0.67899  1.0000
  H   H1656     1.0  0.59129  0.80700  0.72675  1.0000
  H   H1657     1.0  0.52871  0.96027  0.93526  1.0000
  H   H1658     1.0  0.58985  0.84826  0.68170  1.0000
  H   H1659     1.0  0.60006  0.84089  0.77446  1.0000
  H   H1660     1.0  0.56817  0.87216  0.69331  1.0000
  H   H1661     1.0  0.57799  0.86499  0.78454  1.0000
  H   H1662     1.0  0.56208  0.88083  0.74439  1.0000
  H   H1663     1.0  0.66707  0.71389  0.66894  1.0000
  C   C1383     1.0  0.72981  0.70559  0.52090  1.0000
  C   C1384     1.0  0.61314  0.72049  0.90995  1.0000
  C   C1385     1.0  0.65567  0.71779  0.68242  1.0000
  N   N91       1.0  0.61038  0.72517  0.96411  1.0000
  H   H1664     1.0  0.53391  0.00224  0.69253  1.0000
  H   H1665     1.0  0.51904  0.97349  0.75874  1.0000
  H   H1666     1.0  0.75344  0.86013  0.79735  1.0000
  C   C1386     1.0  0.61655  0.74510  0.87596  1.0000
  S   S376      1.0  0.53330  0.93035  0.74295  1.0000
  H   H1667     1.0  0.55497  0.96397  0.72989  1.0000
  H   H1668     1.0  0.59719  0.70078  0.95343  1.0000
  C   C1387     1.0  0.53399  0.88243  0.89421  1.0000
  H   H1669     1.0  0.59285  0.70842  0.98920  1.0000
  H   H1670     1.0  0.53032  0.92419  0.92781  1.0000
  H   H1671     1.0  0.61275  0.70619  0.91308  1.0000
  C   C1388     1.0  0.53232  0.87792  0.97192  1.0000
  C   C1389     1.0  0.61385  0.82375  0.68979  1.0000
  H   H1672     1.0  0.61895  0.83571  0.67825  1.0000
  C   C1390     1.0  0.51800  0.92263  0.93987  1.0000
  H   H1673     1.0  0.62412  0.81272  0.68634  1.0000
  H   H1674     1.0  0.61418  0.79899  0.73054  1.0000
  C   C1391     1.0  0.74778  0.85513  0.77763  1.0000
  C   C1392     1.0  0.53200  0.97699  0.76849  1.0000
  H   H1675     1.0  0.65793  0.69133  0.63973  1.0000
  H   H1676     1.0  0.54323  0.87768  0.52223  1.0000
  H   H1677     1.0  0.61783  0.77111  0.89477  1.0000
  H   H1678     1.0  0.63871  0.72344  0.97119  1.0000
  H   H1679     1.0  0.59553  0.74812  0.98116  1.0000
  C   C1393     1.0  0.57240  0.00368  0.91022  1.0000
  H   H1680     1.0  0.56743  0.98054  0.76974  1.0000
  C   C1394     1.0  0.51801  0.92352  0.97052  1.0000
  H   H1681     1.0  0.51111  0.87388  0.51324  1.0000
  C   C1395     1.0  0.74713  0.73985  0.60723  1.0000
  C   C1396     1.0  0.51435  0.92502  0.72242  1.0000
  H   H1682     1.0  0.58246  0.72010  0.95879  1.0000
  C   C1397     1.0  0.62695  0.71478  0.97177  1.0000
  C   C1398     1.0  0.65949  0.72630  0.70851  1.0000
  C   C1399     1.0  0.62298  0.69017  0.65227  1.0000
  H   H1683     1.0  0.61882  0.74995  0.85392  1.0000
  H   H1684     1.0  0.72228  0.76575  0.82150  1.0000
  H   H1685     1.0  0.64500  0.69471  0.60761  1.0000
  C   C1400     1.0  0.74434  0.76419  0.64116  1.0000
  C   C1401     1.0  0.54767  0.97657  0.72285  1.0000
  H   H1686     1.0  0.61867  0.71351  0.60684  1.0000
  H   H1687     1.0  0.61936  0.74779  0.98823  1.0000
  H   H1688     1.0  0.71890  0.71016  0.53494  1.0000
  N   N92       1.0  0.71737  0.85417  0.80170  1.0000
  C   C1402     1.0  0.53956  0.85173  0.90880  1.0000
  H   H1689     1.0  0.72202  0.75036  0.62426  1.0000
  C   C1403     1.0  0.69926  0.84709  0.79779  1.0000
  N   N93       1.0  0.50896  0.97705  0.91339  1.0000
  C   C1404     1.0  0.72519  0.84518  0.82796  1.0000
  C   C1405     1.0  0.75085  0.76164  0.81765  1.0000
  H   H1690     1.0  0.61002  0.69311  0.66361  1.0000
  H   H1691     1.0  0.56743  0.87281  0.90682  1.0000
  H   H1692     1.0  0.53721  0.97269  0.90484  1.0000
  C   C1406     1.0  0.74747  0.70958  0.52776  1.0000
  H   H1693     1.0  0.55677  0.00052  0.78302  1.0000
  H   H1694     1.0  0.73749  0.85147  0.83552  1.0000
  C   C1407     1.0  0.74906  0.74565  0.87287  1.0000
  C   C1408     1.0  0.62168  0.71912  0.62857  1.0000
  H   H1695     1.0  0.74999  0.71737  0.54690  1.0000
  C   C1409     1.0  0.74900  0.80014  0.70981  1.0000
  H   H1696     1.0  0.74085  0.72981  0.59434  1.0000
  H   H1697     1.0  0.73936  0.73266  0.97751  1.0000
  H   H1698     1.0  0.56791  0.00090  0.74830  1.0000
  H   H1699     1.0  0.55676  0.98341  0.70738  1.0000
  C   C1410     1.0  0.73479  0.84285  0.72499  1.0000
  H   H1700     1.0  0.53082  0.00561  0.90587  1.0000
  C   C1411     1.0  0.52330  0.00583  0.92608  1.0000
  H   H1701     1.0  0.72991  0.83772  0.70466  1.0000
  C   C1412     1.0  0.75290  0.84616  0.72761  1.0000
  C   C1413     1.0  0.50833  0.87001  0.93994  1.0000
  Fe  Fe193     1.0  0.84912  0.19500  0.06035  1.0000
  S   S377      1.0  0.86562  0.21953  0.06061  1.0000
  S   S378      1.0  0.85852  0.16562  0.05584  1.0000
  Fe  Fe194     1.0  0.81376  0.21688  0.06226  1.0000
  S   S379      1.0  0.82752  0.24285  0.06292  1.0000
  S   S380      1.0  0.78349  0.21807  0.06729  1.0000
  C   C1414     1.0  0.79206  0.22331  0.38039  1.0000
  S   S381      1.0  0.85701  0.23352  0.47117  1.0000
  Fe  Fe195     1.0  0.84623  0.22971  0.09514  1.0000
  S   S382      1.0  0.85483  0.24918  0.12930  1.0000
  H   H1702     1.0  0.86187  0.27457  0.17272  1.0000
  S   S383      1.0  0.83105  0.20434  0.09747  1.0000
  Fe  Fe196     1.0  0.81538  0.31299  0.28523  1.0000
  S   S384      1.0  0.81132  0.28622  0.30572  1.0000
  C   C1415     1.0  0.80601  0.16930  0.06183  1.0000
  Fe  Fe197     1.0  0.85462  0.31364  0.30456  1.0000
  S   S385      1.0  0.85338  0.28626  0.32540  1.0000
  H   H1703     1.0  0.80633  0.12961  0.02681  1.0000
  Fe  Fe198     1.0  0.83801  0.27842  0.28593  1.0000
  S   S386      1.0  0.83903  0.25091  0.26545  1.0000
  Fe  Fe199     1.0  0.82697  0.29633  0.34326  1.0000
  S   S387      1.0  0.81756  0.29148  0.38965  1.0000
  S   S388      1.0  0.84146  0.30475  0.26331  1.0000
  S   S389      1.0  0.82879  0.32423  0.32465  1.0000
  Fe  Fe200     1.0  0.94589  0.10212  0.10022  1.0000
  S   S390      1.0  0.97423  0.10332  0.08322  1.0000
  S   S391      1.0  0.93176  0.12975  0.10393  1.0000
  Fe  Fe201     1.0  0.95153  0.06196  0.11717  1.0000
  S   S392      1.0  0.97982  0.06088  0.10051  1.0000
  S   S393      1.0  0.94379  0.03939  0.14755  1.0000
  Fe  Fe202     1.0  0.98214  0.08710  0.12302  1.0000
  H   H1704     1.0  0.76723  0.25378  0.43051  1.0000
  Fe  Fe203     1.0  0.96907  0.07704  0.06244  1.0000
  H   H1705     1.0  0.94428  0.15458  0.16266  1.0000
  S   S394      1.0  0.95439  0.08767  0.14128  1.0000
  S   S395      1.0  0.94016  0.07637  0.07744  1.0000
  S   S396      1.0  0.97597  0.06875  0.01594  1.0000
  C   C1416     1.0  0.99691  0.04164  0.29990  1.0000
  H   H1706     1.0  0.77254  0.17638  0.06254  1.0000
  H   H1707     1.0  0.78919  0.25937  0.21781  1.0000
  H   H1708     1.0  0.77826  0.28251  0.35225  1.0000
  C   C1417     1.0  0.90719  0.32765  0.41939  1.0000
  C   C1418     1.0  0.98872  0.08599  0.20327  1.0000
  C   C1419     1.0  0.98769  0.08527  0.23391  1.0000
  H   H1709     1.0  0.79466  0.22364  0.31906  1.0000
  H   H1710     1.0  0.97700  0.08362  0.19060  1.0000
  H   H1711     1.0  0.97507  0.08258  0.24453  1.0000
  C   C1420     1.0  0.94067  0.01685  0.13837  1.0000
  H   H1712     1.0  0.78818  0.26819  0.39843  1.0000
  H   H1713     1.0  0.84070  0.24430  0.35945  1.0000
  H   H1714     1.0  0.92222  0.14205  0.02814  1.0000
  S   S397      1.0  0.83050  0.20598  0.02512  1.0000
  H   H1715     1.0  0.83380  0.21966  0.31050  1.0000
  H   H1716     1.0  0.96295  0.07534  0.40658  1.0000
  C   C1421     1.0  0.87905  0.15587  0.06902  1.0000
  C   C1422     1.0  0.88308  0.13756  0.06435  1.0000
  C   C1423     1.0  0.89910  0.12927  0.07482  1.0000
  C   C1424     1.0  0.91131  0.13925  0.09010  1.0000
  C   C1425     1.0  0.90735  0.15757  0.09454  1.0000
  C   C1426     1.0  0.89135  0.16584  0.08409  1.0000
  H   H1717     1.0  0.87366  0.12970  0.05279  1.0000
  H   H1718     1.0  0.90186  0.11515  0.07139  1.0000
  H   H1719     1.0  0.91668  0.16545  0.10628  1.0000
  H   H1720     1.0  0.88848  0.17992  0.08785  1.0000
  C   C1427     1.0  0.76883  0.21479  0.03805  1.0000
  H   H1721     1.0  0.97023  0.13910  0.28696  1.0000
  C   C1428     1.0  0.80077  0.26243  0.20339  1.0000
  H   H1722     1.0  0.76087  0.27059  0.01366  1.0000
  C   C1429     1.0  0.97915  0.09835  0.40425  1.0000
  C   C1430     1.0  0.84613  0.25023  0.44962  1.0000
  C   C1431     1.0  0.82963  0.25819  0.45785  1.0000
  C   C1432     1.0  0.82106  0.27097  0.43942  1.0000
  C   C1433     1.0  0.82890  0.27581  0.41268  1.0000
  C   C1434     1.0  0.84549  0.26800  0.40467  1.0000
  C   C1435     1.0  0.85403  0.25524  0.42303  1.0000
  C   C1436     1.0  0.78072  0.25883  0.14628  1.0000
  H   H1723     1.0  0.80829  0.27704  0.44590  1.0000
  H   H1724     1.0  0.85176  0.27174  0.38435  1.0000
  H   H1725     1.0  0.86681  0.24913  0.41659  1.0000
  C   C1437     1.0  0.85086  0.24866  0.16724  1.0000
  C   C1438     1.0  0.84291  0.23428  0.18140  1.0000
  C   C1439     1.0  0.83984  0.23480  0.21177  1.0000
  C   C1440     1.0  0.84435  0.24982  0.22790  1.0000
  C   C1441     1.0  0.85222  0.26414  0.21365  1.0000
  C   C1442     1.0  0.85561  0.26347  0.18353  1.0000
  H   H1726     1.0  0.83930  0.22277  0.16900  1.0000
  H   H1727     1.0  0.83373  0.22366  0.22267  1.0000
  H   H1728     1.0  0.85593  0.27568  0.22584  1.0000
  C   C1443     1.0  0.78003  0.27305  0.16660  1.0000
  C   C1444     1.0  0.82263  0.22278  0.39753  1.0000
  C   C1445     1.0  0.81666  0.21818  0.42547  1.0000
  H   H1729     1.0  0.93797  0.12634  0.20790  1.0000
  H   H1730     1.0  0.82047  0.25813  0.35808  1.0000
  H   H1731     1.0  0.83689  0.22412  0.39456  1.0000
  H   H1732     1.0  0.82620  0.21633  0.44308  1.0000
  C   C1446     1.0  0.92883  0.13996  0.00647  1.0000
  H   H1733     1.0  0.93421  0.13365  0.46079  1.0000
  H   H1734     1.0  0.98936  0.05470  0.45467  1.0000
  C   C1447     1.0  0.76551  0.25411  0.13102  1.0000
  H   H1735     1.0  0.92790  0.02252  0.09728  1.0000
  C   C1448     1.0  0.98362  0.11416  0.41761  1.0000
  C   C1449     1.0  0.96596  0.08792  0.41656  1.0000
  C   C1450     1.0  0.95716  0.09323  0.44231  1.0000
  H   H1736     1.0  0.98640  0.09389  0.38488  1.0000
  H   H1737     1.0  0.93622  0.13816  0.49910  1.0000
  S   S398      1.0  0.88221  0.32576  0.30549  1.0000
  H   H1738     1.0  0.87773  0.29259  0.37646  1.0000
  C   C1451     1.0  0.93819  0.10352  0.49429  1.0000
  H   H1739     1.0  0.80487  0.24998  0.19164  1.0000
  S   S399      1.0  0.00614  0.09282  0.15088  1.0000
  H   H1740     1.0  0.95375  0.14387  0.47458  1.0000
  H   H1741     1.0  0.79919  0.23934  0.01854  1.0000
  H   H1742     1.0  0.79866  0.16523  0.08189  1.0000
  H   H1743     1.0  0.95372  0.10930  0.19560  1.0000
  H   H1744     1.0  0.95270  0.13712  0.05110  1.0000
  C   C1452     1.0  0.76409  0.31786  0.28766  1.0000
  H   H1745     1.0  0.76521  0.32553  0.21452  1.0000
  H   H1746     1.0  0.97902  0.13189  0.45290  1.0000
  C   C1453     1.0  0.77427  0.26767  0.39206  1.0000
  C   C1454     1.0  0.79383  0.29391  0.20071  1.0000
  H   H1747     1.0  0.86722  0.31663  0.44655  1.0000
  C   C1455     1.0  0.96126  0.10942  0.45635  1.0000
  C   C1456     1.0  0.76971  0.16880  0.04332  1.0000
  C   C1457     1.0  0.86047  0.32231  0.38909  1.0000
  H   H1748     1.0  0.82095  0.20378  0.33084  1.0000
  H   H1749     1.0  0.82794  0.16429  0.01840  1.0000
  C   C1458     1.0  0.76347  0.19865  0.48558  1.0000
  H   H1750     1.0  0.82049  0.16861  0.06755  1.0000
  C   C1459     1.0  0.76196  0.25941  0.41043  1.0000
  C   C1460     1.0  0.97635  0.13779  0.26553  1.0000
  H   H1751     1.0  0.78980  0.30572  0.18700  1.0000
  H   H1752     1.0  0.98183  0.14160  0.15350  1.0000
  H   H1753     1.0  0.77279  0.31699  0.30637  1.0000
  H   H1754     1.0  0.94753  0.08419  0.45111  1.0000
  H   H1755     1.0  0.91202  0.31413  0.42395  1.0000
  H   H1756     1.0  0.86398  0.29626  0.42740  1.0000
  N   N94       1.0  0.96173  0.13608  0.18630  1.0000
  C   C1461     1.0  0.95296  0.15403  0.18236  1.0000
  H   H1757     1.0  0.81626  0.26751  0.15189  1.0000
  C   C1462     1.0  0.94766  0.12276  0.19022  1.0000
  C   C1463     1.0  0.97336  0.13599  0.21231  1.0000
  H   H1758     1.0  0.76845  0.19106  0.46707  1.0000
  C   C1464     1.0  0.97200  0.01118  0.07669  1.0000
  H   H1759     1.0  0.81001  0.27884  0.01582  1.0000
  H   H1760     1.0  0.95108  0.10131  0.02547  1.0000
  H   H1761     1.0  0.99354  0.04200  0.23696  1.0000
  H   H1762     1.0  0.86273  0.32926  0.36783  1.0000
  H   H1763     1.0  0.82343  0.25443  0.47831  1.0000
  H   H1764     1.0  0.94425  0.15786  0.20123  1.0000
  H   H1765     1.0  0.92894  0.10444  0.01013  1.0000
  H   H1766     1.0  0.85230  0.33127  0.40364  1.0000
  C   C1465     1.0  0.00282  0.08817  0.25084  1.0000
  H   H1767     1.0  0.99033  0.05111  0.28411  1.0000
  C   C1466     1.0  0.96575  0.13851  0.24054  1.0000
  C   C1467     1.0  0.97161  0.13164  0.15890  1.0000
  H   H1768     1.0  0.78813  0.28898  0.02206  1.0000
  H   H1769     1.0  0.99336  0.10307  0.01965  1.0000
  H   H1770     1.0  0.76104  0.29267  0.18664  1.0000
  H   H1771     1.0  0.96309  0.16446  0.17969  1.0000
  C   C1468     1.0  0.82858  0.21618  0.33268  1.0000
  H   H1772     1.0  0.78182  0.22509  0.36407  1.0000
  H   H1773     1.0  0.77136  0.25259  0.03367  1.0000
  C   C1469     1.0  0.82815  0.24701  0.34720  1.0000
  H   H1774     1.0  0.77218  0.21652  0.41274  1.0000
  H   H1775     1.0  0.97835  0.11816  0.16039  1.0000
  C   C1470     1.0  0.99483  0.13498  0.26311  1.0000
  C   C1471     1.0  0.00320  0.08745  0.49891  1.0000
  C   C1472     1.0  0.87350  0.30714  0.43055  1.0000
  H   H1776     1.0  0.79604  0.27000  0.04353  1.0000
  H   H1777     1.0  0.88562  0.30086  0.44088  1.0000
  H   H1778     1.0  0.00299  0.13388  0.28253  1.0000
  Fe  Fe204     1.0  0.84569  0.23115  0.02844  1.0000
  H   H1779     1.0  0.81205  0.26569  0.21780  1.0000
  H   H1780     1.0  0.92732  0.10246  0.47808  1.0000
  H   H1781     1.0  0.95150  0.14075  0.24356  1.0000
  S   S400      1.0  0.79435  0.32491  0.25471  1.0000
  C   C1473     1.0  0.81367  0.16333  0.01193  1.0000
  H   H1782     1.0  0.78377  0.29237  0.21854  1.0000
  H   H1783     1.0  0.80246  0.18358  0.05688  1.0000
  N   N95       1.0  0.79620  0.27742  0.18311  1.0000
  C   C1474     1.0  0.78626  0.21847  0.40841  1.0000
  C   C1475     1.0  0.00279  0.13312  0.23571  1.0000
  N   N96       1.0  0.87770  0.31640  0.40270  1.0000
  C   C1476     1.0  0.77129  0.32123  0.25997  1.0000
  H   H1784     1.0  0.80816  0.29020  0.14581  1.0000
  H   H1785     1.0  0.80642  0.29733  0.21188  1.0000
  H   H1786     1.0  0.79376  0.24662  0.33159  1.0000
  C   C1477     1.0  0.93201  0.01221  0.11279  1.0000
  C   C1478     1.0  0.00482  0.08995  0.18925  1.0000
  H   H1787     1.0  0.79913  0.13422  0.06352  1.0000
  C   C1479     1.0  0.81159  0.28003  0.16294  1.0000
  H   H1788     1.0  0.99448  0.12180  0.40864  1.0000
  C   C1480     1.0  0.97479  0.11970  0.44316  1.0000
  C   C1481     1.0  0.81050  0.22579  0.37418  1.0000
  N   N97       1.0  0.80221  0.15768  0.03674  1.0000
  H   H1789     1.0  0.93951  0.12150  0.17014  1.0000
  H   H1790     1.0  0.84048  0.21294  0.34641  1.0000
  H   H1791     1.0  0.83253  0.25195  0.32546  1.0000
  H   H1792     1.0  0.79402  0.21272  0.45271  1.0000
  C   C1482     1.0  0.77763  0.14936  0.00292  1.0000
  H   H1793     1.0  0.00203  0.05010  0.31755  1.0000
  H   H1794     1.0  0.97076  0.12790  0.02906  1.0000
  H   H1795     1.0  0.80829  0.23985  0.30221  1.0000
  H   H1796     1.0  0.85193  0.31080  0.38453  1.0000
  H   H1797     1.0  0.79300  0.25106  0.14230  1.0000
  H   H1798     1.0  0.96255  0.13139  0.13983  1.0000
  H   H1799     1.0  0.82354  0.28461  0.17467  1.0000
  H   H1800     1.0  0.76642  0.24321  0.11556  1.0000
  C   C1483     1.0  0.80274  0.23543  0.32368  1.0000
  C   C1484     1.0  0.79852  0.21614  0.43094  1.0000
  H   H1801     1.0  0.82184  0.13802  0.05222  1.0000
  N   N98       1.0  0.81720  0.23100  0.34490  1.0000
  N   N99       1.0  0.95230  0.11552  0.48367  1.0000
  C   C1485     1.0  0.99473  0.02759  0.23924  1.0000
  C   C1486     1.0  0.99653  0.06616  0.46168  1.0000
  C   C1487     1.0  0.99358  0.07287  0.48988  1.0000
  H   H1802     1.0  0.89874  0.29660  0.39226  1.0000
  C   C1488     1.0  0.97157  0.02037  0.05015  1.0000
  C   C1489     1.0  0.88967  0.33127  0.40849  1.0000
  C   C1490     1.0  0.76306  0.28196  0.17119  1.0000
  H   H1803     1.0  0.97299  0.01856  0.09684  1.0000
  C   C1491     1.0  0.95798  0.13604  0.02834  1.0000
  C   C1492     1.0  0.77023  0.25874  0.01149  1.0000
  S   S401      1.0  0.00071  0.08796  0.28929  1.0000
  C   C1493     1.0  0.94378  0.13358  0.47925  1.0000
  C   C1494     1.0  0.76870  0.27569  0.36597  1.0000
  H   H1804     1.0  0.94386  0.08984  0.49939  1.0000
  C   C1495     1.0  0.88672  0.30341  0.38260  1.0000
  C   C1496     1.0  0.96973  0.01105  0.02433  1.0000
  H   H1805     1.0  0.98636  0.03320  0.30944  1.0000
  H   H1806     1.0  0.89102  0.31018  0.36206  1.0000
  H   H1807     1.0  0.96121  0.14982  0.02149  1.0000
  H   H1808     1.0  0.93232  0.33833  0.43218  1.0000
  H   H1809     1.0  0.97243  0.03480  0.04959  1.0000
  H   H1810     1.0  0.93368  0.11329  0.04499  1.0000
  C   C1497     1.0  0.78316  0.15862  0.02795  1.0000
  C   C1498     1.0  0.80757  0.13906  0.04514  1.0000
  C   C1499     1.0  0.93945  0.11095  0.02281  1.0000
  H   H1811     1.0  0.80904  0.17665  0.00326  1.0000
  N   N100      1.0  0.94498  0.12786  0.00872  1.0000
  H   H1812     1.0  0.99941  0.13116  0.19027  1.0000
  C   C1500     1.0  0.75980  0.32262  0.23592  1.0000
  H   H1813     1.0  0.91726  0.33828  0.31500  1.0000
  H   H1814     1.0  0.97967  0.02404  0.19994  1.0000
  C   C1501     1.0  0.98677  0.01743  0.21786  1.0000
  C   C1502     1.0  0.77513  0.20887  0.01088  1.0000
  C   C1503     1.0  0.99231  0.13346  0.21060  1.0000
  C   C1504     1.0  0.00385  0.01936  0.26323  1.0000
  H   H1815     1.0  0.78929  0.20614  0.00741  1.0000
  C   C1505     1.0  0.79584  0.27596  0.02115  1.0000
  H   H1816     1.0  0.96924  0.01840  0.00381  1.0000
  H   H1817     1.0  0.97708  0.12493  0.50117  1.0000
  H   H1818     1.0  0.95199  0.00690  0.17869  1.0000
  Fe  Fe205     1.0  0.84723  0.19309  0.55753  1.0000
  S   S402      1.0  0.86563  0.21574  0.55055  1.0000
  S   S403      1.0  0.85448  0.16347  0.56557  1.0000
  Fe  Fe206     1.0  0.81374  0.21814  0.55311  1.0000
  S   S404      1.0  0.82968  0.24274  0.54609  1.0000
  S   S405      1.0  0.78353  0.22058  0.55852  1.0000
  H   H1819     1.0  0.78185  0.29288  0.65877  1.0000
  H   H1820     1.0  0.76790  0.20117  0.96748  1.0000
  Fe  Fe207     1.0  0.84736  0.23115  0.58154  1.0000
  S   S406      1.0  0.85978  0.24766  0.61667  1.0000
  H   H1821     1.0  0.82286  0.24318  0.63556  1.0000
  S   S407      1.0  0.83021  0.20784  0.59097  1.0000
  Fe  Fe208     1.0  0.80832  0.31440  0.81084  1.0000
  S   S408      1.0  0.80694  0.28523  0.80429  1.0000
  H   H1822     1.0  0.97398  0.14917  0.92530  1.0000
  Fe  Fe209     1.0  0.84882  0.31294  0.80646  1.0000
  S   S409      1.0  0.85011  0.28290  0.79866  1.0000
  S   S410      1.0  0.87405  0.32946  0.80255  1.0000
  Fe  Fe210     1.0  0.82697  0.28829  0.76823  1.0000
  S   S411      1.0  0.81598  0.27436  0.72869  1.0000
  Fe  Fe211     1.0  0.82972  0.28194  0.83517  1.0000
  S   S412      1.0  0.82335  0.25891  0.86563  1.0000
  S   S413      1.0  0.82706  0.31813  0.77309  1.0000
  S   S414      1.0  0.82975  0.31137  0.84494  1.0000
  Fe  Fe212     1.0  0.94572  0.10322  0.58532  1.0000
  S   S415      1.0  0.97540  0.09943  0.57676  1.0000
  S   S416      1.0  0.93473  0.13101  0.57182  1.0000
  Fe  Fe213     1.0  0.94345  0.06452  0.60732  1.0000
  S   S417      1.0  0.97245  0.05782  0.59928  1.0000
  S   S418      1.0  0.92416  0.04585  0.62865  1.0000
  Fe  Fe214     1.0  0.97649  0.08456  0.61960  1.0000
  N   N101      1.0  0.78796  0.26381  0.99979  1.0000
  Fe  Fe215     1.0  0.96872  0.07327  0.55718  1.0000
  H   H1823     1.0  0.93240  0.33307  0.82353  1.0000
  S   S419      1.0  0.94758  0.09060  0.63013  1.0000
  S   S420      1.0  0.93899  0.07772  0.56349  1.0000
  H   H1824     1.0  0.00210  0.01084  0.85356  1.0000
  C   C1506     1.0  0.76577  0.17078  0.55513  1.0000
  H   H1825     1.0  0.78624  0.29567  0.89341  1.0000
  C   C1507     1.0  0.92658  0.16204  0.63607  1.0000
  C   C1508     1.0  0.98813  0.04143  0.71643  1.0000
  C   C1509     1.0  0.78638  0.28936  0.91482  1.0000
  C   C1510     1.0  0.98036  0.09118  0.70199  1.0000
  C   C1511     1.0  0.97908  0.09304  0.73248  1.0000
  C   C1512     1.0  0.77083  0.27519  0.95496  1.0000
  H   H1826     1.0  0.96836  0.09113  0.68903  1.0000
  H   H1827     1.0  0.96605  0.09427  0.74289  1.0000
  C   C1513     1.0  0.92627  0.02238  0.63425  1.0000
  C   C1514     1.0  0.77841  0.15838  0.54242  1.0000
  H   H1828     1.0  0.77207  0.26447  0.78814  1.0000
  H   H1829     1.0  0.97135  0.10291  0.51248  1.0000
  C   C1515     1.0  0.76644  0.32421  0.78860  1.0000
  C   C1516     1.0  0.77286  0.31876  0.76127  1.0000
  H   H1830     1.0  0.78713  0.31747  0.75715  1.0000
  C   C1517     1.0  0.87688  0.15464  0.56758  1.0000
  C   C1518     1.0  0.88004  0.13647  0.57492  1.0000
  C   C1519     1.0  0.89764  0.12895  0.57634  1.0000
  C   C1520     1.0  0.91225  0.13955  0.57025  1.0000
  C   C1521     1.0  0.90909  0.15769  0.56299  1.0000
  C   C1522     1.0  0.89153  0.16523  0.56177  1.0000
  H   H1831     1.0  0.86881  0.12815  0.57943  1.0000
  H   H1832     1.0  0.89985  0.11496  0.58194  1.0000
  H   H1833     1.0  0.92028  0.16603  0.55826  1.0000
  H   H1834     1.0  0.88933  0.17921  0.55607  1.0000
  C   C1523     1.0  0.76967  0.26597  0.85607  1.0000
  C   C1524     1.0  0.99302  0.07389  0.96342  1.0000
  C   C1525     1.0  0.96287  0.10634  0.93830  1.0000
  H   H1835     1.0  0.91665  0.12184  0.66630  1.0000
  C   C1526     1.0  0.77157  0.26047  0.61134  1.0000
  C   C1527     1.0  0.84649  0.25192  0.95736  1.0000
  C   C1528     1.0  0.83453  0.23971  0.94670  1.0000
  C   C1529     1.0  0.82768  0.24192  0.91838  1.0000
  C   C1530     1.0  0.83291  0.25618  0.90045  1.0000
  C   C1531     1.0  0.84515  0.26815  0.91088  1.0000
  C   C1532     1.0  0.85186  0.26605  0.93929  1.0000
  H   H1836     1.0  0.83055  0.22862  0.96027  1.0000
  H   H1837     1.0  0.81829  0.23256  0.91029  1.0000
  H   H1838     1.0  0.84932  0.27912  0.89717  1.0000
  H   H1839     1.0  0.86119  0.27548  0.94739  1.0000
  C   C1533     1.0  0.84754  0.25468  0.64799  1.0000
  C   C1534     1.0  0.85607  0.26450  0.66941  1.0000
  C   C1535     1.0  0.84667  0.27048  0.69446  1.0000
  C   C1536     1.0  0.82862  0.26672  0.69818  1.0000
  C   C1537     1.0  0.82010  0.25682  0.67684  1.0000
  C   C1538     1.0  0.82952  0.25079  0.65187  1.0000
  H   H1840     1.0  0.87002  0.26754  0.66655  1.0000
  H   H1841     1.0  0.85337  0.27808  0.71074  1.0000
  H   H1842     1.0  0.80616  0.25380  0.67963  1.0000
  H   H1843     1.0  0.78416  0.26389  0.85628  1.0000
  H   H1844     1.0  0.94097  0.14999  0.71624  1.0000
  H   H1845     1.0  0.91878  0.13437  0.99168  1.0000
  C   C1539     1.0  0.99984  0.01733  0.52286  1.0000
  H   H1846     1.0  0.78700  0.14110  0.99043  1.0000
  H   H1847     1.0  0.91216  0.14650  0.70145  1.0000
  C   C1540     1.0  0.95468  0.10830  0.96568  1.0000
  C   C1541     1.0  0.95722  0.13655  0.64956  1.0000
  C   C1542     1.0  0.78191  0.27120  0.62854  1.0000
  C   C1543     1.0  0.96841  0.13783  0.93657  1.0000
  H   H1848     1.0  0.78968  0.20163  0.50404  1.0000
  H   H1849     1.0  0.76941  0.18039  0.57124  1.0000
  H   H1850     1.0  0.92458  0.12639  0.63027  1.0000
  C   C1544     1.0  0.80247  0.28693  0.92959  1.0000
  H   H1851     1.0  0.77895  0.23654  0.76300  1.0000
  H   H1852     1.0  0.93180  0.10850  0.51492  1.0000
  H   H1853     1.0  0.97958  0.04138  0.73644  1.0000
  H   H1854     1.0  0.93401  0.15695  0.61660  1.0000
  H   H1855     1.0  0.90336  0.13556  0.64141  1.0000
  H   H1856     1.0  0.00586  0.07777  0.92147  1.0000
  C   C1545     1.0  0.99720  0.08970  0.68840  1.0000
  C   C1546     1.0  0.76105  0.26774  0.71658  1.0000
  C   C1547     1.0  0.80289  0.27863  0.95704  1.0000
  H   H1857     1.0  0.95969  0.12205  0.52747  1.0000
  H   H1858     1.0  0.99314  0.12942  0.69373  1.0000
  C   C1548     1.0  0.99110  0.03330  0.66575  1.0000
  S   S421      1.0  0.82918  0.20155  0.52027  1.0000
  H   H1859     1.0  0.79525  0.23857  0.97998  1.0000
  C   C1549     1.0  0.00591  0.10715  0.97749  1.0000
  C   C1550     1.0  0.00318  0.08335  0.94279  1.0000
  H   H1860     1.0  0.78057  0.13671  0.51091  1.0000
  H   H1861     1.0  0.95395  0.13462  0.62693  1.0000
  H   H1862     1.0  0.96432  0.09321  0.92856  1.0000
  H   H1863     1.0  0.77237  0.23390  0.72528  1.0000
  S   S422      1.0  0.99970  0.08719  0.65034  1.0000
  H   H1864     1.0  0.89922  0.02191  0.65058  1.0000
  H   H1865     1.0  0.98791  0.06107  0.95771  1.0000
  C   C1551     1.0  0.77059  0.28350  0.92745  1.0000
  C   C1552     1.0  0.77369  0.28469  0.64520  1.0000
  H   H1866     1.0  0.81709  0.17079  0.57600  1.0000
  H   H1867     1.0  0.00113  0.03456  0.72181  1.0000
  H   H1868     1.0  0.79538  0.17054  0.59209  1.0000
  S   S423      1.0  0.97768  0.06270  0.51294  1.0000
  H   H1869     1.0  0.77805  0.24988  0.59859  1.0000
  C   C1553     1.0  0.96003  0.14002  0.96377  1.0000
  H   H1870     1.0  0.78951  0.24867  0.73458  1.0000
  H   H1871     1.0  0.77432  0.27213  0.70842  1.0000
  H   H1872     1.0  0.99396  0.04724  0.65870  1.0000
  H   H1873     1.0  0.78250  0.27664  0.75901  1.0000
  H   H1874     1.0  0.95576  0.03931  0.66549  1.0000
  H   H1875     1.0  0.82332  0.16028  0.52901  1.0000
  H   H1876     1.0  0.95342  0.04547  0.70338  1.0000
  H   H1877     1.0  0.80475  0.17163  0.51114  1.0000
  C   C1554     1.0  0.76214  0.28155  0.84362  1.0000
  C   C1555     1.0  0.99594  0.09758  0.99826  1.0000
  C   C1556     1.0  0.96731  0.14009  0.70755  1.0000
  H   H1878     1.0  0.95918  0.15334  0.97264  1.0000
  H   H1879     1.0  0.76551  0.24158  0.87830  1.0000
  C   C1557     1.0  0.80886  0.15936  0.52366  1.0000
  H   H1880     1.0  0.96448  0.33557  0.81089  1.0000
  N   N102      1.0  0.97907  0.03307  0.69168  1.0000
  C   C1558     1.0  0.99458  0.09347  0.74955  1.0000
  H   H1881     1.0  0.95357  0.01826  0.61927  1.0000
  H   H1882     1.0  0.93199  0.15345  0.99800  1.0000
  H   H1883     1.0  0.00157  0.09236  0.52090  1.0000
  H   H1884     1.0  0.80810  0.14781  0.50881  1.0000
  H   H1885     1.0  0.98420  0.12598  0.64251  1.0000
  H   H1886     1.0  0.76040  0.28286  0.77042  1.0000
  H   H1887     1.0  0.90058  0.16015  0.67504  1.0000
  C   C1559     1.0  0.91724  0.13242  0.64909  1.0000
  Fe  Fe216     1.0  0.84637  0.22544  0.51575  1.0000
  C   C1560     1.0  0.95315  0.12526  0.97943  1.0000
  C   C1561     1.0  0.77633  0.24365  0.74195  1.0000
  C   C1562     1.0  0.80255  0.17163  0.57083  1.0000
  C   C1563     1.0  0.97969  0.13352  0.68707  1.0000
  C   C1564     1.0  0.94140  0.33881  0.83899  1.0000
  H   H1888     1.0  0.95012  0.09619  0.97588  1.0000
  S   S424      1.0  0.99250  0.09586  0.78777  1.0000
  C   C1565     1.0  0.95735  0.00796  0.70000  1.0000
  C   C1566     1.0  0.91417  0.15628  0.68336  1.0000
  H   H1889     1.0  0.91295  0.16616  0.62820  1.0000
  C   C1567     1.0  0.94984  0.14509  0.69918  1.0000
  C   C1568     1.0  0.91138  0.01407  0.64603  1.0000
  S   S425      1.0  0.85444  0.25063  0.99344  1.0000
  C   C1569     1.0  0.76907  0.21403  0.53078  1.0000
  H   H1890     1.0  0.93328  0.17425  0.64323  1.0000
  C   C1570     1.0  0.80217  0.13994  0.56430  1.0000
  C   C1571     1.0  0.77550  0.20459  0.50646  1.0000
  S   S426      1.0  0.78154  0.32902  0.81657  1.0000
  C   C1572     1.0  0.96293  0.04447  0.68461  1.0000
  N   N103      1.0  0.79760  0.15746  0.55031  1.0000
  C   C1573     1.0  0.98931  0.08096  0.99120  1.0000
  H   H1891     1.0  0.97128  0.14107  0.73016  1.0000
  H   H1892     1.0  0.96646  0.05837  0.67864  1.0000
  H   H1893     1.0  0.79635  0.26904  0.62893  1.0000
  N   N104      1.0  0.92589  0.14853  0.65998  1.0000
  H   H1894     1.0  0.81380  0.25025  0.99404  1.0000
  H   H1895     1.0  0.80000  0.12857  0.54954  1.0000
  C   C1574     1.0  0.97462  0.13162  0.65819  1.0000
  C   C1575     1.0  0.96993  0.12099  0.92395  1.0000
  N   N105      1.0  0.76267  0.25849  0.74528  1.0000
  H   H1896     1.0  0.98493  0.02659  0.64695  1.0000
  H   H1897     1.0  0.94575  0.01629  0.69427  1.0000
  H   H1898     1.0  0.91977  0.16863  0.69234  1.0000
  H   H1899     1.0  0.99088  0.02498  0.53721  1.0000
  H   H1900     1.0  0.97686  0.11921  0.90322  1.0000
  H   H1901     1.0  0.76602  0.31142  0.71765  1.0000
  H   H1902     1.0  0.81581  0.27673  0.96731  1.0000
  C   C1576     1.0  0.94428  0.14355  0.66973  1.0000
  C   C1577     1.0  0.97504  0.01436  0.69944  1.0000
  H   H1903     1.0  0.94842  0.33598  0.93760  1.0000
  C   C1578     1.0  0.94199  0.01199  0.62846  1.0000
  H   H1904     1.0  0.79389  0.13791  0.58429  1.0000
  H   H1905     1.0  0.81655  0.13895  0.57078  1.0000
  H   H1906     1.0  0.79972  0.18520  0.56142  1.0000
  C   C1579     1.0  0.76964  0.27113  0.76667  1.0000
  C   C1580     1.0  0.76085  0.31529  0.73888  1.0000
  C   C1581     1.0  0.75872  0.25318  0.86869  1.0000
  H   H1907     1.0  0.81477  0.29124  0.91945  1.0000
  H   H1908     1.0  0.77068  0.29156  0.83422  1.0000
  C   C1582     1.0  0.76299  0.20610  0.98828  1.0000
  H   H1909     1.0  0.99122  0.05557  0.71150  1.0000
  C   C1583     1.0  0.96571  0.11647  0.50710  1.0000
  H   H1910     1.0  0.00429  0.02647  0.66985  1.0000
  C   C1584     1.0  0.77185  0.14668  0.52117  1.0000
  C   C1585     1.0  0.78707  0.27260  0.97071  1.0000
  C   C1586     1.0  0.79951  0.24729  0.99794  1.0000
  H   H1911     1.0  0.81379  0.15379  0.99357  1.0000
  C   C1587     1.0  0.75996  0.15088  0.99313  1.0000
  H   H1912     1.0  0.75812  0.28538  0.91573  1.0000
  H   H1913     1.0  0.75815  0.27089  0.96335  1.0000
  H   H1914     1.0  0.76404  0.24860  0.99757  1.0000
  Fe  Fe217     1.0  0.96919  0.41050  0.30559  1.0000
  S   S427      1.0  0.94346  0.42677  0.30985  1.0000
  S   S428      1.0  0.97664  0.39834  0.26160  1.0000
  Fe  Fe218     1.0  0.97626  0.41226  0.37151  1.0000
  S   S429      1.0  0.95082  0.42843  0.38043  1.0000
  H   H1915     1.0  0.98087  0.44307  0.42785  1.0000
  Fe  Fe219     1.0  0.93814  0.40939  0.34913  1.0000
  S   S430      1.0  0.90996  0.39897  0.35575  1.0000
  Fe  Fe220     1.0  0.95831  0.44422  0.34041  1.0000
  S   S431      1.0  0.96036  0.47429  0.33365  1.0000
  S   S432      1.0  0.96315  0.39206  0.34330  1.0000
  S   S433      1.0  0.98444  0.42906  0.33302  1.0000
  Fe  Fe221     1.0  0.97772  0.59032  0.37990  1.0000
  S   S434      1.0  0.94948  0.58172  0.38538  1.0000
  H   H1916     1.0  0.97405  0.58321  0.16547  1.0000
  Fe  Fe222     1.0  0.98303  0.59188  0.44611  1.0000
  S   S435      1.0  0.95494  0.58373  0.45628  1.0000
  H   H1917     1.0  0.86631  0.36582  0.25497  1.0000
  Fe  Fe223     1.0  0.96011  0.56347  0.42069  1.0000
  S   S436      1.0  0.95022  0.53544  0.42861  1.0000
  Fe  Fe224     1.0  0.94633  0.60278  0.42001  1.0000
  S   S437      1.0  0.92130  0.62082  0.41217  1.0000
  S   S438      1.0  0.98878  0.57035  0.41277  1.0000
  S   S439      1.0  0.97410  0.61245  0.41248  1.0000
  C   C1588     1.0  0.90671  0.63478  0.43358  1.0000
  C   C1589     1.0  0.90656  0.63414  0.46407  1.0000
  C   C1590     1.0  0.89370  0.64452  0.47989  1.0000
  C   C1591     1.0  0.88116  0.65596  0.46548  1.0000
  C   C1592     1.0  0.87705  0.37478  0.25913  1.0000
  C   C1593     1.0  0.89422  0.64628  0.41923  1.0000
  H   H1918     1.0  0.91607  0.62538  0.47543  1.0000
  H   H1919     1.0  0.87137  0.35373  0.39594  1.0000
  C   C1594     1.0  0.90787  0.34870  0.32229  1.0000
  H   H1920     1.0  0.99246  0.47597  0.23387  1.0000
  H   H1921     1.0  0.90131  0.54276  0.42189  1.0000
  C   C1595     1.0  0.99883  0.40548  0.44089  1.0000
  C   C1596     1.0  0.98750  0.58216  0.03067  1.0000
  H   H1922     1.0  0.88005  0.54916  0.40705  1.0000
  H   H1923     1.0  0.97597  0.58405  0.07396  1.0000
  C   C1597     1.0  0.00146  0.50219  0.24346  1.0000
  H   H1924     1.0  0.89419  0.64683  0.39565  1.0000
  C   C1598     1.0  0.00461  0.57960  0.07593  1.0000
  N   N106      1.0  0.99783  0.46581  0.42252  1.0000
  C   C1599     1.0  0.88437  0.34956  0.40412  1.0000
  C   C1600     1.0  0.98820  0.58207  0.06141  1.0000
  H   H1925     1.0  0.91622  0.58689  0.43959  1.0000
  C   C1601     1.0  0.95742  0.49099  0.36052  1.0000
  C   C1602     1.0  0.94935  0.48755  0.38753  1.0000
  C   C1603     1.0  0.94725  0.50129  0.40822  1.0000
  C   C1604     1.0  0.95323  0.51854  0.40210  1.0000
  C   C1605     1.0  0.96138  0.52194  0.37515  1.0000
  C   C1606     1.0  0.96340  0.50823  0.35444  1.0000
  H   H1926     1.0  0.94447  0.47441  0.39230  1.0000
  H   H1927     1.0  0.94087  0.49857  0.42899  1.0000
  H   H1928     1.0  0.96608  0.53515  0.37021  1.0000
  H   H1929     1.0  0.96971  0.51098  0.33362  1.0000
  C   C1607     1.0  0.99057  0.40907  0.23600  1.0000
  C   C1608     1.0  0.99233  0.40226  0.20761  1.0000
  C   C1609     1.0  0.93363  0.66866  0.02382  1.0000
  H   H1930     1.0  0.92187  0.56359  0.43745  1.0000
  H   H1931     1.0  0.98474  0.39090  0.20149  1.0000
  C   C1610     1.0  0.86480  0.58346  0.40820  1.0000
  H   H1932     1.0  0.86016  0.39323  0.28357  1.0000
  C   C1611     1.0  0.88979  0.55264  0.42400  1.0000
  C   C1612     1.0  0.87355  0.39018  0.27532  1.0000
  H   H1933     1.0  0.91532  0.40554  0.27936  1.0000
  C   C1613     1.0  0.98272  0.40438  0.45645  1.0000
  H   H1934     1.0  0.97944  0.58071  0.24836  1.0000
  H   H1935     1.0  0.86392  0.57371  0.39113  1.0000
  H   H1936     1.0  0.97018  0.40443  0.44486  1.0000
  H   H1937     1.0  0.95522  0.57622  0.18707  1.0000
  H   H1938     1.0  0.92516  0.34991  0.23370  1.0000
  C   C1614     1.0  0.91433  0.36476  0.33311  1.0000
  C   C1615     1.0  0.90237  0.37839  0.34238  1.0000
  C   C1616     1.0  0.88387  0.37550  0.34164  1.0000
  C   C1617     1.0  0.87739  0.35939  0.33085  1.0000
  H   H1939     1.0  0.94801  0.66975  0.02156  1.0000
  H   H1940     1.0  0.92858  0.36657  0.33449  1.0000
  H   H1941     1.0  0.87450  0.38590  0.34903  1.0000
  H   H1942     1.0  0.86313  0.35754  0.32977  1.0000
  N   N107      1.0  0.92742  0.37773  0.24471  1.0000
  C   C1618     1.0  0.93879  0.37266  0.26996  1.0000
  C   C1619     1.0  0.92884  0.36285  0.22349  1.0000
  C   C1620     1.0  0.93475  0.39377  0.23022  1.0000
  C   C1621     1.0  0.90886  0.38171  0.25506  1.0000
  C   C1622     1.0  0.90789  0.65027  0.02591  1.0000
  C   C1623     1.0  0.00167  0.55022  0.49408  1.0000
  H   H1943     1.0  0.83867  0.59503  0.39802  1.0000
  C   C1624     1.0  0.88164  0.65695  0.43504  1.0000
  C   C1625     1.0  0.91888  0.34142  0.42443  1.0000
  H   H1944     1.0  0.93387  0.36055  0.28121  1.0000
  H   H1945     1.0  0.95292  0.36966  0.26324  1.0000
  C   C1626     1.0  0.88748  0.40120  0.28212  1.0000
  H   H1946     1.0  0.92014  0.36566  0.20428  1.0000
  H   H1947     1.0  0.97757  0.53612  0.48728  1.0000
  H   H1948     1.0  0.94281  0.36071  0.21518  1.0000
  H   H1949     1.0  0.92564  0.39913  0.21290  1.0000
  H   H1950     1.0  0.93701  0.40473  0.24580  1.0000
  H   H1951     1.0  0.94814  0.39082  0.22010  1.0000
  H   H1952     1.0  0.93906  0.38352  0.28634  1.0000
  H   H1953     1.0  0.92254  0.36984  0.42268  1.0000
  H   H1954     1.0  0.97481  0.58418  0.01979  1.0000
  H   H1955     1.0  0.96435  0.54525  0.17018  1.0000
  C   C1627     1.0  0.00218  0.58703  0.31093  1.0000
  S   S440      1.0  0.00542  0.59775  0.47761  1.0000
  C   C1628     1.0  0.00254  0.48574  0.22951  1.0000
  H   H1956     1.0  0.90618  0.57126  0.46464  1.0000
  C   C1629     1.0  0.89442  0.37049  0.24916  1.0000
  H   H1957     1.0  0.89146  0.59931  0.46165  1.0000
  H   H1958     1.0  0.98678  0.53636  0.17811  1.0000
  H   H1959     1.0  0.98345  0.55393  0.15195  1.0000
  H   H1960     1.0  0.00161  0.57747  0.21374  1.0000
  H   H1961     1.0  0.98615  0.49230  0.41513  1.0000
  H   H1962     1.0  0.96627  0.52893  0.21373  1.0000
  H   H1963     1.0  0.97598  0.45666  0.39686  1.0000
  C   C1630     1.0  0.88024  0.59753  0.44749  1.0000
  C   C1631     1.0  0.88939  0.34598  0.32078  1.0000
  C   C1632     1.0  0.85073  0.60871  0.43324  1.0000
  C   C1633     1.0  0.98288  0.40279  0.48712  1.0000
  H   H1964     1.0  0.99968  0.55879  0.47506  1.0000
  H   H1965     1.0  0.88342  0.55042  0.44572  1.0000
  H   H1966     1.0  0.83959  0.61830  0.43591  1.0000
  C   C1634     1.0  0.90295  0.57391  0.39107  1.0000
  H   H1967     1.0  0.88242  0.66323  0.02973  1.0000
  H   H1968     1.0  0.00365  0.60951  0.28135  1.0000
  C   C1635     1.0  0.88028  0.58407  0.42582  1.0000
  C   C1636     1.0  0.85027  0.59562  0.41192  1.0000
  H   H1969     1.0  0.89199  0.37708  0.40546  1.0000
  C   C1637     1.0  0.86563  0.60961  0.45102  1.0000
  H   H1970     1.0  0.99937  0.42894  0.26562  1.0000
  S   S441      1.0  0.98733  0.59879  0.33479  1.0000
  H   H1971     1.0  0.00509  0.40480  0.16525  1.0000
  H   H1972     1.0  0.95788  0.54062  0.30370  1.0000
  H   H1973     1.0  0.86599  0.61997  0.46736  1.0000
  H   H1974     1.0  0.91468  0.56465  0.38669  1.0000
  H   H1975     1.0  0.88495  0.41268  0.29600  1.0000
  C   C1638     1.0  0.89660  0.66552  0.02862  1.0000
  H   H1976     1.0  0.93492  0.63999  0.01973  1.0000
  C   C1639     1.0  0.00255  0.45319  0.47308  1.0000
  H   H1977     1.0  0.90742  0.58787  0.38791  1.0000
  H   H1978     1.0  0.89300  0.57148  0.37391  1.0000
  C   C1640     1.0  0.00051  0.42368  0.24377  1.0000
  N   N108      1.0  0.98013  0.56214  0.19682  1.0000
  C   C1641     1.0  0.99926  0.56636  0.19859  1.0000
  C   C1642     1.0  0.97852  0.54874  0.17340  1.0000
  C   C1643     1.0  0.96982  0.57857  0.18764  1.0000
  C   C1644     1.0  0.97375  0.55598  0.22580  1.0000
  C   C1645     1.0  0.96711  0.53863  0.23084  1.0000
  C   C1646     1.0  0.97430  0.56743  0.25025  1.0000
  C   C1647     1.0  0.96141  0.53325  0.25866  1.0000
  C   C1648     1.0  0.96852  0.56193  0.27789  1.0000
  C   C1649     1.0  0.96217  0.54485  0.28213  1.0000
  C   C1650     1.0  0.00232  0.46809  0.45364  1.0000
  H   H1979     1.0  0.97184  0.58997  0.20243  1.0000
  H   H1980     1.0  0.00463  0.57063  0.17701  1.0000
  H   H1981     1.0  0.95642  0.51996  0.26217  1.0000
  H   H1982     1.0  0.99266  0.48073  0.38259  1.0000
  H   H1983     1.0  0.89618  0.35813  0.23740  1.0000
  C   C1651     1.0  0.92632  0.65184  0.02306  1.0000
  H   H1984     1.0  0.96969  0.46465  0.43248  1.0000
  C   C1652     1.0  0.99653  0.48290  0.40568  1.0000
  N   N109      1.0  0.89565  0.57129  0.42093  1.0000
  C   C1653     1.0  0.91055  0.57340  0.44165  1.0000
  H   H1985     1.0  0.96918  0.57094  0.29624  1.0000
  C   C1654     1.0  0.98036  0.45719  0.41998  1.0000
  H   H1986     1.0  0.92486  0.67255  0.45917  1.0000
  H   H1987     1.0  0.99066  0.50517  0.25881  1.0000
  S   S442      1.0  0.00323  0.42452  0.02928  1.0000
  C   C1655     1.0  0.00397  0.40999  0.18711  1.0000
  C   C1656     1.0  0.98915  0.53752  0.50106  1.0000
  S   S443      1.0  0.99956  0.40721  0.40238  1.0000
  H   H1988     1.0  0.98340  0.47532  0.02007  1.0000
  C   C1657     1.0  0.90490  0.39698  0.27241  1.0000
  C   C1658     1.0  0.89612  0.36322  0.40960  1.0000
  C   C1659     1.0  0.91339  0.35916  0.41931  1.0000
  H   H1989     1.0  0.90225  0.63716  0.02485  1.0000
  H   H1990     1.0  0.00335  0.56239  0.33557  1.0000
  H   H1991     1.0  0.87202  0.66557  0.42365  1.0000
  H   H1992     1.0  0.99919  0.44010  0.46574  1.0000
  S   S444      1.0  0.86467  0.66794  0.48643  1.0000
  S   S445      1.0  0.00497  0.57961  0.11465  1.0000
  C   C1660     1.0  0.00324  0.57969  0.01417  1.0000
  H   H1993     1.0  0.94614  0.65687  0.49239  1.0000
  H   H1994     1.0  0.97040  0.40159  0.49898  1.0000
  C   C1661     1.0  0.93600  0.66616  0.50114  1.0000
  Fe  Fe225     1.0  0.96109  0.41692  0.80837  1.0000
  S   S446      1.0  0.93711  0.43349  0.82381  1.0000
  H   H1995     1.0  0.99801  0.40022  0.77233  1.0000
  Fe  Fe226     1.0  0.97174  0.40711  0.87163  1.0000
  S   S447      1.0  0.94835  0.42278  0.89040  1.0000
  S   S448      1.0  0.99249  0.39361  0.90155  1.0000
  Fe  Fe227     1.0  0.93249  0.41028  0.85450  1.0000
  S   S449      1.0  0.90554  0.39771  0.86466  1.0000
  Fe  Fe228     1.0  0.95540  0.44408  0.85784  1.0000
  S   S450      1.0  0.96533  0.47169  0.86789  1.0000
  S   S451      1.0  0.95562  0.39329  0.83759  1.0000
  S   S452      1.0  0.97957  0.42875  0.84035  1.0000
  Fe  Fe229     1.0  0.96684  0.59287  0.88487  1.0000
  S   S453      1.0  0.93769  0.59149  0.89691  1.0000
  S   S454      1.0  0.97098  0.60083  0.83723  1.0000
  Fe  Fe230     1.0  0.97817  0.58471  0.94823  1.0000
  S   S455      1.0  0.94983  0.58301  0.96456  1.0000
  H   H1996     1.0  0.95344  0.52995  0.97216  1.0000
  Fe  Fe231     1.0  0.94608  0.56722  0.92348  1.0000
  S   S456      1.0  0.92959  0.54244  0.92131  1.0000
  Fe  Fe232     1.0  0.94396  0.60748  0.93643  1.0000
  S   S457      1.0  0.93099  0.63489  0.94691  1.0000
  S   S458      1.0  0.97475  0.56747  0.90869  1.0000
  S   S459      1.0  0.97281  0.61023  0.92284  1.0000
  C   C1662     1.0  0.90834  0.64182  0.95337  1.0000
  C   C1663     1.0  0.89527  0.62984  0.96170  1.0000
  C   C1664     1.0  0.87773  0.63625  0.96853  1.0000
  H   H1997     1.0  0.80604  0.38252  0.84075  1.0000
  C   C1665     1.0  0.93894  0.66159  0.83414  1.0000
  C   C1666     1.0  0.90357  0.66015  0.95124  1.0000
  H   H1998     1.0  0.89878  0.61571  0.96359  1.0000
  C   C1667     1.0  0.88282  0.34797  0.82118  1.0000
  H   H1999     1.0  0.94681  0.55405  0.79629  1.0000
  C   C1668     1.0  0.98836  0.54699  0.77521  1.0000
  H   H2000     1.0  0.94436  0.62827  0.82004  1.0000
  C   C1669     1.0  0.86780  0.39082  0.79188  1.0000
  C   C1670     1.0  0.98922  0.59275  0.53186  1.0000
  C   C1671     1.0  0.95973  0.37646  0.71510  1.0000
  H   H2001     1.0  0.97741  0.58886  0.57454  1.0000
  H   H2002     1.0  0.93400  0.38617  0.70033  1.0000
  C   C1672     1.0  0.98274  0.41766  0.70805  1.0000
  H   H2003     1.0  0.99674  0.36925  0.67367  1.0000
  C   C1673     1.0  0.95945  0.34020  0.83184  1.0000
  H   H2004     1.0  0.99068  0.55915  0.78676  1.0000
  H   H2005     1.0  0.82909  0.35874  0.76401  1.0000
  S   S460      1.0  0.96334  0.41763  0.75885  1.0000
  C   C1674     1.0  0.95486  0.49042  0.88475  1.0000
  C   C1675     1.0  0.93636  0.49208  0.88937  1.0000
  C   C1676     1.0  0.92871  0.50800  0.90106  1.0000
  C   C1677     1.0  0.93951  0.52226  0.90814  1.0000
  C   C1678     1.0  0.95803  0.52029  0.90424  1.0000
  C   C1679     1.0  0.96565  0.50450  0.89253  1.0000
  H   H2006     1.0  0.92793  0.48129  0.88341  1.0000
  H   H2007     1.0  0.91436  0.50938  0.90421  1.0000
  H   H2008     1.0  0.96654  0.53089  0.91045  1.0000
  H   H2009     1.0  0.98000  0.50324  0.88927  1.0000
  H   H2010     1.0  0.97746  0.40991  0.62937  1.0000
  H   H2011     1.0  0.81492  0.37853  0.75994  1.0000
  C   C1680     1.0  0.87300  0.65462  0.96658  1.0000
  C   C1681     1.0  0.99599  0.37815  0.62009  1.0000
  C   C1682     1.0  0.99852  0.52716  0.98012  1.0000
  H   H2012     1.0  0.95571  0.37622  0.73789  1.0000
  C   C1683     1.0  0.99571  0.40247  0.93685  1.0000
  H   H2013     1.0  0.96665  0.50753  0.77754  1.0000
  C   C1684     1.0  0.93464  0.66887  0.53108  1.0000
  H   H2014     1.0  0.95706  0.38235  0.91493  1.0000
  C   C1685     1.0  0.98201  0.41229  0.95109  1.0000
  H   H2015     1.0  0.97799  0.60664  0.77641  1.0000
  H   H2016     1.0  0.98187  0.50400  0.73089  1.0000
  H   H2017     1.0  0.96930  0.41471  0.94057  1.0000
  C   C1686     1.0  0.94613  0.35291  0.88632  1.0000
  H   H2018     1.0  0.91021  0.62383  0.88219  1.0000
  C   C1687     1.0  0.88155  0.37085  0.85871  1.0000
  C   C1688     1.0  0.89729  0.37836  0.84777  1.0000
  C   C1689     1.0  0.90591  0.37039  0.82373  1.0000
  C   C1690     1.0  0.92017  0.35749  0.91996  1.0000
  H   H2019     1.0  0.99004  0.54982  0.83491  1.0000
  H   H2020     1.0  0.87477  0.37687  0.87732  1.0000
  H   H2021     1.0  0.91803  0.37595  0.81506  1.0000
  H   H2022     1.0  0.98158  0.51709  0.53150  1.0000
  N   N110      1.0  0.97645  0.38136  0.62500  1.0000
  H   H2023     1.0  0.98496  0.34917  0.84575  1.0000
  C   C1691     1.0  0.96699  0.36863  0.60666  1.0000
  C   C1692     1.0  0.94393  0.64189  0.87495  1.0000
  C   C1693     1.0  0.97088  0.37912  0.65588  1.0000
  H   H2024     1.0  0.92094  0.63320  0.81357  1.0000
  H   H2025     1.0  0.88010  0.62978  0.90155  1.0000
  C   C1694     1.0  0.98282  0.37275  0.67799  1.0000
  H   H2026     1.0  0.91357  0.66951  0.94479  1.0000
  S   S461      1.0  0.99881  0.40001  0.54091  1.0000
  H   H2027     1.0  0.94832  0.52570  0.84484  1.0000
  H   H2028     1.0  0.97709  0.40245  0.59235  1.0000
  H   H2029     1.0  0.81586  0.34635  0.82285  1.0000
  H   H2030     1.0  0.95253  0.65806  0.82519  1.0000
  C   C1695     1.0  0.94757  0.38224  0.69389  1.0000
  H   H2031     1.0  0.94410  0.65284  0.89120  1.0000
  H   H2032     1.0  0.97475  0.54050  0.86023  1.0000
  H   H2033     1.0  0.90532  0.34952  0.79163  1.0000
  H   H2034     1.0  0.94442  0.35515  0.96057  1.0000
  C   C1696     1.0  0.98280  0.41295  0.73779  1.0000
  H   H2035     1.0  0.80024  0.39219  0.80544  1.0000
  C   C1697     1.0  0.88596  0.66650  0.95744  1.0000
  C   C1698     1.0  0.95673  0.55412  0.81421  1.0000
  C   C1699     1.0  0.99474  0.52914  0.73243  1.0000
  S   S462      1.0  0.85110  0.66225  0.97715  1.0000
  N   N111      1.0  0.93959  0.35991  0.91474  1.0000
  C   C1700     1.0  0.99787  0.40395  0.74947  1.0000
  C   C1701     1.0  0.86657  0.40667  0.80746  1.0000
  N   N112      1.0  0.96763  0.53711  0.81529  1.0000
  C   C1702     1.0  0.93474  0.34508  0.86575  1.0000
  H   H2036     1.0  0.97107  0.42457  0.69889  1.0000
  C   C1703     1.0  0.91324  0.65035  0.86279  1.0000
  C   C1704     1.0  0.00140  0.50858  0.97856  1.0000
  C   C1705     1.0  0.90400  0.63690  0.87815  1.0000
  H   H2037     1.0  0.95222  0.37096  0.60762  1.0000
  C   C1706     1.0  0.81782  0.36664  0.77414  1.0000
  N   N113      1.0  0.93146  0.64642  0.85080  1.0000
  H   H2038     1.0  0.94301  0.38793  0.64904  1.0000
  C   C1707     1.0  0.97097  0.34778  0.85150  1.0000
  H   H2039     1.0  0.86781  0.62695  0.97559  1.0000
  C   C1708     1.0  0.00409  0.59466  0.76682  1.0000
  H   H2040     1.0  0.99730  0.41686  0.66717  1.0000
  N   N114      1.0  0.82169  0.37207  0.80443  1.0000
  H   H2041     1.0  0.95785  0.49755  0.96923  1.0000
  H   H2042     1.0  0.82388  0.40558  0.83169  1.0000
  C   C1709     1.0  0.80472  0.37971  0.81710  1.0000
  C   C1710     1.0  0.98939  0.59227  0.56261  1.0000
  C   C1711     1.0  0.96447  0.35401  0.87836  1.0000
  H   H2043     1.0  0.94928  0.55661  0.83506  1.0000
  H   H2044     1.0  0.93727  0.38539  0.93658  1.0000
  H   H2045     1.0  0.94482  0.52101  0.80740  1.0000
  C   C1712     1.0  0.98117  0.53839  0.83850  1.0000
  C   C1713     1.0  0.97723  0.37149  0.70711  1.0000
  H   H2046     1.0  0.97108  0.36983  0.58326  1.0000
  H   H2047     1.0  0.83882  0.34863  0.81227  1.0000
  C   C1714     1.0  0.98449  0.41858  0.97949  1.0000
  C   C1715     1.0  0.85319  0.37975  0.79073  1.0000
  H   H2048     1.0  0.00529  0.46271  0.72016  1.0000
  H   H2049     1.0  0.92809  0.61828  0.84255  1.0000
  C   C1716     1.0  0.94953  0.35075  0.93881  1.0000
  H   H2050     1.0  0.98418  0.45555  0.94496  1.0000
  C   C1717     1.0  0.00497  0.59603  0.57800  1.0000
  H   H2051     1.0  0.88040  0.38671  0.78160  1.0000
  H   H2052     1.0  0.00149  0.52740  0.71155  1.0000
  C   C1718     1.0  0.95542  0.52269  0.82388  1.0000
  H   H2053     1.0  0.83032  0.35941  0.84446  1.0000
  C   C1719     1.0  0.82689  0.35591  0.82171  1.0000
  H   H2054     1.0  0.00538  0.58227  0.84945  1.0000
  H   H2055     1.0  0.91567  0.36283  0.94149  1.0000
  C   C1720     1.0  0.98958  0.59949  0.78535  1.0000
  H   H2056     1.0  0.96284  0.50963  0.82733  1.0000
  H   H2057     1.0  0.97355  0.42568  0.99045  1.0000
  C   C1721     1.0  0.98370  0.51600  0.74338  1.0000
  H   H2058     1.0  0.96403  0.35365  0.93833  1.0000
  C   C1722     1.0  0.99144  0.52686  0.52595  1.0000
  H   H2059     1.0  0.84980  0.42402  0.83380  1.0000
  C   C1723     1.0  0.83664  0.38450  0.80465  1.0000
  H   H2060     1.0  0.80608  0.35789  0.77335  1.0000
  C   C1724     1.0  0.89867  0.35536  0.81051  1.0000
  C   C1725     1.0  0.97181  0.39986  0.61474  1.0000
  H   H2061     1.0  0.95788  0.63908  0.86695  1.0000
  H   H2062     1.0  0.87821  0.41481  0.80930  1.0000
  H   H2063     1.0  0.98674  0.36733  0.72380  1.0000
  H   H2064     1.0  0.85527  0.36708  0.77982  1.0000
  C   C1726     1.0  0.93112  0.63092  0.83088  1.0000
  C   C1727     1.0  0.98990  0.59502  0.81521  1.0000
  C   C1728     1.0  0.00085  0.41554  0.99389  1.0000
  C   C1729     1.0  0.99751  0.41321  0.68998  1.0000
  H   H2065     1.0  0.98981  0.52595  0.83992  1.0000
  C   C1730     1.0  0.94262  0.37933  0.91607  1.0000
  H   H2066     1.0  0.97390  0.36010  0.89258  1.0000
  H   H2067     1.0  0.96502  0.56598  0.81074  1.0000
  H   H2068     1.0  0.95715  0.40269  0.61357  1.0000
  C   C1731     1.0  0.95295  0.38339  0.66465  1.0000
  C   C1732     1.0  0.85057  0.41175  0.82141  1.0000
  C   C1733     1.0  0.99716  0.54455  0.74843  1.0000
  C   C1734     1.0  0.98214  0.47035  0.94651  1.0000
  C   C1735     1.0  0.00494  0.58575  0.82649  1.0000
  C   C1736     1.0  0.83574  0.40093  0.82004  1.0000
  H   H2069     1.0  0.93036  0.66551  0.81525  1.0000
  C   C1737     1.0  0.87441  0.35569  0.84566  1.0000
  C   C1738     1.0  0.97489  0.51828  0.77027  1.0000
  H   H2070     1.0  0.97722  0.58968  0.52026  1.0000
  C   C1739     1.0  0.97682  0.53404  0.78690  1.0000
  H   H2071     1.0  0.97916  0.54918  0.97930  1.0000
  H   H2072     1.0  0.94009  0.62971  0.88708  1.0000
  H   H2073     1.0  0.91189  0.36489  0.90334  1.0000
  C   C1740     1.0  0.98129  0.53478  0.97802  1.0000
  C   C1741     1.0  0.96682  0.52391  0.97421  1.0000
  H   H2074     1.0  0.89347  0.64369  0.50345  1.0000
  H   H2075     1.0  0.98887  0.47639  0.92719  1.0000
  H   H2076     1.0  0.96998  0.35457  0.61384  1.0000
  H   H2077     1.0  0.79363  0.37017  0.81560  1.0000
  C   C1742     1.0  0.98690  0.49706  0.97473  1.0000
  H   H2078     1.0  0.93593  0.38650  0.89758  1.0000
  C   C1743     1.0  0.96953  0.50535  0.97245  1.0000
  H   H2079     1.0  0.96754  0.47321  0.94398  1.0000
  N   N115      1.0  0.98922  0.47730  0.97416  1.0000
  H   H2080     1.0  0.99987  0.38049  0.59687  1.0000
  H   H2081     1.0  0.96449  0.47195  0.99707  1.0000
  C   C1744     1.0  0.00460  0.59727  0.51626  1.0000
  S   S463      1.0  0.00314  0.57961  0.97547  1.0000
  H   H2082     1.0  0.91688  0.34311  0.91967  1.0000
  H   H2083     1.0  0.86241  0.35003  0.85447  1.0000
  C   C1745     1.0  0.97920  0.46956  0.99903  1.0000
  S   S464      1.0  0.00470  0.59502  0.61666  1.0000
  H   H2084     1.0  0.86509  0.65957  0.89569  1.0000
  H   H2085     1.0  0.00391  0.38726  0.63346  1.0000
  H   H2086     1.0  0.94384  0.66169  0.54559  1.0000
  H   H2087     1.0  0.92054  0.34389  0.86946  1.0000
  H   H2088     1.0  0.00035  0.36410  0.62529  1.0000
  H   H2089     1.0  0.00361  0.59809  0.74385  1.0000
  C   C1746     1.0  0.90420  0.66737  0.85980  1.0000
  C   C1747     1.0  0.88674  0.64017  0.88940  1.0000
  H   H2090     1.0  0.00588  0.55474  0.74005  1.0000
  C   C1748     1.0  0.00627  0.52886  0.54387  1.0000
  C   C1749     1.0  0.87828  0.65697  0.88618  1.0000
  H   H2091     1.0  0.98165  0.45484  0.00087  1.0000
  C   C1750     1.0  0.88698  0.67054  0.87144  1.0000
  C   C1751     1.0  0.99909  0.40268  0.50247  1.0000
  Fe  Fe233     1.0  0.96655  0.90579  0.13981  1.0000
  S   S465      1.0  0.93659  0.90796  0.13699  1.0000
  S   S466      1.0  0.97972  0.88988  0.10313  1.0000
  Fe  Fe234     1.0  0.96686  0.92636  0.19715  1.0000
  S   S467      1.0  0.93685  0.93025  0.19784  1.0000
  S   S468      1.0  0.98099  0.94026  0.23367  1.0000
  Fe  Fe235     1.0  0.93640  0.90129  0.18489  1.0000
  S   S469      1.0  0.92189  0.87987  0.21087  1.0000
  Fe  Fe236     1.0  0.93991  0.93657  0.15001  1.0000
  S   S470      1.0  0.92656  0.95857  0.12257  1.0000
  S   S471      1.0  0.96641  0.89711  0.18697  1.0000
  S   S472      1.0  0.96988  0.93472  0.15008  1.0000
  Fe  Fe237     1.0  0.84149  0.81166  0.19871  1.0000
  S   S473      1.0  0.85821  0.78763  0.21345  1.0000
  S   S474      1.0  0.85258  0.83697  0.17801  1.0000
  Fe  Fe238     1.0  0.80612  0.79275  0.20962  1.0000
  S   S475      1.0  0.82051  0.76769  0.22525  1.0000
  S   S476      1.0  0.77635  0.78859  0.20537  1.0000
  Fe  Fe239     1.0  0.83786  0.78574  0.25002  1.0000
  S   S477      1.0  0.84733  0.78084  0.29660  1.0000
  Fe  Fe240     1.0  0.83927  0.77161  0.18735  1.0000
  S   S478      1.0  0.84658  0.74663  0.16134  1.0000
  S   S479      1.0  0.82222  0.81092  0.23707  1.0000
  S   S480      1.0  0.82381  0.79552  0.16998  1.0000
  Fe  Fe241     1.0  0.84583  0.69162  0.47402  1.0000
  S   S481      1.0  0.85449  0.71714  0.45235  1.0000
  H   H2092     1.0  0.78672  0.75511  0.42851  1.0000
  H   H2093     1.0  0.77845  0.72005  0.45623  1.0000
  S   S482      1.0  0.81513  0.73483  0.47065  1.0000
  H   H2094     1.0  0.76658  0.75156  0.33568  1.0000
  Fe  Fe242     1.0  0.82663  0.71866  0.43362  1.0000
  S   S483      1.0  0.81673  0.72445  0.38747  1.0000
  H   H2095     1.0  0.89382  0.71481  0.25427  1.0000
  S   S484      1.0  0.85473  0.74817  0.02298  1.0000
  S   S485      1.0  0.81854  0.69218  0.45306  1.0000
  H   H2096     1.0  0.94553  0.97519  0.16948  1.0000
  H   H2097     1.0  0.87718  0.76144  0.27050  1.0000
  C   C1752     1.0  0.96999  0.95442  0.08043  1.0000
  H   H2098     1.0  0.78352  0.72359  0.41883  1.0000
  H   H2099     1.0  0.87246  0.70738  0.24291  1.0000
  H   H2100     1.0  0.76815  0.76874  0.44221  1.0000
  H   H2101     1.0  0.78695  0.79031  0.29702  1.0000
  H   H2102     1.0  0.77342  0.82421  0.23093  1.0000
  C   C1753     1.0  0.83807  0.76556  0.32181  1.0000
  C   C1754     1.0  0.84434  0.76505  0.35063  1.0000
  C   C1755     1.0  0.83777  0.75271  0.37115  1.0000
  C   C1756     1.0  0.82491  0.74072  0.36295  1.0000
  C   C1757     1.0  0.81835  0.74148  0.33431  1.0000
  C   C1758     1.0  0.82489  0.75383  0.31380  1.0000
  H   H2103     1.0  0.85447  0.77412  0.35704  1.0000
  H   H2104     1.0  0.84287  0.75231  0.39315  1.0000
  H   H2105     1.0  0.80833  0.73230  0.32783  1.0000
  H   H2106     1.0  0.81977  0.75421  0.29183  1.0000
  C   C1759     1.0  0.84782  0.74755  0.12278  1.0000
  C   C1760     1.0  0.84478  0.73208  0.10671  1.0000
  C   C1761     1.0  0.84627  0.73221  0.07606  1.0000
  C   C1762     1.0  0.85145  0.74767  0.06127  1.0000
  C   C1763     1.0  0.85456  0.76310  0.07736  1.0000
  C   C1764     1.0  0.85247  0.76315  0.10793  1.0000
  H   H2107     1.0  0.84117  0.71997  0.11806  1.0000
  H   H2108     1.0  0.84367  0.72027  0.06406  1.0000
  H   H2109     1.0  0.85857  0.77512  0.06614  1.0000
  H   H2110     1.0  0.85492  0.77512  0.12006  1.0000
  H   H2111     1.0  0.84726  0.74924  0.26068  1.0000
  C   C1765     1.0  0.90253  0.86817  0.20135  1.0000
  C   C1766     1.0  0.89119  0.87404  0.17884  1.0000
  C   C1767     1.0  0.87587  0.86444  0.17231  1.0000
  C   C1768     1.0  0.87176  0.84881  0.18798  1.0000
  C   C1769     1.0  0.88315  0.84293  0.21043  1.0000
  C   C1770     1.0  0.89838  0.85261  0.21715  1.0000
  H   H2112     1.0  0.89406  0.88609  0.16672  1.0000
  H   H2113     1.0  0.86711  0.86916  0.15499  1.0000
  H   H2114     1.0  0.88017  0.83095  0.22269  1.0000
  H   H2115     1.0  0.90701  0.84798  0.23468  1.0000
  C   C1771     1.0  0.93257  0.98085  0.12853  1.0000
  N   N116      1.0  0.76223  0.74113  0.43604  1.0000
  H   H2116     1.0  0.86937  0.68887  0.00843  1.0000
  H   H2117     1.0  0.98923  0.96927  0.47007  1.0000
  H   H2118     1.0  0.92042  0.99092  0.08885  1.0000
  C   C1772     1.0  0.96803  0.99249  0.02497  1.0000
  C   C1773     1.0  0.76244  0.70077  0.01673  1.0000
  C   C1774     1.0  0.00307  0.96356  0.47296  1.0000
  H   H2119     1.0  0.98402  0.95667  0.08690  1.0000
  Fe  Fe243     1.0  0.84192  0.73086  0.49165  1.0000
  C   C1775     1.0  0.86257  0.71555  0.34957  1.0000
  C   C1776     1.0  0.76138  0.81719  0.23604  1.0000
  H   H2120     1.0  0.96831  0.93969  0.07988  1.0000
  H   H2121     1.0  0.80383  0.77715  0.08164  1.0000
  C   C1777     1.0  0.94660  0.96018  0.04579  1.0000
  H   H2122     1.0  0.85633  0.74436  0.22508  1.0000
  C   C1778     1.0  0.85793  0.71317  0.29765  1.0000
  C   C1779     1.0  0.87261  0.69609  0.02867  1.0000
  H   H2123     1.0  0.77495  0.78094  0.09812  1.0000
  C   C1780     1.0  0.85461  0.73887  0.24759  1.0000
  H   H2124     1.0  0.78526  0.73110  0.08553  1.0000
  H   H2125     1.0  0.76951  0.68852  0.47196  1.0000
  C   C1781     1.0  0.79214  0.73514  0.06499  1.0000
  C   C1782     1.0  0.76556  0.79797  0.37358  1.0000
  H   H2126     1.0  0.84576  0.69643  0.33035  1.0000
  H   H2127     1.0  0.94258  0.96557  0.02405  1.0000
  H   H2128     1.0  0.89701  0.74684  0.26759  1.0000
  C   C1783     1.0  0.76384  0.80060  0.32096  1.0000
  C   C1784     1.0  0.00442  0.90402  0.02723  1.0000
  H   H2129     1.0  0.86435  0.70877  0.02847  1.0000
  H   H2130     1.0  0.88361  0.72354  0.22132  1.0000
  C   C1785     1.0  0.00481  0.00033  0.26413  1.0000
  C   C1786     1.0  0.99979  0.91782  0.08359  1.0000
  N   N117      1.0  0.87201  0.73391  0.26125  1.0000
  H   H2131     1.0  0.85144  0.70634  0.28029  1.0000
  S   S486      1.0  0.99656  0.90866  0.46275  1.0000
  C   C1787     1.0  0.78264  0.78976  0.37077  1.0000
  H   H2132     1.0  0.97443  0.89365  0.39619  1.0000
  H   H2133     1.0  0.76048  0.79976  0.39549  1.0000
  H   H2134     1.0  0.81389  0.75488  0.03113  1.0000
  C   C1788     1.0  0.75847  0.69348  0.48541  1.0000
  C   C1789     1.0  0.78089  0.79236  0.31842  1.0000
  H   H2135     1.0  0.88511  0.75417  0.23570  1.0000
  N   N118      1.0  0.94420  0.90525  0.29062  1.0000
  C   C1790     1.0  0.92523  0.90017  0.28847  1.0000
  C   C1791     1.0  0.94487  0.92468  0.28415  1.0000
  C   C1792     1.0  0.95445  0.89529  0.26772  1.0000
  C   C1793     1.0  0.95222  0.90146  0.31957  1.0000
  C   C1794     1.0  0.94226  0.89502  0.34383  1.0000
  C   C1795     1.0  0.97051  0.90478  0.32439  1.0000
  C   C1796     1.0  0.95027  0.89222  0.37109  1.0000
  C   C1797     1.0  0.97840  0.90188  0.35162  1.0000
  C   C1798     1.0  0.96828  0.89569  0.37500  1.0000
  H   H2136     1.0  0.91637  0.90794  0.30376  1.0000
  H   H2137     1.0  0.91981  0.90284  0.26617  1.0000
  H   H2138     1.0  0.92382  0.88560  0.29265  1.0000
  H   H2139     1.0  0.93762  0.93271  0.30113  1.0000
  H   H2140     1.0  0.93882  0.92821  0.26266  1.0000
  H   H2141     1.0  0.95882  0.92931  0.28310  1.0000
  H   H2142     1.0  0.95508  0.88066  0.27251  1.0000
  H   H2143     1.0  0.94824  0.89724  0.24591  1.0000
  H   H2144     1.0  0.96836  0.89976  0.26518  1.0000
  H   H2145     1.0  0.92827  0.89211  0.34238  1.0000
  H   H2146     1.0  0.97886  0.90981  0.30711  1.0000
  C   C1799     1.0  0.87365  0.72981  0.34454  1.0000
  C   C1800     1.0  0.89520  0.70879  0.05779  1.0000
  C   C1801     1.0  0.85469  0.70727  0.32619  1.0000
  N   N119      1.0  0.89202  0.69948  0.03006  1.0000
  H   H2147     1.0  0.96083  0.95925  0.09810  1.0000
  H   H2148     1.0  0.90990  0.71693  0.00669  1.0000
  H   H2149     1.0  0.80367  0.78101  0.34127  1.0000
  H   H2150     1.0  0.76374  0.74557  0.02648  1.0000
  C   C1802     1.0  0.79031  0.78706  0.34329  1.0000
  C   C1803     1.0  0.88338  0.74973  0.25880  1.0000
  H   H2151     1.0  0.99830  0.92310  0.10536  1.0000
  H   H2152     1.0  0.79015  0.78563  0.38996  1.0000
  C   C1804     1.0  0.80279  0.76240  0.08413  1.0000
  H   H2153     1.0  0.76339  0.71272  0.42886  1.0000
  C   C1805     1.0  0.75999  0.79940  0.22762  1.0000
  C   C1806     1.0  0.92776  0.99429  0.10810  1.0000
  C   C1807     1.0  0.94185  0.98540  0.15352  1.0000
  H   H2154     1.0  0.78572  0.72822  0.04668  1.0000
  C   C1808     1.0  0.98775  0.99881  0.21960  1.0000
  H   H2155     1.0  0.89227  0.72015  0.49977  1.0000
  C   C1809     1.0  0.77484  0.75521  0.44337  1.0000
  C   C1810     1.0  0.79949  0.75933  0.03246  1.0000
  H   H2156     1.0  0.84576  0.72739  0.24557  1.0000
  H   H2157     1.0  0.99515  0.95162  0.28790  1.0000
  Fe  Fe244     1.0  0.80863  0.70856  0.49118  1.0000
  C   C1811     1.0  0.76629  0.77506  0.08246  1.0000
  H   H2158     1.0  0.94246  0.88740  0.38941  1.0000
  N   N120      1.0  0.93922  0.85061  0.11803  1.0000
  C   C1812     1.0  0.95753  0.84290  0.11227  1.0000
  C   C1813     1.0  0.93512  0.86398  0.09464  1.0000
  C   C1814     1.0  0.93962  0.85997  0.14633  1.0000
  C   C1815     1.0  0.92522  0.83714  0.11913  1.0000
  C   C1816     1.0  0.90703  0.84255  0.12393  1.0000
  C   C1817     1.0  0.92907  0.81847  0.11602  1.0000
  C   C1818     1.0  0.89356  0.83012  0.12563  1.0000
  C   C1819     1.0  0.91547  0.80614  0.11780  1.0000
  C   C1820     1.0  0.89776  0.81195  0.12269  1.0000
  H   H2159     1.0  0.95835  0.83601  0.09089  1.0000
  H   H2160     1.0  0.96766  0.85347  0.11130  1.0000
  H   H2161     1.0  0.96193  0.83344  0.12991  1.0000
  H   H2162     1.0  0.94580  0.87392  0.09243  1.0000
  H   H2163     1.0  0.92251  0.87191  0.09894  1.0000
  H   H2164     1.0  0.93384  0.85740  0.07315  1.0000
  H   H2165     1.0  0.94128  0.85036  0.16491  1.0000
  H   H2166     1.0  0.95077  0.86939  0.14716  1.0000
  H   H2167     1.0  0.92710  0.86805  0.15061  1.0000
  H   H2168     1.0  0.90308  0.85646  0.12683  1.0000
  H   H2169     1.0  0.94248  0.81302  0.11239  1.0000
  H   H2170     1.0  0.87976  0.83458  0.12969  1.0000
  H   H2171     1.0  0.91865  0.79196  0.11557  1.0000
  H   H2172     1.0  0.88724  0.80240  0.12440  1.0000
  H   H2173     1.0  0.99887  0.90483  0.23441  1.0000
  C   C1821     1.0  0.99559  0.92922  0.25867  1.0000
  C   C1822     1.0  0.96851  0.98263  0.05164  1.0000
  C   C1823     1.0  0.87679  0.73600  0.31612  1.0000
  H   H2174     1.0  0.88499  0.74751  0.31400  1.0000
  H   H2175     1.0  0.81673  0.75678  0.08301  1.0000
  H   H2176     1.0  0.98913  0.88199  0.04330  1.0000
  H   H2177     1.0  0.85965  0.71124  0.37172  1.0000
  C   C1824     1.0  0.97697  0.95389  0.02948  1.0000
  C   C1825     1.0  0.88087  0.71926  0.24424  1.0000
  H   H2178     1.0  0.94366  0.94570  0.04646  1.0000
  H   H2179     1.0  0.97620  0.93905  0.03115  1.0000
  N   N121      1.0  0.96566  0.96314  0.05198  1.0000
  C   C1826     1.0  0.99479  0.89461  0.04866  1.0000
  C   C1827     1.0  0.86901  0.72780  0.29170  1.0000
  N   N122      1.0  0.79143  0.75489  0.06122  1.0000
  H   H2180     1.0  0.93768  0.96688  0.06232  1.0000
  C   C1828     1.0  0.99682  0.99030  0.24256  1.0000
  C   C1829     1.0  0.00225  0.91174  0.25409  1.0000
  H   H2181     1.0  0.97035  0.98652  0.09905  1.0000
  H   H2182     1.0  0.88649  0.72119  0.05980  1.0000
  H   H2183     1.0  0.99245  0.90453  0.35459  1.0000
  C   C1830     1.0  0.77258  0.76180  0.06235  1.0000
  H   H2184     1.0  0.92882  0.69673  0.02729  1.0000
  C   C1831     1.0  0.77229  0.72366  0.43485  1.0000
  H   H2185     1.0  0.80619  0.72961  0.06577  1.0000
  C   C1832     1.0  0.75987  0.75535  0.04269  1.0000
  C   C1833     1.0  0.97049  0.99261  0.07760  1.0000
  H   H2186     1.0  0.79774  0.75924  0.10646  1.0000
  C   C1834     1.0  0.99226  0.90161  0.07680  1.0000
  H   H2187     1.0  0.90156  0.69279  0.47774  1.0000
  H   H2188     1.0  0.79273  0.75276  0.01414  1.0000
  H   H2189     1.0  0.78017  0.75333  0.46586  1.0000
  H   H2190     1.0  0.88692  0.72367  0.00465  1.0000
  H   H2191     1.0  0.99130  0.95705  0.03186  1.0000
  H   H2192     1.0  0.87934  0.73652  0.36290  1.0000
  C   C1835     1.0  0.92250  0.68400  0.02681  1.0000
  H   H2193     1.0  0.89230  0.70001  0.07689  1.0000
  H   H2194     1.0  0.79869  0.77401  0.02817  1.0000
  H   H2195     1.0  0.90927  0.71287  0.05964  1.0000
  H   H2196     1.0  0.77952  0.74443  0.38316  1.0000
  C   C1836     1.0  0.92408  0.67513  0.48242  1.0000
  H   H2197     1.0  0.00605  0.89870  0.00547  1.0000
  C   C1837     1.0  0.00024  0.93810  0.28419  1.0000
  C   C1838     1.0  0.89626  0.71167  0.00537  1.0000
  H   H2198     1.0  0.97286  0.95731  0.00687  1.0000
  C   C1839     1.0  0.76512  0.74659  0.38200  1.0000
  H   H2199     1.0  0.98145  0.99093  0.20315  1.0000
  H   H2200     1.0  0.86799  0.68815  0.04776  1.0000
  H   H2201     1.0  0.00264  0.94875  0.47081  1.0000
  H   H2202     1.0  0.77581  0.69495  0.01936  1.0000
  S   S487      1.0  0.82578  0.70629  0.00740  1.0000
  C   C1840     1.0  0.90358  0.68295  0.02853  1.0000
  C   C1841     1.0  0.94559  0.00337  0.15863  1.0000
  H   H2203     1.0  0.99755  0.97577  0.24370  1.0000
  C   C1842     1.0  0.91069  0.68682  0.49350  1.0000
  C   C1843     1.0  0.99781  0.91040  0.50105  1.0000
  H   H2204     1.0  0.96583  0.98603  0.00446  1.0000
  H   H2205     1.0  0.87637  0.70249  0.50074  1.0000
  C   C1844     1.0  0.75784  0.75065  0.35465  1.0000
  H   H2206     1.0  0.75719  0.80464  0.30098  1.0000
  Fe  Fe245     1.0  0.97927  0.91841  0.63539  1.0000
  S   S488      1.0  0.94945  0.91555  0.63349  1.0000
  H   H2207     1.0  0.93695  0.84209  0.62374  1.0000
  Fe  Fe246     1.0  0.97840  0.92761  0.70072  1.0000
  S   S489      1.0  0.94852  0.92560  0.70397  1.0000
  H   H2208     1.0  0.77451  0.74133  0.91744  1.0000
  Fe  Fe247     1.0  0.95198  0.90088  0.67652  1.0000
  S   S490      1.0  0.94144  0.87318  0.68705  1.0000
  Fe  Fe248     1.0  0.94820  0.94053  0.66087  1.0000
  S   S491      1.0  0.92643  0.96204  0.65465  1.0000
  S   S492      1.0  0.98213  0.90192  0.67645  1.0000
  S   S493      1.0  0.97772  0.94439  0.65961  1.0000
  Fe  Fe249     1.0  0.84979  0.81859  0.69517  1.0000
  S   S494      1.0  0.86389  0.79347  0.71196  1.0000
  S   S495      1.0  0.86156  0.84575  0.68471  1.0000
  Fe  Fe250     1.0  0.81260  0.80189  0.70031  1.0000
  S   S496      1.0  0.82414  0.77600  0.71816  1.0000
  S   S497      1.0  0.78314  0.80439  0.68897  1.0000
  Fe  Fe251     1.0  0.84157  0.79286  0.74550  1.0000
  S   S498      1.0  0.84629  0.79258  0.79458  1.0000
  Fe  Fe252     1.0  0.84510  0.77898  0.68289  1.0000
  S   S499      1.0  0.85133  0.75420  0.65584  1.0000
  S   S500      1.0  0.82834  0.81873  0.73000  1.0000
  S   S501      1.0  0.83263  0.80407  0.66364  1.0000
  Fe  Fe253     1.0  0.84033  0.69097  0.97130  1.0000
  S   S502      1.0  0.85793  0.71327  0.95796  1.0000
  H   H2209     1.0  0.97250  0.91748  0.77282  1.0000
  Fe  Fe254     1.0  0.80631  0.71566  0.97285  1.0000
  S   S503      1.0  0.82190  0.73953  0.95928  1.0000
  H   H2210     1.0  0.99012  0.96517  0.86870  1.0000
  Fe  Fe255     1.0  0.83594  0.72154  0.92684  1.0000
  S   S504      1.0  0.83914  0.72430  0.87759  1.0000
  C   C1845     1.0  0.75938  0.85236  0.75383  1.0000
  H   H2211     1.0  0.76811  0.77580  0.65488  1.0000
  S   S505      1.0  0.81909  0.69819  0.93835  1.0000
  H   H2212     1.0  0.89099  0.87511  0.60310  1.0000
  S   S506      1.0  0.85314  0.75376  0.51688  1.0000
  H   H2213     1.0  0.79931  0.72647  0.62100  1.0000
  C   C1846     1.0  0.94307  0.86632  0.59916  1.0000
  C   C1847     1.0  0.98912  0.00184  0.70671  1.0000
  H   H2214     1.0  0.79535  0.78315  0.63362  1.0000
  C   C1848     1.0  0.79127  0.72557  0.85332  1.0000
  H   H2215     1.0  0.78566  0.80457  0.75212  1.0000
  C   C1849     1.0  0.84350  0.77362  0.81746  1.0000
  C   C1850     1.0  0.84483  0.77546  0.84786  1.0000
  C   C1851     1.0  0.84331  0.76056  0.86670  1.0000
  C   C1852     1.0  0.84062  0.74366  0.85521  1.0000
  C   C1853     1.0  0.83906  0.74188  0.82486  1.0000
  C   C1854     1.0  0.84040  0.75679  0.80607  1.0000
  H   H2216     1.0  0.84723  0.78844  0.85687  1.0000
  H   H2217     1.0  0.84455  0.76211  0.89001  1.0000
  H   H2218     1.0  0.83699  0.72885  0.81577  1.0000
  H   H2219     1.0  0.83940  0.75518  0.78273  1.0000
  C   C1855     1.0  0.85138  0.75461  0.61724  1.0000
  C   C1856     1.0  0.84997  0.73844  0.60232  1.0000
  C   C1857     1.0  0.84988  0.73813  0.57167  1.0000
  C   C1858     1.0  0.85178  0.75393  0.55552  1.0000
  C   C1859     1.0  0.85331  0.77010  0.57043  1.0000
  C   C1860     1.0  0.85285  0.77049  0.60117  1.0000
  H   H2220     1.0  0.84883  0.72609  0.61458  1.0000
  H   H2221     1.0  0.84865  0.72561  0.56066  1.0000
  H   H2222     1.0  0.85486  0.78239  0.55817  1.0000
  H   H2223     1.0  0.85405  0.78303  0.61239  1.0000
  H   H2224     1.0  0.91012  0.67853  0.84879  1.0000
  C   C1861     1.0  0.91921  0.86576  0.68493  1.0000
  C   C1862     1.0  0.90466  0.87739  0.67844  1.0000
  C   C1863     1.0  0.88717  0.87095  0.67817  1.0000
  C   C1864     1.0  0.88401  0.85284  0.68412  1.0000
  C   C1865     1.0  0.89865  0.84111  0.68968  1.0000
  C   C1866     1.0  0.91611  0.84759  0.69037  1.0000
  H   H2225     1.0  0.90685  0.89137  0.67405  1.0000
  H   H2226     1.0  0.87597  0.88013  0.67359  1.0000
  H   H2227     1.0  0.89657  0.82706  0.69343  1.0000
  H   H2228     1.0  0.92729  0.83847  0.69521  1.0000
  C   C1867     1.0  0.92743  0.98518  0.64641  1.0000
  H   H2229     1.0  0.94060  0.98538  0.70674  1.0000
  C   C1868     1.0  0.96708  0.84536  0.58474  1.0000
  H   H2230     1.0  0.77346  0.73180  0.59348  1.0000
  C   C1869     1.0  0.76296  0.76561  0.64110  1.0000
  H   H2231     1.0  0.88251  0.68058  0.95545  1.0000
  H   H2232     1.0  0.90012  0.98954  0.66063  1.0000
  C   C1870     1.0  0.80077  0.76983  0.64117  1.0000
  S   S507      1.0  0.83491  0.70552  0.51415  1.0000
  C   C1871     1.0  0.98497  0.91853  0.78433  1.0000
  H   H2233     1.0  0.98959  0.99262  0.53630  1.0000
  C   C1872     1.0  0.94261  0.99335  0.63478  1.0000
  H   H2234     1.0  0.77352  0.85477  0.75575  1.0000
  C   C1873     1.0  0.91616  0.88500  0.58798  1.0000
  H   H2235     1.0  0.79605  0.73109  0.83216  1.0000
  S   S508      1.0  0.99772  0.93631  0.73544  1.0000
  C   C1874     1.0  0.00225  0.91468  0.82919  1.0000
  C   C1875     1.0  0.99510  0.97807  0.86002  1.0000
  H   H2236     1.0  0.87114  0.69971  0.56371  1.0000
  C   C1876     1.0  0.98269  0.91462  0.54818  1.0000
  N   N123      1.0  0.87766  0.83941  0.77780  1.0000
  C   C1877     1.0  0.88207  0.82353  0.75974  1.0000
  C   C1878     1.0  0.88060  0.83453  0.80889  1.0000
  C   C1879     1.0  0.85824  0.84383  0.77428  1.0000
  C   C1880     1.0  0.88930  0.85417  0.76902  1.0000
  C   C1881     1.0  0.88250  0.87056  0.75666  1.0000
  C   C1882     1.0  0.90817  0.85223  0.77216  1.0000
  C   C1883     1.0  0.89394  0.88413  0.74844  1.0000
  C   C1884     1.0  0.91948  0.86582  0.76354  1.0000
  C   C1885     1.0  0.91237  0.88175  0.75179  1.0000
  H   H2237     1.0  0.89635  0.81899  0.76125  1.0000
  H   H2238     1.0  0.87401  0.81194  0.76638  1.0000
  H   H2239     1.0  0.87922  0.82647  0.73641  1.0000
  H   H2240     1.0  0.89437  0.82900  0.81289  1.0000
  H   H2241     1.0  0.87140  0.82395  0.81637  1.0000
  H   H2242     1.0  0.87828  0.84635  0.82314  1.0000
  H   H2243     1.0  0.85484  0.84656  0.75098  1.0000
  H   H2244     1.0  0.84990  0.83248  0.78136  1.0000
  H   H2245     1.0  0.85385  0.85559  0.78752  1.0000
  H   H2246     1.0  0.86846  0.87308  0.75231  1.0000
  H   H2247     1.0  0.91438  0.84002  0.78068  1.0000
  H   H2248     1.0  0.88856  0.89632  0.73829  1.0000
  H   H2249     1.0  0.93390  0.86386  0.76517  1.0000
  H   H2250     1.0  0.92125  0.89200  0.74424  1.0000
  H   H2251     1.0  0.76200  0.84354  0.70942  1.0000
  H   H2252     1.0  0.98901  0.95417  0.81998  1.0000
  C   C1886     1.0  0.79556  0.75419  0.87555  1.0000
  S   S509      1.0  0.78361  0.70971  0.51961  1.0000
  C   C1887     1.0  0.76185  0.70363  0.51008  1.0000
  H   H2253     1.0  0.97050  0.91699  0.56069  1.0000
  H   H2254     1.0  0.00420  0.96412  0.54687  1.0000
  H   H2255     1.0  0.81563  0.77035  0.64002  1.0000
  H   H2256     1.0  0.80783  0.74956  0.88749  1.0000
  H   H2257     1.0  0.99668  0.97460  0.71888  1.0000
  C   C1888     1.0  0.98632  0.91281  0.81365  1.0000
  C   C1889     1.0  0.80214  0.73807  0.63493  1.0000
  H   H2258     1.0  0.79799  0.74631  0.57868  1.0000
  H   H2259     1.0  0.91012  0.89723  0.57893  1.0000
  H   H2260     1.0  0.97487  0.90723  0.82451  1.0000
  C   C1890     1.0  0.77427  0.75413  0.62380  1.0000
  C   C1891     1.0  0.76576  0.74114  0.60694  1.0000
  H   H2261     1.0  0.00292  0.00562  0.70653  1.0000
  H   H2262     1.0  0.96176  0.83394  0.59736  1.0000
  H   H2263     1.0  0.81525  0.75956  0.59205  1.0000
  H   H2264     1.0  0.98181  0.84274  0.58280  1.0000
  H   H2265     1.0  0.80324  0.71892  0.86366  1.0000
  H   H2266     1.0  0.79397  0.77000  0.58299  1.0000
  C   C1892     1.0  0.88244  0.69130  0.55461  1.0000
  N   N124      1.0  0.79404  0.75508  0.62335  1.0000
  H   H2267     1.0  0.78928  0.76555  0.88790  1.0000
  C   C1893     1.0  0.78024  0.73140  0.90165  1.0000
  C   C1894     1.0  0.93161  0.85398  0.61284  1.0000
  C   C1895     1.0  0.99447  0.96686  0.81133  1.0000
  S   S510      1.0  0.00298  0.90878  0.86668  1.0000
  C   C1896     1.0  0.76651  0.75493  0.83091  1.0000
  H   H2268     1.0  0.90460  0.84759  0.62482  1.0000
  C   C1897     1.0  0.92132  0.68057  0.54242  1.0000
  C   C1898     1.0  0.80052  0.75783  0.59298  1.0000
  H   H2269     1.0  0.00187  0.96319  0.79099  1.0000
  N   N125      1.0  0.78291  0.73955  0.87232  1.0000
  H   H2270     1.0  0.98298  0.97591  0.80495  1.0000
  C   C1899     1.0  0.98202  0.91315  0.51760  1.0000
  N   N126      1.0  0.89475  0.70202  0.53661  1.0000
  H   H2271     1.0  0.76230  0.80343  0.79087  1.0000
  H   H2272     1.0  0.00028  0.94567  0.52385  1.0000
  H   H2273     1.0  0.96137  0.84505  0.56242  1.0000
  H   H2274     1.0  0.98747  0.87373  0.58285  1.0000
  H   H2275     1.0  0.81698  0.73858  0.63634  1.0000
  C   C1900     1.0  0.99915  0.91282  0.56244  1.0000
  H   H2276     1.0  0.95468  0.98532  0.63050  1.0000
  H   H2277     1.0  0.77140  0.71979  0.90094  1.0000
  H   H2278     1.0  0.80031  0.75949  0.85420  1.0000
  H   H2279     1.0  0.88034  0.68365  0.86926  1.0000
  H   H2280     1.0  0.96340  0.85148  0.64254  1.0000
  C   C1901     1.0  0.90271  0.71563  0.55533  1.0000
  C   C1902     1.0  0.91191  0.99568  0.65179  1.0000
  H   H2281     1.0  0.96866  0.87776  0.55949  1.0000
  H   H2282     1.0  0.87650  0.68064  0.54139  1.0000
  H   H2283     1.0  0.79311  0.72624  0.91118  1.0000
  C   C1903     1.0  0.97272  0.87662  0.58274  1.0000
  H   H2284     1.0  0.96617  0.87499  0.64023  1.0000
  C   C1904     1.0  0.98573  0.98407  0.71394  1.0000
  C   C1905     1.0  0.77181  0.80300  0.74635  1.0000
  N   N127      1.0  0.96272  0.86278  0.59877  1.0000
  C   C1906     1.0  0.91305  0.85703  0.61369  1.0000
  S   S511      1.0  0.77673  0.72377  0.97531  1.0000
  C   C1907     1.0  0.76611  0.74669  0.85894  1.0000
  C   C1908     1.0  0.93474  0.88196  0.58656  1.0000
  H   H2285     1.0  0.94227  0.89226  0.57601  1.0000
  C   C1909     1.0  0.96945  0.86215  0.62907  1.0000
  C   C1910     1.0  0.99956  0.92623  0.77040  1.0000
  H   H2286     1.0  0.87361  0.72106  0.52431  1.0000
  H   H2287     1.0  0.89233  0.72546  0.56374  1.0000
  C   C1911     1.0  0.99950  0.96050  0.52481  1.0000
  H   H2288     1.0  0.79702  0.73519  0.65730  1.0000
  C   C1912     1.0  0.90898  0.69001  0.52397  1.0000
  C   C1913     1.0  0.96827  0.97825  0.71422  1.0000
  H   H2289     1.0  0.77897  0.75625  0.81902  1.0000
  H   H2290     1.0  0.91279  0.72331  0.54291  1.0000
  H   H2291     1.0  0.78169  0.71497  0.84861  1.0000
  H   H2292     1.0  0.79732  0.76816  0.66470  1.0000
  H   H2293     1.0  0.98504  0.96438  0.52275  1.0000
  C   C1914     1.0  0.75932  0.71452  0.99630  1.0000
  H   H2294     1.0  0.88931  0.68458  0.57334  1.0000
  H   H2295     1.0  0.97077  0.88992  0.59316  1.0000
  H   H2296     1.0  0.90936  0.70967  0.57487  1.0000
  Fe  Fe256     1.0  0.84213  0.72904  0.99186  1.0000
  S   S512      1.0  0.00088  0.91317  0.60085  1.0000
  H   H2297     1.0  0.96573  0.96438  0.71936  1.0000
  H   H2298     1.0  0.96926  0.91431  0.50668  1.0000
  H   H2299     1.0  0.98425  0.85993  0.62988  1.0000
  N   N128      1.0  0.00595  0.97538  0.83300  1.0000
  C   C1915     1.0  0.76704  0.80212  0.71704  1.0000
  C   C1916     1.0  0.90535  0.87257  0.60152  1.0000
  H   H2300     1.0  0.92059  0.68195  0.56582  1.0000
  H   H2301     1.0  0.00320  0.98370  0.87774  1.0000
  H   H2302     1.0  0.98312  0.98703  0.85606  1.0000
  C   C1917     1.0  0.88387  0.71182  0.51427  1.0000
  C   C1918     1.0  0.95413  0.99015  0.70727  1.0000
  C   C1919     1.0  0.99923  0.99866  0.52199  1.0000
  H   H2303     1.0  0.89530  0.70470  0.98414  1.0000
  C   C1920     1.0  0.75855  0.80238  0.76825  1.0000
  H   H2304     1.0  0.94050  0.67341  0.84829  1.0000
