data_image0
_chemical_formula_structural       FeS2FeSC2H3CH3SH2FeSHFeSHFeSFeS3HC3H3CHFeCH3SC3H2C6H5C4H5CHCH2CH2CHCN2H2CNC4HC4H12CHCH2SH2S2C3FeCSCHCH2C3HC2HCFeHSH2C2HC2H2C5HCSC3SC2H3C3H11CNSHC2FeS2FeSHCH6C2HCFeSHFeSCFeSFeS3HCHCH2FeC3HFeHCSCHCH2C7H3FeH5CH2CH2CHCSNH2NC2NC2H7CNHC2H3CHCH2CH3C2SCH7SCSH4SNC2SFeC2HCH2CSC2H2C6HCHSCSHCHCSC3HCHC5H3CHCH3NHCSHCSC2HCH2FeHC3HC3H3CH2C4FeS2FeS2FeSFeS3FeCSHSFeCH2C2FeC2H2FeS2FeS2FeSFeS3CH3SCHC2HCHC9H3C3NCH2NHSCH3C3HSCHCH2C6H4C6H4C2H8CH2C4H4C3NC9H12FeCSCHNH2CHCHC2NH8CH2CHNHCH3C3H2CHSH2C2HCHCH3CSCHFeHCHCH2CSHC2HSHCHCHCSFeHCH2CHSH3CH2CH3SH2CH2C3H2C3H5C2H2FeS2FeS2FeSFeS3FeCSFeHFeCH2SHSH3CFeS2FeS2FeSFeS3CH7CH2C9H3CH2CHC2H2CH2C7HCH2CHC6H4C6H4C2H2CH4SCHNHNHCHC2HCH4CHSH3C5HC3H2SC2HCHCH3CH2C2H2CHS2CSNHNH2CFeCHCHCH3CH2CHCH2C2HS2H2C2HNC2HCH5C3NH2C3H2CHSCHCHCHCH5CHCHCFeS2FeS2FeSFeCS2H2CFe2SH2CFeCFeS3C2HCH3C2H2C2H4CH4CNH2C2HCH2C6H4C2H6SCHCHC3HCSHSH2CH5NC2HNHC2HC2HC3NC3H6NHFeC2HSC4HCH4C2H4CNC9H14CSHCHC2H2CHC2H2CSH4SNH2C2H2CHCHCHC5SHCH3CHCFeS2FeS2FeSFeHS2H3FeCSHCHFeHFeS2HCHC2SHC3H2SC2H2N2CH4CSHCHCH2C7H4CH3CH4C3HNHC2HCHC4HCSHC4H3CHSFeH3CSCFeH2C3NH2CNHCH3C3H7C2H2C2SCH2C2HCH3C4HSH5CHCH2CHC2HSH5NC2H8CHC2HCHC3HC5H2CH3CFeSHFeS2FeSFeS2H2CFeS2FeS2FeSCFeSFeSCSHSC2H2C2H3C6H4C6H4NHCH3CH2CH2CH3CH2SHCHCHNH3CH3C2HCHCH7C4H3CHC4HSH4C2HC2HCH6NHCH2CHSHC6HNH2C5HCFeSHFeSCFeSFeS2CHCFeS2FeSCFeSHFeSFeSHSC3H3C3H2C6H4C6H4C2HSH4CH2C3HCHCH5CH3CH5NCHCH4SCS2HNHNH2SC2HNCH3CHC5HCHC2HC2HC4H2NHNH2CH3SCH4C4H3CH6C2HCHC2H3C2HCH7C2H3CHNCFeS2FeS2FeS2FeSFeS3FeS2FeS2FeSFeS3FeC2FeSCFeS2C6H4CHC2H2C5NH3C6H4C3H2C6H4C2HCH2CHC3H2FeC5HCH2CH6CHCHCHNC6H13C2H4CFeHC2NC9H14NC6HC2H13SHC2H5CHCHC5HSCH8SCHCHCH3FeS2FeS2FeS2FeSFeS3FeS2FeS2FeSFeS3CHCFeCHFeS2C6H4CFeCH4C5HCHC6H4C2H2C7H7C2H2C3H2CH2C3H2CHNHNH2CH2NC3NH2CH5C2H3SCH4NCH4SH2SCH3CH5C3NHCH5CH2CHCNC9H15FeHC3H3CH2CHCH2C3HSC2H2CHCH3C5HCFeC4H2CH5C2FeSHFeS2FeSFeS3FeSHFeSHFeS2FeSFeS3C6H4C6H4CSCH3C2HCHCHC4H2C5H8CH3C3H4CH5NCHSCH3C5HCH2CHCH4NC7H12CHSH5CHNHC2H2CH2C2HNC2H2CH2C3H2NC4H2C2H4CHCFeSHFeS2FeSFeS3FeSHFeSHFeS2FeSFeS2C7H4C6H4C3H2C2H2C4HCHCH4C2SH2CHSCHCH2C2HCH2C3NC2H4CH6C2NHCHNH7CNH2CHC3HC2H3CH8CH6CHCSHC2HCHCHC2HCHCSCHCHFeS2FeS2FeSFeS3FeS2HFeCSFeS2FeCFeCS2H3CSCH2NCHFeHC6H4C6H7C3H2C5H2CNC5H6C2H4CHSC3H2SH4C2H5NC6H2CH3CHC2H4SHSNC9H13C2HSH2CHC2NC3H3C2H6CH3C3H3C3HC4HC2H2FeS2FeSHFeSFeS3FeS2HFeS2FeS2FeCFeS3H5CHC4HC7H4C6H6C3H3SCHCHC2SHCH2C2NC3H2C2H2C2HCH5CH8CH2CH2CHC2HC3H3NCHNH3NCH4CHC2SH3C2H2CH2CHCHSC2HC2NHCHC3HC2HCHCH8CH2C2HCH2C2H4C3H2CH2CH2CSCNC3S2CHCHCFeS2FeS2FeSFeS3FeSHFeCHFeS2FeS2FeS2FeSFeS3CH4C6H4CHC2H4C8H5C2H2C6H4CHCHC2H3NC2HCNC2HC2SH2CHCH3CHCHNC2H3C2HCH12C2HCH3CHSHCHCH2SH2CHC2SCSHCHCNC4HCSH5CHCNCHFeC2NH3CH6C6HNC7H11C3HC3H3CHC5FeHCNCH4C3H2CH2CH2C2H2C2H3C2HC3HC4S2H3CHFeS2FeS2FeSFeS3FeHCFeHCFeS2FeS2FeS2FeSFeS4CH3C6H7C4H3C6H6CH2C6H4CNHCHCSH2CNCH5C3HC4H2SHC2SCHCH2FeC2H2C2HCH3NC8H10NC2H2C3HC2H6CHC2HCSH3CHSHC3H4FeCH3CHNHC3H2C4SH13FeHFeSCFeSCFeS2FeSFeS3FeS2FeSCFeSFeS3HC3HC6H4C6H6C2HC4H4C2H2CH2CHNH2SHCHCH2C4HCHCNCHC2H2SH2CHCH2CH4CHCH4NC6H17CH5SCH2NC9H5CH2C2H3C2H2C5SC2H3SH2CHNFeSHFeSHFeS2FeSFeS3FeS2FeSHFeSFeS3HC2HC7H4C6H4SC3H4SH2SC3H2CHC2HCHCH5CNCHC3HC2H4CH2NCHCH3C2HNC6HCSH4NHCHC2H2CHNC7H2NH5CHSH3CH7CH6CHCHCH2CH2NHC2H5C2HCH4C2H2C2HC2HC2H2C2H2CHFeSCFeSCFeSFeS4H2SCHFeS2HS2CHC3HC2H3C2H3C2HCH4SHC6H4C3HSH2NCHCH3NHC3HCH5CH2FeHCH5CHC3HCH4CH3C2FeH2NSH2C2HSH2CHCSH2SHC2HCNC3HNCH2CH2FeH2C2H2CHCHFeC2H3CSH2C4FeCSCFeSHFeSFeSHSH6FeHFeS3H4CHCFeHFeH2C2H3CHC5HC7H7CH3C2HCH2SH3CSHCHC3HC2NH4SNSHC2SCH2CH4C2HC2HC2HCHNCFeHC2SCHC4HCHCSHFeCH6CHCHCHSH3C2HCH3CFe2SHCH4FeS2FeS2FeSFeS3FeS2FeS2FeSFeS3CHC2SH4CHC6H5C2H2C4HCH4C6H5C2SH2CH2SCHC6H3FeHC2HFeCHNC9H16CNC9HFeH2C2H3CHCH2SH2NC6SH10CSHSH5SHCHCH3C4H3CHFeS2CHFeC3FeS2FeS2FeSFeS3FeS2FeS2FeSFeS3H2CH3CHNCHC6H4C3H2C2H3CHCH2C6H4SC3H5FeH2C6H3CNC6HSH12NC2HC4H7SHCH3CNC4H7CNCFeHCH2CH4C2HNCHC2H2CHCH2CH2C4H3CS2H2C3H6SHCH2CH7C3NC3H2C2FeC2HC2FeCSH2C5HC3H2CFeS2FeS2FeCFeS3CHCFeSHC2SFeSFeS3CH3CHCHC2H2C4H2C2H4CH2CHCSHCHC6H5C5H4CSHCH2C2HNCHCHFeC2HCHCH4CH2C2SC2HNH5CHC2NCH6C2HCH3C2HC2HC2NH2CH3C2H3C4H4CH2SHCNHCH2CHC2HFeCH2CHCH2C2H2CHCFeS2FeS2FeHFeS3CHCFeSH2CSFeSFeS3HCHCHCH3C2HC4H3C4H4C2NC3HC6H4C3HNC9H4CHCH4CH2C2H2FeCHSNC3H3CHCH6SCH2CS2H2CHCHCH4C2H3CH2CHCH2C2HSH2FeCHC2H3C4HC
_chemical_formula_sum              "Fe256 S512 C1920 H2304 N128"
_cell_length_a       76.157
_cell_length_b       76.1638
_cell_length_c       47.7457
_cell_angle_alpha    90.0702
_cell_angle_beta     89.9867
_cell_angle_gamma    88.1907

_space_group_name_H-M_alt    "P 1"
_space_group_IT_number       1

loop_
  _space_group_symop_operation_xyz
  'x, y, z'

loop_
  _atom_site_type_symbol
  _atom_site_label
  _atom_site_symmetry_multiplicity
  _atom_site_fract_x
  _atom_site_fract_y
  _atom_site_fract_z
  _atom_site_occupancy
  Fe  Fe1       1.0  0.20569  0.15708  0.01679  1.0000
  S   S1        1.0  0.17710  0.15942  0.00440  1.0000
  S   S2        1.0  0.20989  0.15783  0.06470  1.0000
  Fe  Fe2       1.0  0.20880  0.15481  0.45541  1.0000
  S   S3        1.0  0.18058  0.15837  0.44193  1.0000
  C   C1        1.0  0.09380  0.01077  0.99747  1.0000
  C   C2        1.0  0.22950  0.29734  0.30223  1.0000
  H   H1        1.0  0.03544  0.09349  0.37965  1.0000
  H   H2        1.0  0.21694  0.25891  0.41011  1.0000
  H   H3        1.0  0.04289  0.13229  0.42178  1.0000
  C   C3        1.0  0.19521  0.10189  0.03273  1.0000
  H   H4        1.0  0.01877  0.03751  0.44983  1.0000
  H   H5        1.0  0.03460  0.01948  0.41450  1.0000
  H   H6        1.0  0.05891  0.08537  0.43072  1.0000
  S   S4        1.0  0.21098  0.13506  0.98593  1.0000
  H   H7        1.0  0.09081  0.01968  0.45730  1.0000
  H   H8        1.0  0.03429  0.01179  0.04116  1.0000
  Fe  Fe3       1.0  0.07708  0.02586  0.33011  1.0000
  S   S5        1.0  0.07024  0.05362  0.34450  1.0000
  H   H9        1.0  0.00420  0.00037  0.02986  1.0000
  Fe  Fe4       1.0  0.08237  0.01438  0.39111  1.0000
  S   S6        1.0  0.07566  0.04094  0.40924  1.0000
  H   H10       1.0  0.06566  0.11617  0.35694  1.0000
  Fe  Fe5       1.0  0.05355  0.04152  0.37770  1.0000
  S   S7        1.0  0.02739  0.05457  0.39154  1.0000
  Fe  Fe6       1.0  0.09288  0.05133  0.37508  1.0000
  S   S8        1.0  0.11050  0.07553  0.37862  1.0000
  S   S9        1.0  0.05896  0.01404  0.36200  1.0000
  S   S10       1.0  0.10100  0.02444  0.35833  1.0000
  H   H11       1.0  0.21903  0.29099  0.40513  1.0000
  C   C4        1.0  0.17641  0.08008  0.39766  1.0000
  C   C5        1.0  0.23970  0.32880  0.08269  1.0000
  C   C6        1.0  0.06779  0.10317  0.36722  1.0000
  H   H12       1.0  0.01452  0.02395  0.36139  1.0000
  H   H13       1.0  0.23102  0.15615  0.16232  1.0000
  H   H14       1.0  0.19042  0.10344  0.01077  1.0000
  C   C7        1.0  0.22599  0.15257  0.09102  1.0000
  H   H15       1.0  0.17153  0.07799  0.04545  1.0000
  Fe  Fe7       1.0  0.17522  0.13844  0.47552  1.0000
  C   C8        1.0  0.22223  0.15689  0.11915  1.0000
  H   H16       1.0  0.15488  0.09353  0.05853  1.0000
  H   H17       1.0  0.07588  0.99979  0.18431  1.0000
  H   H18       1.0  0.20982  0.16345  0.12422  1.0000
  S   S11       1.0  0.21084  0.30961  0.99291  1.0000
  C   C9        1.0  0.22572  0.21584  0.11434  1.0000
  C   C10       1.0  0.21893  0.15414  0.34757  1.0000
  C   C11       1.0  0.21841  0.15458  0.37702  1.0000
  H   H19       1.0  0.20700  0.15663  0.33572  1.0000
  H   H20       1.0  0.20618  0.15764  0.38769  1.0000
  C   C12       1.0  0.14530  0.10337  0.44435  1.0000
  C   C13       1.0  0.14177  0.11088  0.41808  1.0000
  C   C14       1.0  0.13120  0.10214  0.39841  1.0000
  C   C15       1.0  0.12376  0.08586  0.40463  1.0000
  C   C16       1.0  0.12705  0.07848  0.43103  1.0000
  C   C17       1.0  0.13780  0.08713  0.45059  1.0000
  H   H21       1.0  0.14717  0.12341  0.41285  1.0000
  H   H22       1.0  0.12879  0.10806  0.37813  1.0000
  H   H23       1.0  0.12146  0.06604  0.43634  1.0000
  H   H24       1.0  0.23114  0.30365  0.36261  1.0000
  H   H25       1.0  0.16284  0.12477  0.06726  1.0000
  C   C18       1.0  0.07796  0.00437  0.25597  1.0000
  C   C19       1.0  0.20028  0.24192  0.46218  1.0000
  C   C20       1.0  0.18734  0.08600  0.12750  1.0000
  C   C21       1.0  0.04053  0.10456  0.39235  1.0000
  H   H26       1.0  0.10724  0.13006  0.43815  1.0000
  H   H27       1.0  0.21236  0.20918  0.07620  1.0000
  H   H28       1.0  0.19323  0.22680  0.98518  1.0000
  H   H29       1.0  0.17907  0.07621  0.41902  1.0000
  H   H30       1.0  0.24526  0.14052  0.06355  1.0000
  C   C22       1.0  0.17320  0.12226  0.05118  1.0000
  H   H31       1.0  0.16722  0.12484  0.03024  1.0000
  C   C23       1.0  0.20119  0.11141  0.09257  1.0000
  H   H32       1.0  0.18330  0.13232  0.05420  1.0000
  H   H33       1.0  0.09609  0.02285  0.00865  1.0000
  C   C24       1.0  0.22371  0.28241  0.38833  1.0000
  H   H34       1.0  0.21553  0.22519  0.12100  1.0000
  H   H35       1.0  0.07244  0.02228  0.22194  1.0000
  C   C25       1.0  0.18748  0.10107  0.08199  1.0000
  H   H36       1.0  0.05341  0.99909  0.03054  1.0000
  C   C26       1.0  0.23071  0.28950  0.36391  1.0000
  N   N1        1.0  0.05992  0.10307  0.39566  1.0000
  N   N2        1.0  0.18067  0.10409  0.05328  1.0000
  H   H37       1.0  0.20172  0.08865  0.03450  1.0000
  H   H38       1.0  0.20688  0.12152  0.07996  1.0000
  C   C27       1.0  0.16670  0.09193  0.04493  1.0000
  N   N3        1.0  0.19853  0.10451  0.39875  1.0000
  C   C28       1.0  0.20390  0.09732  0.42650  1.0000
  C   C29       1.0  0.21462  0.10551  0.38126  1.0000
  C   C30       1.0  0.19132  0.12252  0.40341  1.0000
  C   C31       1.0  0.18511  0.09409  0.38440  1.0000
  H   H39       1.0  0.24110  0.21955  0.15094  1.0000
  C   C32       1.0  0.17966  0.09849  0.35676  1.0000
  C   C33       1.0  0.04347  0.99990  0.44409  1.0000
  C   C34       1.0  0.17265  0.25732  0.47152  1.0000
  C   C35       1.0  0.09013  0.00761  0.46908  1.0000
  H   H40       1.0  0.21438  0.10518  0.43630  1.0000
  H   H41       1.0  0.19274  0.09779  0.44169  1.0000
  H   H42       1.0  0.20911  0.08356  0.42467  1.0000
  H   H43       1.0  0.21977  0.09217  0.37541  1.0000
  H   H44       1.0  0.22529  0.11244  0.39236  1.0000
  H   H45       1.0  0.21239  0.11312  0.36164  1.0000
  H   H46       1.0  0.17916  0.12235  0.41636  1.0000
  H   H47       1.0  0.20095  0.13071  0.41453  1.0000
  H   H48       1.0  0.18795  0.12938  0.38349  1.0000
  H   H49       1.0  0.21412  0.24215  0.45720  1.0000
  H   H50       1.0  0.18528  0.10933  0.34565  1.0000
  H   H51       1.0  0.20584  0.09476  0.15826  1.0000
  C   C36       1.0  0.20771  0.10910  0.11970  1.0000
  H   H52       1.0  0.18196  0.07619  0.14123  1.0000
  C   C37       1.0  0.05694  0.13120  0.42465  1.0000
  H   H53       1.0  0.05822  0.07493  0.39706  1.0000
  H   H54       1.0  0.23396  0.30344  0.28239  1.0000
  S   S12       1.0  0.23462  0.14952  0.29629  1.0000
  H   H55       1.0  0.06211  0.09299  0.35344  1.0000
  H   H56       1.0  0.16497  0.26945  0.47353  1.0000
  S   S13       1.0  0.07553  0.02134  0.28205  1.0000
  S   S14       1.0  0.16365  0.20485  0.47503  1.0000
  C   C38       1.0  0.02908  0.00294  0.98781  1.0000
  C   C39       1.0  0.19224  0.22566  0.46540  1.0000
  C   C40       1.0  0.06408  0.08585  0.40895  1.0000
  Fe  Fe8       1.0  0.17886  0.17865  0.47651  1.0000
  C   C41       1.0  0.17428  0.22510  0.47125  1.0000
  S   S15       1.0  0.23342  0.14991  0.42949  1.0000
  C   C42       1.0  0.24046  0.21257  0.13126  1.0000
  H   H57       1.0  0.08847  0.15401  0.45830  1.0000
  C   C43       1.0  0.06455  0.14428  0.44085  1.0000
  H   H58       1.0  0.21813  0.11730  0.12725  1.0000
  H   H59       1.0  0.21789  0.28936  0.29736  1.0000
  C   C44       1.0  0.22855  0.25319  0.36985  1.0000
  C   C45       1.0  0.23431  0.15282  0.14087  1.0000
  C   C46       1.0  0.18071  0.08822  0.10034  1.0000
  H   H60       1.0  0.17024  0.07977  0.09429  1.0000
  C   C47       1.0  0.16647  0.08936  0.34320  1.0000
  C   C48       1.0  0.09317  0.13043  0.43433  1.0000
  H   H61       1.0  0.16210  0.09449  0.02306  1.0000
  C   C49       1.0  0.16332  0.07096  0.38381  1.0000
  Fe  Fe9       1.0  0.19709  0.30655  0.47055  1.0000
  H   H62       1.0  0.07843  0.08275  0.40985  1.0000
  S   S16       1.0  0.15905  0.11340  0.47002  1.0000
  H   H63       1.0  0.19306  0.25976  0.98673  1.0000
  H   H64       1.0  0.20547  0.11180  0.03557  1.0000
  C   C50       1.0  0.23690  0.19476  0.08057  1.0000
  C   C51       1.0  0.00333  0.03142  0.36959  1.0000
  H   H65       1.0  0.23522  0.18756  0.06117  1.0000
  C   C52       1.0  0.07561  0.00878  0.22747  1.0000
  C   C53       1.0  0.22256  0.26431  0.39124  1.0000
  H   H66       1.0  0.19988  0.21356  0.46289  1.0000
  H   H67       1.0  0.08219  0.10027  0.36754  1.0000
  C   C54       1.0  0.23482  0.15079  0.33328  1.0000
  C   C55       1.0  0.06737  0.11726  0.41277  1.0000
  C   C56       1.0  0.23372  0.15107  0.39247  1.0000
  C   C57       1.0  0.08261  0.14388  0.44570  1.0000
  C   C58       1.0  0.03446  0.01527  0.43618  1.0000
  H   H68       1.0  0.03641  0.11689  0.38137  1.0000
  C   C59       1.0  0.20080  0.09643  0.13716  1.0000
  S   S17       1.0  0.20140  0.27769  0.45905  1.0000
  C   C60       1.0  0.08570  0.11737  0.41805  1.0000
  C   C61       1.0  0.00599  0.04677  0.38490  1.0000
  C   C62       1.0  0.19055  0.25780  0.46509  1.0000
  S   S18       1.0  0.19364  0.32867  0.43934  1.0000
  C   C63       1.0  0.23563  0.26012  0.34534  1.0000
  C   C64       1.0  0.22393  0.20690  0.08908  1.0000
  H   H69       1.0  0.15648  0.06064  0.39452  1.0000
  H   H70       1.0  0.05640  0.15481  0.44976  1.0000
  H   H71       1.0  0.09442  0.10725  0.40962  1.0000
  C   C65       1.0  0.02551  0.02539  0.45620  1.0000
  C   C66       1.0  0.15829  0.07563  0.35673  1.0000
  C   C67       1.0  0.23685  0.27858  0.34158  1.0000
  H   H72       1.0  0.15064  0.24068  0.47892  1.0000
  H   H73       1.0  0.23997  0.25073  0.32964  1.0000
  H   H74       1.0  0.22489  0.30842  0.31579  1.0000
  H   H75       1.0  0.05756  0.00240  0.98406  1.0000
  H   H76       1.0  0.16229  0.09315  0.32230  1.0000
  H   H77       1.0  0.23941  0.26484  0.28725  1.0000
  H   H78       1.0  0.00054  0.00740  0.98253  1.0000
  H   H79       1.0  0.22759  0.23909  0.37228  1.0000
  H   H80       1.0  0.03371  0.10393  0.41294  1.0000
  H   H81       1.0  0.14767  0.06891  0.34656  1.0000
  H   H82       1.0  0.14031  0.08116  0.47081  1.0000
  C   C68       1.0  0.24211  0.14402  0.08497  1.0000
  N   N4        1.0  0.24367  0.28649  0.31558  1.0000
  S   S19       1.0  0.21314  0.17851  0.98675  1.0000
  H   H83       1.0  0.24286  0.32547  0.06120  1.0000
  C   C69       1.0  0.16454  0.24101  0.47440  1.0000
  C   C70       1.0  0.03918  0.99831  0.03560  1.0000
  Fe  Fe10      1.0  0.20039  0.15642  0.51873  1.0000
  S   S20       1.0  0.17133  0.15911  0.50948  1.0000
  S   S21       1.0  0.21213  0.16380  0.56165  1.0000
  Fe  Fe11      1.0  0.21652  0.15666  0.95494  1.0000
  S   S22       1.0  0.18887  0.15872  0.93866  1.0000
  H   H84       1.0  0.17020  0.13358  0.62906  1.0000
  C   C71       1.0  0.22577  0.14263  0.84890  1.0000
  H   H85       1.0  0.23479  0.26907  0.88076  1.0000
  H   H86       1.0  0.00250  0.02700  0.94267  1.0000
  H   H87       1.0  0.21759  0.16360  0.71492  1.0000
  H   H88       1.0  0.23393  0.12901  0.73900  1.0000
  H   H89       1.0  0.14368  0.30955  0.88069  1.0000
  H   H90       1.0  0.20100  0.27090  0.59432  1.0000
  C   C72       1.0  0.24271  0.13168  0.61222  1.0000
  C   C73       1.0  0.02555  0.02014  0.48429  1.0000
  H   H91       1.0  0.09419  0.11441  0.95109  1.0000
  C   C74       1.0  0.18094  0.12834  0.69791  1.0000
  Fe  Fe12      1.0  0.08328  0.02965  0.82798  1.0000
  S   S23       1.0  0.07574  0.05783  0.83839  1.0000
  H   H92       1.0  0.17514  0.12263  0.71627  1.0000
  Fe  Fe13      1.0  0.08314  0.01995  0.89047  1.0000
  S   S24       1.0  0.07534  0.04725  0.90507  1.0000
  C   C75       1.0  0.20831  0.24106  0.92015  1.0000
  Fe  Fe14      1.0  0.05628  0.04668  0.86875  1.0000
  S   S25       1.0  0.02843  0.05869  0.87146  1.0000
  Fe  Fe15      1.0  0.09545  0.05645  0.87395  1.0000
  S   S26       1.0  0.11509  0.07902  0.87801  1.0000
  S   S27       1.0  0.06266  0.01877  0.85634  1.0000
  S   S28       1.0  0.10431  0.02898  0.86143  1.0000
  H   H93       1.0  0.15892  0.32407  0.89662  1.0000
  C   C76       1.0  0.20043  0.12907  0.74906  1.0000
  H   H94       1.0  0.24382  0.17951  0.50908  1.0000
  C   C77       1.0  0.18232  0.23439  0.97644  1.0000
  H   H95       1.0  0.02046  0.02137  0.87544  1.0000
  H   H96       1.0  0.09370  0.02320  0.95672  1.0000
  Fe  Fe16      1.0  0.18271  0.13866  0.97163  1.0000
  C   C78       1.0  0.22587  0.15525  0.58907  1.0000
  C   C79       1.0  0.23208  0.13777  0.58974  1.0000
  C   C80       1.0  0.09102  0.00798  0.49854  1.0000
  H   H97       1.0  0.13118  0.29650  0.93801  1.0000
  Fe  Fe17      1.0  0.21613  0.32769  0.95665  1.0000
  H   H98       1.0  0.14523  0.16516  0.89832  1.0000
  C   C81       1.0  0.18731  0.24341  0.54005  1.0000
  S   S29       1.0  0.24023  0.14173  0.79622  1.0000
  C   C82       1.0  0.14163  0.32958  0.94423  1.0000
  H   H99       1.0  0.22368  0.20972  0.56325  1.0000
  C   C83       1.0  0.22557  0.14611  0.87789  1.0000
  H   H100      1.0  0.21482  0.13613  0.83944  1.0000
  H   H101      1.0  0.21455  0.14229  0.89055  1.0000
  C   C84       1.0  0.15019  0.10570  0.94457  1.0000
  C   C85       1.0  0.13871  0.09241  0.95251  1.0000
  C   C86       1.0  0.12808  0.08394  0.93258  1.0000
  C   C87       1.0  0.12872  0.08864  0.90425  1.0000
  C   C88       1.0  0.14024  0.10193  0.89633  1.0000
  C   C89       1.0  0.15088  0.11038  0.91623  1.0000
  C   C90       1.0  0.18226  0.25308  0.97721  1.0000
  H   H102      1.0  0.11931  0.07383  0.93917  1.0000
  H   H103      1.0  0.14089  0.10573  0.87455  1.0000
  H   H104      1.0  0.15968  0.12041  0.90952  1.0000
  Fe  Fe18      1.0  0.18346  0.30949  0.97563  1.0000
  H   H105      1.0  0.24139  0.28749  0.90132  1.0000
  H   H106      1.0  0.24489  0.16937  0.65003  1.0000
  H   H107      1.0  0.09032  0.10832  0.90073  1.0000
  H   H108      1.0  0.23365  0.13641  0.70380  1.0000
  H   H109      1.0  0.09225  0.02042  0.50924  1.0000
  C   C91       1.0  0.00823  0.02899  0.87604  1.0000
  H   H110      1.0  0.05814  0.01330  0.53106  1.0000
  H   H111      1.0  0.19887  0.14783  0.62893  1.0000
  C   C92       1.0  0.21045  0.15645  0.73148  1.0000
  H   H112      1.0  0.19631  0.24896  0.91872  1.0000
  H   H113      1.0  0.22944  0.24122  0.56471  1.0000
  C   C93       1.0  0.23068  0.16656  0.61098  1.0000
  H   H114      1.0  0.17668  0.25190  0.53269  1.0000
  C   C94       1.0  0.09754  0.11967  0.90737  1.0000
  S   S30       1.0  0.24071  0.32236  0.93072  1.0000
  N   N5        1.0  0.03457  0.99933  0.52303  1.0000
  H   H115      1.0  0.14302  0.26144  0.94520  1.0000
  H   H116      1.0  0.21950  0.26860  0.50992  1.0000
  N   N6        1.0  0.12835  0.16326  0.93444  1.0000
  C   C95       1.0  0.23527  0.27249  0.95177  1.0000
  C   C96       1.0  0.01444  0.02155  0.95214  1.0000
  N   N7        1.0  0.22759  0.26778  0.92432  1.0000
  C   C97       1.0  0.11771  0.14849  0.92468  1.0000
  C   C98       1.0  0.11733  0.17560  0.95153  1.0000
  H   H117      1.0  0.21817  0.15798  0.75115  1.0000
  H   H118      1.0  0.04562  0.00866  0.56177  1.0000
  H   H119      1.0  0.00969  0.01206  0.53458  1.0000
  H   H120      1.0  0.13859  0.14954  0.97108  1.0000
  H   H121      1.0  0.05863  0.02197  0.94384  1.0000
  H   H122      1.0  0.19882  0.11477  0.74538  1.0000
  H   H123      1.0  0.11123  0.13924  0.96663  1.0000
  C   C99       1.0  0.15417  0.23569  0.95312  1.0000
  N   N8        1.0  0.20826  0.13769  0.72431  1.0000
  H   H124      1.0  0.18865  0.27817  0.51921  1.0000
  C   C100      1.0  0.15409  0.25406  0.95392  1.0000
  C   C101      1.0  0.22859  0.32430  0.61992  1.0000
  H   H125      1.0  0.10379  0.12719  0.86545  1.0000
  H   H126      1.0  0.10169  0.01594  0.72570  1.0000
  H   H127      1.0  0.22848  0.12885  0.57320  1.0000
  C   C102      1.0  0.24140  0.16050  0.63335  1.0000
  H   H128      1.0  0.03134  0.03480  0.92339  1.0000
  C   C103      1.0  0.19754  0.13640  0.69853  1.0000
  H   H129      1.0  0.22484  0.28709  0.53135  1.0000
  H   H130      1.0  0.22598  0.18011  0.61075  1.0000
  C   C104      1.0  0.23778  0.21844  0.92464  1.0000
  H   H131      1.0  0.09757  0.32663  0.91018  1.0000
  H   H132      1.0  0.21970  0.19740  0.92139  1.0000
  H   H133      1.0  0.19354  0.21736  0.91769  1.0000
  C   C105      1.0  0.19745  0.21332  0.54769  1.0000
  C   C106      1.0  0.12316  0.30703  0.92729  1.0000
  S   S31       1.0  0.16631  0.28634  0.96539  1.0000
  C   C107      1.0  0.16817  0.22565  0.96429  1.0000
  H   H134      1.0  0.20893  0.13019  0.76797  1.0000
  H   H135      1.0  0.18752  0.13530  0.75482  1.0000
  H   H136      1.0  0.12093  0.15210  0.87926  1.0000
  H   H137      1.0  0.15863  0.12114  0.67297  1.0000
  H   H138      1.0  0.19750  0.16338  0.73452  1.0000
  H   H139      1.0  0.21626  0.31837  0.62494  1.0000
  H   H140      1.0  0.17191  0.22064  0.53186  1.0000
  S   S32       1.0  0.16327  0.11593  0.97095  1.0000
  C   C108      1.0  0.20649  0.22282  0.91949  1.0000
  S   S33       1.0  0.20748  0.17672  0.48684  1.0000
  H   H141      1.0  0.20464  0.27585  0.90046  1.0000
  H   H142      1.0  0.20156  0.27600  0.93812  1.0000
  H   H143      1.0  0.24416  0.14062  0.48764  1.0000
  H   H144      1.0  0.21612  0.14980  0.67181  1.0000
  S   S34       1.0  0.16671  0.20241  0.96172  1.0000
  N   N9        1.0  0.20723  0.26894  0.55048  1.0000
  C   C109      1.0  0.22509  0.24856  0.92316  1.0000
  C   C110      1.0  0.20365  0.14346  0.67294  1.0000
  S   S35       1.0  0.09076  0.02091  0.78288  1.0000
  Fe  Fe19      1.0  0.18511  0.17925  0.97245  1.0000
  C   C111      1.0  0.24073  0.32502  0.89388  1.0000
  C   C112      1.0  0.03066  0.02592  0.94108  1.0000
  H   H145      1.0  0.14415  0.18444  0.91952  1.0000
  C   C113      1.0  0.24006  0.14739  0.83223  1.0000
  H   H146      1.0  0.14903  0.31955  0.95683  1.0000
  H   H147      1.0  0.18035  0.27851  0.55486  1.0000
  C   C114      1.0  0.03445  0.00442  0.49309  1.0000
  S   S36       1.0  0.18940  0.32596  0.93794  1.0000
  C   C115      1.0  0.17771  0.13438  0.64830  1.0000
  C   C116      1.0  0.22117  0.21154  0.92174  1.0000
  H   H148      1.0  0.21396  0.28843  0.58127  1.0000
  H   H149      1.0  0.19523  0.29460  0.54338  1.0000
  C   C117      1.0  0.00847  0.04731  0.87417  1.0000
  C   C118      1.0  0.19387  0.14241  0.64826  1.0000
  C   C119      1.0  0.13615  0.17352  0.91134  1.0000
  C   C120      1.0  0.01354  0.01021  0.97515  1.0000
  C   C121      1.0  0.22586  0.12929  0.71956  1.0000
  C   C122      1.0  0.22222  0.27276  0.53184  1.0000
  H   H150      1.0  0.23462  0.26597  0.53850  1.0000
  C   C123      1.0  0.21177  0.27404  0.57955  1.0000
  H   H151      1.0  0.15147  0.14683  0.94002  1.0000
  S   S37       1.0  0.18281  0.32156  0.50483  1.0000
  C   C124      1.0  0.19213  0.28044  0.54157  1.0000
  S   S38       1.0  0.20378  0.13413  0.48773  1.0000
  H   H152      1.0  0.19510  0.19935  0.54678  1.0000
  C   C125      1.0  0.23975  0.27301  0.90172  1.0000
  H   H153      1.0  0.15572  0.30322  0.91176  1.0000
  C   C126      1.0  0.20362  0.24994  0.54933  1.0000
  S   S39       1.0  0.24061  0.15794  0.92707  1.0000
  C   C127      1.0  0.18436  0.22537  0.53942  1.0000
  C   C128      1.0  0.21358  0.21924  0.55686  1.0000
  C   C129      1.0  0.21669  0.23727  0.55766  1.0000
  H   H154      1.0  0.22482  0.11554  0.71197  1.0000
  C   C130      1.0  0.09979  0.12311  0.93575  1.0000
  H   H155      1.0  0.11292  0.31127  0.94273  1.0000
  C   C131      1.0  0.04529  0.00754  0.97575  1.0000
  C   C132      1.0  0.21105  0.27846  0.92092  1.0000
  C   C133      1.0  0.11515  0.14460  0.89582  1.0000
  C   C134      1.0  0.10519  0.13036  0.88748  1.0000
  C   C135      1.0  0.04603  0.01880  0.95274  1.0000
  H   H156      1.0  0.13799  0.08859  0.97427  1.0000
  H   H157      1.0  0.21353  0.29282  0.92152  1.0000
  H   H158      1.0  0.15151  0.16716  0.95928  1.0000
  C   C136      1.0  0.17124  0.12738  0.67307  1.0000
  H   H159      1.0  0.14318  0.22920  0.94376  1.0000
  C   C137      1.0  0.10966  0.13731  0.94437  1.0000
  H   H160      1.0  0.11237  0.16934  0.97087  1.0000
  H   H161      1.0  0.22401  0.26734  0.58709  1.0000
  H   H162      1.0  0.10576  0.18063  0.93940  1.0000
  N   N10       1.0  0.13413  0.32187  0.91857  1.0000
  H   H163      1.0  0.11677  0.30086  0.90894  1.0000
  C   C138      1.0  0.23982  0.15416  0.89051  1.0000
  S   S40       1.0  0.22356  0.31498  0.48516  1.0000
  H   H164      1.0  0.01880  0.02868  0.49913  1.0000
  C   C139      1.0  0.23977  0.23665  0.92540  1.0000
  S   S41       1.0  0.21550  0.32552  0.56564  1.0000
  C   C140      1.0  0.24094  0.32708  0.64158  1.0000
  C   C141      1.0  0.14306  0.15641  0.95198  1.0000
  H   H165      1.0  0.23796  0.32334  0.66285  1.0000
  C   C142      1.0  0.08341  0.00630  0.75609  1.0000
  H   H166      1.0  0.23507  0.14822  0.52013  1.0000
  H   H167      1.0  0.12491  0.18713  0.95855  1.0000
  Fe  Fe20      1.0  0.20953  0.33068  0.51854  1.0000
  H   H168      1.0  0.12583  0.17966  0.89770  1.0000
  C   C143      1.0  0.16803  0.26297  0.96587  1.0000
  C   C144      1.0  0.09243  0.01101  0.96803  1.0000
  C   C145      1.0  0.14868  0.31440  0.90109  1.0000
  H   H169      1.0  0.03828  0.02572  0.53828  1.0000
  C   C146      1.0  0.23181  0.32945  0.59203  1.0000
  C   C147      1.0  0.04449  0.01235  0.53924  1.0000
  C   C148      1.0  0.09157  0.00659  0.72956  1.0000
  H   H170      1.0  0.22663  0.26849  0.96934  1.0000
  H   H171      1.0  0.13533  0.00804  0.48972  1.0000
  H   H172      1.0  0.23704  0.28692  0.95363  1.0000
  C   C149      1.0  0.24206  0.33009  0.83524  1.0000
  H   H173      1.0  0.11543  0.00030  0.81738  1.0000
  H   H174      1.0  0.24722  0.11807  0.61268  1.0000
  C   C150      1.0  0.24739  0.14294  0.63428  1.0000
  C   C151      1.0  0.24747  0.14353  0.50984  1.0000
  C   C152      1.0  0.01635  0.99889  0.53407  1.0000
  C   C153      1.0  0.22587  0.33138  0.87948  1.0000
  Fe  Fe21      1.0  0.08897  0.52441  0.14810  1.0000
  S   S42       1.0  0.08560  0.55323  0.13739  1.0000
  S   S43       1.0  0.09589  0.51755  0.19399  1.0000
  Fe  Fe22      1.0  0.08137  0.51408  0.08689  1.0000
  S   S44       1.0  0.07665  0.54189  0.07266  1.0000
  S   S45       1.0  0.07675  0.49075  0.05864  1.0000
  Fe  Fe23      1.0  0.10108  0.54781  0.09760  1.0000
  S   S46       1.0  0.12548  0.56047  0.07762  1.0000
  Fe  Fe24      1.0  0.06169  0.54490  0.11331  1.0000
  S   S47       1.0  0.03530  0.55910  0.12070  1.0000
  S   S48       1.0  0.10626  0.51940  0.11020  1.0000
  S   S49       1.0  0.06456  0.51661  0.12558  1.0000
  Fe  Fe25      1.0  0.18579  0.64100  0.01707  1.0000
  C   C154      1.0  0.02304  0.50375  0.99215  1.0000
  S   S50       1.0  0.15909  0.63207  0.03397  1.0000
  H   H175      1.0  0.17432  0.40143  0.41295  1.0000
  S   S51       1.0  0.21348  0.64035  0.41955  1.0000
  Fe  Fe26      1.0  0.22484  0.64091  0.02833  1.0000
  C   C155      1.0  0.09161  0.39768  0.47708  1.0000
  H   H176      1.0  0.05814  0.40984  0.41203  1.0000
  H   H177      1.0  0.01738  0.55773  0.21480  1.0000
  C   C156      1.0  0.22392  0.40440  0.34062  1.0000
  C   C157      1.0  0.23031  0.64364  0.39386  1.0000
  Fe  Fe27      1.0  0.20213  0.33431  0.01603  1.0000
  C   C158      1.0  0.03476  0.52320  0.17811  1.0000
  C   C159      1.0  0.01150  0.43522  0.36361  1.0000
  H   H178      1.0  0.14237  0.60824  0.48051  1.0000
  H   H179      1.0  0.00225  0.52241  0.02922  1.0000
  Fe  Fe28      1.0  0.07833  0.46039  0.33894  1.0000
  S   S52       1.0  0.07309  0.43255  0.35259  1.0000
  S   S53       1.0  0.07198  0.46577  0.29229  1.0000
  Fe  Fe29      1.0  0.08731  0.47063  0.39968  1.0000
  S   S54       1.0  0.08283  0.44369  0.41658  1.0000
  S   S55       1.0  0.09413  0.49371  0.42745  1.0000
  Fe  Fe30      1.0  0.09775  0.43379  0.37884  1.0000
  S   S56       1.0  0.11815  0.41072  0.37612  1.0000
  Fe  Fe31      1.0  0.05869  0.44479  0.38916  1.0000
  S   S57       1.0  0.03303  0.43768  0.41024  1.0000
  S   S58       1.0  0.10385  0.46094  0.36311  1.0000
  S   S59       1.0  0.06238  0.47233  0.37438  1.0000
  C   C160      1.0  0.01254  0.43789  0.39254  1.0000
  H   H180      1.0  0.12534  0.62001  0.98658  1.0000
  H   H181      1.0  0.01924  0.48182  0.26488  1.0000
  H   H182      1.0  0.02341  0.43361  0.35141  1.0000
  S   S60       1.0  0.17386  0.33307  0.00085  1.0000
  C   C161      1.0  0.22983  0.63945  0.10584  1.0000
  H   H183      1.0  0.12742  0.40728  0.29703  1.0000
  C   C162      1.0  0.12120  0.57669  0.99823  1.0000
  C   C163      1.0  0.08548  0.38770  0.41766  1.0000
  H   H184      1.0  0.15940  0.61783  0.14472  1.0000
  C   C164      1.0  0.24579  0.63472  0.09299  1.0000
  H   H185      1.0  0.01666  0.46220  0.46910  1.0000
  C   C165      1.0  0.20111  0.60304  0.12593  1.0000
  C   C166      1.0  0.01387  0.52897  0.02047  1.0000
  C   C167      1.0  0.14769  0.37777  0.44447  1.0000
  C   C168      1.0  0.13705  0.39253  0.45193  1.0000
  C   C169      1.0  0.12810  0.40284  0.43145  1.0000
  C   C170      1.0  0.12954  0.39848  0.40301  1.0000
  C   C171      1.0  0.14019  0.38373  0.39552  1.0000
  C   C172      1.0  0.14915  0.37343  0.41602  1.0000
  C   C173      1.0  0.17347  0.61404  0.14839  1.0000
  H   H186      1.0  0.12007  0.41414  0.43774  1.0000
  H   H187      1.0  0.14137  0.38008  0.37368  1.0000
  H   H188      1.0  0.15694  0.36196  0.40982  1.0000
  C   C174      1.0  0.21161  0.59811  0.10243  1.0000
  C   C175      1.0  0.23747  0.59427  0.13149  1.0000
  C   C176      1.0  0.04620  0.49410  0.46067  1.0000
  N   N11       1.0  0.18223  0.60776  0.12225  1.0000
  C   C177      1.0  0.23196  0.33732  0.13874  1.0000
  H   H189      1.0  0.07799  0.36626  0.46015  1.0000
  H   H190      1.0  0.18785  0.41766  0.42953  1.0000
  N   N12       1.0  0.02317  0.53139  0.19982  1.0000
  H   H191      1.0  0.12317  0.40391  0.26066  1.0000
  S   S61       1.0  0.20261  0.65813  0.04424  1.0000
  C   C178      1.0  0.22883  0.64113  0.13513  1.0000
  H   H192      1.0  0.22540  0.38548  0.44267  1.0000
  H   H193      1.0  0.02403  0.53267  0.24530  1.0000
  H   H194      1.0  0.04443  0.52707  0.22942  1.0000
  C   C179      1.0  0.07969  0.49246  0.02210  1.0000
  C   C180      1.0  0.07184  0.48017  0.00456  1.0000
  C   C181      1.0  0.22603  0.64256  0.36518  1.0000
  H   H195      1.0  0.08804  0.46473  0.46602  1.0000
  S   S62       1.0  0.20654  0.34052  0.06299  1.0000
  C   C182      1.0  0.08947  0.50578  0.01020  1.0000
  H   H196      1.0  0.06416  0.46989  0.01360  1.0000
  C   C183      1.0  0.13491  0.41837  0.98512  1.0000
  H   H197      1.0  0.08158  0.37980  0.39918  1.0000
  H   H198      1.0  0.09558  0.51533  0.02355  1.0000
  C   C184      1.0  0.08814  0.50369  0.22131  1.0000
  C   C185      1.0  0.07544  0.49108  0.21685  1.0000
  C   C186      1.0  0.07055  0.47980  0.23888  1.0000
  C   C187      1.0  0.07816  0.48098  0.26573  1.0000
  C   C188      1.0  0.09062  0.49379  0.27031  1.0000
  C   C189      1.0  0.09557  0.50500  0.24826  1.0000
  H   H199      1.0  0.06971  0.48973  0.19627  1.0000
  H   H200      1.0  0.06099  0.46989  0.23495  1.0000
  H   H201      1.0  0.09658  0.49498  0.29076  1.0000
  H   H202      1.0  0.10539  0.51469  0.25205  1.0000
  C   C190      1.0  0.13453  0.58063  0.06585  1.0000
  C   C191      1.0  0.15097  0.58009  0.05217  1.0000
  C   C192      1.0  0.15877  0.59559  0.04249  1.0000
  C   C193      1.0  0.15018  0.61196  0.04622  1.0000
  C   C194      1.0  0.13377  0.61251  0.05992  1.0000
  C   C195      1.0  0.12601  0.59702  0.06972  1.0000
  H   H203      1.0  0.15769  0.56753  0.04894  1.0000
  H   H204      1.0  0.17134  0.59480  0.03199  1.0000
  H   H205      1.0  0.12693  0.62504  0.06294  1.0000
  H   H206      1.0  0.11340  0.59775  0.08015  1.0000
  C   C196      1.0  0.01480  0.54973  0.11310  1.0000
  C   C197      1.0  0.22351  0.34107  0.37681  1.0000
  H   H207      1.0  0.09938  0.38581  0.47310  1.0000
  H   H208      1.0  0.02582  0.52632  0.09422  1.0000
  H   H209      1.0  0.02769  0.51105  0.23054  1.0000
  H   H210      1.0  0.17353  0.60362  0.16474  1.0000
  H   H211      1.0  0.21817  0.64132  0.09327  1.0000
  H   H212      1.0  0.06187  0.36382  0.43340  1.0000
  H   H213      1.0  0.02221  0.50142  0.05082  1.0000
  H   H214      1.0  0.08980  0.40060  0.40973  1.0000
  C   C198      1.0  0.23737  0.34393  0.33093  1.0000
  H   H215      1.0  0.11336  0.56799  0.01073  1.0000
  H   H216      1.0  0.22876  0.34061  0.16022  1.0000
  C   C199      1.0  0.03630  0.47954  0.45456  1.0000
  C   C200      1.0  0.07642  0.40202  0.46093  1.0000
  C   C201      1.0  0.00440  0.52716  0.19639  1.0000
  C   C202      1.0  0.23946  0.34426  0.39014  1.0000
  H   H217      1.0  0.00585  0.51692  0.15332  1.0000
  H   H218      1.0  0.04075  0.51501  0.05478  1.0000
  H   H219      1.0  0.03787  0.47291  0.43455  1.0000
  H   H220      1.0  0.17991  0.62584  0.15695  1.0000
  C   C203      1.0  0.20906  0.39752  0.39391  1.0000
  C   C204      1.0  0.17290  0.59213  0.11237  1.0000
  C   C205      1.0  0.21400  0.39496  0.44414  1.0000
  N   N13       1.0  0.11249  0.42844  0.27736  1.0000
  C   C206      1.0  0.09523  0.42068  0.28322  1.0000
  C   C207      1.0  0.12615  0.41413  0.27644  1.0000
  C   C208      1.0  0.11665  0.44000  0.30137  1.0000
  C   C209      1.0  0.11184  0.43775  0.25011  1.0000
  C   C210      1.0  0.11541  0.45590  0.24730  1.0000
  C   C211      1.0  0.10761  0.42859  0.22520  1.0000
  C   C212      1.0  0.11467  0.46422  0.22121  1.0000
  C   C213      1.0  0.10675  0.43710  0.19925  1.0000
  C   C214      1.0  0.11022  0.45491  0.19730  1.0000
  H   H221      1.0  0.09182  0.41040  0.26784  1.0000
  H   H222      1.0  0.09495  0.41439  0.30428  1.0000
  H   H223      1.0  0.08448  0.43095  0.28271  1.0000
  H   H224      1.0  0.13922  0.41939  0.27114  1.0000
  H   H225      1.0  0.10663  0.45088  0.30356  1.0000
  H   H226      1.0  0.11681  0.43270  0.32162  1.0000
  H   H227      1.0  0.12982  0.44575  0.29914  1.0000
  H   H228      1.0  0.11847  0.46413  0.26496  1.0000
  H   H229      1.0  0.10480  0.41478  0.22565  1.0000
  H   H230      1.0  0.11721  0.47813  0.21957  1.0000
  H   H231      1.0  0.10327  0.42991  0.18055  1.0000
  H   H232      1.0  0.10934  0.46159  0.17727  1.0000
  Fe  Fe32      1.0  0.21920  0.33784  0.45619  1.0000
  C   C215      1.0  0.18005  0.62199  0.10114  1.0000
  S   S63       1.0  0.24180  0.64010  0.18872  1.0000
  C   C216      1.0  0.06650  0.37294  0.44989  1.0000
  H   H233      1.0  0.18433  0.61783  0.07984  1.0000
  N   N14       1.0  0.07092  0.39023  0.43805  1.0000
  H   H234      1.0  0.18751  0.37159  0.40184  1.0000
  H   H235      1.0  0.00832  0.46536  0.30558  1.0000
  C   C217      1.0  0.23881  0.64503  0.34407  1.0000
  H   H236      1.0  0.13580  0.39610  0.47380  1.0000
  C   C218      1.0  0.22500  0.38913  0.38497  1.0000
  H   H237      1.0  0.05541  0.42242  0.45689  1.0000
  C   C219      1.0  0.21930  0.34017  0.11736  1.0000
  C   C220      1.0  0.02483  0.55068  0.19796  1.0000
  N   N15       1.0  0.20114  0.39277  0.42110  1.0000
  H   H238      1.0  0.23186  0.37963  0.39808  1.0000
  H   H239      1.0  0.21632  0.64429  0.14492  1.0000
  H   H240      1.0  0.20995  0.33902  0.33732  1.0000
  H   H241      1.0  0.04360  0.39895  0.43584  1.0000
  H   H242      1.0  0.10266  0.43324  0.00290  1.0000
  H   H243      1.0  0.18773  0.63363  0.10702  1.0000
  H   H244      1.0  0.04075  0.53486  0.98606  1.0000
  H   H245      1.0  0.17291  0.61190  0.98538  1.0000
  C   C221      1.0  0.02436  0.47353  0.47416  1.0000
  H   H246      1.0  0.17325  0.60246  0.46703  1.0000
  H   H247      1.0  0.17812  0.58715  0.09204  1.0000
  C   C222      1.0  0.20092  0.40970  0.37501  1.0000
  H   H248      1.0  0.21273  0.63973  0.35917  1.0000
  N   N16       1.0  0.02859  0.51641  0.01377  1.0000
  H   H249      1.0  0.23385  0.59942  0.17538  1.0000
  C   C223      1.0  0.99911  0.55874  0.12074  1.0000
  H   H250      1.0  0.01774  0.53878  0.03653  1.0000
  H   H251      1.0  0.03347  0.50870  0.17736  1.0000
  H   H252      1.0  0.03197  0.52874  0.15698  1.0000
  C   C224      1.0  0.24384  0.63846  0.15186  1.0000
  C   C225      1.0  0.20958  0.60297  0.15251  1.0000
  C   C226      1.0  0.15081  0.40873  0.98680  1.0000
  H   H253      1.0  0.22953  0.40682  0.32016  1.0000
  H   H254      1.0  0.15860  0.59508  0.10922  1.0000
  C   C227      1.0  0.18508  0.40343  0.42831  1.0000
  H   H255      1.0  0.20791  0.36511  0.41802  1.0000
  S   S64       1.0  0.23052  0.65835  0.99176  1.0000
  H   H256      1.0  0.20614  0.59775  0.08157  1.0000
  H   H257      1.0  0.00170  0.49339  0.01712  1.0000
  C   C228      1.0  0.06706  0.41789  0.46798  1.0000
  C   C229      1.0  0.04378  0.52691  0.00508  1.0000
  H   H258      1.0  0.04890  0.52578  0.18204  1.0000
  C   C230      1.0  0.16528  0.59168  0.47380  1.0000
  H   H259      1.0  0.03880  0.55456  0.19940  1.0000
  C   C231      1.0  0.02999  0.52528  0.22745  1.0000
  H   H260      1.0  0.17962  0.39960  0.44904  1.0000
  H   H261      1.0  0.05552  0.49868  0.44530  1.0000
  H   H262      1.0  0.12361  0.41233  0.99413  1.0000
  C   C232      1.0  0.22243  0.34115  0.34738  1.0000
  S   S65       1.0  0.20805  0.62311  0.00250  1.0000
  C   C233      1.0  0.00881  0.49262  0.99752  1.0000
  H   H263      1.0  0.23875  0.37376  0.14066  1.0000
  Fe  Fe33      1.0  0.18160  0.34469  0.47469  1.0000
  H   H264      1.0  0.12274  0.45788  0.01034  1.0000
  C   C234      1.0  0.19624  0.37412  0.42000  1.0000
  H   H265      1.0  0.09346  0.52059  0.46953  1.0000
  C   C235      1.0  0.00564  0.47799  0.26546  1.0000
  H   H266      1.0  0.21189  0.33888  0.38905  1.0000
  H   H267      1.0  0.20801  0.39256  0.46504  1.0000
  C   C236      1.0  0.01386  0.53355  0.09949  1.0000
  S   S66       1.0  0.18575  0.66219  0.47774  1.0000
  H   H268      1.0  0.20194  0.42233  0.33464  1.0000
  C   C237      1.0  0.11780  0.59476  0.99904  1.0000
  C   C238      1.0  0.22954  0.59396  0.10523  1.0000
  H   H269      1.0  0.09720  0.38078  0.42679  1.0000
  S   S67       1.0  0.24096  0.34636  0.42708  1.0000
  H   H270      1.0  0.05156  0.38803  0.40507  1.0000
  C   C239      1.0  0.22749  0.59864  0.15507  1.0000
  H   H271      1.0  0.21920  0.40845  0.44422  1.0000
  C   C240      1.0  0.23223  0.39246  0.35869  1.0000
  H   H272      1.0  0.18925  0.37016  0.43930  1.0000
  C   C241      1.0  0.09119  0.49267  0.46419  1.0000
  S   S68       1.0  0.15854  0.36524  0.47157  1.0000
  Fe  Fe34      1.0  0.20999  0.64571  0.46692  1.0000
  H   H273      1.0  0.20285  0.60665  0.17163  1.0000
  C   C242      1.0  0.20837  0.41307  0.34881  1.0000
  H   H274      1.0  0.20645  0.34563  0.12274  1.0000
  H   H275      1.0  0.04266  0.49530  0.03464  1.0000
  C   C243      1.0  0.03368  0.50667  0.03958  1.0000
  H   H276      1.0  0.01967  0.55578  0.17756  1.0000
  S   S69       1.0  0.24719  0.63122  0.05637  1.0000
  H   H277      1.0  0.18873  0.41666  0.37982  1.0000
  H   H278      1.0  0.23522  0.64414  0.32221  1.0000
  H   H279      1.0  0.17418  0.58113  0.12764  1.0000
  C   C244      1.0  0.05538  0.39708  0.42220  1.0000
  H   H280      1.0  0.12579  0.54148  0.46146  1.0000
  H   H281      1.0  0.16605  0.62645  0.09877  1.0000
  C   C245      1.0  0.22301  0.33594  0.08914  1.0000
  H   H282      1.0  0.23745  0.59105  0.08681  1.0000
  H   H283      1.0  0.10727  0.59999  0.01221  1.0000
  H   H284      1.0  0.15129  0.39583  0.99645  1.0000
  S   S70       1.0  0.23535  0.34393  0.29397  1.0000
  H   H285      1.0  0.05592  0.37443  0.46592  1.0000
  H   H286      1.0  0.04770  0.53626  0.02176  1.0000
  C   C246      1.0  0.09163  0.50820  0.48004  1.0000
  H   H287      1.0  0.18612  0.57227  0.46944  1.0000
  H   H288      1.0  0.00943  0.53632  0.00147  1.0000
  C   C247      1.0  0.11956  0.46166  0.98836  1.0000
  C   C248      1.0  0.08840  0.47677  0.47789  1.0000
  C   C249      1.0  0.24766  0.64722  0.40110  1.0000
  H   H289      1.0  0.05556  0.51833  0.00081  1.0000
  H   H290      1.0  0.10740  0.47006  0.98894  1.0000
  C   C250      1.0  0.12837  0.60616  0.98406  1.0000
  C   C251      1.0  0.99951  0.46867  0.28836  1.0000
  C   C252      1.0  0.17250  0.57468  0.47533  1.0000
  H   H291      1.0  0.99969  0.57125  0.13142  1.0000
  H   H292      1.0  0.14546  0.53021  0.47317  1.0000
  H   H293      1.0  0.24423  0.38553  0.35219  1.0000
  H   H294      1.0  0.99904  0.48961  0.22565  1.0000
  H   H295      1.0  0.24568  0.39543  0.10575  1.0000
  C   C253      1.0  0.13249  0.53567  0.48017  1.0000
  C   C254      1.0  0.13509  0.56990  0.98218  1.0000
  H   H296      1.0  0.24789  0.38612  0.16911  1.0000
  H   H297      1.0  0.13781  0.55583  0.98199  1.0000
  Fe  Fe35      1.0  0.08437  0.52750  0.64896  1.0000
  S   S71       1.0  0.07985  0.55572  0.63495  1.0000
  S   S72       1.0  0.08416  0.52372  0.69704  1.0000
  Fe  Fe36      1.0  0.08429  0.51494  0.58742  1.0000
  S   S73       1.0  0.07950  0.54194  0.56999  1.0000
  S   S74       1.0  0.08450  0.49070  0.55980  1.0000
  Fe  Fe37      1.0  0.10004  0.55049  0.60080  1.0000
  S   S75       1.0  0.12526  0.56508  0.58842  1.0000
  Fe  Fe38      1.0  0.05985  0.54472  0.60530  1.0000
  S   S76       1.0  0.03227  0.55623  0.59744  1.0000
  S   S77       1.0  0.10581  0.52285  0.61678  1.0000
  S   S78       1.0  0.06340  0.51715  0.62072  1.0000
  Fe  Fe39      1.0  0.18193  0.64357  0.51430  1.0000
  C   C255      1.0  0.22759  0.37685  0.87075  1.0000
  S   S79       1.0  0.15461  0.63342  0.52631  1.0000
  Fe  Fe40      1.0  0.21176  0.64250  0.96701  1.0000
  H   H298      1.0  0.15087  0.34016  0.93937  1.0000
  Fe  Fe41      1.0  0.22044  0.64391  0.52950  1.0000
  C   C256      1.0  0.23187  0.37230  0.89821  1.0000
  H   H299      1.0  0.20303  0.62738  0.58588  1.0000
  H   H300      1.0  0.21398  0.33480  0.89085  1.0000
  S   S80       1.0  0.20493  0.62608  0.50156  1.0000
  H   H301      1.0  0.21822  0.60967  0.59023  1.0000
  S   S81       1.0  0.16791  0.37326  0.94136  1.0000
  H   H302      1.0  0.01012  0.52690  0.67916  1.0000
  H   H303      1.0  0.00954  0.51983  0.55741  1.0000
  H   H304      1.0  0.14570  0.55016  0.54377  1.0000
  C   C257      1.0  0.08795  0.42424  0.50460  1.0000
  Fe  Fe42      1.0  0.07710  0.45985  0.83715  1.0000
  S   S82       1.0  0.06216  0.43602  0.85084  1.0000
  S   S83       1.0  0.08238  0.46221  0.78963  1.0000
  Fe  Fe43      1.0  0.07828  0.47341  0.89799  1.0000
  S   S84       1.0  0.06308  0.45108  0.91468  1.0000
  S   S85       1.0  0.08755  0.49501  0.92685  1.0000
  Fe  Fe44      1.0  0.08120  0.43411  0.88763  1.0000
  S   S86       1.0  0.09250  0.40921  0.91010  1.0000
  Fe  Fe45      1.0  0.04565  0.45494  0.87696  1.0000
  S   S87       1.0  0.01616  0.46226  0.87702  1.0000
  S   S88       1.0  0.09711  0.45657  0.87219  1.0000
  S   S89       1.0  0.05994  0.47862  0.86188  1.0000
  C   C258      1.0  0.14567  0.58115  0.96695  1.0000
  H   H305      1.0  0.15001  0.45401  0.95016  1.0000
  H   H306      1.0  0.19533  0.58129  0.61042  1.0000
  H   H307      1.0  0.00798  0.42572  0.89093  1.0000
  H   H308      1.0  0.12586  0.62196  0.61650  1.0000
  H   H309      1.0  0.14993  0.63496  0.97593  1.0000
  H   H310      1.0  0.03026  0.48660  0.81226  1.0000
  H   H311      1.0  0.13158  0.36702  0.96049  1.0000
  C   C259      1.0  0.14659  0.60366  0.62840  1.0000
  H   H312      1.0  0.03356  0.48728  0.92684  1.0000
  H   H313      1.0  0.10906  0.40519  0.51027  1.0000
  C   C260      1.0  0.07370  0.48117  0.97534  1.0000
  C   C261      1.0  0.13331  0.34991  0.89067  1.0000
  C   C262      1.0  0.03183  0.50151  0.96599  1.0000
  C   C263      1.0  0.14677  0.38330  0.93358  1.0000
  C   C264      1.0  0.14573  0.39765  0.91492  1.0000
  C   C265      1.0  0.12942  0.40597  0.90790  1.0000
  C   C266      1.0  0.11374  0.40000  0.91933  1.0000
  C   C267      1.0  0.11480  0.38585  0.93835  1.0000
  C   C268      1.0  0.13113  0.37765  0.94558  1.0000
  H   H314      1.0  0.15767  0.40234  0.90567  1.0000
  H   H315      1.0  0.12897  0.41676  0.89318  1.0000
  H   H316      1.0  0.10285  0.38108  0.94743  1.0000
  C   C269      1.0  0.22575  0.63955  0.86527  1.0000
  H   H317      1.0  0.18173  0.61810  0.95191  1.0000
  H   H318      1.0  0.14073  0.60735  0.91285  1.0000
  C   C270      1.0  0.24196  0.64827  0.65285  1.0000
  H   H319      1.0  0.00186  0.43156  0.82657  1.0000
  C   C271      1.0  0.22991  0.64045  0.89402  1.0000
  C   C272      1.0  0.02659  0.48891  0.94661  1.0000
  H   H320      1.0  0.06740  0.47175  0.96219  1.0000
  H   H321      1.0  0.19743  0.60596  0.57384  1.0000
  C   C273      1.0  0.10603  0.36396  0.87544  1.0000
  H   H322      1.0  0.13577  0.63294  0.94572  1.0000
  H   H323      1.0  0.16884  0.58738  0.63698  1.0000
  C   C274      1.0  0.03788  0.50656  0.68754  1.0000
  C   C275      1.0  0.11599  0.55423  0.51180  1.0000
  C   C276      1.0  0.24208  0.64049  0.59501  1.0000
  C   C277      1.0  0.08701  0.49188  0.52303  1.0000
  C   C278      1.0  0.08952  0.50782  0.50934  1.0000
  C   C279      1.0  0.11384  0.45174  0.94127  1.0000
  C   C280      1.0  0.08381  0.49421  0.96336  1.0000
  H   H324      1.0  0.20064  0.63464  0.63607  1.0000
  C   C281      1.0  0.08634  0.47641  0.50717  1.0000
  H   H325      1.0  0.08974  0.51979  0.52133  1.0000
  H   H326      1.0  0.15967  0.59304  0.91760  1.0000
  C   C282      1.0  0.16471  0.60004  0.62877  1.0000
  H   H327      1.0  0.08433  0.46409  0.51767  1.0000
  C   C283      1.0  0.08387  0.50632  0.72235  1.0000
  C   C284      1.0  0.08544  0.48855  0.71493  1.0000
  C   C285      1.0  0.08505  0.47536  0.73578  1.0000
  C   C286      1.0  0.08295  0.47963  0.76438  1.0000
  C   C287      1.0  0.08113  0.49740  0.77175  1.0000
  C   C288      1.0  0.08165  0.51059  0.75092  1.0000
  H   H328      1.0  0.08719  0.48494  0.69316  1.0000
  H   H329      1.0  0.08648  0.46170  0.72971  1.0000
  H   H330      1.0  0.07945  0.50099  0.79353  1.0000
  H   H331      1.0  0.08040  0.52425  0.75706  1.0000
  C   C289      1.0  0.13293  0.58403  0.57027  1.0000
  C   C290      1.0  0.15109  0.58532  0.56505  1.0000
  C   C291      1.0  0.15792  0.60012  0.55141  1.0000
  C   C292      1.0  0.14673  0.61407  0.54299  1.0000
  C   C293      1.0  0.12854  0.61264  0.54774  1.0000
  C   C294      1.0  0.12167  0.59775  0.56114  1.0000
  H   H332      1.0  0.15999  0.57484  0.57185  1.0000
  H   H333      1.0  0.17182  0.60075  0.54736  1.0000
  H   H334      1.0  0.11968  0.62324  0.54119  1.0000
  H   H335      1.0  0.10770  0.59707  0.56486  1.0000
  C   C295      1.0  0.01249  0.54531  0.60475  1.0000
  C   C296      1.0  0.01263  0.52834  0.61594  1.0000
  H   H336      1.0  0.21832  0.61890  0.64108  1.0000
  H   H337      1.0  0.02498  0.52162  0.62041  1.0000
  C   C297      1.0  0.14450  0.56371  0.49276  1.0000
  H   H338      1.0  0.03299  0.49906  0.57848  1.0000
  H   H339      1.0  0.21243  0.63692  0.85906  1.0000
  H   H340      1.0  0.16258  0.61546  0.90894  1.0000
  H   H341      1.0  0.13145  0.37443  0.86817  1.0000
  S   S90       1.0  0.18810  0.65923  0.97975  1.0000
  C   C298      1.0  0.02964  0.49244  0.79153  1.0000
  H   H342      1.0  0.04580  0.47204  0.77276  1.0000
  N   N17       1.0  0.11746  0.44595  0.97045  1.0000
  H   H343      1.0  0.15829  0.63860  0.94170  1.0000
  N   N18       1.0  0.02879  0.51699  0.70985  1.0000
  H   H344      1.0  0.08249  0.35097  0.88665  1.0000
  C   C299      1.0  0.16546  0.43145  0.96165  1.0000
  H   H345      1.0  0.12361  0.46095  0.93314  1.0000
  C   C300      1.0  0.09728  0.40869  0.49849  1.0000
  C   C301      1.0  0.16952  0.62851  0.60803  1.0000
  H   H346      1.0  0.03051  0.54346  0.72609  1.0000
  C   C302      1.0  0.00377  0.47999  0.97805  1.0000
  H   H347      1.0  0.17777  0.63865  0.60008  1.0000
  H   H348      1.0  0.09248  0.43280  0.52108  1.0000
  H   H349      1.0  0.17810  0.59557  0.95938  1.0000
  H   H350      1.0  0.21923  0.65778  0.59286  1.0000
  C   C303      1.0  0.17256  0.60910  0.96250  1.0000
  H   H351      1.0  0.09907  0.37501  0.86570  1.0000
  S   S91       1.0  0.22748  0.66162  0.49403  1.0000
  H   H352      1.0  0.04699  0.48651  0.55514  1.0000
  H   H353      1.0  0.15642  0.57523  0.95515  1.0000
  H   H354      1.0  0.03951  0.54039  0.69174  1.0000
  C   C304      1.0  0.24077  0.37828  0.85051  1.0000
  C   C305      1.0  0.22926  0.65203  0.60623  1.0000
  C   C306      1.0  0.14296  0.54035  0.52718  1.0000
  C   C307      1.0  0.20131  0.59059  0.62542  1.0000
  C   C308      1.0  0.03829  0.48420  0.76920  1.0000
  H   H355      1.0  0.22157  0.37065  0.91360  1.0000
  C   C309      1.0  0.15138  0.63191  0.60753  1.0000
  C   C310      1.0  0.03360  0.49272  0.55745  1.0000
  C   C311      1.0  0.22921  0.65588  0.63504  1.0000
  H   H356      1.0  0.21584  0.58839  0.62431  1.0000
  H   H357      1.0  0.19852  0.61765  0.66147  1.0000
  S   S92       1.0  0.19738  0.66064  0.54368  1.0000
  C   C312      1.0  0.01164  0.51253  0.53738  1.0000
  C   C313      1.0  0.03235  0.49684  0.50708  1.0000
  H   H358      1.0  0.03183  0.49359  0.68446  1.0000
  C   C314      1.0  0.12428  0.36361  0.87683  1.0000
  H   H359      1.0  0.12424  0.58486  0.49685  1.0000
  C   C315      1.0  0.14927  0.63024  0.95387  1.0000
  H   H360      1.0  0.11353  0.44027  0.92680  1.0000
  H   H361      1.0  0.03982  0.52665  0.56008  1.0000
  H   H362      1.0  0.13476  0.53016  0.53697  1.0000
  C   C316      1.0  0.13994  0.61950  0.61765  1.0000
  H   H363      1.0  0.05209  0.50441  0.69227  1.0000
  H   H364      1.0  0.10094  0.45894  0.93948  1.0000
  C   C317      1.0  0.20390  0.61318  0.59104  1.0000
  C   C318      1.0  0.20373  0.62052  0.64023  1.0000
  H   H365      1.0  0.05586  0.51605  0.53812  1.0000
  H   H366      1.0  0.04301  0.50907  0.96006  1.0000
  C   C319      1.0  0.03801  0.49185  0.74256  1.0000
  H   H367      1.0  0.02404  0.48202  0.55784  1.0000
  S   S93       1.0  0.20938  0.35248  0.98063  1.0000
  S   S94       1.0  0.24157  0.63385  0.55950  1.0000
  C   C320      1.0  0.16230  0.56086  0.48457  1.0000
  S   S95       1.0  0.23982  0.65128  0.68936  1.0000
  N   N19       1.0  0.19605  0.60906  0.61869  1.0000
  H   H368      1.0  0.06572  0.44102  0.49403  1.0000
  N   N20       1.0  0.02999  0.50557  0.53467  1.0000
  H   H369      1.0  0.13114  0.33542  0.95790  1.0000
  H   H370      1.0  0.03936  0.53115  0.52354  1.0000
  C   C321      1.0  0.02882  0.50809  0.73746  1.0000
  Fe  Fe46      1.0  0.18170  0.34964  0.96403  1.0000
  C   C322      1.0  0.03778  0.53391  0.71246  1.0000
  H   H371      1.0  0.01708  0.45301  0.79747  1.0000
  C   C323      1.0  0.22658  0.33400  0.85032  1.0000
  H   H372      1.0  0.13758  0.59385  0.63555  1.0000
  C   C324      1.0  0.02004  0.51608  0.76069  1.0000
  H   H373      1.0  0.09968  0.42454  0.96779  1.0000
  H   H374      1.0  0.21518  0.33941  0.83945  1.0000
  H   H375      1.0  0.03736  0.51346  0.66703  1.0000
  C   C325      1.0  0.07287  0.42880  0.48943  1.0000
  H   H376      1.0  0.00883  0.46832  0.93754  1.0000
  H   H377      1.0  0.19752  0.58699  0.64714  1.0000
  C   C326      1.0  0.02044  0.50831  0.78725  1.0000
  H   H378      1.0  0.05114  0.53188  0.72165  1.0000
  C   C327      1.0  0.04437  0.50267  0.48650  1.0000
  H   H379      1.0  0.11619  0.56401  0.52911  1.0000
  H   H380      1.0  0.01314  0.52862  0.75860  1.0000
  C   C328      1.0  0.15431  0.60656  0.92150  1.0000
  C   C329      1.0  0.17676  0.61231  0.61818  1.0000
  H   H381      1.0  0.23642  0.38124  0.82948  1.0000
  S   S96       1.0  0.21295  0.63734  0.91946  1.0000
  S   S97       1.0  0.24267  0.33494  0.79895  1.0000
  H   H382      1.0  0.01283  0.47696  0.51445  1.0000
  H   H383      1.0  0.04560  0.48500  0.72659  1.0000
  C   C330      1.0  0.01048  0.52057  0.70022  1.0000
  C   C331      1.0  0.14267  0.59966  0.96744  1.0000
  H   H384      1.0  0.21390  0.37876  0.86492  1.0000
  N   N21       1.0  0.15438  0.61129  0.95167  1.0000
  C   C332      1.0  0.24727  0.64383  0.90151  1.0000
  C   C333      1.0  0.01263  0.47817  0.95261  1.0000
  H   H385      1.0  0.10870  0.54294  0.52007  1.0000
  C   C334      1.0  0.09672  0.35043  0.88746  1.0000
  H   H386      1.0  0.23514  0.64121  0.82244  1.0000
  H   H387      1.0  0.12480  0.52424  0.48711  1.0000
  H   H388      1.0  0.09938  0.51677  0.97182  1.0000
  H   H389      1.0  0.14740  0.35088  0.89255  1.0000
  H   H390      1.0  0.14614  0.64405  0.59852  1.0000
  C   C335      1.0  0.24783  0.33724  0.58617  1.0000
  C   C336      1.0  0.04181  0.52048  0.53909  1.0000
  C   C337      1.0  0.12428  0.33584  0.90304  1.0000
  N   N22       1.0  0.13407  0.54887  0.50283  1.0000
  H   H391      1.0  0.01389  0.51476  0.80479  1.0000
  H   H392      1.0  0.17729  0.43634  0.95224  1.0000
  C   C338      1.0  0.14970  0.44135  0.96025  1.0000
  C   C339      1.0  0.10563  0.33651  0.90104  1.0000
  C   C340      1.0  0.00287  0.45249  0.79668  1.0000
  H   H393      1.0  0.00310  0.50821  0.69867  1.0000
  H   H394      1.0  0.08950  0.44500  0.97805  1.0000
  C   C341      1.0  0.02233  0.48205  0.50001  1.0000
  H   H395      1.0  0.99995  0.47346  0.76687  1.0000
  S   S98       1.0  0.20739  0.35476  0.49070  1.0000
  C   C342      1.0  0.13387  0.43501  0.97162  1.0000
  H   H396      1.0  0.16849  0.54792  0.48538  1.0000
  C   C343      1.0  0.23864  0.64199  0.84436  1.0000
  H   H397      1.0  0.05264  0.51372  0.48984  1.0000
  C   C344      1.0  0.14781  0.59490  0.48126  1.0000
  H   H398      1.0  0.15565  0.53371  0.52149  1.0000
  C   C345      1.0  0.13751  0.58122  0.49072  1.0000
  H   H399      1.0  0.17810  0.40725  0.97534  1.0000
  H   H400      1.0  0.21897  0.66445  0.64367  1.0000
  H   H401      1.0  0.00191  0.50197  0.53713  1.0000
  H   H402      1.0  0.00825  0.52178  0.52002  1.0000
  H   H403      1.0  0.10810  0.55983  0.49415  1.0000
  C   C346      1.0  0.16600  0.41516  0.97487  1.0000
  H   H404      1.0  0.00301  0.52968  0.71431  1.0000
  C   C347      1.0  0.10172  0.43669  0.98031  1.0000
  H   H405      1.0  0.13016  0.47014  0.98068  1.0000
  C   C348      1.0  0.09156  0.50660  0.98091  1.0000
  Fe  Fe47      1.0  0.05479  0.95154  0.09265  1.0000
  S   S99       1.0  0.06560  0.97666  0.10903  1.0000
  S   S100      1.0  0.02590  0.95700  0.08263  1.0000
  Fe  Fe48      1.0  0.09196  0.93339  0.09089  1.0000
  S   S101      1.0  0.10461  0.95778  0.10708  1.0000
  S   S102      1.0  0.10787  0.90709  0.08766  1.0000
  Fe  Fe49      1.0  0.08220  0.96017  0.13823  1.0000
  S   S103      1.0  0.08457  0.96161  0.18649  1.0000
  Fe  Fe50      1.0  0.08661  0.97209  0.07651  1.0000
  C   C349      1.0  0.17498  0.91542  0.11949  1.0000
  S   S104      1.0  0.07026  0.93502  0.12358  1.0000
  S   S105      1.0  0.07514  0.94775  0.05864  1.0000
  H   H406      1.0  0.21280  0.76772  0.99872  1.0000
  H   H407      1.0  0.22637  0.86979  0.10736  1.0000
  C   C350      1.0  0.23118  0.70212  0.10451  1.0000
  Fe  Fe51      1.0  0.18353  0.84571  0.00276  1.0000
  Fe  Fe52      1.0  0.18998  0.80521  0.00034  1.0000
  S   S106      1.0  0.16720  0.87178  0.00702  1.0000
  H   H408      1.0  0.23986  0.68597  0.03935  1.0000
  H   H409      1.0  0.23478  0.69615  0.44047  1.0000
  C   C351      1.0  0.22633  0.70797  0.33528  1.0000
  Fe  Fe53      1.0  0.21882  0.82865  0.01971  1.0000
  C   C352      1.0  0.00449  0.96181  0.19095  1.0000
  Fe  Fe54      1.0  0.20321  0.82948  0.45776  1.0000
  S   S107      1.0  0.20844  0.82604  0.41031  1.0000
  S   S108      1.0  0.19122  0.82535  0.03517  1.0000
  S   S109      1.0  0.17598  0.77928  0.00470  1.0000
  C   C353      1.0  0.22495  0.83139  0.38534  1.0000
  C   C354      1.0  0.21689  0.70709  0.36038  1.0000
  H   H410      1.0  0.02704  0.94553  0.15216  1.0000
  C   C355      1.0  0.22296  0.82604  0.35725  1.0000
  H   H411      1.0  0.15589  0.84855  0.42647  1.0000
  H   H412      1.0  0.21161  0.81867  0.35143  1.0000
  H   H413      1.0  0.20812  0.87139  0.39454  1.0000
  C   C356      1.0  0.22676  0.83084  0.12927  1.0000
  C   C357      1.0  0.22680  0.82966  0.09982  1.0000
  H   H414      1.0  0.21475  0.82870  0.14071  1.0000
  H   H415      1.0  0.21492  0.82650  0.08879  1.0000
  C   C358      1.0  0.13124  0.96724  0.46260  1.0000
  C   C359      1.0  0.17378  0.86331  0.35049  1.0000
  H   H416      1.0  0.24084  0.74012  0.36816  1.0000
  H   H417      1.0  0.22524  0.67551  0.15932  1.0000
  H   H418      1.0  0.19973  0.71363  0.44044  1.0000
  H   H419      1.0  0.17467  0.86845  0.44786  1.0000
  C   C360      1.0  0.20127  0.86566  0.32548  1.0000
  H   H420      1.0  0.15845  0.91425  0.08305  1.0000
  H   H421      1.0  0.03855  0.99001  0.05478  1.0000
  H   H422      1.0  0.16264  0.74443  0.00914  1.0000
  H   H423      1.0  0.02281  0.96808  0.14166  1.0000
  C   C361      1.0  0.08925  0.97951  0.99782  1.0000
  N   N23       1.0  0.02884  0.99094  0.01222  1.0000
  H   H424      1.0  0.08815  0.96730  0.00906  1.0000
  H   H425      1.0  0.23354  0.82619  0.31505  1.0000
  C   C362      1.0  0.08183  0.97848  0.21264  1.0000
  C   C363      1.0  0.23806  0.76652  0.38388  1.0000
  H   H426      1.0  0.18893  0.88193  0.42831  1.0000
  C   C364      1.0  0.08400  0.97401  0.24113  1.0000
  H   H427      1.0  0.19040  0.68356  0.42304  1.0000
  H   H428      1.0  0.08729  0.96055  0.24672  1.0000
  C   C365      1.0  0.12414  0.89747  0.06456  1.0000
  C   C366      1.0  0.13089  0.88035  0.07013  1.0000
  C   C367      1.0  0.14388  0.87220  0.05279  1.0000
  C   C368      1.0  0.15034  0.88103  0.02942  1.0000
  C   C369      1.0  0.14372  0.89821  0.02401  1.0000
  C   C370      1.0  0.13074  0.90636  0.04136  1.0000
  H   H429      1.0  0.12589  0.87322  0.08785  1.0000
  H   H430      1.0  0.14877  0.85903  0.05741  1.0000
  H   H431      1.0  0.14862  0.90530  0.00618  1.0000
  H   H432      1.0  0.12581  0.91950  0.03668  1.0000
  C   C371      1.0  0.18328  0.86287  0.32539  1.0000
  C   C372      1.0  0.08211  0.98680  0.26260  1.0000
  H   H433      1.0  0.18907  0.69276  0.38871  1.0000
  H   H434      1.0  0.01876  0.92210  0.10548  1.0000
  H   H435      1.0  0.19374  0.91364  0.15304  1.0000
  H   H436      1.0  0.17841  0.89462  0.05715  1.0000
  H   H437      1.0  0.16419  0.89362  0.39901  1.0000
  H   H438      1.0  0.04384  0.96120  0.15488  1.0000
  S   S110      1.0  0.24245  0.83333  0.04763  1.0000
  C   C373      1.0  0.15816  0.88064  0.40224  1.0000
  H   H439      1.0  0.23465  0.88950  0.09129  1.0000
  C   C374      1.0  0.24340  0.70089  0.33362  1.0000
  H   H440      1.0  0.05095  0.97454  0.99851  1.0000
  C   C375      1.0  0.02947  0.95948  0.15754  1.0000
  C   C376      1.0  0.00643  0.92929  0.10249  1.0000
  C   C377      1.0  0.16306  0.84930  0.40616  1.0000
  H   H441      1.0  0.18925  0.86484  0.05832  1.0000
  C   C378      1.0  0.23541  0.83028  0.33651  1.0000
  S   S111      1.0  0.21421  0.70337  0.00186  1.0000
  H   H442      1.0  0.19305  0.85844  0.43026  1.0000
  S   S112      1.0  0.09351  0.99545  0.04960  1.0000
  H   H443      1.0  0.19885  0.85755  0.09081  1.0000
  H   H444      1.0  0.21480  0.68725  0.45253  1.0000
  C   C379      1.0  0.22769  0.87712  0.08732  1.0000
  H   H445      1.0  0.19832  0.72147  0.40533  1.0000
  H   H446      1.0  0.03139  0.95592  0.22824  1.0000
  H   H447      1.0  0.21846  0.72332  0.42474  1.0000
  H   H448      1.0  0.16597  0.92413  0.13083  1.0000
  H   H449      1.0  0.21902  0.90132  0.04674  1.0000
  N   N24       1.0  0.21040  0.88057  0.07356  1.0000
  C   C380      1.0  0.24191  0.69235  0.38239  1.0000
  C   C381      1.0  0.20979  0.86904  0.35060  1.0000
  H   H450      1.0  0.20353  0.71230  0.36044  1.0000
  N   N25       1.0  0.21359  0.69715  0.41031  1.0000
  H   H451      1.0  0.22812  0.69072  0.18744  1.0000
  C   C382      1.0  0.02823  0.98244  0.19181  1.0000
  C   C383      1.0  0.19822  0.68634  0.40391  1.0000
  H   H452      1.0  0.20204  0.88829  0.03172  1.0000
  C   C384      1.0  0.20047  0.86932  0.37585  1.0000
  C   C385      1.0  0.00635  0.94637  0.09176  1.0000
  H   H453      1.0  0.22778  0.67492  0.42829  1.0000
  C   C386      1.0  0.19856  0.89266  0.08957  1.0000
  C   C387      1.0  0.18235  0.89869  0.07783  1.0000
  C   C388      1.0  0.20182  0.86354  0.07016  1.0000
  N   N26       1.0  0.17181  0.86633  0.40293  1.0000
  C   C389      1.0  0.18212  0.86633  0.37658  1.0000
  C   C390      1.0  0.21392  0.88782  0.04529  1.0000
  C   C391      1.0  0.20226  0.89820  0.11737  1.0000
  H   H454      1.0  0.08719  0.96359  0.45983  1.0000
  H   H455      1.0  0.21404  0.89393  0.12835  1.0000
  H   H456      1.0  0.15988  0.86101  0.34938  1.0000
  H   H457      1.0  0.22215  0.71151  0.11421  1.0000
  H   H458      1.0  0.02993  0.96786  0.98617  1.0000
  H   H459      1.0  0.08396  0.98310  0.28429  1.0000
  N   N27       1.0  0.02358  0.96396  0.18642  1.0000
  H   H460      1.0  0.15060  0.88136  0.42227  1.0000
  Fe  Fe55      1.0  0.20688  0.67460  0.00574  1.0000
  C   C392      1.0  0.22431  0.69903  0.38464  1.0000
  C   C393      1.0  0.18265  0.86895  0.42834  1.0000
  H   H461      1.0  0.13069  0.99308  0.44450  1.0000
  S   S113      1.0  0.21814  0.80715  0.98703  1.0000
  C   C394      1.0  0.17673  0.74304  0.00660  1.0000
  C   C395      1.0  0.18672  0.75820  0.00392  1.0000
  C   C396      1.0  0.03373  0.95238  0.20594  1.0000
  C   C397      1.0  0.19063  0.90951  0.13193  1.0000
  H   H462      1.0  0.01110  0.97898  0.04134  1.0000
  C   C398      1.0  0.24217  0.83457  0.14406  1.0000
  H   H463      1.0  0.23661  0.86871  0.07405  1.0000
  H   H464      1.0  0.00262  0.98147  0.00686  1.0000
  H   H465      1.0  0.17699  0.71459  0.00835  1.0000
  H   H466      1.0  0.03024  0.93840  0.20311  1.0000
  C   C399      1.0  0.24376  0.69237  0.12063  1.0000
  C   C400      1.0  0.20725  0.71467  0.42045  1.0000
  H   H467      1.0  0.17673  0.86014  0.30579  1.0000
  H   H468      1.0  0.12853  0.96089  0.44279  1.0000
  H   H469      1.0  0.22022  0.70747  0.06353  1.0000
  H   H470      1.0  0.04817  0.95325  0.20251  1.0000
  C   C401      1.0  0.09214  0.99506  0.01253  1.0000
  N   N28       1.0  0.12179  0.91648  0.17717  1.0000
  C   C402      1.0  0.12474  0.93108  0.15742  1.0000
  C   C403      1.0  0.10465  0.90868  0.17047  1.0000
  C   C404      1.0  0.12033  0.92413  0.20577  1.0000
  C   C405      1.0  0.13622  0.90308  0.17415  1.0000
  C   C406      1.0  0.13864  0.89387  0.14850  1.0000
  C   C407      1.0  0.14853  0.89913  0.19587  1.0000
  C   C408      1.0  0.15227  0.88136  0.14486  1.0000
  C   C409      1.0  0.16218  0.88660  0.19198  1.0000
  C   C410      1.0  0.16402  0.87771  0.16657  1.0000
  H   H471      1.0  0.12421  0.92673  0.13516  1.0000
  H   H472      1.0  0.11453  0.94178  0.15991  1.0000
  H   H473      1.0  0.13772  0.93698  0.16095  1.0000
  H   H474      1.0  0.10369  0.90453  0.14819  1.0000
  H   H475      1.0  0.09349  0.91830  0.17377  1.0000
  H   H476      1.0  0.10234  0.89696  0.18369  1.0000
  H   H477      1.0  0.13224  0.93144  0.21152  1.0000
  H   H478      1.0  0.10912  0.93390  0.20736  1.0000
  H   H479      1.0  0.11797  0.91385  0.22174  1.0000
  H   H480      1.0  0.13004  0.89635  0.13090  1.0000
  H   H481      1.0  0.14790  0.90551  0.21605  1.0000
  H   H482      1.0  0.15375  0.87454  0.12496  1.0000
  H   H483      1.0  0.17140  0.88371  0.20880  1.0000
  H   H484      1.0  0.17460  0.86800  0.16366  1.0000
  C   C411      1.0  0.22990  0.69987  0.07551  1.0000
  S   S114      1.0  0.08849  0.99033  0.41798  1.0000
  H   H485      1.0  0.21042  0.85403  0.05843  1.0000
  C   C412      1.0  0.18484  0.72610  0.00617  1.0000
  H   H486      1.0  0.22023  0.71370  0.31677  1.0000
  C   C413      1.0  0.07753  0.99599  0.20600  1.0000
  C   C414      1.0  0.17078  0.90991  0.09258  1.0000
  H   H487      1.0  0.22378  0.87950  0.03361  1.0000
  H   H488      1.0  0.15325  0.84695  0.38951  1.0000
  C   C415      1.0  0.20306  0.72419  0.00306  1.0000
  H   H489      1.0  0.20874  0.86498  0.30614  1.0000
  C   C416      1.0  0.21302  0.73933  0.00023  1.0000
  C   C417      1.0  0.22329  0.68852  0.43376  1.0000
  H   H490      1.0  0.14843  0.87880  0.38524  1.0000
  H   H491      1.0  0.22387  0.87088  0.35062  1.0000
  C   C418      1.0  0.23968  0.84097  0.39242  1.0000
  S   S115      1.0  0.24118  0.83687  0.18099  1.0000
  H   H492      1.0  0.17285  0.83812  0.40559  1.0000
  H   H493      1.0  0.23647  0.72235  0.15155  1.0000
  H   H494      1.0  0.04241  0.98458  0.18751  1.0000
  H   H495      1.0  0.05073  0.99226  0.42845  1.0000
  S   S116      1.0  0.21142  0.84995  0.98875  1.0000
  N   N29       1.0  0.24460  0.69478  0.15138  1.0000
  H   H496      1.0  0.20250  0.67340  0.39486  1.0000
  H   H497      1.0  0.00460  0.97055  0.23454  1.0000
  C   C419      1.0  0.24097  0.68778  0.06178  1.0000
  C   C420      1.0  0.24218  0.83267  0.08479  1.0000
  H   H498      1.0  0.02042  0.99164  0.17824  1.0000
  H   H499      1.0  0.03643  0.96408  0.02202  1.0000
  C   C421      1.0  0.20493  0.75622  0.00068  1.0000
  H   H500      1.0  0.01008  0.98341  0.45709  1.0000
  C   C422      1.0  0.01086  0.98790  0.02290  1.0000
  H   H501      1.0  0.02605  0.98643  0.21396  1.0000
  C   C423      1.0  0.04355  0.99448  0.47207  1.0000
  H   H502      1.0  0.21642  0.69760  0.15662  1.0000
  C   C424      1.0  0.22783  0.68950  0.16417  1.0000
  C   C425      1.0  0.13246  0.98543  0.46350  1.0000
  C   C426      1.0  0.03687  0.97363  0.00434  1.0000
  C   C427      1.0  0.08882  0.99160  0.45498  1.0000
  C   C428      1.0  0.08816  0.97603  0.47060  1.0000
  S   S117      1.0  0.17485  0.82617  0.47018  1.0000
  H   H503      1.0  0.24148  0.84519  0.41385  1.0000
  C   C429      1.0  0.24752  0.71348  0.15824  1.0000
  H   H504      1.0  0.05103  0.98256  0.47665  1.0000
  H   H505      1.0  0.22927  0.76311  0.40075  1.0000
  H   H506      1.0  0.22713  0.73802  0.99789  1.0000
  C   C430      1.0  0.24455  0.75364  0.36550  1.0000
  H   H507      1.0  0.23768  0.79393  0.39481  1.0000
  C   C431      1.0  0.24287  0.78389  0.38057  1.0000
  Fe  Fe56      1.0  0.04967  0.95001  0.59116  1.0000
  S   S118      1.0  0.05887  0.97584  0.60737  1.0000
  S   S119      1.0  0.02120  0.95452  0.57698  1.0000
  Fe  Fe57      1.0  0.08734  0.93322  0.59567  1.0000
  S   S120      1.0  0.09822  0.95830  0.61307  1.0000
  S   S121      1.0  0.10699  0.90949  0.59245  1.0000
  Fe  Fe58      1.0  0.07388  0.96063  0.64022  1.0000
  S   S122      1.0  0.06843  0.96627  0.68712  1.0000
  Fe  Fe59      1.0  0.08199  0.97127  0.57888  1.0000
  H   H508      1.0  0.23145  0.69180  0.55718  1.0000
  S   S123      1.0  0.06380  0.93462  0.62512  1.0000
  S   S124      1.0  0.07214  0.94640  0.56049  1.0000
  H   H509      1.0  0.24610  0.76935  0.66535  1.0000
  H   H510      1.0  0.09345  0.99522  0.68793  1.0000
  H   H511      1.0  0.13082  0.94339  0.48551  1.0000
  Fe  Fe60      1.0  0.17809  0.84823  0.50129  1.0000
  C   C432      1.0  0.18315  0.76088  0.51027  1.0000
  S   S125      1.0  0.15713  0.87097  0.50044  1.0000
  H   H512      1.0  0.19735  0.70801  0.94429  1.0000
  C   C433      1.0  0.04287  0.98174  0.52824  1.0000
  H   H513      1.0  0.11793  0.93966  0.56368  1.0000
  Fe  Fe61      1.0  0.21358  0.83241  0.51980  1.0000
  H   H514      1.0  0.08938  0.98914  0.85768  1.0000
  Fe  Fe62      1.0  0.20842  0.82818  0.95713  1.0000
  S   S126      1.0  0.21233  0.82765  0.90908  1.0000
  S   S127      1.0  0.18610  0.82947  0.53593  1.0000
  H   H515      1.0  0.03650  0.94892  0.69914  1.0000
  C   C434      1.0  0.22869  0.83165  0.88313  1.0000
  H   H516      1.0  0.20690  0.75464  0.59521  1.0000
  C   C435      1.0  0.18203  0.72883  0.51458  1.0000
  C   C436      1.0  0.22426  0.82984  0.85461  1.0000
  S   S128      1.0  0.21292  0.80970  0.48959  1.0000
  H   H517      1.0  0.21115  0.82606  0.84904  1.0000
  C   C437      1.0  0.23648  0.77842  0.65607  1.0000
  C   C438      1.0  0.22489  0.85307  0.62305  1.0000
  C   C439      1.0  0.22424  0.84835  0.59454  1.0000
  H   H518      1.0  0.21587  0.86314  0.63107  1.0000
  H   H519      1.0  0.21488  0.85487  0.58068  1.0000
  S   S129      1.0  0.09098  0.99355  0.55127  1.0000
  C   C440      1.0  0.23741  0.78600  0.87608  1.0000
  C   C441      1.0  0.13644  0.98408  0.51380  1.0000
  H   H520      1.0  0.18291  0.77696  0.61090  1.0000
  H   H521      1.0  0.20783  0.77053  0.49596  1.0000
  N   N30       1.0  0.20736  0.78281  0.59077  1.0000
  N   N31       1.0  0.17748  0.86844  0.90320  1.0000
  C   C442      1.0  0.20868  0.74219  0.49904  1.0000
  H   H522      1.0  0.01606  0.99385  0.55601  1.0000
  H   H523      1.0  0.01680  0.94414  0.64720  1.0000
  H   H524      1.0  0.13774  0.99154  0.53288  1.0000
  H   H525      1.0  0.08804  0.96433  0.51161  1.0000
  C   C443      1.0  0.22537  0.68722  0.93435  1.0000
  S   S130      1.0  0.23767  0.83127  0.54766  1.0000
  H   H526      1.0  0.15732  0.88356  0.88118  1.0000
  C   C444      1.0  0.07407  0.98240  0.71272  1.0000
  H   H527      1.0  0.08281  0.93452  0.76571  1.0000
  C   C445      1.0  0.23656  0.83307  0.83316  1.0000
  H   H528      1.0  0.23972  0.77644  0.91829  1.0000
  H   H529      1.0  0.21019  0.80918  0.57519  1.0000
  C   C446      1.0  0.01959  0.95782  0.65362  1.0000
  C   C447      1.0  0.12068  0.89887  0.56636  1.0000
  C   C448      1.0  0.13399  0.88674  0.57490  1.0000
  C   C449      1.0  0.14513  0.87799  0.55521  1.0000
  C   C450      1.0  0.14319  0.88126  0.52649  1.0000
  C   C451      1.0  0.12986  0.89338  0.51793  1.0000
  C   C452      1.0  0.11861  0.90198  0.53760  1.0000
  H   H530      1.0  0.13569  0.88402  0.59699  1.0000
  H   H531      1.0  0.15523  0.86874  0.56232  1.0000
  H   H532      1.0  0.20366  0.81246  0.62359  1.0000
  H   H533      1.0  0.10804  0.91062  0.53044  1.0000
  C   C453      1.0  0.13262  0.95736  0.48722  1.0000
  H   H534      1.0  0.15413  0.88222  0.91820  1.0000
  H   H535      1.0  0.21628  0.68269  0.95087  1.0000
  H   H536      1.0  0.01304  0.92070  0.60301  1.0000
  C   C454      1.0  0.18438  0.86794  0.93229  1.0000
  H   H537      1.0  0.19065  0.88041  0.93817  1.0000
  H   H538      1.0  0.17378  0.86590  0.94795  1.0000
  H   H539      1.0  0.19408  0.85687  0.93504  1.0000
  H   H540      1.0  0.17345  0.86950  0.84602  1.0000
  C   C455      1.0  0.13543  0.96546  0.51361  1.0000
  C   C456      1.0  0.22016  0.80601  0.65816  1.0000
  C   C457      1.0  0.10457  0.96697  0.80030  1.0000
  H   H541      1.0  0.11306  0.94070  0.52702  1.0000
  N   N32       1.0  0.21585  0.69807  0.91320  1.0000
  H   H542      1.0  0.15438  0.97061  0.56172  1.0000
  C   C458      1.0  0.21718  0.87468  0.83949  1.0000
  C   C459      1.0  0.16848  0.85170  0.89827  1.0000
  H   H543      1.0  0.23282  0.83182  0.81142  1.0000
  C   C460      1.0  0.18684  0.87098  0.85281  1.0000
  H   H544      1.0  0.20765  0.67472  0.89136  1.0000
  C   C461      1.0  0.19964  0.87286  0.83209  1.0000
  C   C462      1.0  0.11105  0.96107  0.84949  1.0000
  C   C463      1.0  0.20930  0.87277  0.88853  1.0000
  C   C464      1.0  0.08878  0.98274  0.83675  1.0000
  H   H545      1.0  0.10864  0.95945  0.54872  1.0000
  C   C465      1.0  0.24567  0.83673  0.88988  1.0000
  S   S131      1.0  0.23856  0.85210  0.67633  1.0000
  H   H546      1.0  0.12122  0.98527  0.77756  1.0000
  C   C466      1.0  0.19950  0.72702  0.50572  1.0000
  C   C467      1.0  0.22838  0.70382  0.89158  1.0000
  C   C468      1.0  0.24389  0.72666  0.86596  1.0000
  C   C469      1.0  0.23226  0.79409  0.66992  1.0000
  H   H547      1.0  0.23575  0.69477  0.94497  1.0000
  H   H548      1.0  0.23567  0.67732  0.87738  1.0000
  H   H549      1.0  0.10084  0.95111  0.85207  1.0000
  C   C470      1.0  0.23196  0.72179  0.88668  1.0000
  H   H550      1.0  0.11280  0.96684  0.87079  1.0000
  S   S132      1.0  0.17993  0.82530  0.96907  1.0000
  Fe  Fe63      1.0  0.20320  0.67754  0.50616  1.0000
  H   H551      1.0  0.17811  0.84038  0.89780  1.0000
  H   H552      1.0  0.22718  0.87567  0.82342  1.0000
  H   H553      1.0  0.03304  0.98121  0.68631  1.0000
  C   C471      1.0  0.19128  0.87073  0.88171  1.0000
  S   S133      1.0  0.20606  0.85263  0.48696  1.0000
  C   C472      1.0  0.24022  0.69294  0.57500  1.0000
  Fe  Fe64      1.0  0.18507  0.80783  0.50370  1.0000
  H   H554      1.0  0.15880  0.84896  0.91510  1.0000
  H   H555      1.0  0.17076  0.89603  0.90431  1.0000
  C   C473      1.0  0.23643  0.70512  0.59610  1.0000
  C   C474      1.0  0.10044  0.95215  0.74615  1.0000
  C   C475      1.0  0.06578  0.98221  0.73915  1.0000
  N   N33       1.0  0.01310  0.96177  0.68239  1.0000
  H   H556      1.0  0.23571  0.87568  0.87322  1.0000
  H   H557      1.0  0.19603  0.87265  0.81013  1.0000
  C   C476      1.0  0.02193  0.94900  0.70161  1.0000
  N   N34       1.0  0.10602  0.97477  0.82863  1.0000
  H   H558      1.0  0.22575  0.73234  0.89858  1.0000
  C   C477      1.0  0.11813  0.94832  0.54495  1.0000
  H   H559      1.0  0.21616  0.72086  0.94027  1.0000
  H   H560      1.0  0.08580  0.96762  0.95721  1.0000
  H   H561      1.0  0.16119  0.85161  0.87816  1.0000
  C   C478      1.0  0.24614  0.77753  0.89810  1.0000
  C   C479      1.0  0.09352  0.95258  0.79563  1.0000
  C   C480      1.0  0.09028  0.99242  0.51418  1.0000
  H   H562      1.0  0.22516  0.76254  0.57469  1.0000
  H   H563      1.0  0.03410  0.95901  0.65204  1.0000
  H   H564      1.0  0.13150  0.97542  0.57023  1.0000
  H   H565      1.0  0.14392  0.92979  0.52081  1.0000
  H   H566      1.0  0.05592  0.97264  0.74322  1.0000
  H   H567      1.0  0.23858  0.79710  0.68965  1.0000
  H   H568      1.0  0.21412  0.87229  0.90979  1.0000
  C   C481      1.0  0.21352  0.79532  0.56948  1.0000
  C   C482      1.0  0.20216  0.68728  0.90013  1.0000
  H   H569      1.0  0.01922  0.95203  0.72397  1.0000
  H   H570      1.0  0.08442  0.99296  0.82141  1.0000
  C   C483      1.0  0.17395  0.74571  0.51698  1.0000
  C   C484      1.0  0.08876  0.97643  0.50003  1.0000
  S   S134      1.0  0.08727  0.99511  0.91641  1.0000
  C   C485      1.0  0.23758  0.69121  0.87474  1.0000
  H   H571      1.0  0.04270  0.97831  0.55083  1.0000
  H   H572      1.0  0.19901  0.72148  0.91381  1.0000
  C   C486      1.0  0.22852  0.77452  0.63044  1.0000
  C   C487      1.0  0.16435  0.88320  0.90157  1.0000
  H   H573      1.0  0.14220  0.95620  0.58368  1.0000
  C   C488      1.0  0.22196  0.87474  0.86762  1.0000
  H   H574      1.0  0.11764  0.97205  0.73193  1.0000
  H   H575      1.0  0.23248  0.76222  0.62078  1.0000
  H   H576      1.0  0.01622  0.98311  0.71194  1.0000
  C   C489      1.0  0.00131  0.94462  0.58657  1.0000
  C   C490      1.0  0.20674  0.71282  0.92831  1.0000
  C   C491      1.0  0.11924  0.98867  0.83045  1.0000
  C   C492      1.0  0.01866  0.97973  0.68963  1.0000
  H   H577      1.0  0.08595  0.94713  0.81247  1.0000
  S   S135      1.0  0.21078  0.70634  0.50321  1.0000
  H   H578      1.0  0.16048  0.74701  0.52411  1.0000
  H   H579      1.0  0.00821  0.99003  0.52125  1.0000
  H   H580      1.0  0.23169  0.67518  0.92524  1.0000
  H   H581      1.0  0.05693  0.98127  0.52242  1.0000
  H   H582      1.0  0.07830  0.97296  0.83796  1.0000
  C   C493      1.0  0.21235  0.80241  0.63235  1.0000
  H   H583      1.0  0.20371  0.76229  0.56022  1.0000
  C   C494      1.0  0.11129  0.96634  0.74994  1.0000
  H   H584      1.0  0.17480  0.71728  0.51984  1.0000
  H   H585      1.0  0.22806  0.79435  0.56691  1.0000
  C   C495      1.0  0.18798  0.78512  0.59356  1.0000
  H   H586      1.0  0.20748  0.79296  0.54860  1.0000
  C   C496      1.0  0.21602  0.78640  0.61791  1.0000
  C   C497      1.0  0.11328  0.97379  0.77649  1.0000
  H   H587      1.0  0.12800  0.89588  0.49583  1.0000
  S   S136      1.0  0.17275  0.78187  0.51497  1.0000
  H   H588      1.0  0.09847  0.94687  0.72530  1.0000
  H   H589      1.0  0.18103  0.78133  0.57400  1.0000
  H   H590      1.0  0.01761  0.93541  0.69740  1.0000
  H   H591      1.0  0.12055  0.99374  0.85224  1.0000
  H   H592      1.0  0.21721  0.81838  0.66876  1.0000
  N   N35       1.0  0.13591  0.95480  0.53957  1.0000
  C   C498      1.0  0.14831  0.93944  0.53658  1.0000
  C   C499      1.0  0.14130  0.96477  0.56478  1.0000
  H   H593      1.0  0.22425  0.79154  0.87938  1.0000
  H   H594      1.0  0.14955  0.93177  0.55642  1.0000
  H   H595      1.0  0.16164  0.94366  0.53050  1.0000
  H   H596      1.0  0.22461  0.71337  0.59459  1.0000
  H   H597      1.0  0.19536  0.69455  0.88286  1.0000
  H   H598      1.0  0.12357  0.95415  0.84345  1.0000
  H   H599      1.0  0.13248  0.98368  0.82383  1.0000
  H   H600      1.0  0.18374  0.79900  0.59747  1.0000
  C   C500      1.0  0.09156  0.94529  0.76894  1.0000
  H   H601      1.0  0.03599  0.97117  0.51694  1.0000
  C   C501      1.0  0.23628  0.83583  0.58382  1.0000
  C   C502      1.0  0.21103  0.76475  0.57997  1.0000
  H   H602      1.0  0.01369  0.96705  0.63789  1.0000
  C   C503      1.0  0.08947  0.99546  0.95335  1.0000
  H   H603      1.0  0.01167  0.98977  0.67646  1.0000
  C   C504      1.0  0.08689  0.99484  0.70800  1.0000
  C   C505      1.0  0.23736  0.84513  0.64104  1.0000
  C   C506      1.0  0.08801  0.97972  0.96838  1.0000
  H   H604      1.0  0.19207  0.68341  0.91566  1.0000
  C   C507      1.0  0.24833  0.82745  0.60199  1.0000
  C   C508      1.0  0.24575  0.78801  0.85021  1.0000
  C   C509      1.0  0.13505  0.99382  0.48902  1.0000
  C   C510      1.0  0.20056  0.75901  0.50113  1.0000
  C   C511      1.0  0.07031  0.99410  0.76060  1.0000
  H   H605      1.0  0.24396  0.71586  0.63533  1.0000
  H   H606      1.0  0.06383  0.99366  0.78071  1.0000
  C   C512      1.0  0.00089  0.92799  0.59893  1.0000
  H   H607      1.0  0.23828  0.79499  0.83431  1.0000
  H   H608      1.0  0.24635  0.74042  0.86246  1.0000
  H   H609      1.0  0.22222  0.74094  0.49224  1.0000
  C   C513      1.0  0.24763  0.70648  0.61921  1.0000
  Fe  Fe65      1.0  0.25890  0.15284  0.26932  1.0000
  S   S137      1.0  0.28393  0.16598  0.28163  1.0000
  H   H610      1.0  0.25454  0.19892  0.18092  1.0000
  Fe  Fe66      1.0  0.26972  0.14788  0.20738  1.0000
  S   S138      1.0  0.29567  0.15999  0.21643  1.0000
  S   S139      1.0  0.26638  0.13886  0.16143  1.0000
  Fe  Fe67      1.0  0.29708  0.14397  0.25632  1.0000
  S   S140      1.0  0.32369  0.12917  0.26389  1.0000
  Fe  Fe68      1.0  0.28054  0.18081  0.24077  1.0000
  S   S141      1.0  0.28205  0.20919  0.22492  1.0000
  S   S142      1.0  0.27204  0.13034  0.24559  1.0000
  H   H611      1.0  0.26154  0.14507  0.38998  1.0000
  H   H612      1.0  0.35484  0.32618  0.35344  1.0000
  C   C514      1.0  0.48805  0.03947  0.38263  1.0000
  Fe  Fe69      1.0  0.28660  0.31061  0.25493  1.0000
  S   S143      1.0  0.29631  0.28514  0.27560  1.0000
  S   S144      1.0  0.25917  0.31494  0.23891  1.0000
  Fe  Fe70      1.0  0.40193  0.02853  0.39540  1.0000
  S   S145      1.0  0.40508  0.05680  0.38158  1.0000
  S   S146      1.0  0.40899  0.01796  0.43964  1.0000
  Fe  Fe71      1.0  0.39728  0.01648  0.33413  1.0000
  S   S147      1.0  0.40003  0.04343  0.31622  1.0000
  C   C515      1.0  0.31814  0.08914  0.16842  1.0000
  Fe  Fe72      1.0  0.42243  0.04571  0.34699  1.0000
  S   S148      1.0  0.44861  0.05457  0.32919  1.0000
  Fe  Fe73      1.0  0.38236  0.05258  0.35160  1.0000
  S   S149      1.0  0.35729  0.07042  0.34725  1.0000
  C   C516      1.0  0.32943  0.06531  0.26507  1.0000
  S   S150      1.0  0.37821  0.02497  0.36791  1.0000
  H   H613      1.0  0.35199  0.30006  0.32843  1.0000
  S   S151      1.0  0.25457  0.16906  0.23038  1.0000
  C   C517      1.0  0.41061  0.01230  0.99725  1.0000
  C   C518      1.0  0.48190  0.09147  0.34930  1.0000
  H   H614      1.0  0.48272  0.00619  0.24455  1.0000
  H   H615      1.0  0.38407  0.01846  0.27117  1.0000
  C   C519      1.0  0.46943  0.04836  0.34343  1.0000
  C   C520      1.0  0.47122  0.04281  0.37120  1.0000
  H   H616      1.0  0.26653  0.13324  0.10169  1.0000
  H   H617      1.0  0.45966  0.04169  0.38419  1.0000
  H   H618      1.0  0.29362  0.18167  0.14477  1.0000
  C   C521      1.0  0.33277  0.11298  0.28763  1.0000
  C   C522      1.0  0.32358  0.10693  0.31094  1.0000
  C   C523      1.0  0.33133  0.09401  0.32881  1.0000
  C   C524      1.0  0.34836  0.08684  0.32377  1.0000
  C   C525      1.0  0.35753  0.09287  0.30041  1.0000
  C   C526      1.0  0.34981  0.10583  0.28259  1.0000
  H   H619      1.0  0.31052  0.11223  0.31528  1.0000
  H   H620      1.0  0.32405  0.08955  0.34677  1.0000
  H   H621      1.0  0.37061  0.08760  0.29612  1.0000
  H   H622      1.0  0.35712  0.11034  0.26472  1.0000
  C   C527      1.0  0.28520  0.23008  0.24052  1.0000
  C   C528      1.0  0.28143  0.24523  0.22448  1.0000
  C   C529      1.0  0.28445  0.26213  0.23515  1.0000
  C   C530      1.0  0.29160  0.26409  0.26188  1.0000
  C   C531      1.0  0.29523  0.24898  0.27810  1.0000
  C   C532      1.0  0.29193  0.23205  0.26758  1.0000
  H   H623      1.0  0.27625  0.24389  0.20352  1.0000
  H   H624      1.0  0.28158  0.27360  0.22241  1.0000
  H   H625      1.0  0.30076  0.25033  0.29883  1.0000
  H   H626      1.0  0.29498  0.22053  0.28011  1.0000
  N   N36       1.0  0.31971  0.09969  0.19437  1.0000
  H   H627      1.0  0.26987  0.22274  0.16012  1.0000
  C   C533      1.0  0.29310  0.13970  0.45601  1.0000
  H   H628      1.0  0.29909  0.09538  0.24307  1.0000
  H   H629      1.0  0.36035  0.30084  0.29330  1.0000
  H   H630      1.0  0.43829  0.03273  0.24544  1.0000
  C   C534      1.0  0.27824  0.21316  0.14815  1.0000
  H   H631      1.0  0.28249  0.21966  0.12854  1.0000
  H   H632      1.0  0.32414  0.31073  0.26772  1.0000
  C   C535      1.0  0.26274  0.18930  0.16868  1.0000
  H   H633      1.0  0.26252  0.14511  0.33793  1.0000
  H   H634      1.0  0.34750  0.07642  0.20320  1.0000
  C   C536      1.0  0.38349  0.99909  0.46848  1.0000
  H   H635      1.0  0.31537  0.09763  0.14985  1.0000
  H   H636      1.0  0.30167  0.11991  0.17841  1.0000
  H   H637      1.0  0.33705  0.11873  0.21135  1.0000
  C   C537      1.0  0.33369  0.32110  0.27258  1.0000
  H   H638      1.0  0.38127  0.01895  0.21934  1.0000
  H   H639      1.0  0.25537  0.27979  0.27550  1.0000
  S   S152      1.0  0.26599  0.32810  0.15777  1.0000
  H   H640      1.0  0.33921  0.29181  0.30022  1.0000
  C   C538      1.0  0.34121  0.06558  0.24279  1.0000
  H   H641      1.0  0.41295  0.02581  0.00273  1.0000
  C   C539      1.0  0.38654  0.00728  0.22964  1.0000
  H   H642      1.0  0.30723  0.07980  0.17026  1.0000
  N   N37       1.0  0.33985  0.32010  0.30208  1.0000
  H   H643      1.0  0.48341  0.05413  0.30541  1.0000
  H   H644      1.0  0.29004  0.21071  0.16160  1.0000
  H   H645      1.0  0.45897  0.00985  0.32741  1.0000
  C   C540      1.0  0.48318  0.00559  0.26715  1.0000
  H   H646      1.0  0.26107  0.26494  0.30304  1.0000
  H   H647      1.0  0.27383  0.18518  0.18254  1.0000
  H   H648      1.0  0.31982  0.13032  0.46109  1.0000
  C   C541      1.0  0.34824  0.30246  0.30624  1.0000
  C   C542      1.0  0.25244  0.32615  0.10402  1.0000
  H   H649      1.0  0.42283  0.01527  0.27870  1.0000
  C   C543      1.0  0.48464  0.04985  0.32692  1.0000
  H   H650      1.0  0.26532  0.32080  0.09856  1.0000
  C   C544      1.0  0.31417  0.07586  0.26432  1.0000
  H   H651      1.0  0.46128  0.02923  0.23879  1.0000
  H   H652      1.0  0.48928  0.03576  0.40442  1.0000
  H   H653      1.0  0.43674  0.02361  0.30484  1.0000
  H   H654      1.0  0.25479  0.17756  0.16503  1.0000
  H   H655      1.0  0.41045  0.00356  0.04050  1.0000
  H   H656      1.0  0.31391  0.31226  0.31425  1.0000
  H   H657      1.0  0.26933  0.29024  0.33300  1.0000
  C   C545      1.0  0.32410  0.32175  0.32033  1.0000
  C   C546      1.0  0.45111  0.02910  0.25547  1.0000
  C   C547      1.0  0.25857  0.29786  0.32232  1.0000
  C   C548      1.0  0.46771  0.00807  0.28351  1.0000
  H   H658      1.0  0.30421  0.11976  0.21545  1.0000
  H   H659      1.0  0.33254  0.12142  0.17472  1.0000
  H   H660      1.0  0.27663  0.17075  0.12699  1.0000
  C   C549      1.0  0.31076  0.08701  0.24156  1.0000
  H   H661      1.0  0.33034  0.08132  0.16369  1.0000
  C   C550      1.0  0.32263  0.08780  0.21862  1.0000
  C   C551      1.0  0.33479  0.11145  0.19147  1.0000
  C   C552      1.0  0.24962  0.14774  0.37822  1.0000
  C   C553      1.0  0.25045  0.14433  0.13486  1.0000
  H   H662      1.0  0.35320  0.05754  0.24372  1.0000
  S   S153      1.0  0.42066  0.01817  0.36236  1.0000
  H   H663      1.0  0.37454  0.00252  0.45166  1.0000
  H   H664      1.0  0.30532  0.07601  0.28212  1.0000
  H   H665      1.0  0.26422  0.30367  0.30309  1.0000
  H   H666      1.0  0.33238  0.05731  0.28337  1.0000
  C   C554      1.0  0.28232  0.18390  0.13024  1.0000
  C   C555      1.0  0.46979  0.00754  0.31313  1.0000
  H   H667      1.0  0.43433  0.00013  0.30128  1.0000
  C   C556      1.0  0.30355  0.11105  0.19680  1.0000
  C   C557      1.0  0.33786  0.07655  0.21980  1.0000
  H   H668      1.0  0.34724  0.10420  0.18628  1.0000
  C   C558      1.0  0.38814  0.00704  0.25903  1.0000
  H   H669      1.0  0.26662  0.14923  0.45635  1.0000
  H   H670      1.0  0.29305  0.13755  0.43352  1.0000
  H   H671      1.0  0.28774  0.18862  0.11007  1.0000
  H   H672      1.0  0.29149  0.10323  0.19821  1.0000
  H   H673      1.0  0.25464  0.30911  0.33598  1.0000
  H   H674      1.0  0.46776  0.09115  0.34655  1.0000
  N   N38       1.0  0.45055  0.01186  0.26977  1.0000
  H   H675      1.0  0.45413  0.03972  0.27070  1.0000
  C   C559      1.0  0.27801  0.14651  0.46931  1.0000
  H   H676      1.0  0.48109  0.08147  0.39122  1.0000
  H   H677      1.0  0.32712  0.31909  0.34269  1.0000
  C   C560      1.0  0.43554  0.01268  0.28963  1.0000
  H   H678      1.0  0.48663  0.10033  0.30746  1.0000
  S   S154      1.0  0.29871  0.32593  0.22002  1.0000
  H   H679      1.0  0.43344  0.00003  0.23935  1.0000
  C   C561      1.0  0.30815  0.13562  0.47151  1.0000
  C   C562      1.0  0.49258  0.09653  0.32725  1.0000
  C   C563      1.0  0.48945  0.08604  0.37452  1.0000
  C   C564      1.0  0.40076  0.00487  0.46769  1.0000
  C   C565      1.0  0.25417  0.13989  0.10674  1.0000
  C   C566      1.0  0.25022  0.14777  0.34873  1.0000
  H   H680      1.0  0.26087  0.18136  0.08979  1.0000
  N   N39       1.0  0.26910  0.19665  0.14200  1.0000
  H   H681      1.0  0.25045  0.17071  0.47624  1.0000
  H   H682      1.0  0.34472  0.31920  0.25748  1.0000
  C   C567      1.0  0.25009  0.27336  0.29456  1.0000
  C   C568      1.0  0.40922  0.99965  0.01883  1.0000
  C   C569      1.0  0.25392  0.20024  0.12326  1.0000
  C   C570      1.0  0.25167  0.19134  0.09735  1.0000
  C   C571      1.0  0.48633  0.00462  0.32535  1.0000
  H   H683      1.0  0.48770  0.00475  0.34797  1.0000
  C   C572      1.0  0.24874  0.33044  0.13222  1.0000
  Fe  Fe74      1.0  0.26238  0.14931  0.76714  1.0000
  S   S155      1.0  0.28788  0.16189  0.77755  1.0000
  H   H684      1.0  0.43293  0.08508  0.79440  1.0000
  Fe  Fe75      1.0  0.27073  0.14612  0.70360  1.0000
  S   S156      1.0  0.29714  0.15807  0.70985  1.0000
  C   C573      1.0  0.25416  0.15570  0.84477  1.0000
  Fe  Fe76      1.0  0.30015  0.14103  0.74894  1.0000
  S   S157      1.0  0.32340  0.12104  0.75564  1.0000
  Fe  Fe77      1.0  0.28290  0.17785  0.73801  1.0000
  S   S158      1.0  0.27833  0.20740  0.73085  1.0000
  S   S159      1.0  0.27462  0.12796  0.74051  1.0000
  C   C574      1.0  0.39609  0.00960  0.72364  1.0000
  H   H685      1.0  0.45660  0.06132  0.92427  1.0000
  C   C575      1.0  0.41199  0.00043  0.49026  1.0000
  Fe  Fe78      1.0  0.29730  0.30885  0.74993  1.0000
  S   S160      1.0  0.31185  0.28215  0.75222  1.0000
  S   S161      1.0  0.26926  0.31210  0.73576  1.0000
  Fe  Fe79      1.0  0.40675  0.02869  0.89476  1.0000
  S   S162      1.0  0.40831  0.05719  0.88233  1.0000
  C   C576      1.0  0.30346  0.23827  0.67674  1.0000
  Fe  Fe80      1.0  0.40428  0.01843  0.83258  1.0000
  S   S163      1.0  0.40603  0.04607  0.81640  1.0000
  H   H686      1.0  0.42398  0.03561  0.56022  1.0000
  Fe  Fe81      1.0  0.42730  0.04839  0.84891  1.0000
  S   S164      1.0  0.44973  0.06689  0.84181  1.0000
  Fe  Fe82      1.0  0.38681  0.05323  0.85073  1.0000
  S   S165      1.0  0.36568  0.07578  0.84937  1.0000
  H   H687      1.0  0.27600  0.13119  0.81003  1.0000
  S   S166      1.0  0.38365  0.02519  0.86552  1.0000
  C   C577      1.0  0.38765  0.11168  0.77603  1.0000
  C   C578      1.0  0.40865  0.00775  0.96878  1.0000
  C   C579      1.0  0.31243  0.09397  0.88777  1.0000
  H   H688      1.0  0.26645  0.14884  0.55506  1.0000
  H   H689      1.0  0.39100  0.02109  0.71267  1.0000
  H   H690      1.0  0.39303  0.02151  0.76463  1.0000
  C   C580      1.0  0.47302  0.06482  0.84013  1.0000
  C   C581      1.0  0.48277  0.04896  0.84358  1.0000
  C   C582      1.0  0.48198  0.08029  0.83549  1.0000
  H   H691      1.0  0.47601  0.03688  0.84702  1.0000
  H   H692      1.0  0.47468  0.09258  0.83280  1.0000
  C   C583      1.0  0.33455  0.10844  0.78242  1.0000
  C   C584      1.0  0.33559  0.11410  0.81029  1.0000
  C   C585      1.0  0.34536  0.10409  0.83020  1.0000
  C   C586      1.0  0.35434  0.08829  0.82273  1.0000
  C   C587      1.0  0.35346  0.08271  0.79483  1.0000
  C   C588      1.0  0.34366  0.09271  0.77492  1.0000
  H   H693      1.0  0.32925  0.12639  0.81646  1.0000
  H   H694      1.0  0.34592  0.10862  0.85165  1.0000
  H   H695      1.0  0.36014  0.07058  0.78863  1.0000
  H   H696      1.0  0.34317  0.08821  0.75343  1.0000
  C   C589      1.0  0.28765  0.22780  0.73981  1.0000
  C   C590      1.0  0.30510  0.22915  0.74853  1.0000
  C   C591      1.0  0.31225  0.24586  0.75268  1.0000
  C   C592      1.0  0.30198  0.26137  0.74872  1.0000
  C   C593      1.0  0.28439  0.25997  0.74086  1.0000
  C   C594      1.0  0.27736  0.24332  0.73612  1.0000
  H   H697      1.0  0.31322  0.21738  0.75130  1.0000
  H   H698      1.0  0.32587  0.24679  0.75879  1.0000
  H   H699      1.0  0.27627  0.27170  0.73810  1.0000
  H   H700      1.0  0.26387  0.24244  0.72934  1.0000
  C   C595      1.0  0.38828  0.14747  0.78835  1.0000
  C   C596      1.0  0.39728  0.00990  0.75310  1.0000
  H   H701      1.0  0.26518  0.11572  0.86322  1.0000
  S   S167      1.0  0.25646  0.16626  0.72984  1.0000
  H   H702      1.0  0.39451  0.08483  0.81398  1.0000
  H   H703      1.0  0.29707  0.28658  0.62049  1.0000
  H   H704      1.0  0.39610  0.10031  0.84194  1.0000
  H   H705      1.0  0.42424  0.04581  0.51211  1.0000
  C   C597      1.0  0.28697  0.26472  0.66109  1.0000
  H   H706      1.0  0.46476  0.01623  0.89580  1.0000
  H   H707      1.0  0.42196  0.01353  0.59390  1.0000
  C   C598      1.0  0.40084  0.13592  0.80026  1.0000
  C   C599      1.0  0.40089  0.11758  0.79440  1.0000
  C   C600      1.0  0.42269  0.09420  0.78531  1.0000
  H   H708      1.0  0.42924  0.10275  0.76987  1.0000
  C   C601      1.0  0.25517  0.17308  0.49794  1.0000
  H   H709      1.0  0.42146  0.12023  0.84290  1.0000
  C   C602      1.0  0.26653  0.28872  0.67236  1.0000
  H   H710      1.0  0.31568  0.09883  0.90842  1.0000
  H   H711      1.0  0.27407  0.17043  0.54568  1.0000
  H   H712      1.0  0.41765  0.03561  0.60725  1.0000
  H   H713      1.0  0.38829  0.16137  0.79332  1.0000
  H   H714      1.0  0.44558  0.03339  0.96291  1.0000
  C   C603      1.0  0.41203  0.04167  0.52134  1.0000
  H   H715      1.0  0.39734  0.04606  0.48336  1.0000
  H   H716      1.0  0.26756  0.31553  0.88964  1.0000
  H   H717      1.0  0.36520  0.11858  0.75021  1.0000
  C   C604      1.0  0.30157  0.25656  0.67505  1.0000
  H   H718      1.0  0.26085  0.09356  0.85272  1.0000
  H   H719      1.0  0.27366  0.28459  0.61785  1.0000
  H   H720      1.0  0.25317  0.26711  0.90425  1.0000
  H   H721      1.0  0.38686  0.04801  0.60724  1.0000
  H   H722      1.0  0.28246  0.30476  0.62936  1.0000
  N   N40       1.0  0.46529  0.03429  0.93044  1.0000
  C   C605      1.0  0.37552  0.14120  0.77033  1.0000
  H   H723      1.0  0.45706  0.04796  0.89288  1.0000
  C   C606      1.0  0.37530  0.12338  0.76402  1.0000
  H   H724      1.0  0.42535  0.00486  0.49007  1.0000
  H   H725      1.0  0.27295  0.08333  0.80440  1.0000
  H   H726      1.0  0.25546  0.28420  0.65938  1.0000
  H   H727      1.0  0.44008  0.04568  0.91817  1.0000
  S   S168      1.0  0.26039  0.13427  0.66253  1.0000
  C   C607      1.0  0.32171  0.07946  0.87691  1.0000
  S   S169      1.0  0.42713  0.02029  0.86268  1.0000
  S   S170      1.0  0.30723  0.33065  0.72250  1.0000
  H   H728      1.0  0.31140  0.26393  0.68587  1.0000
  N   N41       1.0  0.41355  0.10484  0.80733  1.0000
  H   H729      1.0  0.29734  0.29034  0.69844  1.0000
  N   N42       1.0  0.26133  0.15667  0.51217  1.0000
  H   H730      1.0  0.26515  0.15964  0.83217  1.0000
  H   H731      1.0  0.43507  0.12237  0.81186  1.0000
  S   S171      1.0  0.41084  0.02446  0.94252  1.0000
  C   C608      1.0  0.28430  0.29018  0.63065  1.0000
  C   C609      1.0  0.26353  0.16085  0.54237  1.0000
  H   H732      1.0  0.29257  0.11378  0.88112  1.0000
  N   N43       1.0  0.39501  0.02290  0.59027  1.0000
  C   C610      1.0  0.38852  0.00477  0.58996  1.0000
  H   H733      1.0  0.41020  0.14166  0.81424  1.0000
  H   H734      1.0  0.36954  0.03595  0.50341  1.0000
  H   H735      1.0  0.30300  0.07673  0.81316  1.0000
  C   C611      1.0  0.48446  0.03683  0.92798  1.0000
  H   H736      1.0  0.29473  0.30831  0.67471  1.0000
  C   C612      1.0  0.38271  0.03413  0.60706  1.0000
  C   C613      1.0  0.40390  0.09289  0.82582  1.0000
  C   C614      1.0  0.46006  0.03462  0.96038  1.0000
  C   C615      1.0  0.42727  0.11316  0.82453  1.0000
  C   C616      1.0  0.31785  0.07336  0.85018  1.0000
  H   H737      1.0  0.41298  0.08354  0.83697  1.0000
  C   C617      1.0  0.28633  0.12382  0.82200  1.0000
  H   H738      1.0  0.36562  0.15010  0.76144  1.0000
  C   C618      1.0  0.29924  0.10243  0.87194  1.0000
  C   C619      1.0  0.38065  0.03022  0.54408  1.0000
  H   H739      1.0  0.26517  0.28292  0.69361  1.0000
  C   C620      1.0  0.46081  0.01707  0.91825  1.0000
  C   C621      1.0  0.27477  0.25344  0.64843  1.0000
  H   H740      1.0  0.43678  0.10317  0.83333  1.0000
  C   C622      1.0  0.38120  0.03618  0.51642  1.0000
  C   C623      1.0  0.29733  0.29386  0.67583  1.0000
  C   C624      1.0  0.49166  0.05108  0.91308  1.0000
  C   C625      1.0  0.29492  0.09652  0.84464  1.0000
  H   H741      1.0  0.28885  0.13160  0.84122  1.0000
  H   H742      1.0  0.31077  0.29148  0.66726  1.0000
  N   N44       1.0  0.28091  0.10575  0.82834  1.0000
  H   H743      1.0  0.26854  0.31946  0.83806  1.0000
  N   N45       1.0  0.28397  0.28402  0.66010  1.0000
  H   H744      1.0  0.41364  0.08565  0.77368  1.0000
  H   H745      1.0  0.38646  0.09789  0.77128  1.0000
  C   C626      1.0  0.41223  0.02230  0.60496  1.0000
  H   H746      1.0  0.44640  0.01490  0.91933  1.0000
  H   H747      1.0  0.36823  0.02570  0.55174  1.0000
  H   H748      1.0  0.38207  0.02954  0.62923  1.0000
  S   S172      1.0  0.29430  0.32667  0.78760  1.0000
  C   C627      1.0  0.27696  0.09710  0.80124  1.0000
  H   H749      1.0  0.28846  0.09720  0.78675  1.0000
  H   H750      1.0  0.46373  0.04716  0.97051  1.0000
  H   H751      1.0  0.41111  0.01692  0.62660  1.0000
  H   H752      1.0  0.26515  0.16518  0.88341  1.0000
  C   C628      1.0  0.45439  0.04796  0.91579  1.0000
  C   C629      1.0  0.39685  0.04191  0.50509  1.0000
  C   C630      1.0  0.27667  0.23516  0.65062  1.0000
  C   C631      1.0  0.25411  0.15889  0.87382  1.0000
  H   H753      1.0  0.29850  0.12367  0.80906  1.0000
  H   H754      1.0  0.26600  0.10410  0.78998  1.0000
  H   H755      1.0  0.26582  0.18272  0.49676  1.0000
  C   C632      1.0  0.41167  0.03566  0.54903  1.0000
  H   H756      1.0  0.36907  0.03400  0.59880  1.0000
  H   H757      1.0  0.33228  0.07318  0.88883  1.0000
  H   H758      1.0  0.29202  0.21347  0.66767  1.0000
  H   H759      1.0  0.37488  0.00395  0.58193  1.0000
  H   H760      1.0  0.29396  0.14662  0.53637  1.0000
  H   H761      1.0  0.26447  0.30319  0.67443  1.0000
  C   C633      1.0  0.29310  0.14507  0.51394  1.0000
  C   C634      1.0  0.25606  0.32066  0.87872  1.0000
  H   H762      1.0  0.48359  0.06088  0.90241  1.0000
  C   C635      1.0  0.39590  0.02966  0.56123  1.0000
  H   H763      1.0  0.46727  0.00584  0.92939  1.0000
  C   C636      1.0  0.27757  0.14959  0.49864  1.0000
  C   C637      1.0  0.26437  0.10674  0.84490  1.0000
  H   H764      1.0  0.32560  0.06245  0.84152  1.0000
  H   H765      1.0  0.26340  0.25872  0.63742  1.0000
  H   H766      1.0  0.25309  0.11200  0.83227  1.0000
  C   C638      1.0  0.30480  0.08179  0.83404  1.0000
  C   C639      1.0  0.29092  0.22761  0.66496  1.0000
  H   H767      1.0  0.38845  0.99894  0.61133  1.0000
  C   C640      1.0  0.25668  0.32298  0.84949  1.0000
  H   H768      1.0  0.31428  0.23233  0.68849  1.0000
  H   H769      1.0  0.26685  0.22677  0.64183  1.0000
  H   H770      1.0  0.31987  0.13493  0.51241  1.0000
  H   H771      1.0  0.25161  0.13090  0.51994  1.0000
  H   H772      1.0  0.25129  0.16686  0.55152  1.0000
  H   H773      1.0  0.25293  0.24132  0.92788  1.0000
  H   H774      1.0  0.49215  0.01365  0.95254  1.0000
  C   C641      1.0  0.30814  0.13825  0.50040  1.0000
  C   C642      1.0  0.49661  0.02476  0.94078  1.0000
  H   H775      1.0  0.46627  0.02365  0.97247  1.0000
  H   H776      1.0  0.24915  0.20954  0.92641  1.0000
  H   H777      1.0  0.24844  0.26618  0.95515  1.0000
  C   C643      1.0  0.39013  0.50690  0.98529  1.0000
  H   H778      1.0  0.27326  0.62856  0.09993  1.0000
  N   N46       1.0  0.45013  0.45246  0.44296  1.0000
  C   C644      1.0  0.44828  0.49771  0.22875  1.0000
  Fe  Fe83      1.0  0.29579  0.34976  0.24820  1.0000
  S   S173      1.0  0.31842  0.36930  0.24998  1.0000
  S   S174      1.0  0.26867  0.35675  0.23117  1.0000
  Fe  Fe84      1.0  0.38385  0.43118  0.34806  1.0000
  S   S175      1.0  0.37710  0.45901  0.36214  1.0000
  S   S176      1.0  0.36312  0.40971  0.34344  1.0000
  Fe  Fe85      1.0  0.42388  0.43762  0.35343  1.0000
  S   S177      1.0  0.41969  0.46555  0.36731  1.0000
  S   S178      1.0  0.45080  0.42371  0.34908  1.0000
  Fe  Fe86      1.0  0.39821  0.45585  0.39525  1.0000
  S   S179      1.0  0.39552  0.46063  0.44302  1.0000
  Fe  Fe87      1.0  0.39913  0.46666  0.33325  1.0000
  S   S180      1.0  0.39853  0.49125  0.30617  1.0000
  S   S181      1.0  0.40363  0.42750  0.38306  1.0000
  S   S182      1.0  0.40471  0.43920  0.31738  1.0000
  Fe  Fe88      1.0  0.40770  0.51343  0.14633  1.0000
  S   S183      1.0  0.41337  0.54068  0.16143  1.0000
  S   S184      1.0  0.40777  0.48907  0.17373  1.0000
  Fe  Fe89      1.0  0.40131  0.52460  0.08479  1.0000
  S   S185      1.0  0.40642  0.55274  0.09627  1.0000
  S   S186      1.0  0.39178  0.52013  0.03935  1.0000
  Fe  Fe90      1.0  0.42942  0.54184  0.12149  1.0000
  S   S187      1.0  0.45616  0.55373  0.11325  1.0000
  Fe  Fe91      1.0  0.38994  0.54933  0.13507  1.0000
  S   S188      1.0  0.36459  0.56556  0.14591  1.0000
  S   S189      1.0  0.42508  0.51401  0.10801  1.0000
  S   S190      1.0  0.38351  0.52173  0.12219  1.0000
  Fe  Fe92      1.0  0.26522  0.64644  0.21628  1.0000
  C   C645      1.0  0.25109  0.37649  0.15217  1.0000
  C   C646      1.0  0.36994  0.34859  0.34523  1.0000
  Fe  Fe93      1.0  0.27693  0.65207  0.27756  1.0000
  S   S191      1.0  0.28931  0.65822  0.19817  1.0000
  C   C647      1.0  0.35774  0.53022  0.45773  1.0000
  Fe  Fe94      1.0  0.30407  0.64211  0.23067  1.0000
  S   S192      1.0  0.33105  0.62792  0.22256  1.0000
  S   S193      1.0  0.27993  0.62907  0.24744  1.0000
  C   C648      1.0  0.35576  0.58343  0.16668  1.0000
  C   C649      1.0  0.33753  0.58733  0.16575  1.0000
  C   C650      1.0  0.32974  0.60089  0.18238  1.0000
  C   C651      1.0  0.34006  0.61078  0.20044  1.0000
  C   C652      1.0  0.35828  0.60681  0.20142  1.0000
  C   C653      1.0  0.36609  0.59333  0.18467  1.0000
  H   H779      1.0  0.32929  0.57971  0.15224  1.0000
  H   H780      1.0  0.31573  0.60364  0.18138  1.0000
  H   H781      1.0  0.36646  0.61435  0.21518  1.0000
  H   H782      1.0  0.38010  0.59065  0.18567  1.0000
  C   C654      1.0  0.47698  0.54649  0.12649  1.0000
  H   H783      1.0  0.49293  0.58219  0.17489  1.0000
  C   C655      1.0  0.47917  0.54138  0.15445  1.0000
  C   C656      1.0  0.45832  0.47381  0.19914  1.0000
  H   H784      1.0  0.46778  0.54043  0.16783  1.0000
  H   H785      1.0  0.35807  0.52513  0.43651  1.0000
  C   C657      1.0  0.35418  0.54801  0.46261  1.0000
  C   C658      1.0  0.40750  0.48915  0.01736  1.0000
  C   C659      1.0  0.39706  0.50430  0.01244  1.0000
  C   C660      1.0  0.49200  0.54808  0.10958  1.0000
  C   C661      1.0  0.40336  0.49452  0.46161  1.0000
  N   N47       1.0  0.26486  0.38302  0.13324  1.0000
  H   H786      1.0  0.41290  0.48682  0.03803  1.0000
  H   H787      1.0  0.49047  0.55223  0.08804  1.0000
  H   H788      1.0  0.40531  0.49790  0.43986  1.0000
  C   C662      1.0  0.40119  0.49045  0.26938  1.0000
  C   C663      1.0  0.40142  0.47453  0.25480  1.0000
  C   C664      1.0  0.40366  0.47431  0.22554  1.0000
  C   C665      1.0  0.40536  0.49002  0.21055  1.0000
  C   C666      1.0  0.40500  0.50599  0.22510  1.0000
  C   C667      1.0  0.40304  0.50618  0.25444  1.0000
  H   H789      1.0  0.39956  0.46242  0.26600  1.0000
  H   H790      1.0  0.40379  0.46194  0.21438  1.0000
  H   H791      1.0  0.40627  0.51813  0.21373  1.0000
  H   H792      1.0  0.40282  0.51855  0.26558  1.0000
  C   C668      1.0  0.48695  0.42211  0.35034  1.0000
  C   C669      1.0  0.47177  0.43297  0.35329  1.0000
  C   C670      1.0  0.47366  0.45085  0.35885  1.0000
  H   H793      1.0  0.48563  0.40828  0.34587  1.0000
  H   H794      1.0  0.46214  0.45939  0.36111  1.0000
  C   C671      1.0  0.32985  0.38118  0.27649  1.0000
  C   C672      1.0  0.34255  0.39326  0.26828  1.0000
  C   C673      1.0  0.35252  0.40241  0.28829  1.0000
  C   C674      1.0  0.35009  0.39951  0.31699  1.0000
  C   C675      1.0  0.33729  0.38754  0.32518  1.0000
  C   C676      1.0  0.32719  0.37851  0.30518  1.0000
  H   H795      1.0  0.34481  0.39547  0.24622  1.0000
  H   H796      1.0  0.36228  0.41150  0.28151  1.0000
  H   H797      1.0  0.33525  0.38512  0.34725  1.0000
  H   H798      1.0  0.31752  0.36936  0.31201  1.0000
  C   C677      1.0  0.48032  0.46322  0.45352  1.0000
  C   C678      1.0  0.35848  0.34628  0.28980  1.0000
  H   H799      1.0  0.28564  0.35922  0.16254  1.0000
  C   C679      1.0  0.30917  0.58754  0.04564  1.0000
  H   H800      1.0  0.47463  0.47436  0.46470  1.0000
  H   H801      1.0  0.49188  0.47149  0.36629  1.0000
  C   C680      1.0  0.37539  0.36074  0.32554  1.0000
  H   H802      1.0  0.41855  0.46499  0.00001  1.0000
  C   C681      1.0  0.46951  0.45041  0.44132  1.0000
  C   C682      1.0  0.28994  0.37258  0.16385  1.0000
  C   C683      1.0  0.39844  0.47752  0.46864  1.0000
  H   H803      1.0  0.44403  0.51136  0.23106  1.0000
  H   H804      1.0  0.29859  0.58983  0.03074  1.0000
  Fe  Fe95      1.0  0.25907  0.33924  0.26589  1.0000
  C   C684      1.0  0.28080  0.38653  0.14985  1.0000
  C   C685      1.0  0.41070  0.47676  0.99565  1.0000
  C   C686      1.0  0.28732  0.40370  0.15362  1.0000
  C   C687      1.0  0.44444  0.46948  0.43025  1.0000
  C   C688      1.0  0.26045  0.64955  0.38001  1.0000
  H   H805      1.0  0.44396  0.42518  0.43713  1.0000
  C   C689      1.0  0.30921  0.59710  0.07055  1.0000
  H   H806      1.0  0.27382  0.65215  0.38598  1.0000
  H   H807      1.0  0.30667  0.41970  0.17350  1.0000
  C   C690      1.0  0.45334  0.49143  0.20247  1.0000
  H   H808      1.0  0.28125  0.41517  0.14402  1.0000
  H   H809      1.0  0.38354  0.37149  0.33186  1.0000
  H   H810      1.0  0.47121  0.42580  0.41700  1.0000
  H   H811      1.0  0.46194  0.46896  0.17850  1.0000
  H   H812      1.0  0.37388  0.36914  0.28274  1.0000
  H   H813      1.0  0.44963  0.47067  0.40857  1.0000
  C   C691      1.0  0.26892  0.36950  0.11154  1.0000
  H   H814      1.0  0.35173  0.55677  0.44506  1.0000
  C   C692      1.0  0.26085  0.63218  0.10968  1.0000
  H   H815      1.0  0.29875  0.60673  0.07491  1.0000
  C   C693      1.0  0.44078  0.43836  0.42812  1.0000
  H   H816      1.0  0.42987  0.47094  0.42914  1.0000
  N   N48       1.0  0.35109  0.55880  0.05392  1.0000
  C   C694      1.0  0.35009  0.54444  0.07475  1.0000
  C   C695      1.0  0.35057  0.55071  0.02559  1.0000
  C   C696      1.0  0.36837  0.56713  0.05685  1.0000
  C   C697      1.0  0.33666  0.57193  0.05910  1.0000
  C   C698      1.0  0.33617  0.58183  0.08432  1.0000
  C   C699      1.0  0.32263  0.57510  0.03987  1.0000
  H   H817      1.0  0.36061  0.53415  0.07129  1.0000
  H   H818      1.0  0.35173  0.54924  0.09655  1.0000
  H   H819      1.0  0.33721  0.53797  0.07368  1.0000
  H   H820      1.0  0.33855  0.54300  0.02255  1.0000
  H   H821      1.0  0.36185  0.54124  0.02220  1.0000
  H   H822      1.0  0.35139  0.56081  0.00886  1.0000
  H   H823      1.0  0.37109  0.57124  0.07876  1.0000
  H   H824      1.0  0.37944  0.55791  0.05098  1.0000
  H   H825      1.0  0.36917  0.57893  0.04325  1.0000
  H   H826      1.0  0.34623  0.58003  0.10008  1.0000
  H   H827      1.0  0.32173  0.56817  0.02024  1.0000
  H   H828      1.0  0.42979  0.45325  0.47447  1.0000
  H   H829      1.0  0.25282  0.40907  0.13363  1.0000
  C   C700      1.0  0.32269  0.59424  0.08986  1.0000
  C   C701      1.0  0.35240  0.33384  0.30949  1.0000
  H   H830      1.0  0.25714  0.36646  0.09876  1.0000
  H   H831      1.0  0.31808  0.33526  0.31907  1.0000
  H   H832      1.0  0.26710  0.40435  0.10394  1.0000
  H   H833      1.0  0.32172  0.39471  0.19757  1.0000
  C   C702      1.0  0.31057  0.39250  0.18401  1.0000
  Fe  Fe96      1.0  0.27080  0.33182  0.20532  1.0000
  H   H834      1.0  0.32273  0.60167  0.10929  1.0000
  C   C703      1.0  0.25440  0.34708  0.37366  1.0000
  C   C704      1.0  0.49055  0.45769  0.36167  1.0000
  N   N49       1.0  0.36109  0.54606  0.23378  1.0000
  C   C705      1.0  0.34568  0.55522  0.22075  1.0000
  C   C706      1.0  0.36043  0.54976  0.26434  1.0000
  C   C707      1.0  0.37739  0.55370  0.22273  1.0000
  C   C708      1.0  0.36088  0.52710  0.22686  1.0000
  C   C709      1.0  0.35949  0.51378  0.24757  1.0000
  C   C710      1.0  0.36221  0.52145  0.19855  1.0000
  C   C711      1.0  0.35968  0.49599  0.24022  1.0000
  C   C712      1.0  0.36252  0.50363  0.19149  1.0000
  C   C713      1.0  0.36128  0.49093  0.21228  1.0000
  H   H835      1.0  0.33316  0.54985  0.22848  1.0000
  H   H836      1.0  0.34539  0.56960  0.22524  1.0000
  H   H837      1.0  0.34568  0.55387  0.19757  1.0000
  H   H838      1.0  0.34811  0.54506  0.27393  1.0000
  H   H839      1.0  0.36071  0.56413  0.26875  1.0000
  H   H840      1.0  0.37190  0.54352  0.27540  1.0000
  H   H841      1.0  0.37806  0.55330  0.19949  1.0000
  H   H842      1.0  0.37836  0.56780  0.22854  1.0000
  H   H843      1.0  0.38927  0.54649  0.23083  1.0000
  H   H844      1.0  0.35873  0.51664  0.26970  1.0000
  H   H845      1.0  0.36333  0.53079  0.18163  1.0000
  H   H846      1.0  0.35923  0.48603  0.25642  1.0000
  H   H847      1.0  0.36430  0.49959  0.16985  1.0000
  H   H848      1.0  0.36210  0.47712  0.20678  1.0000
  N   N50       1.0  0.45158  0.45559  0.27250  1.0000
  C   C714      1.0  0.44435  0.46358  0.29863  1.0000
  C   C715      1.0  0.44020  0.44085  0.26483  1.0000
  C   C716      1.0  0.46941  0.44829  0.27889  1.0000
  C   C717      1.0  0.45246  0.46818  0.24893  1.0000
  C   C718      1.0  0.45807  0.46235  0.22200  1.0000
  C   C719      1.0  0.44772  0.48633  0.25170  1.0000
  H   H849      1.0  0.44392  0.43815  0.40534  1.0000
  C   C720      1.0  0.30199  0.40653  0.17053  1.0000
  C   C721      1.0  0.49619  0.53860  0.16557  1.0000
  H   H850      1.0  0.44356  0.45376  0.31573  1.0000
  H   H851      1.0  0.45271  0.47418  0.30668  1.0000
  H   H852      1.0  0.43075  0.46902  0.29546  1.0000
  H   H853      1.0  0.44572  0.43270  0.24746  1.0000
  H   H854      1.0  0.42694  0.44580  0.25820  1.0000
  H   H855      1.0  0.43840  0.43168  0.28275  1.0000
  H   H856      1.0  0.46905  0.43828  0.29587  1.0000
  H   H857      1.0  0.47565  0.44163  0.26055  1.0000
  H   H858      1.0  0.47826  0.45873  0.28602  1.0000
  H   H859      1.0  0.46190  0.44878  0.21824  1.0000
  H   H860      1.0  0.44296  0.49203  0.27110  1.0000
  H   H861      1.0  0.26676  0.34975  0.38376  1.0000
  H   H862      1.0  0.40903  0.52047  0.47696  1.0000
  S   S194      1.0  0.27305  0.65192  0.32576  1.0000
  H   H863      1.0  0.27158  0.63212  0.15168  1.0000
  C   C722      1.0  0.25994  0.63424  0.13899  1.0000
  C   C723      1.0  0.47821  0.43612  0.42726  1.0000
  H   H864      1.0  0.25526  0.36402  0.16265  1.0000
  H   H865      1.0  0.26497  0.34917  0.33183  1.0000
  H   H866      1.0  0.44880  0.48096  0.44247  1.0000
  H   H867      1.0  0.27347  0.35676  0.12065  1.0000
  H   H868      1.0  0.31126  0.36467  0.19113  1.0000
  C   C724      1.0  0.25737  0.39874  0.11856  1.0000
  H   H869      1.0  0.45297  0.50016  0.18451  1.0000
  C   C725      1.0  0.30463  0.37556  0.18046  1.0000
  H   H870      1.0  0.25147  0.59162  0.13351  1.0000
  C   C726      1.0  0.35876  0.33522  0.33736  1.0000
  C   C727      1.0  0.36117  0.51897  0.48016  1.0000
  C   C728      1.0  0.25342  0.34675  0.34420  1.0000
  C   C729      1.0  0.36988  0.35941  0.29784  1.0000
  C   C730      1.0  0.44441  0.45229  0.47266  1.0000
  H   H871      1.0  0.49463  0.48508  0.27250  1.0000
  S   S195      1.0  0.30200  0.66435  0.26256  1.0000
  C   C731      1.0  0.25619  0.64847  0.35131  1.0000
  H   H872      1.0  0.27944  0.37379  0.09714  1.0000
  H   H873      1.0  0.42626  0.44023  0.42981  1.0000
  H   H874      1.0  0.35418  0.34660  0.26824  1.0000
  H   H875      1.0  0.36435  0.50518  0.47626  1.0000
  H   H876      1.0  0.48441  0.58604  0.12541  1.0000
  H   H877      1.0  0.25131  0.64793  0.42295  1.0000
  H   H878      1.0  0.32687  0.33395  0.26820  1.0000
  H   H879      1.0  0.37416  0.34981  0.36681  1.0000
  S   S196      1.0  0.28575  0.33391  0.28406  1.0000
  C   C732      1.0  0.49653  0.43506  0.42516  1.0000
  H   H880      1.0  0.49772  0.53539  0.18750  1.0000
  C   C733      1.0  0.49783  0.58833  0.13186  1.0000
  H   H881      1.0  0.38205  0.51852  0.98106  1.0000
  C   C734      1.0  0.35401  0.55462  0.48998  1.0000
  H   H882      1.0  0.25986  0.39469  0.80797  1.0000
  H   H883      1.0  0.42691  0.41412  0.78295  1.0000
  H   H884      1.0  0.32860  0.62004  0.78694  1.0000
  Fe  Fe97      1.0  0.30202  0.34891  0.75933  1.0000
  S   S197      1.0  0.31493  0.37435  0.77562  1.0000
  S   S198      1.0  0.27417  0.35435  0.74432  1.0000
  Fe  Fe98      1.0  0.39544  0.43082  0.84813  1.0000
  S   S199      1.0  0.38094  0.45487  0.86526  1.0000
  S   S200      1.0  0.38529  0.40438  0.83161  1.0000
  Fe  Fe99      1.0  0.43113  0.44990  0.84853  1.0000
  S   S201      1.0  0.41863  0.47508  0.86420  1.0000
  S   S202      1.0  0.45928  0.45231  0.83353  1.0000
  Fe  Fe100     1.0  0.40417  0.45832  0.89470  1.0000
  S   S203      1.0  0.40807  0.46289  0.94219  1.0000
  Fe  Fe101     1.0  0.39701  0.46967  0.83371  1.0000
  S   S204      1.0  0.38568  0.49039  0.80392  1.0000
  S   S205      1.0  0.41762  0.43297  0.87974  1.0000
  S   S206      1.0  0.41047  0.44570  0.81598  1.0000
  Fe  Fe102     1.0  0.40769  0.51614  0.64782  1.0000
  S   S207      1.0  0.40912  0.54432  0.66164  1.0000
  S   S208      1.0  0.41202  0.49321  0.67757  1.0000
  Fe  Fe103     1.0  0.40536  0.52486  0.58485  1.0000
  S   S209      1.0  0.40673  0.55370  0.59513  1.0000
  S   S210      1.0  0.40515  0.52040  0.53690  1.0000
  Fe  Fe104     1.0  0.42815  0.54623  0.62558  1.0000
  S   S211      1.0  0.45332  0.56160  0.62635  1.0000
  Fe  Fe105     1.0  0.38744  0.54941  0.63013  1.0000
  S   S212      1.0  0.36273  0.56783  0.63128  1.0000
  S   S213      1.0  0.42800  0.51787  0.61352  1.0000
  S   S214      1.0  0.38484  0.52076  0.61835  1.0000
  C   C735      1.0  0.26018  0.64612  0.88061  1.0000
  H   H885      1.0  0.27806  0.38256  0.79305  1.0000
  C   C736      1.0  0.35721  0.54349  0.51339  1.0000
  Fe  Fe106     1.0  0.27593  0.64999  0.77836  1.0000
  C   C737      1.0  0.47569  0.38622  0.82454  1.0000
  H   H886      1.0  0.46811  0.47178  0.88993  1.0000
  Fe  Fe107     1.0  0.30034  0.63461  0.73080  1.0000
  S   S215      1.0  0.32298  0.61382  0.72717  1.0000
  S   S216      1.0  0.27311  0.62839  0.74626  1.0000
  C   C738      1.0  0.35207  0.58069  0.65832  1.0000
  C   C739      1.0  0.33727  0.59143  0.65145  1.0000
  C   C740      1.0  0.32829  0.60173  0.67199  1.0000
  C   C741      1.0  0.33394  0.60141  0.69992  1.0000
  C   C742      1.0  0.34873  0.59064  0.70680  1.0000
  C   C743      1.0  0.35774  0.58040  0.68624  1.0000
  H   H887      1.0  0.33268  0.59183  0.63002  1.0000
  H   H888      1.0  0.31697  0.60986  0.66620  1.0000
  H   H889      1.0  0.35335  0.59029  0.72820  1.0000
  H   H890      1.0  0.36908  0.57230  0.69200  1.0000
  C   C744      1.0  0.47444  0.55192  0.63265  1.0000
  Fe  Fe108     1.0  0.27869  0.33456  0.70960  1.0000
  C   C745      1.0  0.48934  0.56235  0.63137  1.0000
  H   H891      1.0  0.29800  0.59920  0.85359  1.0000
  H   H892      1.0  0.48777  0.57611  0.62602  1.0000
  H   H893      1.0  0.46044  0.49383  0.95913  1.0000
  H   H894      1.0  0.49799  0.41037  0.88535  1.0000
  C   C746      1.0  0.39807  0.48634  0.51834  1.0000
  C   C747      1.0  0.40283  0.50338  0.51131  1.0000
  C   C748      1.0  0.30682  0.60963  0.84630  1.0000
  C   C749      1.0  0.39348  0.49460  0.96349  1.0000
  C   C750      1.0  0.26268  0.37083  0.88567  1.0000
  H   H895      1.0  0.39589  0.48303  0.54006  1.0000
  C   C751      1.0  0.25603  0.64521  0.85186  1.0000
  H   H896      1.0  0.38797  0.49685  0.94288  1.0000
  C   C752      1.0  0.39387  0.49187  0.76927  1.0000
  C   C753      1.0  0.40652  0.47979  0.75904  1.0000
  C   C754      1.0  0.41194  0.48046  0.73096  1.0000
  C   C755      1.0  0.40511  0.49346  0.71289  1.0000
  C   C756      1.0  0.39285  0.50594  0.72320  1.0000
  C   C757      1.0  0.38716  0.50504  0.75126  1.0000
  H   H897      1.0  0.41222  0.46993  0.77269  1.0000
  H   H898      1.0  0.42158  0.47090  0.72324  1.0000
  H   H899      1.0  0.38750  0.51603  0.70942  1.0000
  H   H900      1.0  0.37742  0.51451  0.75896  1.0000
  C   C758      1.0  0.48060  0.42915  0.86448  1.0000
  C   C759      1.0  0.47953  0.44372  0.84666  1.0000
  H   H901      1.0  0.46564  0.44460  0.91599  1.0000
  H   H902      1.0  0.46878  0.42310  0.87162  1.0000
  C   C760      1.0  0.49392  0.38540  0.82816  1.0000
  C   C761      1.0  0.33439  0.38211  0.79242  1.0000
  C   C762      1.0  0.33476  0.39979  0.80135  1.0000
  C   C763      1.0  0.35000  0.40678  0.81366  1.0000
  C   C764      1.0  0.36527  0.39623  0.81713  1.0000
  C   C765      1.0  0.36484  0.37854  0.80837  1.0000
  C   C766      1.0  0.34958  0.37152  0.79624  1.0000
  H   H903      1.0  0.32323  0.40822  0.79840  1.0000
  H   H904      1.0  0.34992  0.42032  0.82042  1.0000
  H   H905      1.0  0.37644  0.37014  0.81097  1.0000
  H   H906      1.0  0.34965  0.35794  0.78956  1.0000
  H   H907      1.0  0.46533  0.52595  0.63963  1.0000
  H   H908      1.0  0.44718  0.41223  0.76389  1.0000
  H   H909      1.0  0.44438  0.41659  0.84110  1.0000
  C   C767      1.0  0.45368  0.50992  0.74683  1.0000
  C   C768      1.0  0.49340  0.52710  0.64634  1.0000
  H   H910      1.0  0.29077  0.59297  0.80335  1.0000
  H   H911      1.0  0.42522  0.40482  0.83121  1.0000
  C   C769      1.0  0.28552  0.39044  0.84586  1.0000
  C   C770      1.0  0.44148  0.41413  0.78519  1.0000
  C   C771      1.0  0.33844  0.56277  0.83760  1.0000
  H   H912      1.0  0.35386  0.54590  0.81020  1.0000
  H   H913      1.0  0.37159  0.57385  0.53043  1.0000
  C   C772      1.0  0.47845  0.41195  0.79527  1.0000
  H   H914      1.0  0.26531  0.62461  0.60412  1.0000
  H   H915      1.0  0.47339  0.42296  0.78321  1.0000
  C   C773      1.0  0.34281  0.56836  0.78845  1.0000
  C   C774      1.0  0.49719  0.42197  0.87229  1.0000
  C   C775      1.0  0.40369  0.47931  0.96855  1.0000
  H   H916      1.0  0.33679  0.62142  0.82209  1.0000
  H   H917      1.0  0.27354  0.64864  0.88680  1.0000
  C   C776      1.0  0.34580  0.55786  0.81192  1.0000
  H   H918      1.0  0.29225  0.38686  0.86578  1.0000
  N   N51       1.0  0.31391  0.60572  0.81788  1.0000
  H   H919      1.0  0.28987  0.61649  0.80008  1.0000
  N   N52       1.0  0.35733  0.55087  0.54213  1.0000
  H   H920      1.0  0.44892  0.43994  0.48324  1.0000
  H   H921      1.0  0.44317  0.39358  0.84819  1.0000
  C   C777      1.0  0.33247  0.58379  0.79058  1.0000
  H   H922      1.0  0.34083  0.55454  0.85581  1.0000
  H   H923      1.0  0.44113  0.54062  0.72146  1.0000
  N   N53       1.0  0.45738  0.51692  0.71858  1.0000
  C   C778      1.0  0.44327  0.52897  0.70764  1.0000
  C   C779      1.0  0.47387  0.52682  0.71919  1.0000
  C   C780      1.0  0.45945  0.50208  0.69857  1.0000
  N   N54       1.0  0.27318  0.37689  0.83670  1.0000
  H   H924      1.0  0.44655  0.53416  0.68648  1.0000
  H   H925      1.0  0.43065  0.52214  0.70524  1.0000
  C   C781      1.0  0.43985  0.40393  0.83252  1.0000
  H   H926      1.0  0.47641  0.53342  0.69884  1.0000
  H   H927      1.0  0.33958  0.57324  0.53461  1.0000
  H   H928      1.0  0.44766  0.49377  0.69886  1.0000
  H   H929      1.0  0.46110  0.50671  0.67670  1.0000
  H   H930      1.0  0.47109  0.49344  0.70333  1.0000
  C   C782      1.0  0.35892  0.53723  0.56425  1.0000
  C   C783      1.0  0.37243  0.56254  0.54507  1.0000
  H   H931      1.0  0.45815  0.47343  0.97823  1.0000
  H   H932      1.0  0.37175  0.52988  0.56291  1.0000
  H   H933      1.0  0.35837  0.54309  0.58565  1.0000
  S   S217      1.0  0.27334  0.33870  0.66206  1.0000
  C   C784      1.0  0.49509  0.45136  0.83763  1.0000
  H   H934      1.0  0.37325  0.56807  0.56668  1.0000
  H   H935      1.0  0.38505  0.55522  0.54067  1.0000
  H   H936      1.0  0.47237  0.48234  0.79630  1.0000
  H   H937      1.0  0.47191  0.56469  0.55856  1.0000
  N   N55       1.0  0.46666  0.47031  0.93526  1.0000
  C   C785      1.0  0.25690  0.33500  0.63574  1.0000
  H   H938      1.0  0.44215  0.48026  0.95304  1.0000
  H   H939      1.0  0.49225  0.45505  0.90189  1.0000
  H   H940      1.0  0.28858  0.35518  0.85455  1.0000
  H   H941      1.0  0.33057  0.59147  0.77176  1.0000
  S   S218      1.0  0.27312  0.64810  0.82657  1.0000
  H   H942      1.0  0.44838  0.48090  0.90463  1.0000
  H   H943      1.0  0.42719  0.38371  0.79076  1.0000
  S   S219      1.0  0.30369  0.65507  0.76448  1.0000
  C   C786      1.0  0.45654  0.47990  0.95745  1.0000
  H   H944      1.0  0.36427  0.51599  0.52379  1.0000
  H   H945      1.0  0.42735  0.52209  0.75294  1.0000
  H   H946      1.0  0.29874  0.62211  0.84660  1.0000
  C   C787      1.0  0.32805  0.57821  0.83994  1.0000
  H   H947      1.0  0.47326  0.53725  0.73556  1.0000
  H   H948      1.0  0.27432  0.34957  0.82635  1.0000
  H   H949      1.0  0.47846  0.49481  0.75028  1.0000
  H   H950      1.0  0.44465  0.42750  0.79282  1.0000
  H   H951      1.0  0.25257  0.36499  0.92676  1.0000
  C   C788      1.0  0.25529  0.63742  0.64147  1.0000
  C   C789      1.0  0.39587  0.47357  0.49717  1.0000
  C   C790      1.0  0.47663  0.53415  0.63943  1.0000
  N   N56       1.0  0.44798  0.40027  0.80484  1.0000
  H   H952      1.0  0.44415  0.37232  0.80939  1.0000
  C   C791      1.0  0.47797  0.55166  0.56039  1.0000
  H   H953      1.0  0.44456  0.48963  0.82072  1.0000
  H   H954      1.0  0.32912  0.55323  0.54408  1.0000
  H   H955      1.0  0.30282  0.60359  0.77625  1.0000
  H   H956      1.0  0.27602  0.36813  0.89246  1.0000
  H   H957      1.0  0.31716  0.63353  0.81183  1.0000
  C   C792      1.0  0.32460  0.62078  0.80935  1.0000
  H   H958      1.0  0.34030  0.56604  0.56990  1.0000
  H   H959      1.0  0.27852  0.40335  0.84897  1.0000
  C   C793      1.0  0.46612  0.49845  0.76023  1.0000
  H   H960      1.0  0.34851  0.56456  0.76840  1.0000
  C   C794      1.0  0.32476  0.58924  0.81635  1.0000
  N   N57       1.0  0.35904  0.44782  0.75404  1.0000
  C   C795      1.0  0.36311  0.45985  0.73066  1.0000
  C   C796      1.0  0.34756  0.45738  0.77450  1.0000
  C   C797      1.0  0.37578  0.44326  0.76863  1.0000
  C   C798      1.0  0.35001  0.43233  0.74294  1.0000
  C   C799      1.0  0.35735  0.41494  0.74453  1.0000
  C   C800      1.0  0.33333  0.43442  0.72985  1.0000
  C   C801      1.0  0.34827  0.40062  0.73423  1.0000
  C   C802      1.0  0.32431  0.41997  0.71984  1.0000
  C   C803      1.0  0.33172  0.40309  0.72223  1.0000
  H   H961      1.0  0.35110  0.46491  0.71975  1.0000
  H   H962      1.0  0.37011  0.47159  0.73813  1.0000
  H   H963      1.0  0.37166  0.45316  0.71471  1.0000
  H   H964      1.0  0.33548  0.46314  0.76472  1.0000
  H   H965      1.0  0.35438  0.46859  0.78436  1.0000
  H   H966      1.0  0.34348  0.44848  0.79166  1.0000
  H   H967      1.0  0.38187  0.45515  0.77741  1.0000
  H   H968      1.0  0.37367  0.43426  0.78666  1.0000
  H   H969      1.0  0.38565  0.43712  0.75418  1.0000
  H   H970      1.0  0.36985  0.41191  0.75432  1.0000
  H   H971      1.0  0.32706  0.44725  0.72742  1.0000
  H   H972      1.0  0.35378  0.38739  0.73651  1.0000
  H   H973      1.0  0.31143  0.42179  0.71043  1.0000
  H   H974      1.0  0.32451  0.39183  0.71521  1.0000
  H   H975      1.0  0.26519  0.63148  0.65503  1.0000
  Fe  Fe109     1.0  0.26399  0.65017  0.71705  1.0000
  H   H976      1.0  0.27246  0.34607  0.60282  1.0000
  C   C804      1.0  0.47524  0.52095  0.57107  1.0000
  C   C805      1.0  0.45999  0.45223  0.93386  1.0000
  C   C806      1.0  0.49730  0.46099  0.92060  1.0000
  H   H977      1.0  0.48567  0.51827  0.72340  1.0000
  H   H978      1.0  0.39203  0.46050  0.50297  1.0000
  H   H979      1.0  0.48638  0.48389  0.98020  1.0000
  C   C807      1.0  0.43471  0.50670  0.78806  1.0000
  H   H980      1.0  0.46813  0.37661  0.83547  1.0000
  H   H981      1.0  0.44543  0.45231  0.93115  1.0000
  C   C808      1.0  0.49667  0.41097  0.79903  1.0000
  H   H982      1.0  0.49443  0.46263  0.82387  1.0000
  C   C809      1.0  0.25881  0.37540  0.85745  1.0000
  H   H983      1.0  0.42239  0.50964  0.79881  1.0000
  H   H984      1.0  0.29614  0.39226  0.83010  1.0000
  C   C810      1.0  0.46753  0.53756  0.56700  1.0000
  C   C811      1.0  0.48590  0.46954  0.94018  1.0000
  C   C812      1.0  0.43778  0.51383  0.76156  1.0000
  H   H985      1.0  0.44821  0.37952  0.77421  1.0000
  S   S220      1.0  0.29082  0.65491  0.69961  1.0000
  C   C813      1.0  0.26022  0.33994  0.60780  1.0000
  C   C814      1.0  0.26694  0.38170  0.80814  1.0000
  H   H986      1.0  0.32276  0.58120  0.86043  1.0000
  H   H987      1.0  0.34814  0.52775  0.56290  1.0000
  C   C815      1.0  0.44167  0.38322  0.79433  1.0000
  H   H988      1.0  0.46850  0.49254  0.90775  1.0000
  C   C816      1.0  0.46281  0.49127  0.78658  1.0000
  H   H989      1.0  0.31754  0.61133  0.86180  1.0000
  H   H990      1.0  0.46708  0.51019  0.57717  1.0000
  H   H991      1.0  0.45349  0.53970  0.56999  1.0000
  C   C817      1.0  0.34086  0.56127  0.54777  1.0000
  C   C818      1.0  0.29873  0.60460  0.79858  1.0000
  C   C819      1.0  0.44713  0.49538  0.80044  1.0000
  C   C820      1.0  0.46279  0.47926  0.90825  1.0000
  C   C821      1.0  0.46736  0.39948  0.80783  1.0000
  H   H992      1.0  0.35162  0.56858  0.49264  1.0000
  C   C822      1.0  0.49615  0.54918  0.55727  1.0000
  Fe  Fe110     1.0  0.26694  0.33152  0.77141  1.0000
  C   C823      1.0  0.49342  0.51833  0.56824  1.0000
  C   C824      1.0  0.28301  0.35986  0.83433  1.0000
  C   C825      1.0  0.49389  0.47709  0.96411  1.0000
  C   C826      1.0  0.36098  0.52542  0.50760  1.0000
  H   H993      1.0  0.29425  0.36065  0.81953  1.0000
  H   H994      1.0  0.49487  0.51347  0.65246  1.0000
  C   C827      1.0  0.25528  0.63348  0.61265  1.0000
  H   H995      1.0  0.25065  0.34130  0.56498  1.0000
  H   H996      1.0  0.46317  0.44481  0.95338  1.0000
  H   H997      1.0  0.25813  0.37159  0.79947  1.0000
  H   H998      1.0  0.25081  0.64451  0.92342  1.0000
  H   H999      1.0  0.44944  0.46352  0.48481  1.0000
  C   C828      1.0  0.24937  0.36919  0.90561  1.0000
  C   C829      1.0  0.40547  0.50732  0.48278  1.0000
  Fe  Fe111     1.0  0.39874  0.97108  0.14827  1.0000
  S   S221      1.0  0.40778  0.94495  0.16526  1.0000
  H   H1000     1.0  0.26568  0.80769  0.31239  1.0000
  Fe  Fe112     1.0  0.40521  0.96013  0.08646  1.0000
  S   S222      1.0  0.41446  0.93288  0.10039  1.0000
  S   S223      1.0  0.40494  0.96516  0.03850  1.0000
  Fe  Fe113     1.0  0.39148  0.93342  0.13087  1.0000
  S   S224      1.0  0.36980  0.91278  0.13471  1.0000
  Fe  Fe114     1.0  0.42978  0.94692  0.13374  1.0000
  S   S225      1.0  0.45771  0.94570  0.15139  1.0000
  S   S226      1.0  0.38151  0.95977  0.11487  1.0000
  S   S227      1.0  0.42146  0.97389  0.11863  1.0000
  Fe  Fe115     1.0  0.28524  0.67931  0.23116  1.0000
  S   S228      1.0  0.28041  0.70793  0.21698  1.0000
  H   H1001     1.0  0.26959  0.84012  0.14017  1.0000
  Fe  Fe116     1.0  0.26506  0.83567  0.20977  1.0000
  S   S229      1.0  0.29295  0.82786  0.19800  1.0000
  H   H1002     1.0  0.26336  0.85278  0.37747  1.0000
  Fe  Fe117     1.0  0.27294  0.83978  0.27232  1.0000
  S   S230      1.0  0.30140  0.83272  0.26441  1.0000
  S   S231      1.0  0.26614  0.84617  0.31840  1.0000
  Fe  Fe118     1.0  0.30053  0.85022  0.22629  1.0000
  S   S232      1.0  0.32458  0.86803  0.22230  1.0000
  Fe  Fe119     1.0  0.29201  0.81102  0.23684  1.0000
  S   S233      1.0  0.30666  0.78486  0.24505  1.0000
  S   S234      1.0  0.27253  0.85899  0.23616  1.0000
  S   S235      1.0  0.26364  0.81713  0.24670  1.0000
  C   C830      1.0  0.28758  0.72911  0.22650  1.0000
  C   C831      1.0  0.27868  0.74395  0.21515  1.0000
  C   C832      1.0  0.28416  0.76107  0.22100  1.0000
  C   C833      1.0  0.29881  0.76357  0.23799  1.0000
  C   C834      1.0  0.30763  0.74877  0.24963  1.0000
  C   C835      1.0  0.30197  0.73163  0.24410  1.0000
  H   H1003     1.0  0.26757  0.74219  0.20145  1.0000
  H   H1004     1.0  0.27727  0.77230  0.21183  1.0000
  H   H1005     1.0  0.31900  0.75053  0.26278  1.0000
  H   H1006     1.0  0.30900  0.72035  0.25286  1.0000
  C   C836      1.0  0.35744  0.90047  0.15961  1.0000
  C   C837      1.0  0.34261  0.89146  0.15034  1.0000
  C   C838      1.0  0.33245  0.88146  0.16898  1.0000
  C   C839      1.0  0.33698  0.88025  0.19737  1.0000
  C   C840      1.0  0.35189  0.88914  0.20660  1.0000
  C   C841      1.0  0.36203  0.89915  0.18798  1.0000
  H   H1007     1.0  0.33892  0.89222  0.12847  1.0000
  H   H1008     1.0  0.32109  0.87475  0.16135  1.0000
  H   H1009     1.0  0.35562  0.88831  0.22843  1.0000
  H   H1010     1.0  0.37352  0.90563  0.19557  1.0000
  C   C842      1.0  0.47880  0.94082  0.13689  1.0000
  S   S236      1.0  0.26031  0.66812  0.24764  1.0000
  C   C843      1.0  0.48119  0.93009  0.11332  1.0000
  H   H1011     1.0  0.42507  0.96803  0.44034  1.0000
  H   H1012     1.0  0.46994  0.92440  0.10342  1.0000
  H   H1013     1.0  0.27191  0.78019  0.27098  1.0000
  C   C844      1.0  0.40436  0.97749  0.98382  1.0000
  C   C845      1.0  0.40609  0.98208  0.01232  1.0000
  H   H1014     1.0  0.25973  0.71806  0.14811  1.0000
  C   C846      1.0  0.37971  0.81399  0.18455  1.0000
  H   H1015     1.0  0.38388  0.94819  0.37667  1.0000
  C   C847      1.0  0.49367  0.94745  0.15025  1.0000
  H   H1016     1.0  0.37075  0.94755  0.21749  1.0000
  C   C848      1.0  0.35793  0.83765  0.17934  1.0000
  C   C849      1.0  0.26393  0.77614  0.28926  1.0000
  C   C850      1.0  0.39975  0.97718  0.25655  1.0000
  C   C851      1.0  0.39845  0.97755  0.22714  1.0000
  H   H1017     1.0  0.40487  0.96546  0.26686  1.0000
  H   H1018     1.0  0.40264  0.96617  0.21510  1.0000
  C   C852      1.0  0.25761  0.83633  0.09958  1.0000
  C   C853      1.0  0.41771  0.97488  0.38956  1.0000
  C   C854      1.0  0.39217  0.82442  0.17160  1.0000
  C   C855      1.0  0.45502  0.96414  0.02007  1.0000
  C   C856      1.0  0.38685  0.98159  0.39201  1.0000
  H   H1019     1.0  0.25096  0.78325  0.28770  1.0000
  H   H1020     1.0  0.43647  0.98387  0.05452  1.0000
  H   H1021     1.0  0.26957  0.83868  0.08813  1.0000
  H   H1022     1.0  0.32792  0.81896  0.17469  1.0000
  H   H1023     1.0  0.28655  0.80168  0.29787  1.0000
  H   H1024     1.0  0.38733  0.98708  0.37042  1.0000
  H   H1025     1.0  0.39886  0.95807  0.35340  1.0000
  H   H1026     1.0  0.25876  0.68581  0.18805  1.0000
  C   C857      1.0  0.25339  0.67794  0.07692  1.0000
  H   H1027     1.0  0.45212  0.98647  0.08146  1.0000
  H   H1028     1.0  0.24867  0.68581  0.39950  1.0000
  H   H1029     1.0  0.33206  0.81166  0.23949  1.0000
  C   C858      1.0  0.37049  0.84795  0.16651  1.0000
  C   C859      1.0  0.31503  0.91847  0.20210  1.0000
  C   C860      1.0  0.25766  0.83716  0.12908  1.0000
  H   H1030     1.0  0.40549  0.81935  0.16848  1.0000
  H   H1031     1.0  0.25742  0.80218  0.35777  1.0000
  H   H1032     1.0  0.34464  0.78513  0.22361  1.0000
  H   H1033     1.0  0.39724  0.84945  0.15271  1.0000
  C   C861      1.0  0.31638  0.91526  0.23073  1.0000
  H   H1034     1.0  0.33930  0.79918  0.16388  1.0000
  H   H1035     1.0  0.27213  0.68814  0.15757  1.0000
  H   H1036     1.0  0.34673  0.94483  0.24805  1.0000
  H   H1037     1.0  0.29892  0.77322  0.30147  1.0000
  H   H1038     1.0  0.43826  0.95129  0.06262  1.0000
  N   N58       1.0  0.45973  0.96720  0.04985  1.0000
  C   C862      1.0  0.45256  0.95270  0.06654  1.0000
  H   H1039     1.0  0.26434  0.68735  0.35556  1.0000
  S   S237      1.0  0.39649  0.99098  0.30956  1.0000
  C   C863      1.0  0.27746  0.79888  0.31548  1.0000
  H   H1040     1.0  0.30902  0.90481  0.24012  1.0000
  H   H1041     1.0  0.45627  0.99532  0.04729  1.0000
  H   H1042     1.0  0.26477  0.67201  0.11620  1.0000
  C   C864      1.0  0.38364  0.95221  0.43396  1.0000
  C   C865      1.0  0.25008  0.84000  0.34358  1.0000
  C   C866      1.0  0.25893  0.68423  0.16490  1.0000
  C   C867      1.0  0.39917  0.96037  0.42490  1.0000
  C   C868      1.0  0.28938  0.76944  0.31794  1.0000
  H   H1043     1.0  0.37242  0.95122  0.42028  1.0000
  C   C869      1.0  0.49826  0.92616  0.10317  1.0000
  H   H1044     1.0  0.48800  0.96065  0.01252  1.0000
  H   H1045     1.0  0.42037  0.98641  0.40320  1.0000
  C   C870      1.0  0.47890  0.96795  0.05481  1.0000
  H   H1046     1.0  0.38880  0.99258  0.40697  1.0000
  C   C871      1.0  0.25490  0.68017  0.10588  1.0000
  H   H1047     1.0  0.32904  0.92210  0.26915  1.0000
  H   H1048     1.0  0.41829  0.97967  0.36754  1.0000
  H   H1049     1.0  0.45996  0.97464  0.00625  1.0000
  H   H1050     1.0  0.49198  0.95561  0.16869  1.0000
  N   N59       1.0  0.34783  0.95510  0.19295  1.0000
  C   C872      1.0  0.36651  0.94937  0.19539  1.0000
  C   C873      1.0  0.34414  0.95833  0.16279  1.0000
  C   C874      1.0  0.34526  0.97213  0.20787  1.0000
  C   C875      1.0  0.33671  0.94159  0.20556  1.0000
  C   C876      1.0  0.32512  0.93130  0.18950  1.0000
  C   C877      1.0  0.39736  0.95328  0.37534  1.0000
  C   C878      1.0  0.38757  0.84136  0.16266  1.0000
  H   H1051     1.0  0.33343  0.83163  0.22072  1.0000
  H   H1052     1.0  0.36908  0.93672  0.18420  1.0000
  H   H1053     1.0  0.45411  0.95480  0.08946  1.0000
  H   H1054     1.0  0.37521  0.95922  0.18608  1.0000
  H   H1055     1.0  0.46005  0.95109  0.01256  1.0000
  H   H1056     1.0  0.34744  0.94649  0.14978  1.0000
  H   H1057     1.0  0.35224  0.96904  0.15428  1.0000
  H   H1058     1.0  0.33015  0.96235  0.15928  1.0000
  H   H1059     1.0  0.33114  0.97634  0.20826  1.0000
  H   H1060     1.0  0.35012  0.97160  0.22980  1.0000
  H   H1061     1.0  0.35273  0.98277  0.19770  1.0000
  H   H1062     1.0  0.32395  0.93251  0.16705  1.0000
  C   C879      1.0  0.48539  0.97201  0.08186  1.0000
  H   H1063     1.0  0.40682  0.94201  0.37845  1.0000
  S   S238      1.0  0.38872  0.99323  0.17670  1.0000
  H   H1064     1.0  0.34485  0.84339  0.18182  1.0000
  H   H1065     1.0  0.35173  0.82402  0.24141  1.0000
  H   H1066     1.0  0.36696  0.86116  0.15957  1.0000
  H   H1067     1.0  0.36584  0.79403  0.22894  1.0000
  H   H1068     1.0  0.26033  0.74773  0.32972  1.0000
  C   C880      1.0  0.33427  0.80657  0.18251  1.0000
  H   H1069     1.0  0.38417  0.80103  0.19097  1.0000
  N   N60       1.0  0.27275  0.78010  0.31613  1.0000
  H   H1070     1.0  0.29583  0.77120  0.33863  1.0000
  C   C881      1.0  0.36216  0.82038  0.18895  1.0000
  C   C882      1.0  0.35525  0.79252  0.21315  1.0000
  H   H1071     1.0  0.42859  0.96490  0.39203  1.0000
  H   H1072     1.0  0.45926  0.93993  0.06127  1.0000
  C   C883      1.0  0.45086  0.98396  0.05865  1.0000
  H   H1073     1.0  0.30663  0.91041  0.18943  1.0000
  H   H1074     1.0  0.37329  0.97701  0.39514  1.0000
  C   C884      1.0  0.25424  0.78849  0.35895  1.0000
  C   C885      1.0  0.39462  0.99192  0.27262  1.0000
  H   H1075     1.0  0.44050  0.96408  0.01704  1.0000
  N   N61       1.0  0.34859  0.80987  0.20271  1.0000
  C   C886      1.0  0.33780  0.93794  0.23468  1.0000
  C   C887      1.0  0.32776  0.92495  0.24699  1.0000
  H   H1076     1.0  0.32368  0.79878  0.19218  1.0000
  H   H1077     1.0  0.36018  0.78397  0.19576  1.0000
  C   C888      1.0  0.34118  0.81970  0.22707  1.0000
  H   H1078     1.0  0.24911  0.71548  0.18124  1.0000
  H   H1079     1.0  0.26175  0.66829  0.06616  1.0000
  C   C889      1.0  0.41301  0.96150  0.44479  1.0000
  C   C890      1.0  0.41140  0.95456  0.47175  1.0000
  C   C891      1.0  0.39165  0.99254  0.21353  1.0000
  H   H1080     1.0  0.28425  0.80288  0.33502  1.0000
  H   H1081     1.0  0.44726  0.98478  0.25855  1.0000
  N   N62       1.0  0.40039  0.96742  0.39607  1.0000
  C   C892      1.0  0.26102  0.77570  0.33970  1.0000
  C   C893      1.0  0.49160  0.96421  0.03357  1.0000
  C   C894      1.0  0.38213  0.94548  0.46107  1.0000
  C   C895      1.0  0.25120  0.69326  0.35718  1.0000
  H   H1082     1.0  0.37004  0.93965  0.46781  1.0000
  H   H1083     1.0  0.26176  0.76188  0.28645  1.0000
  C   C896      1.0  0.25209  0.84526  0.37168  1.0000
  C   C897      1.0  0.25578  0.75813  0.34363  1.0000
  H   H1084     1.0  0.25052  0.70094  0.31393  1.0000
  H   H1085     1.0  0.47661  0.97424  0.09941  1.0000
  H   H1086     1.0  0.25754  0.66998  0.16129  1.0000
  H   H1087     1.0  0.28738  0.75519  0.31480  1.0000
  C   C898      1.0  0.39601  0.94660  0.47988  1.0000
  H   H1088     1.0  0.45614  0.99785  0.23094  1.0000
  C   C899      1.0  0.44677  0.99806  0.24878  1.0000
  Fe  Fe120     1.0  0.40091  0.96970  0.64468  1.0000
  S   S239      1.0  0.40715  0.94172  0.65726  1.0000
  H   H1089     1.0  0.30413  0.83810  0.60303  1.0000
  Fe  Fe121     1.0  0.39244  0.96023  0.58323  1.0000
  S   S240      1.0  0.39734  0.93133  0.59191  1.0000
  S   S241      1.0  0.38082  0.97119  0.54174  1.0000
  Fe  Fe122     1.0  0.38271  0.93477  0.63304  1.0000
  S   S242      1.0  0.35801  0.92165  0.65131  1.0000
  Fe  Fe123     1.0  0.42137  0.94024  0.61558  1.0000
  S   S243      1.0  0.44792  0.92675  0.60575  1.0000
  S   S244      1.0  0.37609  0.96307  0.62241  1.0000
  S   S245      1.0  0.41695  0.96879  0.60493  1.0000
  Fe  Fe124     1.0  0.29205  0.67490  0.73435  1.0000
  S   S246      1.0  0.30460  0.70125  0.72596  1.0000
  H   H1090     1.0  0.25787  0.82521  0.64433  1.0000
  Fe  Fe125     1.0  0.25984  0.84094  0.70503  1.0000
  S   S247      1.0  0.28218  0.82416  0.68855  1.0000
  H   H1091     1.0  0.35265  0.88870  0.77973  1.0000
  Fe  Fe126     1.0  0.27234  0.83779  0.76633  1.0000
  S   S248      1.0  0.29599  0.82115  0.75300  1.0000
  S   S249      1.0  0.26961  0.84291  0.81381  1.0000
  Fe  Fe127     1.0  0.29890  0.84052  0.71707  1.0000
  S   S250      1.0  0.32537  0.85062  0.70044  1.0000
  Fe  Fe128     1.0  0.27720  0.80660  0.72554  1.0000
  S   S251      1.0  0.26842  0.77806  0.72502  1.0000
  S   S252      1.0  0.27653  0.85802  0.73226  1.0000
  C   C900      1.0  0.32652  0.86576  0.61352  1.0000
  C   C901      1.0  0.29440  0.72255  0.72720  1.0000
  C   C902      1.0  0.27622  0.72505  0.73019  1.0000
  C   C903      1.0  0.26858  0.74215  0.72955  1.0000
  C   C904      1.0  0.27900  0.75696  0.72627  1.0000
  C   C905      1.0  0.29719  0.75449  0.72370  1.0000
  C   C906      1.0  0.30481  0.73736  0.72396  1.0000
  H   H1092     1.0  0.26803  0.71382  0.73279  1.0000
  H   H1093     1.0  0.29545  0.79913  0.80581  1.0000
  H   H1094     1.0  0.30538  0.76573  0.72105  1.0000
  H   H1095     1.0  0.31889  0.73556  0.72153  1.0000
  C   C907      1.0  0.34951  0.90187  0.66598  1.0000
  C   C908      1.0  0.33173  0.90174  0.67429  1.0000
  C   C909      1.0  0.32420  0.88644  0.68531  1.0000
  C   C910      1.0  0.33426  0.87078  0.68784  1.0000
  C   C911      1.0  0.35207  0.87095  0.67968  1.0000
  C   C912      1.0  0.35966  0.88633  0.66900  1.0000
  H   H1096     1.0  0.32364  0.91357  0.67199  1.0000
  H   H1097     1.0  0.31060  0.88680  0.69182  1.0000
  H   H1098     1.0  0.36009  0.85902  0.68155  1.0000
  H   H1099     1.0  0.37332  0.88605  0.66275  1.0000
  C   C913      1.0  0.46880  0.93456  0.61569  1.0000
  C   C914      1.0  0.47061  0.94652  0.63766  1.0000
  C   C915      1.0  0.48406  0.92763  0.60250  1.0000
  H   H1100     1.0  0.45903  0.95186  0.64815  1.0000
  H   H1101     1.0  0.27347  0.69289  0.69105  1.0000
  C   C916      1.0  0.26322  0.77087  0.89429  1.0000
  C   C917      1.0  0.37044  0.92802  0.76451  1.0000
  H   H1102     1.0  0.26878  0.75862  0.80380  1.0000
  H   H1103     1.0  0.28160  0.88179  0.64854  1.0000
  C   C918      1.0  0.33798  0.89409  0.60160  1.0000
  C   C919      1.0  0.36811  0.91186  0.77766  1.0000
  C   C920      1.0  0.37810  0.94862  0.71153  1.0000
  C   C921      1.0  0.28810  0.79599  0.82524  1.0000
  H   H1104     1.0  0.28815  0.67201  0.64414  1.0000
  C   C922      1.0  0.30690  0.89135  0.61045  1.0000
  H   H1105     1.0  0.39464  0.94180  0.50115  1.0000
  C   C923      1.0  0.40791  0.97979  0.72282  1.0000
  H   H1106     1.0  0.41386  0.96848  0.76332  1.0000
  H   H1107     1.0  0.41241  0.96828  0.71128  1.0000
  H   H1108     1.0  0.29966  0.68802  0.66346  1.0000
  H   H1109     1.0  0.25751  0.81757  0.59391  1.0000
  C   C924      1.0  0.28571  0.86767  0.64818  1.0000
  C   C925      1.0  0.28007  0.71585  0.64988  1.0000
  S   S253      1.0  0.40359  0.99413  0.80471  1.0000
  H   H1110     1.0  0.38064  0.96046  0.69865  1.0000
  H   H1111     1.0  0.47895  0.92005  0.68866  1.0000
  C   C926      1.0  0.40615  0.99038  0.51318  1.0000
  H   H1112     1.0  0.33481  0.95814  0.72105  1.0000
  S   S254      1.0  0.25362  0.82271  0.74023  1.0000
  C   C927      1.0  0.27971  0.76771  0.80753  1.0000
  H   H1113     1.0  0.28610  0.83532  0.62633  1.0000
  C   C928      1.0  0.25794  0.84005  0.86842  1.0000
  H   H1114     1.0  0.29417  0.89790  0.61233  1.0000
  H   H1115     1.0  0.26889  0.72490  0.65545  1.0000
  C   C929      1.0  0.35874  0.93431  0.74335  1.0000
  C   C930      1.0  0.26511  0.69214  0.67197  1.0000
  H   H1116     1.0  0.27469  0.87841  0.59792  1.0000
  C   C931      1.0  0.35428  0.90136  0.76986  1.0000
  H   H1117     1.0  0.26886  0.85632  0.60170  1.0000
  H   H1118     1.0  0.36431  0.98456  0.49156  1.0000
  C   C932      1.0  0.48670  0.91031  0.67707  1.0000
  C   C933      1.0  0.34066  0.87622  0.60669  1.0000
  C   C934      1.0  0.40886  0.97999  0.75229  1.0000
  N   N63       1.0  0.27472  0.69738  0.64649  1.0000
  C   C935      1.0  0.47847  0.89966  0.65769  1.0000
  C   C936      1.0  0.26331  0.78169  0.84576  1.0000
  H   H1119     1.0  0.38996  0.94594  0.72462  1.0000
  H   H1120     1.0  0.34603  0.94749  0.69181  1.0000
  H   H1121     1.0  0.37693  0.93731  0.69691  1.0000
  H   H1122     1.0  0.29900  0.68953  0.62602  1.0000
  C   C937      1.0  0.34270  0.90700  0.74895  1.0000
  H   H1123     1.0  0.30700  0.84002  0.64068  1.0000
  H   H1124     1.0  0.35390  0.87056  0.60621  1.0000
  H   H1125     1.0  0.28596  0.86162  0.57762  1.0000
  H   H1126     1.0  0.25757  0.80687  0.80391  1.0000
  H   H1127     1.0  0.27379  0.86013  0.65304  1.0000
  H   H1128     1.0  0.33219  0.89859  0.74250  1.0000
  C   C938      1.0  0.29801  0.84310  0.62277  1.0000
  C   C939      1.0  0.30908  0.87298  0.61504  1.0000
  N   N64       1.0  0.36202  0.95102  0.72867  1.0000
  H   H1129     1.0  0.34908  0.90223  0.59715  1.0000
  C   C940      1.0  0.36461  0.96546  0.74908  1.0000
  H   H1130     1.0  0.25639  0.68619  0.84170  1.0000
  N   N65       1.0  0.27302  0.78468  0.81938  1.0000
  H   H1131     1.0  0.32968  0.85214  0.61802  1.0000
  H   H1132     1.0  0.36656  0.97828  0.73842  1.0000
  H   H1133     1.0  0.28357  0.80874  0.83472  1.0000
  H   H1134     1.0  0.27099  0.84409  0.87400  1.0000
  H   H1135     1.0  0.35315  0.96706  0.76342  1.0000
  H   H1136     1.0  0.29515  0.86537  0.66569  1.0000
  H   H1137     1.0  0.37652  0.96337  0.76225  1.0000
  C   C941      1.0  0.28030  0.86479  0.59860  1.0000
  N   N66       1.0  0.29365  0.86222  0.62104  1.0000
  H   H1138     1.0  0.33558  0.92655  0.71939  1.0000
  H   H1139     1.0  0.28514  0.76796  0.86688  1.0000
  C   C942      1.0  0.26219  0.79350  0.79735  1.0000
  H   H1140     1.0  0.25449  0.74392  0.73159  1.0000
  C   C943      1.0  0.48747  0.95095  0.64700  1.0000
  C   C944      1.0  0.32116  0.90168  0.60373  1.0000
  C   C945      1.0  0.34481  0.92321  0.73582  1.0000
  H   H1141     1.0  0.28980  0.71718  0.66718  1.0000
  C   C946      1.0  0.38892  0.98449  0.51386  1.0000
  C   C947      1.0  0.27172  0.77290  0.86856  1.0000
  H   H1142     1.0  0.41505  0.98704  0.53013  1.0000
  H   H1143     1.0  0.29773  0.78975  0.83990  1.0000
  H   H1144     1.0  0.26078  0.67839  0.67015  1.0000
  C   C948      1.0  0.34752  0.95678  0.70963  1.0000
  H   H1145     1.0  0.38173  0.93537  0.77063  1.0000
  H   H1146     1.0  0.48280  0.91827  0.58562  1.0000
  H   H1147     1.0  0.35009  0.96972  0.69980  1.0000
  H   H1148     1.0  0.48195  0.87978  0.62621  1.0000
  H   H1149     1.0  0.40399  0.98635  0.94060  1.0000
  H   H1150     1.0  0.37725  0.90732  0.79370  1.0000
  H   H1151     1.0  0.28954  0.76095  0.82127  1.0000
  H   H1152     1.0  0.28622  0.72076  0.63037  1.0000
  C   C949      1.0  0.48842  0.88771  0.64175  1.0000
  H   H1153     1.0  0.40193  0.96400  0.97834  1.0000
  H   H1154     1.0  0.31931  0.91573  0.60079  1.0000
  H   H1155     1.0  0.26988  0.79539  0.77786  1.0000
  H   H1156     1.0  0.27004  0.76446  0.91161  1.0000
  H   H1157     1.0  0.25070  0.78564  0.79137  1.0000
  H   H1158     1.0  0.28636  0.76956  0.78694  1.0000
  C   C950      1.0  0.26312  0.69570  0.62175  1.0000
  H   H1159     1.0  0.42193  0.95588  0.48684  1.0000
  C   C951      1.0  0.37766  0.98900  0.49136  1.0000
  S   S255      1.0  0.26471  0.67132  0.75019  1.0000
  H   H1160     1.0  0.27746  0.67395  0.60044  1.0000
  C   C952      1.0  0.29107  0.68624  0.64476  1.0000
  C   C953      1.0  0.24874  0.83195  0.63053  1.0000
  H   H1161     1.0  0.26187  0.71764  0.83374  1.0000
  C   C954      1.0  0.26642  0.68318  0.60005  1.0000
  H   H1162     1.0  0.48870  0.95974  0.66467  1.0000
  C   C955      1.0  0.25513  0.68196  0.57704  1.0000
  H   H1163     1.0  0.46440  0.90114  0.65431  1.0000
  C   C956      1.0  0.40552  0.99019  0.96226  1.0000
  C   C957      1.0  0.40349  0.99501  0.76760  1.0000
  H   H1164     1.0  0.39694  0.99618  0.57634  1.0000
  C   C958      1.0  0.24951  0.69618  0.85420  1.0000
  H   H1165     1.0  0.25771  0.67210  0.56096  1.0000
  C   C959      1.0  0.40120  0.99449  0.70838  1.0000
  S   S256      1.0  0.39867  0.99444  0.67144  1.0000
  C   C960      1.0  0.25353  0.83824  0.83991  1.0000
  H   H1166     1.0  0.25319  0.70055  0.67593  1.0000
  C   C961      1.0  0.25263  0.71388  0.84976  1.0000
  H   H1167     1.0  0.24935  0.83820  0.91162  1.0000
  Fe  Fe129     1.0  0.70009  0.15123  0.21467  1.0000
  S   S257      1.0  0.67123  0.15439  0.22508  1.0000
  S   S258      1.0  0.70656  0.15635  0.16810  1.0000
  Fe  Fe130     1.0  0.70901  0.14827  0.27778  1.0000
  S   S259      1.0  0.68101  0.15193  0.29197  1.0000
  S   S260      1.0  0.73229  0.14254  0.30636  1.0000
  Fe  Fe131     1.0  0.67488  0.13290  0.25733  1.0000
  S   S261      1.0  0.65955  0.10722  0.26012  1.0000
  Fe  Fe132     1.0  0.67976  0.17308  0.25876  1.0000
  S   S262      1.0  0.66525  0.19953  0.26327  1.0000
  S   S263      1.0  0.70326  0.12833  0.24448  1.0000
  S   S264      1.0  0.70823  0.17084  0.24720  1.0000
  Fe  Fe133     1.0  0.69690  0.30059  0.26869  1.0000
  S   S265      1.0  0.72256  0.31033  0.25248  1.0000
  S   S266      1.0  0.70229  0.27234  0.28307  1.0000
  H   H1168     1.0  0.68430  0.21104  0.21037  1.0000
  Fe  Fe134     1.0  0.55217  0.03345  0.36724  1.0000
  C   C962      1.0  0.70029  0.20751  0.34454  1.0000
  S   S267      1.0  0.52405  0.03844  0.38295  1.0000
  Fe  Fe135     1.0  0.58838  0.04841  0.35012  1.0000
  S   S268      1.0  0.60263  0.02266  0.36004  1.0000
  S   S269      1.0  0.59984  0.07562  0.34024  1.0000
  Fe  Fe136     1.0  0.57978  0.01045  0.33763  1.0000
  C   C963      1.0  0.49964  0.00269  0.27962  1.0000
  Fe  Fe137     1.0  0.58569  0.02094  0.39905  1.0000
  C   C964      1.0  0.72607  0.20820  0.37554  1.0000
  S   S270      1.0  0.56623  0.03613  0.32589  1.0000
  S   S271      1.0  0.57311  0.04751  0.39069  1.0000
  H   H1169     1.0  0.68377  0.27031  0.20075  1.0000
  H   H1170     1.0  0.72019  0.10333  0.33939  1.0000
  H   H1171     1.0  0.54006  0.11789  0.36412  1.0000
  C   C965      1.0  0.74172  0.26302  0.32827  1.0000
  S   S272      1.0  0.73218  0.14263  0.43957  1.0000
  C   C966      1.0  0.67354  0.05221  0.35604  1.0000
  H   H1172     1.0  0.58572  0.01689  0.21806  1.0000
  H   H1173     1.0  0.58584  0.01576  0.27007  1.0000
  N   N67       1.0  0.74001  0.19864  0.39162  1.0000
  C   C967      1.0  0.58334  0.00404  0.25807  1.0000
  H   H1174     1.0  0.73269  0.16073  0.07391  1.0000
  Fe  Fe138     1.0  0.70683  0.32457  0.21928  1.0000
  H   H1175     1.0  0.51305  0.04754  0.32536  1.0000
  C   C968      1.0  0.64313  0.09870  0.28309  1.0000
  C   C969      1.0  0.63382  0.10921  0.30247  1.0000
  C   C970      1.0  0.62066  0.10192  0.31953  1.0000
  C   C971      1.0  0.61665  0.08398  0.31781  1.0000
  C   C972      1.0  0.62614  0.07342  0.29870  1.0000
  C   C973      1.0  0.63918  0.08075  0.28145  1.0000
  H   H1176     1.0  0.63651  0.12304  0.30403  1.0000
  H   H1177     1.0  0.61350  0.11030  0.33417  1.0000
  H   H1178     1.0  0.62336  0.05962  0.29702  1.0000
  H   H1179     1.0  0.64621  0.07239  0.26662  1.0000
  C   C974      1.0  0.67591  0.21977  0.26703  1.0000
  C   C975      1.0  0.66597  0.23563  0.26534  1.0000
  C   C976      1.0  0.67392  0.25194  0.26906  1.0000
  C   C977      1.0  0.69187  0.25249  0.27497  1.0000
  C   C978      1.0  0.70186  0.23666  0.27616  1.0000
  C   C979      1.0  0.69397  0.22040  0.27199  1.0000
  H   H1180     1.0  0.65198  0.23526  0.26145  1.0000
  H   H1181     1.0  0.66605  0.26401  0.26832  1.0000
  H   H1182     1.0  0.71576  0.23693  0.28072  1.0000
  H   H1183     1.0  0.70179  0.20832  0.27326  1.0000
  H   H1184     1.0  0.71263  0.32985  0.34657  1.0000
  H   H1185     1.0  0.54348  0.11077  0.32855  1.0000
  H   H1186     1.0  0.69871  0.19374  0.17268  1.0000
  C   C980      1.0  0.72201  0.14976  0.14153  1.0000
  C   C981      1.0  0.72193  0.15893  0.11587  1.0000
  C   C982      1.0  0.72783  0.32327  0.14542  1.0000
  H   H1187     1.0  0.69908  0.13666  0.07446  1.0000
  H   H1188     1.0  0.71275  0.32565  0.39788  1.0000
  C   C983      1.0  0.69264  0.21753  0.19538  1.0000
  C   C984      1.0  0.73178  0.14237  0.34336  1.0000
  C   C985      1.0  0.56481  0.00034  0.98891  1.0000
  C   C986      1.0  0.71638  0.14451  0.38790  1.0000
  C   C987      1.0  0.71614  0.14485  0.35841  1.0000
  H   H1189     1.0  0.70422  0.14633  0.39943  1.0000
  H   H1190     1.0  0.70388  0.14712  0.34739  1.0000
  C   C988      1.0  0.73231  0.14231  0.40255  1.0000
  N   N68       1.0  0.70886  0.26350  0.18133  1.0000
  C   C989      1.0  0.71950  0.27101  0.15842  1.0000
  C   C990      1.0  0.69170  0.27333  0.18189  1.0000
  C   C991      1.0  0.71814  0.26672  0.20804  1.0000
  C   C992      1.0  0.70607  0.24443  0.17822  1.0000
  C   C993      1.0  0.69529  0.23557  0.19755  1.0000
  H   H1191     1.0  0.71310  0.26936  0.13766  1.0000
  H   H1192     1.0  0.72100  0.08687  0.10017  1.0000
  H   H1193     1.0  0.71218  0.31169  0.11305  1.0000
  H   H1194     1.0  0.68372  0.27035  0.16305  1.0000
  H   H1195     1.0  0.73288  0.23515  0.38688  1.0000
  H   H1196     1.0  0.73303  0.26508  0.15782  1.0000
  C   C994      1.0  0.71413  0.23403  0.15667  1.0000
  C   C995      1.0  0.73324  0.15375  0.09362  1.0000
  H   H1197     1.0  0.71722  0.08090  0.34842  1.0000
  H   H1198     1.0  0.72458  0.19781  0.42936  1.0000
  H   H1199     1.0  0.70835  0.09707  0.29082  1.0000
  H   H1200     1.0  0.71281  0.16995  0.11299  1.0000
  C   C996      1.0  0.65210  0.07598  0.36071  1.0000
  H   H1201     1.0  0.56022  0.07504  0.34032  1.0000
  S   S273      1.0  0.68104  0.31400  0.23447  1.0000
  C   C997      1.0  0.54582  0.10718  0.35080  1.0000
  C   C998      1.0  0.58995  0.00077  0.47074  1.0000
  C   C999      1.0  0.72454  0.31762  0.11780  1.0000
  H   H1202     1.0  0.69099  0.20008  0.33241  1.0000
  H   H1203     1.0  0.67704  0.03837  0.35823  1.0000
  S   S274      1.0  0.71113  0.32080  0.17156  1.0000
  H   H1204     1.0  0.70972  0.24967  0.35964  1.0000
  H   H1205     1.0  0.68890  0.24249  0.21469  1.0000
  H   H1206     1.0  0.73095  0.25931  0.20892  1.0000
  H   H1207     1.0  0.69786  0.12094  0.31812  1.0000
  C   C1000     1.0  0.71145  0.21595  0.15482  1.0000
  C   C1001     1.0  0.50121  0.00226  0.30867  1.0000
  H   H1208     1.0  0.73410  0.12821  0.16422  1.0000
  H   H1209     1.0  0.72240  0.17911  0.40698  1.0000
  H   H1210     1.0  0.70714  0.09805  0.36938  1.0000
  H   H1211     1.0  0.72117  0.28538  0.16126  1.0000
  H   H1212     1.0  0.56038  0.10702  0.35354  1.0000
  N   N69       1.0  0.69436  0.09395  0.32981  1.0000
  C   C1002     1.0  0.68776  0.11243  0.32743  1.0000
  C   C1003     1.0  0.71039  0.09399  0.34751  1.0000
  C   C1004     1.0  0.69928  0.08789  0.30123  1.0000
  C   C1005     1.0  0.68137  0.08201  0.34191  1.0000
  C   C1006     1.0  0.68572  0.06387  0.34545  1.0000
  C   C1007     1.0  0.66414  0.08775  0.35001  1.0000
  H   H1213     1.0  0.51404  0.00036  0.31832  1.0000
  H   H1214     1.0  0.63891  0.08054  0.36630  1.0000
  C   C1008     1.0  0.71089  0.23543  0.35983  1.0000
  H   H1215     1.0  0.68432  0.11813  0.34826  1.0000
  H   H1216     1.0  0.54261  0.07957  0.31645  1.0000
  H   H1217     1.0  0.71771  0.20818  0.13836  1.0000
  C   C1009     1.0  0.50149  0.04613  0.33820  1.0000
  H   H1218     1.0  0.70606  0.07477  0.30126  1.0000
  C   C1010     1.0  0.70073  0.20774  0.17412  1.0000
  C   C1011     1.0  0.73382  0.13545  0.14475  1.0000
  H   H1219     1.0  0.73407  0.31549  0.07507  1.0000
  H   H1220     1.0  0.51261  0.08053  0.39756  1.0000
  H   H1221     1.0  0.69853  0.05853  0.33969  1.0000
  H   H1222     1.0  0.65944  0.10120  0.34783  1.0000
  S   S275      1.0  0.59490  0.01684  0.44471  1.0000
  H   H1223     1.0  0.72071  0.28092  0.21101  1.0000
  S   S276      1.0  0.56415  0.00690  0.37731  1.0000
  N   N70       1.0  0.67663  0.11174  0.15671  1.0000
  C   C1012     1.0  0.66521  0.12783  0.15969  1.0000
  C   C1013     1.0  0.66501  0.09649  0.15523  1.0000
  C   C1014     1.0  0.68750  0.11018  0.18242  1.0000
  C   C1015     1.0  0.68819  0.11190  0.13172  1.0000
  C   C1016     1.0  0.68795  0.12594  0.11208  1.0000
  C   C1017     1.0  0.70027  0.09767  0.12651  1.0000
  C   C1018     1.0  0.69915  0.12565  0.08884  1.0000
  C   C1019     1.0  0.71157  0.09764  0.10340  1.0000
  C   C1020     1.0  0.71103  0.11162  0.08464  1.0000
  H   H1224     1.0  0.65611  0.12953  0.14160  1.0000
  H   H1225     1.0  0.65686  0.12738  0.17885  1.0000
  H   H1226     1.0  0.67316  0.13980  0.16171  1.0000
  H   H1227     1.0  0.65693  0.09694  0.13579  1.0000
  H   H1228     1.0  0.65587  0.09619  0.17348  1.0000
  H   H1229     1.0  0.67253  0.08375  0.15533  1.0000
  H   H1230     1.0  0.69717  0.12085  0.18328  1.0000
  H   H1231     1.0  0.67930  0.11103  0.20177  1.0000
  H   H1232     1.0  0.69504  0.09750  0.18366  1.0000
  H   H1233     1.0  0.67958  0.13754  0.11451  1.0000
  H   H1234     1.0  0.70124  0.08654  0.14048  1.0000
  H   H1235     1.0  0.73406  0.25733  0.31160  1.0000
  H   H1236     1.0  0.67604  0.11355  0.31352  1.0000
  C   C1021     1.0  0.72423  0.22686  0.37527  1.0000
  C   C1022     1.0  0.65673  0.05825  0.36354  1.0000
  H   H1237     1.0  0.54004  0.06344  0.34328  1.0000
  S   S277      1.0  0.69246  0.32314  0.29889  1.0000
  H   H1238     1.0  0.68741  0.08698  0.28770  1.0000
  H   H1239     1.0  0.72013  0.11179  0.06713  1.0000
  C   C1023     1.0  0.71351  0.19880  0.35999  1.0000
  H   H1240     1.0  0.69340  0.28782  0.18245  1.0000
  C   C1024     1.0  0.69897  0.22578  0.34452  1.0000
  C   C1025     1.0  0.58329  0.00463  0.22860  1.0000
  N   N71       1.0  0.53842  0.08999  0.35823  1.0000
  C   C1026     1.0  0.54480  0.08541  0.38680  1.0000
  C   C1027     1.0  0.54563  0.07646  0.33870  1.0000
  C   C1028     1.0  0.51901  0.09081  0.35584  1.0000
  H   H1241     1.0  0.54476  0.02601  0.43395  1.0000
  H   H1242     1.0  0.55104  0.00426  0.98834  1.0000
  H   H1243     1.0  0.51858  0.09974  0.31238  1.0000
  C   C1029     1.0  0.52774  0.00730  0.45265  1.0000
  C   C1030     1.0  0.73694  0.31986  0.09608  1.0000
  H   H1244     1.0  0.54096  0.07196  0.39299  1.0000
  H   H1245     1.0  0.55943  0.08534  0.38808  1.0000
  H   H1246     1.0  0.53967  0.09495  0.40269  1.0000
  H   H1247     1.0  0.64718  0.04918  0.37136  1.0000
  H   H1248     1.0  0.68867  0.23248  0.33254  1.0000
  H   H1249     1.0  0.72758  0.28785  0.32655  1.0000
  C   C1031     1.0  0.50771  0.08561  0.37786  1.0000
  H   H1250     1.0  0.71037  0.26266  0.22648  1.0000
  H   H1251     1.0  0.51132  0.00099  0.26674  1.0000
  H   H1252     1.0  0.52027  0.00563  0.43352  1.0000
  C   C1032     1.0  0.73185  0.18880  0.41474  1.0000
  C   C1033     1.0  0.74764  0.13981  0.35804  1.0000
  C   C1034     1.0  0.74479  0.13921  0.09665  1.0000
  H   H1253     1.0  0.72257  0.23951  0.14101  1.0000
  H   H1254     1.0  0.74125  0.17568  0.36479  1.0000
  H   H1255     1.0  0.71372  0.18460  0.35969  1.0000
  C   C1035     1.0  0.73806  0.28024  0.33677  1.0000
  C   C1036     1.0  0.51086  0.09618  0.33035  1.0000
  C   C1037     1.0  0.50328  0.04121  0.36631  1.0000
  H   H1256     1.0  0.74187  0.18128  0.42733  1.0000
  C   C1038     1.0  0.54149  0.01890  0.45282  1.0000
  C   C1039     1.0  0.74509  0.13024  0.12248  1.0000
  C   C1040     1.0  0.55130  0.02108  0.47708  1.0000
  C   C1041     1.0  0.74389  0.33100  0.15103  1.0000
  H   H1257     1.0  0.56234  0.02975  0.47677  1.0000
  C   C1042     1.0  0.74791  0.28776  0.35809  1.0000
  C   C1043     1.0  0.74795  0.14005  0.38750  1.0000
  H   H1258     1.0  0.74461  0.30121  0.36375  1.0000
  H   H1259     1.0  0.74726  0.21906  0.42055  1.0000
  Fe  Fe139     1.0  0.70099  0.15720  0.71265  1.0000
  S   S278      1.0  0.67275  0.16189  0.72611  1.0000
  S   S279      1.0  0.70567  0.16241  0.66563  1.0000
  Fe  Fe140     1.0  0.71208  0.15204  0.77414  1.0000
  S   S280      1.0  0.68488  0.15675  0.79138  1.0000
  H   H1260     1.0  0.71245  0.14546  0.51842  1.0000
  Fe  Fe141     1.0  0.67635  0.13921  0.75626  1.0000
  S   S281      1.0  0.65644  0.11696  0.75863  1.0000
  Fe  Fe142     1.0  0.68356  0.17894  0.76002  1.0000
  S   S282      1.0  0.67080  0.20564  0.77014  1.0000
  S   S283      1.0  0.70392  0.13318  0.74036  1.0000
  S   S284      1.0  0.71138  0.17549  0.74539  1.0000
  Fe  Fe143     1.0  0.70483  0.30517  0.77058  1.0000
  S   S285      1.0  0.72868  0.31776  0.75290  1.0000
  S   S286      1.0  0.71255  0.27644  0.77885  1.0000
  H   H1261     1.0  0.58661  0.12767  0.82607  1.0000
  Fe  Fe144     1.0  0.55674  0.04814  0.84743  1.0000
  S   S287      1.0  0.55779  0.01996  0.86038  1.0000
  S   S288      1.0  0.53346  0.06617  0.83591  1.0000
  Fe  Fe145     1.0  0.59654  0.05228  0.85479  1.0000
  S   S289      1.0  0.60052  0.02405  0.86941  1.0000
  S   S290      1.0  0.61757  0.07357  0.85496  1.0000
  Fe  Fe146     1.0  0.58220  0.01763  0.83385  1.0000
  C   C1044     1.0  0.60528  0.11929  0.75171  1.0000
  Fe  Fe147     1.0  0.57583  0.02791  0.89529  1.0000
  S   S291      1.0  0.56659  0.01732  0.93794  1.0000
  S   S292      1.0  0.57977  0.04533  0.81776  1.0000
  S   S293      1.0  0.57324  0.05660  0.88371  1.0000
  H   H1262     1.0  0.69586  0.06610  0.81853  1.0000
  H   H1263     1.0  0.56728  0.08264  0.83523  1.0000
  H   H1264     1.0  0.70134  0.27239  0.64449  1.0000
  H   H1265     1.0  0.71612  0.28776  0.88813  1.0000
  H   H1266     1.0  0.70654  0.15027  0.84022  1.0000
  C   C1045     1.0  0.71384  0.11836  0.61258  1.0000
  H   H1267     1.0  0.70533  0.15132  0.89207  1.0000
  C   C1046     1.0  0.73834  0.10964  0.53350  1.0000
  C   C1047     1.0  0.51026  0.06454  0.83784  1.0000
  C   C1048     1.0  0.59404  0.00599  0.72772  1.0000
  C   C1049     1.0  0.71874  0.23744  0.67482  1.0000
  H   H1268     1.0  0.71518  0.10814  0.49339  1.0000
  C   C1050     1.0  0.72467  0.13732  0.52124  1.0000
  C   C1051     1.0  0.64522  0.10555  0.78580  1.0000
  C   C1052     1.0  0.64596  0.11053  0.81402  1.0000
  C   C1053     1.0  0.63723  0.10076  0.83469  1.0000
  C   C1054     1.0  0.62756  0.08591  0.82761  1.0000
  C   C1055     1.0  0.62657  0.08111  0.79935  1.0000
  C   C1056     1.0  0.63539  0.09081  0.77870  1.0000
  H   H1269     1.0  0.65329  0.12188  0.81998  1.0000
  H   H1270     1.0  0.63801  0.10473  0.85640  1.0000
  H   H1271     1.0  0.61929  0.06972  0.79342  1.0000
  H   H1272     1.0  0.63466  0.08679  0.75700  1.0000
  C   C1057     1.0  0.68239  0.22545  0.76999  1.0000
  C   C1058     1.0  0.67315  0.24150  0.77432  1.0000
  C   C1059     1.0  0.68208  0.25741  0.77590  1.0000
  C   C1060     1.0  0.70038  0.25730  0.77379  1.0000
  C   C1061     1.0  0.70959  0.24129  0.76908  1.0000
  C   C1062     1.0  0.70064  0.22549  0.76675  1.0000
  H   H1273     1.0  0.65901  0.24161  0.77678  1.0000
  H   H1274     1.0  0.67485  0.26964  0.77973  1.0000
  H   H1275     1.0  0.72375  0.24110  0.76710  1.0000
  H   H1276     1.0  0.70789  0.21336  0.76263  1.0000
  H   H1277     1.0  0.74381  0.10790  0.51200  1.0000
  H   H1278     1.0  0.69179  0.12945  0.63536  1.0000
  C   C1063     1.0  0.69639  0.28023  0.69918  1.0000
  C   C1064     1.0  0.72273  0.15882  0.64027  1.0000
  C   C1065     1.0  0.72044  0.16580  0.61312  1.0000
  H   H1279     1.0  0.72573  0.26680  0.72460  1.0000
  H   H1280     1.0  0.68979  0.13625  0.54670  1.0000
  H   H1281     1.0  0.70868  0.17358  0.60844  1.0000
  S   S294      1.0  0.69991  0.32608  0.80331  1.0000
  C   C1066     1.0  0.73465  0.14669  0.83844  1.0000
  H   H1282     1.0  0.51510  0.06370  0.89907  1.0000
  C   C1067     1.0  0.68904  0.13331  0.59091  1.0000
  H   H1283     1.0  0.73085  0.24147  0.66542  1.0000
  C   C1068     1.0  0.56509  0.08620  0.78054  1.0000
  C   C1069     1.0  0.55493  0.11104  0.80754  1.0000
  S   S295      1.0  0.73606  0.14676  0.80146  1.0000
  H   H1284     1.0  0.60251  0.00406  0.95162  1.0000
  C   C1070     1.0  0.70674  0.24992  0.68701  1.0000
  H   H1285     1.0  0.73032  0.09919  0.82758  1.0000
  H   H1286     1.0  0.69459  0.27744  0.72189  1.0000
  C   C1071     1.0  0.57592  0.00543  0.96694  1.0000
  C   C1072     1.0  0.50986  0.05292  0.91098  1.0000
  N   N72       1.0  0.72136  0.11982  0.53330  1.0000
  C   C1073     1.0  0.71196  0.19379  0.81782  1.0000
  C   C1074     1.0  0.51477  0.02675  0.93854  1.0000
  C   C1075     1.0  0.69812  0.10838  0.89614  1.0000
  H   H1287     1.0  0.70032  0.19537  0.80391  1.0000
  H   H1288     1.0  0.74076  0.28645  0.92403  1.0000
  C   C1076     1.0  0.72359  0.19922  0.86548  1.0000
  C   C1077     1.0  0.53364  0.99953  0.50186  1.0000
  H   H1289     1.0  0.74003  0.14325  0.66656  1.0000
  H   H1290     1.0  0.66041  0.08615  0.88891  1.0000
  C   C1078     1.0  0.57731  0.09120  0.82590  1.0000
  C   C1079     1.0  0.50034  0.08014  0.83423  1.0000
  H   H1291     1.0  0.50848  0.00690  0.53951  1.0000
  C   C1080     1.0  0.70514  0.10587  0.86930  1.0000
  H   H1292     1.0  0.70578  0.09757  0.52342  1.0000
  H   H1293     1.0  0.71770  0.11162  0.86548  1.0000
  H   H1294     1.0  0.72467  0.26845  0.64725  1.0000
  H   H1295     1.0  0.67656  0.14045  0.59295  1.0000
  H   H1296     1.0  0.55473  0.07799  0.78990  1.0000
  C   C1081     1.0  0.52137  0.04076  0.92358  1.0000
  H   H1297     1.0  0.57619  0.07694  0.77512  1.0000
  H   H1298     1.0  0.68159  0.19373  0.84270  1.0000
  H   H1299     1.0  0.74198  0.18505  0.83715  1.0000
  H   H1300     1.0  0.73098  0.13622  0.50024  1.0000
  H   H1301     1.0  0.61116  0.11682  0.73133  1.0000
  H   H1302     1.0  0.55943  0.09191  0.76097  1.0000
  H   H1303     1.0  0.54996  0.11853  0.78901  1.0000
  H   H1304     1.0  0.72966  0.28614  0.70444  1.0000
  C   C1082     1.0  0.69677  0.13086  0.56457  1.0000
  H   H1305     1.0  0.61006  0.14570  0.80818  1.0000
  H   H1306     1.0  0.71739  0.06976  0.83216  1.0000
  C   C1083     1.0  0.71539  0.21946  0.67472  1.0000
  H   H1307     1.0  0.68487  0.11240  0.80229  1.0000
  H   H1308     1.0  0.68366  0.27870  0.68816  1.0000
  C   C1084     1.0  0.73324  0.14750  0.89754  1.0000
  H   H1309     1.0  0.73355  0.14480  0.53503  1.0000
  C   C1085     1.0  0.68203  0.10135  0.90316  1.0000
  C   C1086     1.0  0.73970  0.19054  0.85776  1.0000
  H   H1310     1.0  0.68168  0.25152  0.71004  1.0000
  C   C1087     1.0  0.71852  0.14895  0.85217  1.0000
  C   C1088     1.0  0.68813  0.22522  0.69914  1.0000
  C   C1089     1.0  0.59492  0.00369  0.49880  1.0000
  H   H1311     1.0  0.59825  0.01740  0.71638  1.0000
  H   H1312     1.0  0.67229  0.08139  0.84212  1.0000
  H   H1313     1.0  0.72228  0.31015  0.88335  1.0000
  N   N73       1.0  0.71058  0.26889  0.68673  1.0000
  C   C1090     1.0  0.71785  0.14947  0.88157  1.0000
  H   H1314     1.0  0.70074  0.22729  0.86186  1.0000
  N   N74       1.0  0.70857  0.20155  0.84594  1.0000
  H   H1315     1.0  0.72052  0.29619  0.85373  1.0000
  H   H1316     1.0  0.71558  0.22739  0.83270  1.0000
  H   H1317     1.0  0.67665  0.10336  0.92398  1.0000
  N   N75       1.0  0.70311  0.09328  0.81989  1.0000
  C   C1091     1.0  0.73307  0.16263  0.59183  1.0000
  H   H1318     1.0  0.50897  0.03667  0.84523  1.0000
  H   H1319     1.0  0.53547  0.04217  0.92168  1.0000
  H   H1320     1.0  0.55757  0.12060  0.82449  1.0000
  H   H1321     1.0  0.71319  0.07154  0.79509  1.0000
  C   C1092     1.0  0.59371  0.00025  0.96816  1.0000
  H   H1322     1.0  0.67817  0.09011  0.79873  1.0000
  C   C1093     1.0  0.69606  0.09630  0.84849  1.0000
  C   C1094     1.0  0.59194  0.10869  0.76156  1.0000
  S   S296      1.0  0.68673  0.31844  0.73940  1.0000
  H   H1323     1.0  0.53928  0.00673  0.55818  1.0000
  H   H1324     1.0  0.58792  0.09837  0.74769  1.0000
  H   H1325     1.0  0.59464  0.01892  0.76810  1.0000
  C   C1095     1.0  0.61168  0.13265  0.76841  1.0000
  C   C1096     1.0  0.67294  0.09168  0.88343  1.0000
  H   H1326     1.0  0.68818  0.19938  0.87733  1.0000
  H   H1327     1.0  0.58107  0.10049  0.84263  1.0000
  C   C1097     1.0  0.73801  0.14875  0.64590  1.0000
  H   H1328     1.0  0.71641  0.11760  0.81660  1.0000
  H   H1329     1.0  0.62241  0.14043  0.76095  1.0000
  C   C1098     1.0  0.71910  0.10328  0.81388  1.0000
  H   H1330     1.0  0.72373  0.10144  0.79191  1.0000
  C   C1099     1.0  0.72227  0.20553  0.89345  1.0000
  H   H1331     1.0  0.58914  0.08284  0.82113  1.0000
  S   S297      1.0  0.73166  0.14853  0.93439  1.0000
  C   C1100     1.0  0.67984  0.08909  0.85655  1.0000
  C   C1101     1.0  0.58457  0.11126  0.78871  1.0000
  H   H1332     1.0  0.71536  0.28939  0.65661  1.0000
  C   C1102     1.0  0.69755  0.12704  0.61486  1.0000
  C   C1103     1.0  0.54757  0.01154  0.50127  1.0000
  N   N76       1.0  0.57072  0.10009  0.80022  1.0000
  H   H1333     1.0  0.69291  0.22266  0.82755  1.0000
  C   C1104     1.0  0.70431  0.22053  0.84196  1.0000
  H   H1334     1.0  0.60165  0.01555  0.50405  1.0000
  C   C1105     1.0  0.50145  0.04884  0.84254  1.0000
  C   C1106     1.0  0.70011  0.21338  0.68682  1.0000
  C   C1107     1.0  0.59136  0.12508  0.80510  1.0000
  H   H1335     1.0  0.69497  0.09795  0.77692  1.0000
  C   C1108     1.0  0.68974  0.09863  0.79869  1.0000
  C   C1109     1.0  0.60475  0.13553  0.79505  1.0000
  H   H1336     1.0  0.69578  0.17898  0.86229  1.0000
  C   C1110     1.0  0.70923  0.11050  0.51447  1.0000
  H   H1337     1.0  0.72304  0.20013  0.80700  1.0000
  C   C1111     1.0  0.70759  0.07434  0.81624  1.0000
  H   H1338     1.0  0.69949  0.29440  0.69765  1.0000
  H   H1339     1.0  0.54405  0.10283  0.81531  1.0000
  H   H1340     1.0  0.73474  0.10978  0.58640  1.0000
  H   H1341     1.0  0.73860  0.26528  0.69324  1.0000
  H   H1342     1.0  0.72468  0.21009  0.66531  1.0000
  H   H1343     1.0  0.73684  0.09627  0.54239  1.0000
  H   H1344     1.0  0.73101  0.16812  0.57119  1.0000
  H   H1345     1.0  0.67640  0.22034  0.70902  1.0000
  C   C1112     1.0  0.71337  0.12202  0.56144  1.0000
  H   H1346     1.0  0.71046  0.21223  0.90090  1.0000
  H   H1347     1.0  0.52391  0.01741  0.94834  1.0000
  C   C1113     1.0  0.59198  0.00689  0.75705  1.0000
  C   C1114     1.0  0.72687  0.27187  0.70284  1.0000
  H   H1348     1.0  0.73456  0.20741  0.93408  1.0000
  C   C1115     1.0  0.69135  0.24322  0.69947  1.0000
  H   H1349     1.0  0.69760  0.19942  0.68682  1.0000
  H   H1350     1.0  0.55616  0.01350  0.51891  1.0000
  C   C1116     1.0  0.71312  0.27496  0.65750  1.0000
  C   C1117     1.0  0.72178  0.11595  0.58638  1.0000
  H   H1351     1.0  0.72068  0.11410  0.63142  1.0000
  H   H1352     1.0  0.50691  0.09231  0.83055  1.0000
  H   H1353     1.0  0.70525  0.11586  0.91160  1.0000
  H   H1354     1.0  0.69680  0.11814  0.51066  1.0000
  C   C1118     1.0  0.73600  0.20292  0.91261  1.0000
  C   C1119     1.0  0.72482  0.29641  0.87600  1.0000
  C   C1120     1.0  0.69288  0.19307  0.85761  1.0000
  H   H1355     1.0  0.71493  0.17943  0.81905  1.0000
  H   H1356     1.0  0.74202  0.24615  0.81289  1.0000
  C   C1121     1.0  0.74196  0.26695  0.84338  1.0000
  H   H1357     1.0  0.73635  0.27620  0.82840  1.0000
  H   H1358     1.0  0.71238  0.32532  0.61428  1.0000
  C   C1122     1.0  0.73795  0.33097  0.59734  1.0000
  H   H1359     1.0  0.74605  0.30841  0.91501  1.0000
  H   H1360     1.0  0.73405  0.32893  0.57583  1.0000
  C   C1123     1.0  0.72564  0.32893  0.61930  1.0000
  S   S298      1.0  0.71381  0.32914  0.67433  1.0000
  C   C1124     1.0  0.74625  0.27230  0.87098  1.0000
  N   N77       1.0  0.74356  0.29089  0.87950  1.0000
  C   C1125     1.0  0.74518  0.24971  0.83427  1.0000
  C   C1126     1.0  0.74818  0.15224  0.59729  1.0000
  C   C1127     1.0  0.72938  0.36756  0.09318  1.0000
  S   S299      1.0  0.70373  0.34895  0.24603  1.0000
  S   S300      1.0  0.65626  0.35874  0.26698  1.0000
  C   C1128     1.0  0.71271  0.62587  0.44185  1.0000
  H   H1361     1.0  0.70701  0.59108  0.20212  1.0000
  C   C1129     1.0  0.53799  0.47672  0.28437  1.0000
  H   H1362     1.0  0.65210  0.34371  0.44612  1.0000
  C   C1130     1.0  0.62915  0.39059  0.44843  1.0000
  Fe  Fe148     1.0  0.58844  0.46603  0.34502  1.0000
  S   S301      1.0  0.57433  0.44261  0.32891  1.0000
  S   S302      1.0  0.59612  0.49007  0.32040  1.0000
  Fe  Fe149     1.0  0.58608  0.45472  0.40715  1.0000
  S   S303      1.0  0.57165  0.43048  0.39506  1.0000
  S   S304      1.0  0.59517  0.45926  0.45256  1.0000
  Fe  Fe150     1.0  0.59158  0.42712  0.35969  1.0000
  S   S305      1.0  0.60753  0.40074  0.35709  1.0000
  Fe  Fe151     1.0  0.55574  0.44774  0.36529  1.0000
  S   S306      1.0  0.52658  0.45625  0.36378  1.0000
  S   S307      1.0  0.60664  0.45057  0.37356  1.0000
  S   S308      1.0  0.56932  0.47200  0.37969  1.0000
  Fe  Fe152     1.0  0.72081  0.64813  0.21832  1.0000
  S   S309      1.0  0.69396  0.65387  0.20086  1.0000
  H   H1363     1.0  0.72945  0.58941  0.07712  1.0000
  Fe  Fe153     1.0  0.70918  0.65460  0.27960  1.0000
  C   C1131     1.0  0.62306  0.47164  0.00769  1.0000
  H   H1364     1.0  0.62108  0.47276  0.05253  1.0000
  Fe  Fe154     1.0  0.68416  0.63716  0.23615  1.0000
  S   S310      1.0  0.66643  0.61300  0.23234  1.0000
  S   S311      1.0  0.71147  0.63031  0.25250  1.0000
  Fe  Fe155     1.0  0.59675  0.55147  0.14447  1.0000
  S   S312      1.0  0.60922  0.52601  0.12852  1.0000
  S   S313      1.0  0.60952  0.57846  0.15036  1.0000
  Fe  Fe156     1.0  0.55954  0.53551  0.14489  1.0000
  S   S314      1.0  0.56962  0.50935  0.12888  1.0000
  S   S315      1.0  0.53227  0.53860  0.16476  1.0000
  Fe  Fe157     1.0  0.59158  0.51285  0.15979  1.0000
  S   S316      1.0  0.59759  0.48892  0.18698  1.0000
  Fe  Fe158     1.0  0.58620  0.52437  0.09862  1.0000
  S   S317      1.0  0.59024  0.52019  0.05098  1.0000
  S   S318      1.0  0.58078  0.53819  0.17743  1.0000
  S   S319      1.0  0.57458  0.55067  0.11280  1.0000
  C   C1132     1.0  0.52000  0.47807  0.28951  1.0000
  H   H1365     1.0  0.70378  0.37102  0.01783  1.0000
  H   H1366     1.0  0.68815  0.37088  0.29041  1.0000
  H   H1367     1.0  0.52043  0.54659  0.10742  1.0000
  H   H1368     1.0  0.70185  0.58957  0.10244  1.0000
  C   C1133     1.0  0.65059  0.60376  0.20912  1.0000
  C   C1134     1.0  0.64529  0.58641  0.21370  1.0000
  C   C1135     1.0  0.63298  0.57838  0.19592  1.0000
  C   C1136     1.0  0.62560  0.58763  0.17323  1.0000
  C   C1137     1.0  0.63095  0.60496  0.16857  1.0000
  C   C1138     1.0  0.64335  0.61295  0.18625  1.0000
  H   H1369     1.0  0.65072  0.57910  0.23125  1.0000
  H   H1370     1.0  0.62909  0.56508  0.19997  1.0000
  H   H1371     1.0  0.62538  0.61233  0.15119  1.0000
  H   H1372     1.0  0.64712  0.62630  0.18235  1.0000
  C   C1139     1.0  0.70547  0.36979  0.41422  1.0000
  H   H1373     1.0  0.59863  0.40190  0.42096  1.0000
  C   C1140     1.0  0.58021  0.48720  0.03114  1.0000
  C   C1141     1.0  0.58637  0.50386  0.02475  1.0000
  H   H1374     1.0  0.71737  0.61012  0.37463  1.0000
  H   H1375     1.0  0.71777  0.34174  0.02314  1.0000
  H   H1376     1.0  0.57149  0.49078  0.45409  1.0000
  H   H1377     1.0  0.57736  0.48393  0.05267  1.0000
  C   C1142     1.0  0.74370  0.64021  0.15427  1.0000
  C   C1143     1.0  0.53335  0.48623  0.23563  1.0000
  C   C1144     1.0  0.59639  0.48958  0.28331  1.0000
  C   C1145     1.0  0.59720  0.50542  0.26837  1.0000
  C   C1146     1.0  0.59763  0.50545  0.23886  1.0000
  C   C1147     1.0  0.59746  0.48959  0.22407  1.0000
  C   C1148     1.0  0.59681  0.47375  0.23905  1.0000
  C   C1149     1.0  0.59611  0.47373  0.26852  1.0000
  H   H1378     1.0  0.59753  0.51773  0.27963  1.0000
  H   H1379     1.0  0.59830  0.51772  0.22760  1.0000
  H   H1380     1.0  0.59682  0.46141  0.22778  1.0000
  H   H1381     1.0  0.59566  0.46143  0.27976  1.0000
  H   H1382     1.0  0.59479  0.52052  0.99117  1.0000
  C   C1150     1.0  0.54462  0.48084  0.25796  1.0000
  C   C1151     1.0  0.50669  0.44813  0.43659  1.0000
  H   H1383     1.0  0.51542  0.42042  0.35105  1.0000
  H   H1384     1.0  0.51500  0.47496  0.31016  1.0000
  C   C1152     1.0  0.64345  0.37056  0.29288  1.0000
  C   C1153     1.0  0.63474  0.38648  0.28534  1.0000
  C   C1154     1.0  0.62402  0.39606  0.30466  1.0000
  C   C1155     1.0  0.62158  0.38974  0.33187  1.0000
  C   C1156     1.0  0.63042  0.37389  0.33949  1.0000
  C   C1157     1.0  0.64132  0.36442  0.32029  1.0000
  H   H1385     1.0  0.63611  0.39138  0.26421  1.0000
  H   H1386     1.0  0.61733  0.40813  0.29821  1.0000
  H   H1387     1.0  0.62851  0.36865  0.36020  1.0000
  H   H1388     1.0  0.64755  0.35207  0.32642  1.0000
  C   C1158     1.0  0.50575  0.44679  0.35907  1.0000
  H   H1389     1.0  0.55137  0.57660  0.19209  1.0000
  C   C1159     1.0  0.55213  0.47603  0.19727  1.0000
  H   H1390     1.0  0.56445  0.58833  0.11906  1.0000
  C   C1160     1.0  0.72947  0.59076  0.09974  1.0000
  C   C1161     1.0  0.70471  0.35872  0.12132  1.0000
  H   H1391     1.0  0.74672  0.33544  0.17203  1.0000
  H   H1392     1.0  0.74152  0.66167  0.42084  1.0000
  H   H1393     1.0  0.54685  0.62257  0.16844  1.0000
  N   N78       1.0  0.62014  0.40813  0.44875  1.0000
  C   C1162     1.0  0.59004  0.50771  0.99648  1.0000
  C   C1163     1.0  0.73067  0.65191  0.35288  1.0000
  H   H1394     1.0  0.52315  0.58649  0.18992  1.0000
  C   C1164     1.0  0.50903  0.54492  0.12055  1.0000
  N   N79       1.0  0.69665  0.59541  0.16018  1.0000
  C   C1165     1.0  0.72152  0.36527  0.11936  1.0000
  C   C1166     1.0  0.68111  0.58918  0.14463  1.0000
  H   H1395     1.0  0.70226  0.35859  0.31398  1.0000
  C   C1167     1.0  0.49862  0.46211  0.45096  1.0000
  C   C1168     1.0  0.72777  0.64182  0.13982  1.0000
  S   S320      1.0  0.73751  0.33361  0.44065  1.0000
  H   H1396     1.0  0.67928  0.36153  0.32125  1.0000
  H   H1397     1.0  0.64219  0.42064  0.43005  1.0000
  C   C1169     1.0  0.64587  0.35671  0.44670  1.0000
  H   H1398     1.0  0.73658  0.34930  0.00518  1.0000
  C   C1170     1.0  0.73065  0.66055  0.37904  1.0000
  H   H1399     1.0  0.55617  0.56752  0.15848  1.0000
  H   H1400     1.0  0.55752  0.47891  0.17609  1.0000
  H   H1401     1.0  0.57248  0.57960  0.17688  1.0000
  C   C1171     1.0  0.60079  0.54465  0.46379  1.0000
  H   H1402     1.0  0.72136  0.38353  0.31225  1.0000
  C   C1172     1.0  0.51505  0.48762  0.24164  1.0000
  H   H1403     1.0  0.54687  0.47262  0.30110  1.0000
  N   N80       1.0  0.54079  0.49077  0.20798  1.0000
  C   C1173     1.0  0.52728  0.49476  0.18623  1.0000
  C   C1174     1.0  0.55158  0.50649  0.21107  1.0000
  H   H1404     1.0  0.62162  0.43280  0.42692  1.0000
  H   H1405     1.0  0.69420  0.63279  0.36576  1.0000
  H   H1406     1.0  0.51805  0.48194  0.98620  1.0000
  C   C1175     1.0  0.52783  0.59508  0.12009  1.0000
  C   C1176     1.0  0.69784  0.58531  0.18678  1.0000
  H   H1407     1.0  0.52085  0.44753  0.43388  1.0000
  C   C1177     1.0  0.74292  0.63662  0.09531  1.0000
  H   H1408     1.0  0.60973  0.49052  0.37610  1.0000
  H   H1409     1.0  0.53340  0.49793  0.16567  1.0000
  H   H1410     1.0  0.69898  0.35638  0.14174  1.0000
  H   H1411     1.0  0.54350  0.51810  0.21818  1.0000
  H   H1412     1.0  0.55779  0.51003  0.19087  1.0000
  H   H1413     1.0  0.56242  0.50443  0.22634  1.0000
  H   H1414     1.0  0.60321  0.48628  0.41128  1.0000
  H   H1415     1.0  0.67239  0.37056  0.36696  1.0000
  H   H1416     1.0  0.70421  0.61934  0.18018  1.0000
  H   H1417     1.0  0.57760  0.60052  0.14240  1.0000
  H   H1418     1.0  0.73039  0.59964  0.17948  1.0000
  H   H1419     1.0  0.56388  0.47343  0.21056  1.0000
  C   C1178     1.0  0.73793  0.34158  0.34525  1.0000
  C   C1179     1.0  0.60113  0.40638  0.44276  1.0000
  H   H1420     1.0  0.68321  0.57537  0.13743  1.0000
  C   C1180     1.0  0.62782  0.41934  0.42687  1.0000
  H   H1421     1.0  0.71490  0.64046  0.09966  1.0000
  H   H1422     1.0  0.67779  0.59768  0.12632  1.0000
  H   H1423     1.0  0.53687  0.59819  0.10357  1.0000
  C   C1181     1.0  0.57794  0.47463  0.00965  1.0000
  H   H1424     1.0  0.50549  0.49196  0.22624  1.0000
  S   S321      1.0  0.71562  0.65954  0.32638  1.0000
  H   H1425     1.0  0.69280  0.62234  0.14757  1.0000
  C   C1182     1.0  0.50387  0.42895  0.35321  1.0000
  H   H1426     1.0  0.57337  0.46176  0.01503  1.0000
  C   C1183     1.0  0.57749  0.48915  0.47447  1.0000
  H   H1427     1.0  0.67867  0.36202  0.41531  1.0000
  H   H1428     1.0  0.69583  0.35298  0.05264  1.0000
  S   S322      1.0  0.74163  0.63304  0.05872  1.0000
  H   H1429     1.0  0.62045  0.38367  0.40639  1.0000
  H   H1430     1.0  0.62510  0.49363  0.40364  1.0000
  C   C1184     1.0  0.71326  0.59365  0.14414  1.0000
  H   H1431     1.0  0.72734  0.59655  0.46787  1.0000
  C   C1185     1.0  0.71364  0.59100  0.11463  1.0000
  C   C1186     1.0  0.71896  0.61547  0.41894  1.0000
  S   S323      1.0  0.68112  0.66051  0.26555  1.0000
  C   C1187     1.0  0.62788  0.37951  0.42464  1.0000
  S   S324      1.0  0.74457  0.64082  0.19134  1.0000
  H   H1432     1.0  0.51866  0.48347  0.18269  1.0000
  C   C1188     1.0  0.73044  0.34829  0.02628  1.0000
  H   H1433     1.0  0.70622  0.39620  0.29167  1.0000
  C   C1189     1.0  0.56387  0.59918  0.13470  1.0000
  N   N81       1.0  0.69482  0.38442  0.32833  1.0000
  C   C1190     1.0  0.67932  0.39670  0.32640  1.0000
  C   C1191     1.0  0.69861  0.37995  0.35795  1.0000
  C   C1192     1.0  0.71548  0.38174  0.37024  1.0000
  C   C1193     1.0  0.68538  0.37279  0.37511  1.0000
  H   H1434     1.0  0.74272  0.37195  0.09338  1.0000
  C   C1194     1.0  0.69267  0.64108  0.40884  1.0000
  S   S325      1.0  0.73800  0.34524  0.30860  1.0000
  H   H1435     1.0  0.71349  0.40500  0.32437  1.0000
  H   H1436     1.0  0.68138  0.40887  0.33873  1.0000
  H   H1437     1.0  0.67646  0.40056  0.30430  1.0000
  H   H1438     1.0  0.66705  0.39079  0.33402  1.0000
  H   H1439     1.0  0.72657  0.38641  0.35866  1.0000
  C   C1195     1.0  0.62230  0.43523  0.01357  1.0000
  H   H1440     1.0  0.59375  0.41919  0.44498  1.0000
  C   C1196     1.0  0.69095  0.36816  0.31289  1.0000
  N   N82       1.0  0.72825  0.36572  0.03986  1.0000
  C   C1197     1.0  0.71872  0.37683  0.39802  1.0000
  H   H1441     1.0  0.62190  0.42124  0.01694  1.0000
  Fe  Fe159     1.0  0.67889  0.33774  0.26353  1.0000
  C   C1198     1.0  0.72036  0.36357  0.06798  1.0000
  C   C1199     1.0  0.61350  0.51709  0.47984  1.0000
  N   N83       1.0  0.71996  0.62410  0.47056  1.0000
  H   H1442     1.0  0.62074  0.44046  0.05800  1.0000
  H   H1443     1.0  0.72958  0.60583  0.42098  1.0000
  H   H1444     1.0  0.62590  0.41397  0.40543  1.0000
  C   C1200     1.0  0.50858  0.48363  0.26825  1.0000
  H   H1445     1.0  0.51906  0.50662  0.19171  1.0000
  H   H1446     1.0  0.70209  0.57142  0.18287  1.0000
  H   H1447     1.0  0.71575  0.64443  0.15123  1.0000
  H   H1448     1.0  0.66905  0.58953  0.15790  1.0000
  H   H1449     1.0  0.50659  0.59391  0.09024  1.0000
  H   H1450     1.0  0.70834  0.36540  0.43540  1.0000
  C   C1201     1.0  0.71660  0.37703  0.02208  1.0000
  C   C1202     1.0  0.69351  0.61420  0.16690  1.0000
  C   C1203     1.0  0.62171  0.44610  0.03723  1.0000
  C   C1204     1.0  0.71205  0.61780  0.39200  1.0000
  C   C1205     1.0  0.68883  0.36781  0.40281  1.0000
  C   C1206     1.0  0.69561  0.35446  0.09708  1.0000
  H   H1451     1.0  0.71397  0.39004  0.03215  1.0000
  N   N84       1.0  0.60456  0.51379  0.40107  1.0000
  C   C1207     1.0  0.61096  0.49525  0.39807  1.0000
  C   C1208     1.0  0.58589  0.51466  0.39217  1.0000
  C   C1209     1.0  0.61492  0.52452  0.38155  1.0000
  C   C1210     1.0  0.60607  0.52065  0.43001  1.0000
  C   C1211     1.0  0.60024  0.53810  0.43642  1.0000
  C   C1212     1.0  0.61289  0.51035  0.45260  1.0000
  C   C1213     1.0  0.73819  0.33664  0.40397  1.0000
  H   H1452     1.0  0.63462  0.35450  0.40563  1.0000
  H   H1453     1.0  0.59509  0.39688  0.45728  1.0000
  H   H1454     1.0  0.55873  0.47999  0.25529  1.0000
  H   H1455     1.0  0.57753  0.50730  0.40695  1.0000
  H   H1456     1.0  0.58415  0.50892  0.37088  1.0000
  H   H1457     1.0  0.58046  0.52834  0.39101  1.0000
  H   H1458     1.0  0.62897  0.52463  0.38795  1.0000
  H   H1459     1.0  0.61441  0.51929  0.35968  1.0000
  H   H1460     1.0  0.60995  0.53837  0.38045  1.0000
  H   H1461     1.0  0.59497  0.54673  0.42033  1.0000
  H   H1462     1.0  0.61740  0.49685  0.45008  1.0000
  C   C1214     1.0  0.55210  0.61017  0.17807  1.0000
  C   C1215     1.0  0.53319  0.59308  0.14850  1.0000
  C   C1216     1.0  0.70327  0.35683  0.07077  1.0000
  H   H1463     1.0  0.72879  0.36794  0.13835  1.0000
  C   C1217     1.0  0.69898  0.63059  0.38694  1.0000
  C   C1218     1.0  0.73304  0.60933  0.47363  1.0000
  C   C1219     1.0  0.52003  0.58858  0.16809  1.0000
  H   H1464     1.0  0.56024  0.61170  0.12389  1.0000
  H   H1465     1.0  0.56579  0.61243  0.18520  1.0000
  H   H1466     1.0  0.71960  0.65211  0.47863  1.0000
  C   C1220     1.0  0.74234  0.63755  0.34895  1.0000
  H   H1467     1.0  0.69434  0.64756  0.45204  1.0000
  C   C1221     1.0  0.64770  0.36735  0.47020  1.0000
  C   C1222     1.0  0.63604  0.36280  0.42392  1.0000
  C   C1223     1.0  0.72877  0.64048  0.47826  1.0000
  C   C1224     1.0  0.70967  0.39271  0.31370  1.0000
  C   C1225     1.0  0.72964  0.59629  0.15750  1.0000
  Fe  Fe160     1.0  0.71716  0.33352  0.28064  1.0000
  H   H1468     1.0  0.68500  0.58527  0.19799  1.0000
  C   C1226     1.0  0.72377  0.33385  0.35859  1.0000
  N   N85       1.0  0.55153  0.59539  0.15790  1.0000
  C   C1227     1.0  0.51121  0.54054  0.14879  1.0000
  H   H1469     1.0  0.54479  0.46367  0.19591  1.0000
  H   H1470     1.0  0.68101  0.61649  0.17853  1.0000
  H   H1471     1.0  0.72256  0.37933  0.00109  1.0000
  H   H1472     1.0  0.54423  0.60773  0.19720  1.0000
  C   C1228     1.0  0.72735  0.63973  0.11055  1.0000
  C   C1229     1.0  0.55817  0.57915  0.17200  1.0000
  C   C1230     1.0  0.74530  0.59305  0.11364  1.0000
  H   H1473     1.0  0.74513  0.38693  0.05079  1.0000
  H   H1474     1.0  0.50661  0.47227  0.45979  1.0000
  C   C1231     1.0  0.51038  0.59271  0.11206  1.0000
  H   H1475     1.0  0.62283  0.48583  0.00551  1.0000
  H   H1476     1.0  0.68270  0.34896  0.09881  1.0000
  C   C1232     1.0  0.50265  0.58619  0.15978  1.0000
  H   H1477     1.0  0.73942  0.64327  0.46312  1.0000
  H   H1478     1.0  0.59598  0.55790  0.46833  1.0000
  C   C1233     1.0  0.74575  0.37381  0.04051  1.0000
  C   C1234     1.0  0.74197  0.65491  0.40095  1.0000
  H   H1479     1.0  0.74258  0.63073  0.32906  1.0000
  H   H1480     1.0  0.74493  0.61134  0.46051  1.0000
  C   C1235     1.0  0.69939  0.63881  0.43591  1.0000
  C   C1236     1.0  0.62201  0.46428  0.03427  1.0000
  H   H1481     1.0  0.61432  0.43037  0.47579  1.0000
  H   H1482     1.0  0.73896  0.33933  0.03917  1.0000
  H   H1483     1.0  0.50288  0.42430  0.41372  1.0000
  C   C1237     1.0  0.74539  0.59574  0.14247  1.0000
  C   C1238     1.0  0.58911  0.47485  0.47931  1.0000
  H   H1484     1.0  0.68280  0.65131  0.40457  1.0000
  C   C1239     1.0  0.58169  0.47847  0.98141  1.0000
  C   C1240     1.0  0.63951  0.38406  0.47120  1.0000
  C   C1241     1.0  0.62160  0.41745  0.47599  1.0000
  H   H1485     1.0  0.73179  0.37783  0.40681  1.0000
  C   C1242     1.0  0.62301  0.44231  0.98609  1.0000
  C   C1243     1.0  0.62348  0.46092  0.98386  1.0000
  C   C1244     1.0  0.72388  0.33146  0.38778  1.0000
  C   C1245     1.0  0.64513  0.41656  0.77447  1.0000
  S   S326      1.0  0.70638  0.35517  0.75185  1.0000
  S   S327      1.0  0.65625  0.35372  0.77857  1.0000
  H   H1486     1.0  0.63373  0.57779  0.87445  1.0000
  H   H1487     1.0  0.65186  0.40422  0.78148  1.0000
  H   H1488     1.0  0.65125  0.42649  0.96290  1.0000
  C   C1246     1.0  0.51162  0.44439  0.84585  1.0000
  H   H1489     1.0  0.60311  0.52580  0.72229  1.0000
  Fe  Fe161     1.0  0.57964  0.46371  0.84420  1.0000
  S   S328      1.0  0.57796  0.43530  0.83168  1.0000
  S   S329      1.0  0.57750  0.48653  0.81355  1.0000
  Fe  Fe162     1.0  0.58100  0.45603  0.90787  1.0000
  S   S330      1.0  0.58000  0.42696  0.89896  1.0000
  S   S331      1.0  0.57928  0.46164  0.95549  1.0000
  Fe  Fe163     1.0  0.59934  0.43059  0.86387  1.0000
  S   S332      1.0  0.62559  0.41464  0.86016  1.0000
  Fe  Fe164     1.0  0.55877  0.43401  0.86778  1.0000
  S   S333      1.0  0.53332  0.41912  0.87070  1.0000
  S   S334      1.0  0.60193  0.45938  0.87476  1.0000
  S   S335      1.0  0.55892  0.46267  0.87805  1.0000
  Fe  Fe165     1.0  0.71822  0.64183  0.71410  1.0000
  H   H1490     1.0  0.71086  0.61917  0.51261  1.0000
  C   C1247     1.0  0.66785  0.41765  0.68271  1.0000
  Fe  Fe166     1.0  0.70774  0.64947  0.77540  1.0000
  H   H1491     1.0  0.71333  0.64931  0.59675  1.0000
  C   C1248     1.0  0.57397  0.50164  0.49589  1.0000
  Fe  Fe167     1.0  0.68051  0.63535  0.73242  1.0000
  S   S336      1.0  0.65668  0.61711  0.73315  1.0000
  S   S337      1.0  0.70688  0.62513  0.74836  1.0000
  Fe  Fe168     1.0  0.59410  0.54840  0.64049  1.0000
  S   S338      1.0  0.60588  0.52300  0.62324  1.0000
  S   S339      1.0  0.61402  0.57077  0.64389  1.0000
  Fe  Fe169     1.0  0.55709  0.53210  0.64464  1.0000
  S   S340      1.0  0.56736  0.50599  0.62851  1.0000
  S   S341      1.0  0.52856  0.52863  0.65818  1.0000
  Fe  Fe170     1.0  0.59015  0.51015  0.65726  1.0000
  S   S342      1.0  0.60183  0.48894  0.68597  1.0000
  Fe  Fe171     1.0  0.58179  0.52111  0.59582  1.0000
  S   S343      1.0  0.57755  0.51682  0.54820  1.0000
  S   S344      1.0  0.57938  0.53541  0.67540  1.0000
  S   S345      1.0  0.57068  0.54740  0.61091  1.0000
  S   S346      1.0  0.74090  0.65057  0.55615  1.0000
  C   C1249     1.0  0.73944  0.34747  0.90643  1.0000
  H   H1492     1.0  0.60777  0.54868  0.72485  1.0000
  H   H1493     1.0  0.63532  0.44790  0.93183  1.0000
  H   H1494     1.0  0.62093  0.59208  0.78990  1.0000
  C   C1250     1.0  0.64471  0.60478  0.70766  1.0000
  C   C1251     1.0  0.63007  0.59526  0.71641  1.0000
  C   C1252     1.0  0.62059  0.58480  0.69744  1.0000
  C   C1253     1.0  0.62551  0.58369  0.66919  1.0000
  C   C1254     1.0  0.64007  0.59330  0.66042  1.0000
  C   C1255     1.0  0.64962  0.60368  0.67941  1.0000
  H   H1495     1.0  0.62604  0.59596  0.73808  1.0000
  H   H1496     1.0  0.60928  0.57785  0.70458  1.0000
  H   H1497     1.0  0.64403  0.59272  0.63866  1.0000
  H   H1498     1.0  0.66079  0.61083  0.67213  1.0000
  H   H1499     1.0  0.63997  0.41010  0.94328  1.0000
  H   H1500     1.0  0.50342  0.56075  0.55270  1.0000
  H   H1501     1.0  0.65838  0.59716  0.87426  1.0000
  C   C1256     1.0  0.58175  0.49995  0.52262  1.0000
  C   C1257     1.0  0.59305  0.48544  0.52763  1.0000
  C   C1258     1.0  0.53152  0.52441  0.58455  1.0000
  C   C1259     1.0  0.50824  0.53763  0.64580  1.0000
  H   H1502     1.0  0.67301  0.58044  0.76437  1.0000
  H   H1503     1.0  0.59921  0.48392  0.54793  1.0000
  H   H1504     1.0  0.69368  0.62076  0.80704  1.0000
  C   C1260     1.0  0.58342  0.48573  0.77766  1.0000
  C   C1261     1.0  0.59634  0.47393  0.76735  1.0000
  C   C1262     1.0  0.60166  0.47486  0.73909  1.0000
  C   C1263     1.0  0.59391  0.48731  0.72081  1.0000
  C   C1264     1.0  0.58064  0.49871  0.73098  1.0000
  C   C1265     1.0  0.57565  0.49811  0.75932  1.0000
  H   H1505     1.0  0.60251  0.46445  0.78137  1.0000
  H   H1506     1.0  0.61195  0.46609  0.73135  1.0000
  H   H1507     1.0  0.57428  0.50813  0.71713  1.0000
  H   H1508     1.0  0.56563  0.50726  0.76708  1.0000
  H   H1509     1.0  0.54721  0.54140  0.54313  1.0000
  H   H1510     1.0  0.53707  0.46669  0.95129  1.0000
  C   C1266     1.0  0.72585  0.34790  0.86010  1.0000
  H   H1511     1.0  0.67003  0.42614  0.66491  1.0000
  H   H1512     1.0  0.52350  0.45025  0.83835  1.0000
  C   C1267     1.0  0.64790  0.36950  0.80352  1.0000
  C   C1268     1.0  0.62974  0.37377  0.80378  1.0000
  C   C1269     1.0  0.62265  0.38738  0.82100  1.0000
  C   C1270     1.0  0.63358  0.39675  0.83877  1.0000
  C   C1271     1.0  0.65166  0.39208  0.83925  1.0000
  C   C1272     1.0  0.65879  0.37863  0.82172  1.0000
  H   H1513     1.0  0.62109  0.36666  0.79018  1.0000
  H   H1514     1.0  0.60871  0.39058  0.82054  1.0000
  H   H1515     1.0  0.66030  0.39912  0.85295  1.0000
  H   H1516     1.0  0.67276  0.37555  0.82197  1.0000
  C   C1273     1.0  0.73828  0.64801  0.89865  1.0000
  N   N86       1.0  0.62322  0.43050  0.96137  1.0000
  H   H1517     1.0  0.63547  0.44298  0.74089  1.0000
  C   C1274     1.0  0.72525  0.64163  0.63603  1.0000
  H   H1518     1.0  0.65502  0.42700  0.77494  1.0000
  C   C1275     1.0  0.66284  0.63667  0.82237  1.0000
  S   S347      1.0  0.71229  0.65157  0.82333  1.0000
  H   H1519     1.0  0.65260  0.64149  0.83737  1.0000
  H   H1520     1.0  0.68659  0.59872  0.81187  1.0000
  C   C1276     1.0  0.62580  0.58368  0.83226  1.0000
  N   N87       1.0  0.63729  0.41486  0.74619  1.0000
  C   C1277     1.0  0.72861  0.64611  0.84941  1.0000
  H   H1521     1.0  0.61656  0.43382  0.75662  1.0000
  H   H1522     1.0  0.71417  0.34764  0.84732  1.0000
  H   H1523     1.0  0.71303  0.64245  0.64747  1.0000
  H   H1524     1.0  0.52006  0.51663  0.51713  1.0000
  H   H1525     1.0  0.63135  0.38745  0.75150  1.0000
  C   C1278     1.0  0.62926  0.59330  0.80821  1.0000
  C   C1279     1.0  0.51215  0.47605  0.96791  1.0000
  C   C1280     1.0  0.72545  0.64548  0.60721  1.0000
  H   H1526     1.0  0.53035  0.53564  0.59940  1.0000
  C   C1281     1.0  0.65068  0.59655  0.85532  1.0000
  C   C1282     1.0  0.50442  0.53230  0.56069  1.0000
  C   C1283     1.0  0.51548  0.45991  0.92470  1.0000
  C   C1284     1.0  0.65449  0.60665  0.83113  1.0000
  H   H1527     1.0  0.73601  0.65283  0.91970  1.0000
  H   H1528     1.0  0.60579  0.46214  0.51021  1.0000
  S   S348      1.0  0.73721  0.34568  0.94318  1.0000
  H   H1529     1.0  0.62321  0.43083  0.91601  1.0000
  C   C1285     1.0  0.65135  0.41095  0.72545  1.0000
  C   C1286     1.0  0.65447  0.42188  0.70192  1.0000
  S   S349      1.0  0.74474  0.34944  0.81056  1.0000
  C   C1287     1.0  0.50439  0.39773  0.81540  1.0000
  H   H1530     1.0  0.50486  0.42094  0.79010  1.0000
  C   C1288     1.0  0.72441  0.34720  0.88946  1.0000
  H   H1531     1.0  0.63501  0.41984  0.79071  1.0000
  H   H1532     1.0  0.65710  0.63737  0.80095  1.0000
  Fe  Fe172     1.0  0.72254  0.33954  0.78352  1.0000
  C   C1289     1.0  0.62698  0.43136  0.74050  1.0000
  C   C1290     1.0  0.74742  0.33655  0.65348  1.0000
  H   H1533     1.0  0.54575  0.52090  0.58246  1.0000
  H   H1534     1.0  0.62009  0.43086  0.71996  1.0000
  C   C1291     1.0  0.67568  0.39157  0.70903  1.0000
  C   C1292     1.0  0.73018  0.33182  0.64757  1.0000
  H   H1535     1.0  0.64677  0.43374  0.69784  1.0000
  C   C1293     1.0  0.72604  0.65217  0.87711  1.0000
  H   H1536     1.0  0.61843  0.39878  0.72564  1.0000
  H   H1537     1.0  0.71160  0.34622  0.89903  1.0000
  H   H1538     1.0  0.49884  0.50534  0.57252  1.0000
  N   N88       1.0  0.63064  0.53147  0.72177  1.0000
  C   C1294     1.0  0.63032  0.53075  0.69067  1.0000
  C   C1295     1.0  0.63635  0.51383  0.73206  1.0000
  C   C1296     1.0  0.64248  0.54483  0.73303  1.0000
  C   C1297     1.0  0.65312  0.55530  0.71563  1.0000
  C   C1298     1.0  0.64377  0.54755  0.76240  1.0000
  C   C1299     1.0  0.66416  0.56775  0.72707  1.0000
  C   C1300     1.0  0.65472  0.56019  0.77357  1.0000
  C   C1301     1.0  0.66482  0.57034  0.75589  1.0000
  H   H1539     1.0  0.62568  0.54352  0.68153  1.0000
  H   H1540     1.0  0.62118  0.52073  0.68287  1.0000
  H   H1541     1.0  0.64344  0.52713  0.68180  1.0000
  H   H1542     1.0  0.63508  0.51263  0.75516  1.0000
  H   H1543     1.0  0.62823  0.50333  0.72293  1.0000
  H   H1544     1.0  0.65028  0.51077  0.72635  1.0000
  H   H1545     1.0  0.65283  0.55453  0.69303  1.0000
  H   H1546     1.0  0.63620  0.53995  0.77691  1.0000
  H   H1547     1.0  0.52280  0.50150  0.54593  1.0000
  H   H1548     1.0  0.65529  0.56223  0.79602  1.0000
  N   N89       1.0  0.66937  0.61869  0.82976  1.0000
  C   C1302     1.0  0.74084  0.63677  0.64988  1.0000
  C   C1303     1.0  0.59677  0.47309  0.50608  1.0000
  H   H1549     1.0  0.61476  0.57503  0.83274  1.0000
  H   H1550     1.0  0.61426  0.40248  0.76241  1.0000
  C   C1304     1.0  0.52696  0.51426  0.53737  1.0000
  C   C1305     1.0  0.66242  0.39568  0.72840  1.0000
  C   C1306     1.0  0.63651  0.58528  0.85573  1.0000
  H   H1551     1.0  0.61826  0.50885  0.49692  1.0000
  C   C1307     1.0  0.62338  0.44000  0.93423  1.0000
  C   C1308     1.0  0.51276  0.42944  0.86275  1.0000
  H   H1552     1.0  0.52389  0.45316  0.90947  1.0000
  H   H1553     1.0  0.67070  0.62493  0.87383  1.0000
  H   H1554     1.0  0.52751  0.54881  0.52560  1.0000
  H   H1555     1.0  0.61157  0.44885  0.93207  1.0000
  H   H1556     1.0  0.61086  0.53425  0.75440  1.0000
  H   H1557     1.0  0.59518  0.42799  0.96246  1.0000
  C   C1309     1.0  0.70563  0.62115  0.49096  1.0000
  H   H1558     1.0  0.53224  0.55570  0.56115  1.0000
  C   C1310     1.0  0.61238  0.53528  0.73134  1.0000
  C   C1311     1.0  0.74367  0.63568  0.84369  1.0000
  H   H1559     1.0  0.73788  0.60806  0.49559  1.0000
  C   C1312     1.0  0.68191  0.61247  0.80787  1.0000
  S   S350      1.0  0.74137  0.63339  0.68659  1.0000
  H   H1560     1.0  0.67600  0.61294  0.78655  1.0000
  H   H1561     1.0  0.61590  0.40975  0.49339  1.0000
  H   H1562     1.0  0.66087  0.38667  0.74570  1.0000
  C   C1313     1.0  0.53292  0.54447  0.54618  1.0000
  H   H1563     1.0  0.63923  0.40992  0.98070  1.0000
  S   S351      1.0  0.69201  0.65062  0.69683  1.0000
  H   H1564     1.0  0.51847  0.39746  0.81911  1.0000
  C   C1314     1.0  0.64338  0.60457  0.80756  1.0000
  C   C1315     1.0  0.63910  0.41873  0.96218  1.0000
  C   C1316     1.0  0.50620  0.55522  0.63766  1.0000
  H   H1565     1.0  0.69020  0.62934  0.85481  1.0000
  H   H1566     1.0  0.67178  0.57596  0.71336  1.0000
  H   H1567     1.0  0.59065  0.49842  0.95348  1.0000
  H   H1568     1.0  0.67364  0.64625  0.82254  1.0000
  Fe  Fe173     1.0  0.68373  0.34080  0.77076  1.0000
  C   C1317     1.0  0.67928  0.61998  0.85649  1.0000
  H   H1569     1.0  0.64550  0.61171  0.78838  1.0000
  H   H1570     1.0  0.62354  0.46764  0.96397  1.0000
  H   H1571     1.0  0.52524  0.51308  0.59472  1.0000
  C   C1318     1.0  0.62480  0.40030  0.74645  1.0000
  H   H1572     1.0  0.68874  0.39926  0.67131  1.0000
  N   N90       1.0  0.52358  0.52906  0.55715  1.0000
  H   H1573     1.0  0.68386  0.37975  0.71173  1.0000
  C   C1319     1.0  0.58769  0.49517  0.97498  1.0000
  C   C1320     1.0  0.67841  0.40253  0.68625  1.0000
  C   C1321     1.0  0.60740  0.41958  0.96160  1.0000
  H   H1574     1.0  0.68556  0.60715  0.86252  1.0000
  H   H1575     1.0  0.54124  0.51233  0.53276  1.0000
  C   C1322     1.0  0.74121  0.64455  0.59194  1.0000
  C   C1323     1.0  0.60728  0.53411  0.48549  1.0000
  C   C1324     1.0  0.52291  0.46747  0.94827  1.0000
  C   C1325     1.0  0.74232  0.34931  0.84744  1.0000
  S   S352      1.0  0.68064  0.65901  0.76133  1.0000
  H   H1576     1.0  0.71448  0.66022  0.88198  1.0000
  H   H1577     1.0  0.51746  0.56353  0.63747  1.0000
  H   H1578     1.0  0.60709  0.41054  0.97977  1.0000
  H   H1579     1.0  0.73477  0.63957  0.49950  1.0000
  H   H1580     1.0  0.60728  0.53900  0.50686  1.0000
  H   H1581     1.0  0.69813  0.60937  0.48519  1.0000
  H   H1582     1.0  0.65545  0.36258  0.48784  1.0000
  H   H1583     1.0  0.74593  0.63083  0.82265  1.0000
  H   H1584     1.0  0.50000  0.37544  0.84153  1.0000
  H   H1585     1.0  0.69619  0.63252  0.49243  1.0000
  H   H1586     1.0  0.64146  0.39155  0.49009  1.0000
  H   H1587     1.0  0.56536  0.51287  0.49155  1.0000
  H   H1588     1.0  0.60660  0.41126  0.94245  1.0000
  Fe  Fe174     1.0  0.71070  0.33181  0.72263  1.0000
  H   H1589     1.0  0.63546  0.42042  0.48100  1.0000
  Fe  Fe175     1.0  0.69323  0.67666  0.23128  1.0000
  S   S353      1.0  0.68435  0.70328  0.21295  1.0000
  C   C1326     1.0  0.51550  0.96882  0.06598  1.0000
  Fe  Fe176     1.0  0.71967  0.83518  0.22149  1.0000
  S   S354      1.0  0.69379  0.82326  0.21092  1.0000
  C   C1327     1.0  0.58127  0.98533  0.46440  1.0000
  Fe  Fe177     1.0  0.71098  0.83973  0.28445  1.0000
  S   S355      1.0  0.68429  0.82865  0.27720  1.0000
  S   S356      1.0  0.71686  0.84738  0.33033  1.0000
  Fe  Fe178     1.0  0.69802  0.80781  0.25095  1.0000
  S   S357      1.0  0.69851  0.77899  0.26467  1.0000
  Fe  Fe179     1.0  0.68226  0.84534  0.23793  1.0000
  S   S358      1.0  0.65640  0.86171  0.23117  1.0000
  S   S359      1.0  0.72463  0.81846  0.25957  1.0000
  S   S360      1.0  0.70819  0.85783  0.24692  1.0000
  Fe  Fe180     1.0  0.58773  0.96084  0.08238  1.0000
  S   S361      1.0  0.58341  0.93197  0.08884  1.0000
  S   S362      1.0  0.59789  0.97103  0.04000  1.0000
  Fe  Fe181     1.0  0.58027  0.96808  0.14500  1.0000
  S   S363      1.0  0.57484  0.93989  0.15516  1.0000
  C   C1328     1.0  0.73731  0.87236  0.08480  1.0000
  Fe  Fe182     1.0  0.59894  0.93345  0.12910  1.0000
  S   S364      1.0  0.62248  0.91441  0.13876  1.0000
  Fe  Fe183     1.0  0.55975  0.94079  0.11434  1.0000
  S   S365      1.0  0.53433  0.92730  0.10317  1.0000
  S   S366      1.0  0.60499  0.96172  0.12081  1.0000
  S   S367      1.0  0.56342  0.96951  0.10605  1.0000
  H   H1590     1.0  0.70138  0.70473  0.14851  1.0000
  C   C1329     1.0  0.51311  0.93297  0.11637  1.0000
  C   C1330     1.0  0.74122  0.84134  0.40650  1.0000
  C   C1331     1.0  0.51074  0.94364  0.13999  1.0000
  H   H1591     1.0  0.72212  0.80206  0.18062  1.0000
  C   C1332     1.0  0.63171  0.90001  0.16505  1.0000
  C   C1333     1.0  0.62347  0.89712  0.19080  1.0000
  C   C1334     1.0  0.63112  0.88526  0.21047  1.0000
  C   C1335     1.0  0.64729  0.87632  0.20509  1.0000
  C   C1336     1.0  0.65562  0.87939  0.17947  1.0000
  C   C1337     1.0  0.64784  0.89106  0.15964  1.0000
  H   H1592     1.0  0.61129  0.90408  0.19568  1.0000
  H   H1593     1.0  0.62460  0.88319  0.23028  1.0000
  H   H1594     1.0  0.66802  0.87269  0.17486  1.0000
  H   H1595     1.0  0.65442  0.89314  0.13988  1.0000
  C   C1338     1.0  0.68911  0.72424  0.22700  1.0000
  C   C1339     1.0  0.69686  0.72609  0.25333  1.0000
  C   C1340     1.0  0.69969  0.74296  0.26431  1.0000
  C   C1341     1.0  0.69500  0.75819  0.24905  1.0000
  C   C1342     1.0  0.68765  0.75638  0.22239  1.0000
  C   C1343     1.0  0.68466  0.73948  0.21151  1.0000
  H   H1596     1.0  0.70033  0.71451  0.26549  1.0000
  H   H1597     1.0  0.70542  0.74418  0.28492  1.0000
  H   H1598     1.0  0.68384  0.76795  0.21048  1.0000
  H   H1599     1.0  0.67856  0.73818  0.19117  1.0000
  H   H1600     1.0  0.73445  0.76591  0.43962  1.0000
  H   H1601     1.0  0.63716  0.91778  0.28396  1.0000
  C   C1344     1.0  0.58904  0.98482  0.01275  1.0000
  C   C1345     1.0  0.72014  0.78811  0.18654  1.0000
  H   H1602     1.0  0.71425  0.78837  0.20792  1.0000
  C   C1346     1.0  0.70607  0.76893  0.38445  1.0000
  C   C1347     1.0  0.57743  0.97306  0.25602  1.0000
  C   C1348     1.0  0.57702  0.97374  0.22654  1.0000
  C   C1349     1.0  0.72243  0.79550  0.38943  1.0000
  H   H1603     1.0  0.62167  0.94176  0.25950  1.0000
  H   H1604     1.0  0.57514  0.96080  0.26663  1.0000
  H   H1605     1.0  0.57416  0.96213  0.21457  1.0000
  H   H1606     1.0  0.66186  0.90138  0.26126  1.0000
  C   C1350     1.0  0.73272  0.84134  0.35666  1.0000
  C   C1351     1.0  0.72956  0.84646  0.38467  1.0000
  H   H1607     1.0  0.51325  0.98864  0.47541  1.0000
  H   H1608     1.0  0.71788  0.85431  0.38960  1.0000
  C   C1352     1.0  0.73981  0.69220  0.11485  1.0000
  H   H1609     1.0  0.68196  0.80900  0.37571  1.0000
  H   H1610     1.0  0.74695  0.67841  0.18258  1.0000
  C   C1353     1.0  0.55368  0.91615  0.21610  1.0000
  H   H1611     1.0  0.71714  0.69144  0.18863  1.0000
  N   N91       1.0  0.73695  0.77770  0.18585  1.0000
  H   H1612     1.0  0.72419  0.75300  0.18155  1.0000
  H   H1613     1.0  0.74117  0.79578  0.42324  1.0000
  S   S368      1.0  0.58168  0.98659  0.30882  1.0000
  H   H1614     1.0  0.72380  0.87105  0.07820  1.0000
  C   C1354     1.0  0.72263  0.69954  0.11917  1.0000
  H   H1615     1.0  0.67645  0.77996  0.35262  1.0000
  C   C1355     1.0  0.57129  0.99016  0.01166  1.0000
  H   H1616     1.0  0.52204  0.94890  0.15043  1.0000
  H   H1617     1.0  0.72353  0.80719  0.33520  1.0000
  C   C1356     1.0  0.74608  0.78444  0.10770  1.0000
  C   C1357     1.0  0.74029  0.68453  0.16484  1.0000
  C   C1358     1.0  0.54311  0.91584  0.19232  1.0000
  C   C1359     1.0  0.58027  0.98949  0.21270  1.0000
  H   H1618     1.0  0.65662  0.93307  0.18829  1.0000
  C   C1360     1.0  0.71360  0.79782  0.32818  1.0000
  H   H1619     1.0  0.70728  0.80384  0.30940  1.0000
  C   C1361     1.0  0.56880  0.90539  0.21752  1.0000
  N   N92       1.0  0.70049  0.79420  0.35019  1.0000
  C   C1362     1.0  0.69157  0.81102  0.35856  1.0000
  H   H1620     1.0  0.70094  0.82091  0.36595  1.0000
  C   C1363     1.0  0.71460  0.69927  0.14554  1.0000
  C   C1364     1.0  0.70951  0.78613  0.37469  1.0000
  H   H1621     1.0  0.52946  0.96875  0.07046  1.0000
  H   H1622     1.0  0.74036  0.79140  0.08990  1.0000
  S   S369      1.0  0.73908  0.82665  0.05989  1.0000
  H   H1623     1.0  0.68447  0.81738  0.34066  1.0000
  H   H1624     1.0  0.74530  0.75135  0.19833  1.0000
  C   C1365     1.0  0.60016  0.98996  0.99080  1.0000
  H   H1625     1.0  0.72584  0.80855  0.38314  1.0000
  C   C1366     1.0  0.73776  0.78538  0.13383  1.0000
  H   H1626     1.0  0.67137  0.90945  0.21380  1.0000
  H   H1627     1.0  0.68047  0.78960  0.31917  1.0000
  C   C1367     1.0  0.72480  0.83074  0.11244  1.0000
  H   H1628     1.0  0.49999  0.91773  0.08507  1.0000
  H   H1629     1.0  0.73690  0.71849  0.07609  1.0000
  H   H1630     1.0  0.72169  0.67165  0.38240  1.0000
  H   H1631     1.0  0.71524  0.70546  0.10214  1.0000
  C   C1368     1.0  0.68700  0.78299  0.33743  1.0000
  H   H1632     1.0  0.73843  0.84528  0.42786  1.0000
  C   C1369     1.0  0.74159  0.83324  0.15548  1.0000
  H   H1633     1.0  0.69294  0.77052  0.32896  1.0000
  H   H1634     1.0  0.69659  0.76073  0.37450  1.0000
  H   H1635     1.0  0.53136  0.92426  0.19117  1.0000
  H   H1636     1.0  0.71014  0.78247  0.17243  1.0000
  N   N93       1.0  0.56882  0.88271  0.14637  1.0000
  C   C1370     1.0  0.55721  0.88454  0.12145  1.0000
  C   C1371     1.0  0.58678  0.88717  0.13733  1.0000
  C   C1372     1.0  0.56898  0.86405  0.15522  1.0000
  C   C1373     1.0  0.56324  0.89408  0.17018  1.0000
  C   C1374     1.0  0.57347  0.89442  0.19503  1.0000
  C   C1375     1.0  0.54770  0.90496  0.16967  1.0000
  H   H1637     1.0  0.61933  0.98168  0.21278  1.0000
  H   H1638     1.0  0.73474  0.67017  0.07243  1.0000
  H   H1639     1.0  0.71212  0.74870  0.41486  1.0000
  H   H1640     1.0  0.55699  0.89824  0.11330  1.0000
  H   H1641     1.0  0.56180  0.87599  0.10383  1.0000
  H   H1642     1.0  0.54349  0.88089  0.12621  1.0000
  H   H1643     1.0  0.58743  0.90138  0.13219  1.0000
  H   H1644     1.0  0.59113  0.87970  0.11838  1.0000
  H   H1645     1.0  0.59688  0.88429  0.15360  1.0000
  H   H1646     1.0  0.55582  0.86038  0.16307  1.0000
  H   H1647     1.0  0.57265  0.85504  0.13763  1.0000
  H   H1648     1.0  0.57863  0.86127  0.17226  1.0000
  H   H1649     1.0  0.58525  0.88624  0.19718  1.0000
  H   H1650     1.0  0.53896  0.90560  0.15188  1.0000
  H   H1651     1.0  0.56253  0.98633  0.02826  1.0000
  H   H1652     1.0  0.73078  0.87429  0.12846  1.0000
  H   H1653     1.0  0.57696  0.90558  0.23613  1.0000
  C   C1376     1.0  0.72344  0.69179  0.16829  1.0000
  H   H1654     1.0  0.71224  0.83062  0.10187  1.0000
  H   H1655     1.0  0.72414  0.69060  0.06282  1.0000
  H   H1656     1.0  0.72066  0.78555  0.32124  1.0000
  H   H1657     1.0  0.61713  0.96852  0.24285  1.0000
  H   H1658     1.0  0.74186  0.69854  0.33716  1.0000
  S   S370      1.0  0.72084  0.67189  0.24645  1.0000
  C   C1377     1.0  0.72539  0.83282  0.14174  1.0000
  H   H1659     1.0  0.61390  0.98591  0.99132  1.0000
  H   H1660     1.0  0.71333  0.83438  0.15359  1.0000
  N   N94       1.0  0.62799  0.95458  0.20666  1.0000
  C   C1378     1.0  0.63650  0.95998  0.18013  1.0000
  C   C1379     1.0  0.61041  0.94818  0.19956  1.0000
  C   C1380     1.0  0.62578  0.97054  0.22445  1.0000
  C   C1381     1.0  0.63795  0.94050  0.22177  1.0000
  C   C1382     1.0  0.65219  0.93075  0.20941  1.0000
  C   C1383     1.0  0.63275  0.93539  0.24908  1.0000
  C   C1384     1.0  0.66083  0.91704  0.22383  1.0000
  C   C1385     1.0  0.64145  0.92160  0.26325  1.0000
  C   C1386     1.0  0.65545  0.91243  0.25063  1.0000
  H   H1661     1.0  0.63675  0.94919  0.16429  1.0000
  H   H1662     1.0  0.62919  0.97119  0.17002  1.0000
  H   H1663     1.0  0.65016  0.96421  0.18385  1.0000
  H   H1664     1.0  0.60280  0.94472  0.21853  1.0000
  H   H1665     1.0  0.61148  0.93624  0.18614  1.0000
  C   C1387     1.0  0.74037  0.82907  0.09670  1.0000
  H   H1666     1.0  0.63867  0.97497  0.23227  1.0000
  H   H1667     1.0  0.72575  0.79328  0.13481  1.0000
  C   C1388     1.0  0.71498  0.76180  0.40767  1.0000
  C   C1389     1.0  0.74513  0.77672  0.15768  1.0000
  H   H1668     1.0  0.60252  0.95831  0.18790  1.0000
  H   H1669     1.0  0.55015  0.92477  0.23345  1.0000
  H   H1670     1.0  0.72685  0.76016  0.21707  1.0000
  C   C1390     1.0  0.73714  0.68391  0.06591  1.0000
  C   C1391     1.0  0.72755  0.77144  0.42165  1.0000
  H   H1671     1.0  0.51916  0.96142  0.02303  1.0000
  H   H1672     1.0  0.57737  0.98282  0.44302  1.0000
  C   C1392     1.0  0.73130  0.78825  0.41248  1.0000
  C   C1393     1.0  0.50341  0.97266  0.08714  1.0000
  C   C1394     1.0  0.58058  0.98820  0.27190  1.0000
  C   C1395     1.0  0.74128  0.87418  0.11310  1.0000
  C   C1396     1.0  0.73324  0.75978  0.19604  1.0000
  S   S371      1.0  0.58126  0.99083  0.17572  1.0000
  C   C1397     1.0  0.50962  0.96462  0.03926  1.0000
  C   C1398     1.0  0.74796  0.83123  0.35078  1.0000
  H   H1673     1.0  0.74358  0.68325  0.04492  1.0000
  H   H1674     1.0  0.74762  0.86956  0.04317  1.0000
  H   H1675     1.0  0.58794  0.95106  0.98375  1.0000
  S   S372      1.0  0.74308  0.83634  0.19208  1.0000
  H   H1676     1.0  0.74311  0.78778  0.22689  1.0000
  H   H1677     1.0  0.50808  0.97558  0.10805  1.0000
  C   C1399     1.0  0.52384  0.99771  0.47674  1.0000
  H   H1678     1.0  0.57151  0.96094  0.48021  1.0000
  N   N95       1.0  0.74814  0.69291  0.08683  1.0000
  Fe  Fe184     1.0  0.69438  0.67343  0.72687  1.0000
  S   S373      1.0  0.69044  0.70079  0.70734  1.0000
  H   H1679     1.0  0.71261  0.84389  0.60388  1.0000
  Fe  Fe185     1.0  0.71459  0.83021  0.72248  1.0000
  S   S374      1.0  0.68783  0.82048  0.71106  1.0000
  H   H1680     1.0  0.58742  0.95486  0.85385  1.0000
  Fe  Fe186     1.0  0.70584  0.83497  0.78499  1.0000
  S   S375      1.0  0.67829  0.82629  0.77748  1.0000
  S   S376      1.0  0.71366  0.84316  0.82963  1.0000
  Fe  Fe187     1.0  0.69056  0.80458  0.75106  1.0000
  S   S377      1.0  0.68603  0.77645  0.76556  1.0000
  Fe  Fe188     1.0  0.67768  0.84310  0.73835  1.0000
  S   S378      1.0  0.65486  0.86373  0.73318  1.0000
  S   S379      1.0  0.71798  0.81280  0.76025  1.0000
  S   S380      1.0  0.70458  0.85332  0.74791  1.0000
  Fe  Fe189     1.0  0.57862  0.95618  0.58772  1.0000
  S   S381      1.0  0.56697  0.93076  0.60234  1.0000
  S   S382      1.0  0.57761  0.95985  0.53971  1.0000
  Fe  Fe190     1.0  0.58426  0.96762  0.64902  1.0000
  S   S383      1.0  0.57282  0.94330  0.66696  1.0000
  H   H1681     1.0  0.71132  0.78833  0.69433  1.0000
  Fe  Fe191     1.0  0.58899  0.92888  0.63434  1.0000
  S   S384      1.0  0.60558  0.90323  0.64108  1.0000
  Fe  Fe192     1.0  0.55190  0.94732  0.63381  1.0000
  S   S385      1.0  0.52347  0.94824  0.64932  1.0000
  S   S386      1.0  0.60159  0.95317  0.61754  1.0000
  S   S387      1.0  0.56244  0.97267  0.61796  1.0000
  H   H1682     1.0  0.58268  0.96372  0.71705  1.0000
  C   C1400     1.0  0.58813  0.94700  0.96190  1.0000
  C   C1401     1.0  0.74017  0.83694  0.60022  1.0000
  H   H1683     1.0  0.72853  0.80266  0.57437  1.0000
  C   C1402     1.0  0.54292  0.90049  0.63976  1.0000
  C   C1403     1.0  0.61920  0.89252  0.66715  1.0000
  C   C1404     1.0  0.61826  0.89681  0.69567  1.0000
  C   C1405     1.0  0.62915  0.88781  0.71537  1.0000
  C   C1406     1.0  0.64121  0.87434  0.70706  1.0000
  C   C1407     1.0  0.64207  0.86995  0.67857  1.0000
  C   C1408     1.0  0.63111  0.87890  0.65889  1.0000
  H   H1684     1.0  0.60892  0.90682  0.70268  1.0000
  H   H1685     1.0  0.62824  0.89133  0.73728  1.0000
  H   H1686     1.0  0.65115  0.85964  0.67166  1.0000
  H   H1687     1.0  0.63193  0.87527  0.63700  1.0000
  C   C1409     1.0  0.69013  0.72171  0.72395  1.0000
  C   C1410     1.0  0.68943  0.73697  0.70726  1.0000
  C   C1411     1.0  0.68862  0.75386  0.71954  1.0000
  C   C1412     1.0  0.68836  0.75565  0.74871  1.0000
  C   C1413     1.0  0.68925  0.74040  0.76535  1.0000
  C   C1414     1.0  0.69027  0.72354  0.75309  1.0000
  H   H1688     1.0  0.68903  0.73569  0.68471  1.0000
  H   H1689     1.0  0.68750  0.76542  0.70649  1.0000
  H   H1690     1.0  0.68891  0.74160  0.78791  1.0000
  H   H1691     1.0  0.69074  0.71194  0.76618  1.0000
  S   S388      1.0  0.73934  0.83096  0.69611  1.0000
  C   C1415     1.0  0.58371  0.97652  0.75734  1.0000
  C   C1416     1.0  0.58283  0.97588  0.51371  1.0000
  C   C1417     1.0  0.63969  0.96099  0.66594  1.0000
  H   H1692     1.0  0.54831  0.96263  0.90214  1.0000
  H   H1693     1.0  0.67857  0.89524  0.71054  1.0000
  H   H1694     1.0  0.50139  0.98858  0.51919  1.0000
  H   H1695     1.0  0.73902  0.84310  0.92467  1.0000
  S   S389      1.0  0.58534  0.99221  0.80909  1.0000
  H   H1696     1.0  0.67587  0.80473  0.87849  1.0000
  H   H1697     1.0  0.63090  0.97281  0.66258  1.0000
  S   S390      1.0  0.59452  0.98957  0.67633  1.0000
  C   C1418     1.0  0.66298  0.90977  0.68045  1.0000
  C   C1419     1.0  0.72945  0.83603  0.85528  1.0000
  C   C1420     1.0  0.72820  0.84294  0.88263  1.0000
  H   H1698     1.0  0.50751  0.98536  0.55486  1.0000
  H   H1699     1.0  0.71775  0.85239  0.88761  1.0000
  C   C1421     1.0  0.71354  0.75809  0.90487  1.0000
  H   H1700     1.0  0.70388  0.78656  0.65897  1.0000
  C   C1422     1.0  0.72391  0.83813  0.64449  1.0000
  C   C1423     1.0  0.72444  0.84000  0.61513  1.0000
  H   H1701     1.0  0.71173  0.84062  0.65569  1.0000
  C   C1424     1.0  0.54215  0.90763  0.68861  1.0000
  H   H1702     1.0  0.73794  0.75088  0.66773  1.0000
  C   C1425     1.0  0.65585  0.93359  0.72383  1.0000
  H   H1703     1.0  0.71566  0.75605  0.65762  1.0000
  H   H1704     1.0  0.65348  0.96539  0.66634  1.0000
  H   H1705     1.0  0.73405  0.79534  0.92330  1.0000
  H   H1706     1.0  0.63801  0.95278  0.64694  1.0000
  H   H1707     1.0  0.65338  0.94203  0.74165  1.0000
  C   C1426     1.0  0.66693  0.91884  0.72834  1.0000
  N   N96       1.0  0.63528  0.95162  0.69219  1.0000
  C   C1427     1.0  0.64793  0.93680  0.69725  1.0000
  H   H1708     1.0  0.61672  0.93496  0.67186  1.0000
  C   C1428     1.0  0.61750  0.94456  0.68936  1.0000
  C   C1429     1.0  0.59126  0.99145  0.52016  1.0000
  C   C1430     1.0  0.54063  0.87758  0.67428  1.0000
  H   H1709     1.0  0.55515  0.87635  0.67719  1.0000
  C   C1431     1.0  0.74475  0.87566  0.77117  1.0000
  C   C1432     1.0  0.74316  0.82392  0.84925  1.0000
  H   H1710     1.0  0.62585  0.97635  0.70983  1.0000
  H   H1711     1.0  0.60064  0.92196  0.97069  1.0000
  H   H1712     1.0  0.57981  0.96501  0.76873  1.0000
  H   H1713     1.0  0.59518  0.99398  0.54152  1.0000
  C   C1433     1.0  0.50495  0.90918  0.68048  1.0000
  H   H1714     1.0  0.61347  0.93777  0.70882  1.0000
  H   H1715     1.0  0.51252  0.92660  0.60156  1.0000
  N   N97       1.0  0.53493  0.89582  0.66696  1.0000
  C   C1434     1.0  0.74100  0.73171  0.58483  1.0000
  H   H1716     1.0  0.64794  0.97014  0.71915  1.0000
  C   C1435     1.0  0.58536  0.97575  0.72797  1.0000
  H   H1717     1.0  0.71783  0.74526  0.60022  1.0000
  H   H1718     1.0  0.62934  0.95948  0.73486  1.0000
  H   H1719     1.0  0.64535  0.92516  0.65557  1.0000
  C   C1436     1.0  0.65169  0.92429  0.67581  1.0000
  C   C1437     1.0  0.72847  0.79175  0.61611  1.0000
  H   H1720     1.0  0.55758  0.98194  0.91724  1.0000
  N   N98       1.0  0.69321  0.78991  0.85096  1.0000
  C   C1438     1.0  0.70527  0.79365  0.82758  1.0000
  C   C1439     1.0  0.67975  0.77786  0.84026  1.0000
  C   C1440     1.0  0.68387  0.80656  0.85927  1.0000
  C   C1441     1.0  0.70361  0.78259  0.87471  1.0000
  C   C1442     1.0  0.50273  0.94380  0.63418  1.0000
  C   C1443     1.0  0.70327  0.76461  0.88265  1.0000
  H   H1721     1.0  0.55674  0.90628  0.69001  1.0000
  C   C1444     1.0  0.59595  0.92556  0.92650  1.0000
  S   S391      1.0  0.72126  0.66529  0.74226  1.0000
  H   H1722     1.0  0.71227  0.78148  0.82007  1.0000
  H   H1723     1.0  0.69801  0.79936  0.80941  1.0000
  H   H1724     1.0  0.71526  0.80324  0.83358  1.0000
  H   H1725     1.0  0.67056  0.77399  0.85712  1.0000
  N   N99       1.0  0.73112  0.77866  0.66517  1.0000
  H   H1726     1.0  0.67166  0.78406  0.82324  1.0000
  C   C1445     1.0  0.63471  0.96489  0.71509  1.0000
  H   H1727     1.0  0.67494  0.81161  0.84241  1.0000
  C   C1446     1.0  0.72449  0.76914  0.91962  1.0000
  C   C1447     1.0  0.51552  0.89711  0.66453  1.0000
  H   H1728     1.0  0.69518  0.75530  0.87204  1.0000
  H   H1729     1.0  0.74718  0.86189  0.82616  1.0000
  C   C1448     1.0  0.73697  0.78028  0.63570  1.0000
  H   H1730     1.0  0.53428  0.87332  0.69405  1.0000
  N   N100      1.0  0.57534  0.96629  0.89094  1.0000
  C   C1449     1.0  0.57421  0.95853  0.86241  1.0000
  C   C1450     1.0  0.55753  0.97341  0.89832  1.0000
  C   C1451     1.0  0.58751  0.98103  0.88953  1.0000
  C   C1452     1.0  0.58177  0.95365  0.91247  1.0000
  C   C1453     1.0  0.58936  0.93688  0.90563  1.0000
  C   C1454     1.0  0.58146  0.95836  0.94124  1.0000
  C   C1455     1.0  0.71519  0.79336  0.88984  1.0000
  H   H1731     1.0  0.66526  0.90015  0.66395  1.0000
  H   H1732     1.0  0.69295  0.81744  0.86320  1.0000
  N   N101      1.0  0.52941  0.98900  0.52694  1.0000
  H   H1733     1.0  0.74453  0.81860  0.82833  1.0000
  H   H1734     1.0  0.56578  0.94687  0.86223  1.0000
  H   H1735     1.0  0.73030  0.69533  0.69727  1.0000
  H   H1736     1.0  0.60175  0.91286  0.92089  1.0000
  H   H1737     1.0  0.53821  0.91382  0.63301  1.0000
  C   C1456     1.0  0.71576  0.68660  0.64800  1.0000
  H   H1738     1.0  0.53683  0.90475  0.70976  1.0000
  S   S392      1.0  0.74023  0.83941  0.56330  1.0000
  H   H1739     1.0  0.59054  0.93226  0.88432  1.0000
  H   H1740     1.0  0.57634  0.97101  0.94804  1.0000
  H   H1741     1.0  0.74397  0.67171  0.67219  1.0000
  C   C1457     1.0  0.72689  0.73415  0.60317  1.0000
  H   H1742     1.0  0.60757  0.95520  0.68512  1.0000
  H   H1743     1.0  0.74118  0.78472  0.70636  1.0000
  H   H1744     1.0  0.71802  0.80405  0.66924  1.0000
  H   H1745     1.0  0.71656  0.80701  0.88460  1.0000
  H   H1746     1.0  0.67245  0.91631  0.74892  1.0000
  H   H1747     1.0  0.68582  0.76585  0.83047  1.0000
  H   H1748     1.0  0.74202  0.84266  0.78917  1.0000
  C   C1458     1.0  0.67050  0.90698  0.70670  1.0000
  H   H1749     1.0  0.55191  0.98196  0.88143  1.0000
  H   H1750     1.0  0.71333  0.67653  0.66434  1.0000
  H   H1751     1.0  0.60120  0.97629  0.88498  1.0000
  H   H1752     1.0  0.71720  0.80005  0.62145  1.0000
  H   H1753     1.0  0.56844  0.96811  0.84702  1.0000
  H   H1754     1.0  0.55756  0.90049  0.64096  1.0000
  C   C1459     1.0  0.57792  0.97295  0.48565  1.0000
  H   H1755     1.0  0.51046  0.91842  0.69494  1.0000
  C   C1460     1.0  0.72538  0.78674  0.91202  1.0000
  H   H1756     1.0  0.71287  0.72425  0.63810  1.0000
  C   C1461     1.0  0.59534  0.93063  0.95456  1.0000
  H   H1757     1.0  0.52224  0.96559  0.50430  1.0000
  H   H1758     1.0  0.53717  0.98461  0.57006  1.0000
  C   C1462     1.0  0.73592  0.70745  0.62906  1.0000
  H   H1759     1.0  0.53735  0.86799  0.65769  1.0000
  H   H1760     1.0  0.53960  0.89123  0.62272  1.0000
  N   N102      1.0  0.73286  0.69501  0.65225  1.0000
  H   H1761     1.0  0.71524  0.67999  0.62723  1.0000
  C   C1463     1.0  0.74554  0.78379  0.68412  1.0000
  C   C1464     1.0  0.72666  0.76023  0.67118  1.0000
  H   H1762     1.0  0.55471  0.98958  0.54722  1.0000
  H   H1763     1.0  0.53917  0.92170  0.68365  1.0000
  H   H1764     1.0  0.51381  0.87716  0.63181  1.0000
  H   H1765     1.0  0.54511  0.96703  0.51195  1.0000
  H   H1766     1.0  0.74297  0.74092  0.56787  1.0000
  C   C1465     1.0  0.53171  0.97003  0.52029  1.0000
  C   C1466     1.0  0.59067  0.99046  0.71300  1.0000
  H   H1767     1.0  0.58781  0.98860  0.90947  1.0000
  C   C1467     1.0  0.50095  0.93234  0.61149  1.0000
  H   H1768     1.0  0.72144  0.71439  0.68073  1.0000
  H   H1769     1.0  0.53007  0.96163  0.53914  1.0000
  H   H1770     1.0  0.72248  0.75858  0.69338  1.0000
  H   H1771     1.0  0.71302  0.74435  0.91072  1.0000
  C   C1468     1.0  0.71540  0.78988  0.67208  1.0000
  C   C1469     1.0  0.73921  0.83337  0.65920  1.0000
  H   H1772     1.0  0.73241  0.76405  0.93682  1.0000
  H   H1773     1.0  0.73472  0.87374  0.78776  1.0000
  C   C1470     1.0  0.50666  0.88637  0.64509  1.0000
  C   C1471     1.0  0.73242  0.70448  0.67943  1.0000
  H   H1774     1.0  0.74668  0.74056  0.85214  1.0000
  C   C1472     1.0  0.74027  0.83769  0.90376  1.0000
  C   C1473     1.0  0.73485  0.79341  0.58878  1.0000
  H   H1775     1.0  0.73745  0.87549  0.75094  1.0000
  C   C1474     1.0  0.51090  0.99263  0.53542  1.0000
  C   C1475     1.0  0.72427  0.72215  0.62486  1.0000
  H   H1776     1.0  0.70443  0.69615  0.64925  1.0000
  H   H1777     1.0  0.58362  0.99045  0.87270  1.0000
  C   C1476     1.0  0.58693  0.99210  0.77202  1.0000
  C   C1477     1.0  0.54062  0.99274  0.55159  1.0000
  H   H1778     1.0  0.74493  0.71124  0.68325  1.0000
  H   H1779     1.0  0.74373  0.84236  0.75196  1.0000
  C   C1478     1.0  0.74659  0.68080  0.65447  1.0000
  H   H1780     1.0  0.74708  0.67252  0.63526  1.0000
  Fe  Fe193     1.0  0.89063  0.01470  0.40198  1.0000
  S   S393      1.0  0.90389  0.03956  0.41364  1.0000
  C   C1479     1.0  0.76515  0.26061  0.36256  1.0000
  Fe  Fe194     1.0  0.88979  0.02332  0.33840  1.0000
  S   S394      1.0  0.90232  0.04923  0.34651  1.0000
  C   C1480     1.0  0.82869  0.06895  0.00879  1.0000
  Fe  Fe195     1.0  0.92090  0.03411  0.37527  1.0000
  S   S395      1.0  0.95011  0.02756  0.36723  1.0000
  Fe  Fe196     1.0  0.88402  0.05252  0.38401  1.0000
  S   S396      1.0  0.86293  0.07477  0.39073  1.0000
  S   S397      1.0  0.90856  0.00825  0.36592  1.0000
  S   S398      1.0  0.87046  0.02746  0.37371  1.0000
  S   S399      1.0  0.78895  0.33088  0.44887  1.0000
  H   H1781     1.0  0.88256  0.06461  0.99940  1.0000
  H   H1782     1.0  0.92246  0.00681  0.29062  1.0000
  S   S400      1.0  0.88312  0.01753  0.29237  1.0000
  C   C1481     1.0  0.77995  0.23208  0.47595  1.0000
  H   H1783     1.0  0.91641  0.04618  0.28644  1.0000
  Fe  Fe197     1.0  0.76583  0.13992  0.02392  1.0000
  S   S401      1.0  0.75894  0.13146  0.06903  1.0000
  S   S402      1.0  0.82208  0.13032  0.47217  1.0000
  H   H1784     1.0  0.92782  0.02197  0.31710  1.0000
  S   S403      1.0  0.79441  0.14403  0.01423  1.0000
  S   S404      1.0  0.78026  0.16303  0.44537  1.0000
  C   C1482     1.0  0.78668  0.27525  0.40524  1.0000
  H   H1785     1.0  0.91169  0.03080  0.25981  1.0000
  C   C1483     1.0  0.85187  0.04610  0.00251  1.0000
  C   C1484     1.0  0.76059  0.29193  0.41735  1.0000
  C   C1485     1.0  0.79812  0.23283  0.47975  1.0000
  H   H1786     1.0  0.75799  0.23985  0.33427  1.0000
  C   C1486     1.0  0.77011  0.18052  0.06434  1.0000
  C   C1487     1.0  0.86493  0.04208  0.45474  1.0000
  H   H1787     1.0  0.95455  0.05090  0.27547  1.0000
  H   H1788     1.0  0.80425  0.06071  0.02605  1.0000
  H   H1789     1.0  0.81991  0.06217  0.43799  1.0000
  C   C1488     1.0  0.93303  0.01535  0.29793  1.0000
  C   C1489     1.0  0.80088  0.17620  0.07508  1.0000
  H   H1790     1.0  0.78706  0.25171  0.11129  1.0000
  H   H1791     1.0  0.75981  0.13786  0.34654  1.0000
  H   H1792     1.0  0.76029  0.13822  0.39854  1.0000
  C   C1490     1.0  0.78887  0.21401  0.07306  1.0000
  C   C1491     1.0  0.88812  0.00015  0.26811  1.0000
  H   H1793     1.0  0.77337  0.18738  0.04455  1.0000
  C   C1492     1.0  0.78633  0.23783  0.10650  1.0000
  H   H1794     1.0  0.79291  0.24116  0.06302  1.0000
  H   H1795     1.0  0.98156  0.01539  0.20864  1.0000
  H   H1796     1.0  0.92549  0.04873  0.25185  1.0000
  H   H1797     1.0  0.91894  0.00433  0.43333  1.0000
  S   S405      1.0  0.79778  0.19349  0.99783  1.0000
  H   H1798     1.0  0.94443  0.00677  0.30431  1.0000
  C   C1493     1.0  0.85181  0.09012  0.41390  1.0000
  C   C1494     1.0  0.85826  0.09430  0.44050  1.0000
  C   C1495     1.0  0.84912  0.10673  0.45768  1.0000
  C   C1496     1.0  0.83321  0.11503  0.44893  1.0000
  C   C1497     1.0  0.82666  0.11069  0.42246  1.0000
  C   C1498     1.0  0.83594  0.09846  0.40510  1.0000
  H   H1799     1.0  0.87044  0.08821  0.44771  1.0000
  H   H1800     1.0  0.91723  0.00320  0.01774  1.0000
  H   H1801     1.0  0.81452  0.11687  0.41523  1.0000
  H   H1802     1.0  0.83078  0.09545  0.38461  1.0000
  C   C1499     1.0  0.97401  0.05067  0.39029  1.0000
  C   C1500     1.0  0.97137  0.03543  0.37469  1.0000
  C   C1501     1.0  0.94533  0.01895  0.25151  1.0000
  H   H1803     1.0  0.96282  0.05821  0.39830  1.0000
  S   S406      1.0  0.76312  0.12233  0.98620  1.0000
  H   H1804     1.0  0.87189  0.03105  0.44368  1.0000
  H   H1805     1.0  0.77547  0.25234  0.37148  1.0000
  N   N103      1.0  0.77227  0.28671  0.39370  1.0000
  C   C1502     1.0  0.81744  0.05665  0.01977  1.0000
  H   H1806     1.0  0.79637  0.27126  0.38879  1.0000
  C   C1503     1.0  0.92232  0.03896  0.26826  1.0000
  H   H1807     1.0  0.79423  0.28211  0.42180  1.0000
  H   H1808     1.0  0.94476  0.04685  0.30876  1.0000
  H   H1809     1.0  0.89313  0.02837  0.01158  1.0000
  N   N104      1.0  0.78366  0.18265  0.08625  1.0000
  H   H1810     1.0  0.85438  0.10988  0.47805  1.0000
  C   C1504     1.0  0.78117  0.20796  0.12124  1.0000
  C   C1505     1.0  0.77908  0.17113  0.11012  1.0000
  C   C1506     1.0  0.78459  0.20148  0.09375  1.0000
  H   H1811     1.0  0.75396  0.11899  0.12516  1.0000
  C   C1507     1.0  0.83726  0.05369  0.47262  1.0000
  H   H1812     1.0  0.80442  0.18275  0.05513  1.0000
  H   H1813     1.0  0.77042  0.31291  0.37608  1.0000
  H   H1814     1.0  0.78897  0.17169  0.12721  1.0000
  H   H1815     1.0  0.76579  0.17456  0.11864  1.0000
  H   H1816     1.0  0.80087  0.16188  0.07027  1.0000
  C   C1508     1.0  0.84473  0.02245  0.47621  1.0000
  H   H1817     1.0  0.92175  0.00419  0.24345  1.0000
  H   H1818     1.0  0.82409  0.08251  0.00640  1.0000
  Fe  Fe198     1.0  0.75668  0.15012  0.46336  1.0000
  H   H1819     1.0  0.85348  0.07407  0.99140  1.0000
  C   C1509     1.0  0.96853  0.01300  0.21663  1.0000
  H   H1820     1.0  0.75407  0.28036  0.42639  1.0000
  H   H1821     1.0  0.86656  0.05420  0.44207  1.0000
  H   H1822     1.0  0.76870  0.16647  0.05874  1.0000
  H   H1823     1.0  0.87903  0.04001  0.03581  1.0000
  H   H1824     1.0  0.84071  0.04532  0.41554  1.0000
  C   C1510     1.0  0.78995  0.21508  0.98917  1.0000
  H   H1825     1.0  0.77776  0.19946  0.13835  1.0000
  C   C1511     1.0  0.95780  0.00145  0.20245  1.0000
  C   C1512     1.0  0.98614  0.02582  0.36452  1.0000
  C   C1513     1.0  0.95066  0.04026  0.28993  1.0000
  H   H1826     1.0  0.98428  0.01398  0.35247  1.0000
  C   C1514     1.0  0.88397  0.00261  0.23957  1.0000
  H   H1827     1.0  0.93483  0.00844  0.46015  1.0000
  H   H1828     1.0  0.85051  0.01057  0.46551  1.0000
  H   H1829     1.0  0.78838  0.29942  0.36325  1.0000
  H   H1830     1.0  0.97141  0.03050  0.25071  1.0000
  C   C1515     1.0  0.84566  0.06385  0.00022  1.0000
  H   H1831     1.0  0.79161  0.21008  0.05171  1.0000
  H   H1832     1.0  0.77865  0.15707  0.10359  1.0000
  H   H1833     1.0  0.75704  0.18570  0.07148  1.0000
  C   C1516     1.0  0.88062  0.05450  0.98293  1.0000
  C   C1517     1.0  0.84008  0.03391  0.01387  1.0000
  Fe  Fe199     1.0  0.79582  0.14636  0.47675  1.0000
  H   H1834     1.0  0.82445  0.03176  0.43197  1.0000
  H   H1835     1.0  0.75005  0.30152  0.41099  1.0000
  N   N105      1.0  0.93813  0.02828  0.27645  1.0000
  S   S407      1.0  0.79710  0.31137  0.01082  1.0000
  H   H1836     1.0  0.99311  0.06818  0.40725  1.0000
  H   H1837     1.0  0.78157  0.26328  0.41537  1.0000
  C   C1518     1.0  0.76184  0.27823  0.37157  1.0000
  C   C1519     1.0  0.93490  0.00691  0.23670  1.0000
  H   H1838     1.0  0.87732  0.01468  0.23303  1.0000
  S   S408      1.0  0.75632  0.16404  0.00060  1.0000
  H   H1839     1.0  0.76384  0.20256  0.41505  1.0000
  H   H1840     1.0  0.80670  0.08725  0.46207  1.0000
  C   C1520     1.0  0.93320  0.00362  0.43830  1.0000
  H   H1841     1.0  0.96263  0.03297  0.29758  1.0000
  C   C1521     1.0  0.74973  0.18602  0.37312  1.0000
  S   S409      1.0  0.76899  0.21194  0.47266  1.0000
  H   H1842     1.0  0.76794  0.29835  0.43452  1.0000
  H   H1843     1.0  0.78910  0.30890  0.39773  1.0000
  S   S410      1.0  0.75477  0.31298  0.99847  1.0000
  H   H1844     1.0  0.87351  0.01869  0.02294  1.0000
  C   C1522     1.0  0.99123  0.05630  0.39534  1.0000
  C   C1523     1.0  0.96248  0.02166  0.24086  1.0000
  H   H1845     1.0  0.81164  0.17845  0.09030  1.0000
  C   C1524     1.0  0.78037  0.30264  0.38219  1.0000
  N   N106      1.0  0.86962  0.04008  0.99324  1.0000
  C   C1525     1.0  0.78210  0.22590  0.12739  1.0000
  C   C1526     1.0  0.79359  0.24695  0.99238  1.0000
  C   C1527     1.0  0.87915  0.03145  0.01689  1.0000
  H   H1846     1.0  0.93953  0.01309  0.42405  1.0000
  N   N107      1.0  0.84611  0.03844  0.45867  1.0000
  C   C1528     1.0  0.78967  0.23189  0.07937  1.0000
  H   H1847     1.0  0.84524  0.02250  0.42120  1.0000
  H   H1848     1.0  0.76055  0.17885  0.38448  1.0000
  C   C1529     1.0  0.83871  0.03440  0.43067  1.0000
  H   H1849     1.0  0.81433  0.02960  0.03088  1.0000
  H   H1850     1.0  0.75553  0.19277  0.35483  1.0000
  Fe  Fe200     1.0  0.77318  0.32651  0.02750  1.0000
  H   H1851     1.0  0.89820  0.01912  0.47038  1.0000
  H   H1852     1.0  0.77958  0.23058  0.14851  1.0000
  C   C1530     1.0  0.75520  0.25322  0.34115  1.0000
  C   C1531     1.0  0.82313  0.03916  0.02237  1.0000
  H   H1853     1.0  0.75964  0.21835  0.38801  1.0000
  H   H1854     1.0  0.99809  0.00218  0.41888  1.0000
  C   C1532     1.0  0.75318  0.21028  0.40418  1.0000
  H   H1855     1.0  0.96672  0.00326  0.40894  1.0000
  C   C1533     1.0  0.82408  0.06438  0.45928  1.0000
  H   H1856     1.0  0.84388  0.02017  0.01605  1.0000
  Fe  Fe201     1.0  0.78458  0.16750  0.98905  1.0000
  C   C1534     1.0  0.79615  0.26504  0.47956  1.0000
  C   C1535     1.0  0.79915  0.22959  0.99906  1.0000
  H   H1857     1.0  0.87189  0.04395  0.47492  1.0000
  H   H1858     1.0  0.81079  0.22741  0.01172  1.0000
  H   H1859     1.0  0.80093  0.25795  0.99985  1.0000
  C   C1536     1.0  0.81631  0.07891  0.47290  1.0000
  S   S411      1.0  0.80691  0.28539  0.48070  1.0000
  H   H1860     1.0  0.77004  0.27630  0.47522  1.0000
  H   H1861     1.0  0.75586  0.24746  0.47145  1.0000
  C   C1537     1.0  0.77795  0.26428  0.47629  1.0000
  C   C1538     1.0  0.76994  0.24790  0.47420  1.0000
  C   C1539     1.0  0.75287  0.32791  0.10156  1.0000
  C   C1540     1.0  0.94106  0.99830  0.21261  1.0000
  Fe  Fe202     1.0  0.77623  0.18284  0.48040  1.0000
  C   C1541     1.0  0.97094  0.01167  0.80563  1.0000
  S   S412      1.0  0.90941  0.03076  0.92159  1.0000
  C   C1542     1.0  0.78164  0.26364  0.57748  1.0000
  Fe  Fe203     1.0  0.89592  0.02058  0.84384  1.0000
  S   S413      1.0  0.91105  0.04427  0.85673  1.0000
  H   H1862     1.0  0.76270  0.29149  0.91290  1.0000
  Fe  Fe204     1.0  0.92698  0.02576  0.88408  1.0000
  S   S414      1.0  0.95639  0.01855  0.88392  1.0000
  Fe  Fe205     1.0  0.89185  0.04717  0.89297  1.0000
  S   S415      1.0  0.87962  0.07414  0.90557  1.0000
  H   H1863     1.0  0.78854  0.28516  0.53278  1.0000
  S   S416      1.0  0.87579  0.02475  0.87834  1.0000
  H   H1864     1.0  0.78435  0.30646  0.60080  1.0000
  H   H1865     1.0  0.96406  0.05610  0.87847  1.0000
  H   H1866     1.0  0.79140  0.22896  0.62156  1.0000
  H   H1867     1.0  0.76127  0.14306  0.89600  1.0000
  H   H1868     1.0  0.96928  0.03379  0.75803  1.0000
  H   H1869     1.0  0.86157  0.01500  0.97681  1.0000
  Fe  Fe206     1.0  0.76894  0.15405  0.52468  1.0000
  H   H1870     1.0  0.83408  0.04137  0.81831  1.0000
  Fe  Fe207     1.0  0.75589  0.14683  0.96212  1.0000
  S   S417      1.0  0.76567  0.31487  0.50159  1.0000
  S   S418      1.0  0.79352  0.16738  0.51072  1.0000
  S   S419      1.0  0.78358  0.15196  0.94866  1.0000
  H   H1871     1.0  0.87185  0.06407  0.84835  1.0000
  H   H1872     1.0  0.79272  0.30400  0.55345  1.0000
  H   H1873     1.0  0.75820  0.23763  0.95240  1.0000
  H   H1874     1.0  0.79907  0.28855  0.60886  1.0000
  C   C1543     1.0  0.84748  0.04436  0.82588  1.0000
  H   H1875     1.0  0.96777  0.03264  0.70693  1.0000
  C   C1544     1.0  0.75147  0.19410  0.90448  1.0000
  Fe  Fe208     1.0  0.89411  0.00819  0.90545  1.0000
  H   H1876     1.0  0.81909  0.06859  0.94287  1.0000
  Fe  Fe209     1.0  0.79122  0.12806  0.97471  1.0000
  H   H1877     1.0  0.83161  0.08339  0.78070  1.0000
  H   H1878     1.0  0.76191  0.19164  0.91956  1.0000
  C   C1545     1.0  0.78526  0.29187  0.60272  1.0000
  C   C1546     1.0  0.77769  0.25342  0.55352  1.0000
  H   H1879     1.0  0.76085  0.30349  0.56805  1.0000
  H   H1880     1.0  0.88096  0.02302  0.96154  1.0000
  H   H1881     1.0  0.91039  0.00423  0.96696  1.0000
  C   C1547     1.0  0.77500  0.21812  0.97265  1.0000
  H   H1882     1.0  0.80833  0.11336  0.84728  1.0000
  C   C1548     1.0  0.83084  0.08563  0.80299  1.0000
  C   C1549     1.0  0.94253  0.99941  0.81061  1.0000
  C   C1550     1.0  0.97611  0.03019  0.88015  1.0000
  C   C1551     1.0  0.75057  0.14543  0.62452  1.0000
  C   C1552     1.0  0.74935  0.14475  0.88387  1.0000
  H   H1883     1.0  0.86464  0.04798  0.77782  1.0000
  C   C1553     1.0  0.97628  0.04847  0.87775  1.0000
  C   C1554     1.0  0.85924  0.08184  0.92079  1.0000
  C   C1555     1.0  0.84545  0.07066  0.92660  1.0000
  C   C1556     1.0  0.82959  0.07742  0.93844  1.0000
  C   C1557     1.0  0.82720  0.09543  0.94486  1.0000
  C   C1558     1.0  0.84096  0.10661  0.93894  1.0000
  C   C1559     1.0  0.85681  0.09986  0.92699  1.0000
  H   H1884     1.0  0.84693  0.05681  0.92184  1.0000
  H   H1885     1.0  0.89393  0.04959  0.97636  1.0000
  H   H1886     1.0  0.83944  0.12047  0.94366  1.0000
  H   H1887     1.0  0.86730  0.10871  0.92259  1.0000
  H   H1888     1.0  0.78433  0.21205  0.57899  1.0000
  H   H1889     1.0  0.83882  0.07717  0.53410  1.0000
  H   H1890     1.0  0.77392  0.25957  0.53398  1.0000
  C   C1560     1.0  0.85507  0.05886  0.78328  1.0000
  H   H1891     1.0  0.77565  0.22754  0.53552  1.0000
  H   H1892     1.0  0.94408  0.00011  0.83379  1.0000
  H   H1893     1.0  0.82569  0.09631  0.88214  1.0000
  C   C1561     1.0  0.78658  0.25429  0.60219  1.0000
  C   C1562     1.0  0.83453  0.07336  0.51338  1.0000
  H   H1894     1.0  0.84604  0.07275  0.86732  1.0000
  C   C1563     1.0  0.75445  0.30205  0.86148  1.0000
  H   H1895     1.0  0.84236  0.05529  0.77363  1.0000
  H   H1896     1.0  0.81153  0.10665  0.79677  1.0000
  S   S420      1.0  0.89020  0.01945  0.79647  1.0000
  H   H1897     1.0  0.76854  0.29769  0.86223  1.0000
  H   H1898     1.0  0.75756  0.26200  0.91032  1.0000
  H   H1899     1.0  0.76278  0.23231  0.89380  1.0000
  C   C1564     1.0  0.81734  0.10292  0.84038  1.0000
  S   S421      1.0  0.75172  0.17054  0.49655  1.0000
  H   H1900     1.0  0.85646  0.03311  0.81990  1.0000
  C   C1565     1.0  0.99216  0.02052  0.87921  1.0000
  H   H1901     1.0  0.88686  0.02055  0.73640  1.0000
  C   C1566     1.0  0.96033  0.02352  0.71928  1.0000
  C   C1567     1.0  0.87125  0.06460  0.82512  1.0000
  C   C1568     1.0  0.95142  0.01239  0.76530  1.0000
  H   H1902     1.0  0.78993  0.26085  0.62142  1.0000
  C   C1569     1.0  0.75266  0.23725  0.85239  1.0000
  C   C1570     1.0  0.96114  0.02404  0.74855  1.0000
  N   N108      1.0  0.85345  0.06116  0.81410  1.0000
  H   H1903     1.0  0.75364  0.31594  0.86834  1.0000
  H   H1904     1.0  0.75273  0.28427  0.58476  1.0000
  H   H1905     1.0  0.90481  0.01774  0.52126  1.0000
  H   H1906     1.0  0.75542  0.22396  0.84517  1.0000
  S   S422      1.0  0.77193  0.27144  0.96440  1.0000
  N   N109      1.0  0.95236  0.01335  0.79626  1.0000
  S   S423      1.0  0.76418  0.14678  0.57091  1.0000
  H   H1907     1.0  0.88120  0.05468  0.81751  1.0000
  C   C1571     1.0  0.81918  0.09909  0.81195  1.0000
  C   C1572     1.0  0.84105  0.07559  0.82254  1.0000
  S   S424      1.0  0.91250  0.00199  0.86971  1.0000
  C   C1573     1.0  0.78749  0.23589  0.60261  1.0000
  H   H1908     1.0  0.84698  0.04458  0.84914  1.0000
  H   H1909     1.0  0.76256  0.14248  0.84396  1.0000
  C   C1574     1.0  0.75681  0.24197  0.87974  1.0000
  H   H1910     1.0  0.95215  0.04178  0.79736  1.0000
  H   H1911     1.0  0.97751  0.99960  0.79697  1.0000
  H   H1912     1.0  0.85989  0.07093  0.77308  1.0000
  H   H1913     1.0  0.97196  0.01091  0.82888  1.0000
  C   C1575     1.0  0.86794  0.02724  0.97009  1.0000
  C   C1576     1.0  0.89318  0.00274  0.77028  1.0000
  H   H1914     1.0  0.87564  0.07780  0.81869  1.0000
  C   C1577     1.0  0.78353  0.22631  0.57866  1.0000
  C   C1578     1.0  0.82162  0.08349  0.49976  1.0000
  H   H1915     1.0  0.81608  0.09527  0.50961  1.0000
  C   C1579     1.0  0.82711  0.09330  0.86000  1.0000
  C   C1580     1.0  0.83876  0.07983  0.85129  1.0000
  H   H1916     1.0  0.94536  0.03174  0.82906  1.0000
  C   C1581     1.0  0.79249  0.28937  0.55405  1.0000
  H   H1917     1.0  0.77623  0.28847  0.62007  1.0000
  N   N110      1.0  0.78048  0.28308  0.57609  1.0000
  C   C1582     1.0  0.89062  0.00718  0.74188  1.0000
  Fe  Fe210     1.0  0.79313  0.31227  0.48509  1.0000
  H   H1918     1.0  0.80621  0.28433  0.55744  1.0000
  C   C1583     1.0  0.75371  0.25922  0.88903  1.0000
  C   C1584     1.0  0.77888  0.24998  0.97530  1.0000
  S   S425      1.0  0.78292  0.31978  0.94726  1.0000
  C   C1585     1.0  0.77863  0.23506  0.55418  1.0000
  H   H1919     1.0  0.76773  0.20712  0.96509  1.0000
  C   C1586     1.0  0.89910  0.00662  0.51095  1.0000
  C   C1587     1.0  0.75337  0.18810  0.87707  1.0000
  C   C1588     1.0  0.94974  0.01153  0.70585  1.0000
  C   C1589     1.0  0.76225  0.28891  0.56895  1.0000
  H   H1920     1.0  0.85245  0.05143  0.51132  1.0000
  C   C1590     1.0  0.89530  0.00745  0.48212  1.0000
  H   H1921     1.0  0.75809  0.28410  0.54807  1.0000
  C   C1591     1.0  0.94487  0.03054  0.80580  1.0000
  S   S426      1.0  0.80690  0.10298  0.96048  1.0000
  H   H1922     1.0  0.89094  0.99823  0.69868  1.0000
  Fe  Fe211     1.0  0.77854  0.29898  0.98005  1.0000
  C   C1592     1.0  0.93993  0.00002  0.72163  1.0000
  H   H1923     1.0  0.99219  0.00637  0.88106  1.0000
  H   H1924     1.0  0.82027  0.24968  0.48385  1.0000
  H   H1925     1.0  0.76219  0.13741  0.62910  1.0000
  H   H1926     1.0  0.99244  0.07115  0.87352  1.0000
  H   H1927     1.0  0.76532  0.18095  0.87101  1.0000
  H   H1928     1.0  0.85197  0.02341  0.49634  1.0000
  C   C1593     1.0  0.75003  0.14439  0.85440  1.0000
  H   H1929     1.0  0.97877  0.02315  0.79961  1.0000
  C   C1594     1.0  0.99240  0.05697  0.87493  1.0000
  H   H1930     1.0  0.93086  0.03227  0.79925  1.0000
  C   C1595     1.0  0.84225  0.05865  0.50012  1.0000
  H   H1931     1.0  0.86011  0.03294  0.95245  1.0000
  S   S427      1.0  0.77213  0.13236  0.49259  1.0000
  H   H1932     1.0  0.87476  0.06097  0.96411  1.0000
  H   H1933     1.0  0.94893  0.01125  0.68318  1.0000
  H   H1934     1.0  0.75018  0.30204  0.83919  1.0000
  C   C1596     1.0  0.76962  0.23546  0.96554  1.0000
  C   C1597     1.0  0.94072  0.00035  0.75090  1.0000
  H   H1935     1.0  0.92814  0.00078  0.80653  1.0000
  C   C1598     1.0  0.74847  0.29437  0.90910  1.0000
  H   H1936     1.0  0.74853  0.11652  0.54573  1.0000
  H   H1937     1.0  0.83077  0.01983  0.48114  1.0000
  H   H1938     1.0  0.80600  0.22079  0.48112  1.0000
  C   C1599     1.0  0.80617  0.24925  0.48130  1.0000
  Fe  Fe212     1.0  0.80246  0.63330  0.01171  1.0000
  Fe  Fe213     1.0  0.77593  0.64108  0.46851  1.0000
  S   S428      1.0  0.82875  0.61709  0.01474  1.0000
  H   H1939     1.0  0.82050  0.41087  0.44022  1.0000
  C   C1600     1.0  0.95075  0.50256  0.02020  1.0000
  H   H1940     1.0  0.85362  0.42726  0.47280  1.0000
  H   H1941     1.0  0.85739  0.49592  0.05435  1.0000
  H   H1942     1.0  0.96481  0.53181  0.23090  1.0000
  H   H1943     1.0  0.96780  0.51167  0.98792  1.0000
  Fe  Fe214     1.0  0.90908  0.51909  0.15132  1.0000
  S   S429      1.0  0.91788  0.54566  0.13630  1.0000
  S   S430      1.0  0.91334  0.51354  0.19866  1.0000
  Fe  Fe215     1.0  0.90228  0.50776  0.08979  1.0000
  S   S431      1.0  0.91090  0.53314  0.07169  1.0000
  S   S432      1.0  0.89336  0.48545  0.06206  1.0000
  Fe  Fe216     1.0  0.93322  0.53066  0.10290  1.0000
  S   S433      1.0  0.96160  0.52777  0.08714  1.0000
  Fe  Fe217     1.0  0.89462  0.54579  0.10617  1.0000
  S   S434      1.0  0.87174  0.56648  0.10111  1.0000
  S   S435      1.0  0.92522  0.50439  0.11900  1.0000
  S   S436      1.0  0.88512  0.52010  0.12336  1.0000
  Fe  Fe218     1.0  0.89838  0.45743  0.34119  1.0000
  S   S437      1.0  0.90848  0.42956  0.34668  1.0000
  S   S438      1.0  0.88722  0.46263  0.29701  1.0000
  Fe  Fe219     1.0  0.90894  0.46610  0.40168  1.0000
  S   S439      1.0  0.92023  0.43899  0.41002  1.0000
  S   S440      1.0  0.91284  0.48780  0.43344  1.0000
  Fe  Fe220     1.0  0.93209  0.44115  0.36706  1.0000
  S   S441      1.0  0.95892  0.43338  0.34887  1.0000
  Fe  Fe221     1.0  0.89542  0.42987  0.38917  1.0000
  S   S442      1.0  0.88206  0.40500  0.40570  1.0000
  S   S443      1.0  0.92245  0.46890  0.35991  1.0000
  S   S444      1.0  0.88360  0.45712  0.38265  1.0000
  C   C1601     1.0  0.75227  0.34679  0.36146  1.0000
  H   H1944     1.0  0.92769  0.46552  0.01886  1.0000
  C   C1602     1.0  0.93683  0.47496  0.01118  1.0000
  C   C1603     1.0  0.93962  0.48940  0.02858  1.0000
  S   S445      1.0  0.76752  0.63194  0.42449  1.0000
  H   H1945     1.0  0.93281  0.49057  0.04854  1.0000
  H   H1946     1.0  0.86703  0.54348  0.05262  1.0000
  H   H1947     1.0  0.84582  0.53679  0.08775  1.0000
  H   H1948     1.0  0.92727  0.46234  0.24565  1.0000
  C   C1604     1.0  0.86692  0.43242  0.47666  1.0000
  H   H1949     1.0  0.88699  0.40347  0.46919  1.0000
  C   C1605     1.0  0.86205  0.39759  0.42089  1.0000
  C   C1606     1.0  0.86121  0.37998  0.42981  1.0000
  C   C1607     1.0  0.84586  0.37349  0.44236  1.0000
  C   C1608     1.0  0.83101  0.38454  0.44634  1.0000
  C   C1609     1.0  0.83187  0.40217  0.43744  1.0000
  C   C1610     1.0  0.84716  0.40860  0.42462  1.0000
  H   H1950     1.0  0.87257  0.37125  0.42704  1.0000
  H   H1951     1.0  0.84553  0.35993  0.44901  1.0000
  H   H1952     1.0  0.85517  0.50195  0.01878  1.0000
  H   H1953     1.0  0.84740  0.42211  0.41772  1.0000
  H   H1954     1.0  0.76351  0.34843  0.40301  1.0000
  C   C1611     1.0  0.97934  0.43576  0.36617  1.0000
  C   C1612     1.0  0.98039  0.43889  0.39499  1.0000
  H   H1955     1.0  0.99680  0.51448  0.08137  1.0000
  H   H1956     1.0  0.96847  0.44027  0.40724  1.0000
  C   C1613     1.0  0.89283  0.48690  0.02503  1.0000
  C   C1614     1.0  0.88732  0.47245  0.00941  1.0000
  C   C1615     1.0  0.75932  0.63748  0.13897  1.0000
  C   C1616     1.0  0.75358  0.63182  0.37095  1.0000
  H   H1957     1.0  0.87057  0.52953  0.02268  1.0000
  C   C1617     1.0  0.89753  0.50214  0.01090  1.0000
  H   H1958     1.0  0.88358  0.46062  0.02014  1.0000
  H   H1959     1.0  0.76237  0.62057  0.36765  1.0000
  H   H1960     1.0  0.75764  0.59832  0.15309  1.0000
  H   H1961     1.0  0.90207  0.51327  0.02251  1.0000
  C   C1618     1.0  0.90518  0.49959  0.22563  1.0000
  C   C1619     1.0  0.89419  0.48558  0.22016  1.0000
  C   C1620     1.0  0.88873  0.47456  0.24220  1.0000
  C   C1621     1.0  0.89425  0.47723  0.27004  1.0000
  C   C1622     1.0  0.90511  0.49134  0.27554  1.0000
  C   C1623     1.0  0.91050  0.50238  0.25354  1.0000
  H   H1962     1.0  0.88992  0.48320  0.19892  1.0000
  H   H1963     1.0  0.88023  0.46383  0.23757  1.0000
  H   H1964     1.0  0.90919  0.49389  0.29682  1.0000
  H   H1965     1.0  0.91885  0.51324  0.25820  1.0000
  H   H1966     1.0  0.82396  0.55228  0.47728  1.0000
  C   C1624     1.0  0.98171  0.53606  0.09938  1.0000
  C   C1625     1.0  0.98261  0.55188  0.11412  1.0000
  S   S446      1.0  0.80449  0.64531  0.47806  1.0000
  H   H1967     1.0  0.97064  0.55913  0.11956  1.0000
  H   H1968     1.0  0.83665  0.55689  0.05775  1.0000
  C   C1626     1.0  0.75348  0.64039  0.39715  1.0000
  H   H1969     1.0  0.83578  0.49840  0.03998  1.0000
  H   H1970     1.0  0.82273  0.60710  0.07394  1.0000
  S   S447      1.0  0.76879  0.33205  0.07479  1.0000
  C   C1627     1.0  0.81277  0.55527  0.99830  1.0000
  H   H1971     1.0  0.76848  0.33958  0.13388  1.0000
  C   C1628     1.0  0.84062  0.60335  0.03943  1.0000
  C   C1629     1.0  0.85640  0.59468  0.03092  1.0000
  C   C1630     1.0  0.86609  0.58343  0.04930  1.0000
  C   C1631     1.0  0.86032  0.58083  0.07682  1.0000
  C   C1632     1.0  0.84457  0.58953  0.08534  1.0000
  C   C1633     1.0  0.83475  0.60058  0.06684  1.0000
  H   H1972     1.0  0.86133  0.59681  0.01001  1.0000
  H   H1973     1.0  0.87818  0.57701  0.04230  1.0000
  H   H1974     1.0  0.83989  0.58770  0.10651  1.0000
  Fe  Fe222     1.0  0.76421  0.63849  0.02923  1.0000
  H   H1975     1.0  0.88919  0.54152  0.46199  1.0000
  C   C1634     1.0  0.99499  0.43388  0.35060  1.0000
  C   C1635     1.0  0.97970  0.51700  0.16803  1.0000
  H   H1976     1.0  0.85131  0.51424  0.09104  1.0000
  Fe  Fe223     1.0  0.79715  0.35245  0.47813  1.0000
  C   C1636     1.0  0.90676  0.48594  0.46896  1.0000
  H   H1977     1.0  0.75107  0.37578  0.01904  1.0000
  N   N111      1.0  0.85358  0.41370  0.32872  1.0000
  C   C1637     1.0  0.85664  0.43025  0.34407  1.0000
  C   C1638     1.0  0.87097  0.40478  0.32404  1.0000
  C   C1639     1.0  0.84610  0.41811  0.30080  1.0000
  C   C1640     1.0  0.84119  0.40300  0.34486  1.0000
  C   C1641     1.0  0.82388  0.40959  0.35052  1.0000
  C   C1642     1.0  0.84592  0.38622  0.35612  1.0000
  C   C1643     1.0  0.81212  0.40002  0.36649  1.0000
  C   C1644     1.0  0.83399  0.37672  0.37188  1.0000
  C   C1645     1.0  0.81717  0.38364  0.37719  1.0000
  H   H1978     1.0  0.86165  0.42741  0.36556  1.0000
  H   H1979     1.0  0.86642  0.43842  0.33314  1.0000
  H   H1980     1.0  0.84453  0.43864  0.34625  1.0000
  H   H1981     1.0  0.87791  0.40206  0.34421  1.0000
  H   H1982     1.0  0.87986  0.41308  0.31149  1.0000
  H   H1983     1.0  0.86971  0.39222  0.31240  1.0000
  H   H1984     1.0  0.85540  0.42579  0.28796  1.0000
  H   H1985     1.0  0.84302  0.40600  0.28893  1.0000
  H   H1986     1.0  0.83385  0.42638  0.30224  1.0000
  H   H1987     1.0  0.81944  0.42237  0.34311  1.0000
  H   H1988     1.0  0.85892  0.38032  0.35384  1.0000
  H   H1989     1.0  0.79910  0.40545  0.37110  1.0000
  H   H1990     1.0  0.83801  0.36418  0.38095  1.0000
  H   H1991     1.0  0.80823  0.37648  0.39032  1.0000
  H   H1992     1.0  0.99436  0.43115  0.32841  1.0000
  H   H1993     1.0  0.77172  0.63629  0.14997  1.0000
  C   C1646     1.0  0.99741  0.52685  0.09239  1.0000
  N   N112      1.0  0.84840  0.52288  0.04803  1.0000
  C   C1647     1.0  0.84908  0.50403  0.03979  1.0000
  C   C1648     1.0  0.99692  0.43970  0.40815  1.0000
  C   C1649     1.0  0.84339  0.52376  0.07814  1.0000
  C   C1650     1.0  0.83607  0.53375  0.03080  1.0000
  C   C1651     1.0  0.81980  0.56171  0.02302  1.0000
  C   C1652     1.0  0.96796  0.52109  0.18961  1.0000
  C   C1653     1.0  0.99200  0.53143  0.21779  1.0000
  C   C1654     1.0  0.82912  0.52778  0.00494  1.0000
  C   C1655     1.0  0.75623  0.33336  0.12925  1.0000
  H   H1994     1.0  0.87600  0.52168  0.05718  1.0000
  Fe  Fe224     1.0  0.76208  0.33503  0.46731  1.0000
  H   H1995     1.0  0.93107  0.44238  0.47165  1.0000
  H   H1996     1.0  0.79277  0.66216  0.41351  1.0000
  C   C1656     1.0  0.86626  0.52972  0.04495  1.0000
  C   C1657     1.0  0.75246  0.34424  0.39071  1.0000
  H   H1997     1.0  0.82929  0.52083  0.08111  1.0000
  H   H1998     1.0  0.76326  0.35286  0.35136  1.0000
  H   H1999     1.0  0.81637  0.57498  0.02988  1.0000
  C   C1658     1.0  0.83135  0.55118  0.03898  1.0000
  H   H2000     1.0  0.96872  0.48100  0.22636  1.0000
  C   C1659     1.0  0.75897  0.63585  0.10957  1.0000
  H   H2001     1.0  0.87404  0.43170  0.45630  1.0000
  H   H2002     1.0  0.95257  0.51385  0.03363  1.0000
  S   S448      1.0  0.75786  0.65711  0.99398  1.0000
  H   H2003     1.0  0.99592  0.53773  0.23697  1.0000
  H   H2004     1.0  0.77105  0.63336  0.09809  1.0000
  N   N113      1.0  0.95187  0.46146  0.26835  1.0000
  C   C1660     1.0  0.95197  0.44200  0.26997  1.0000
  C   C1661     1.0  0.94304  0.46874  0.29371  1.0000
  C   C1662     1.0  0.94102  0.46681  0.24374  1.0000
  C   C1663     1.0  0.97016  0.46749  0.26706  1.0000
  C   C1664     1.0  0.89137  0.47772  0.47689  1.0000
  C   C1665     1.0  0.81753  0.53840  0.98914  1.0000
  S   S449      1.0  0.77791  0.61908  0.00030  1.0000
  H   H2005     1.0  0.95859  0.43692  0.28922  1.0000
  H   H2006     1.0  0.93839  0.43698  0.27062  1.0000
  H   H2007     1.0  0.95891  0.43593  0.25170  1.0000
  H   H2008     1.0  0.94290  0.48336  0.29370  1.0000
  H   H2009     1.0  0.94951  0.46421  0.31340  1.0000
  H   H2010     1.0  0.92918  0.46456  0.29524  1.0000
  H   H2011     1.0  0.94635  0.46107  0.22393  1.0000
  H   H2012     1.0  0.77969  0.65687  0.32262  1.0000
  H   H2013     1.0  0.94003  0.48136  0.24156  1.0000
  H   H2014     1.0  0.83244  0.51495  0.99647  1.0000
  C   C1666     1.0  0.98206  0.46352  0.28922  1.0000
  S   S450      1.0  0.81112  0.37726  0.46216  1.0000
  H   H2015     1.0  0.95399  0.51910  0.18680  1.0000
  S   S451      1.0  0.78872  0.65175  0.04263  1.0000
  H   H2016     1.0  0.90388  0.42702  0.46312  1.0000
  H   H2017     1.0  0.75566  0.36527  0.05162  1.0000
  H   H2018     1.0  0.97474  0.51198  0.14834  1.0000
  H   H2019     1.0  0.93547  0.43924  0.99655  1.0000
  H   H2020     1.0  0.97793  0.45633  0.30748  1.0000
  S   S452      1.0  0.77693  0.34927  0.99776  1.0000
  H   H2021     1.0  0.88350  0.47144  0.46118  1.0000
  C   C1667     1.0  0.97411  0.52826  0.21446  1.0000
  H   H2022     1.0  0.75746  0.59344  0.10187  1.0000
  C   C1668     1.0  0.97678  0.47720  0.24410  1.0000
  H   H2023     1.0  0.79479  0.66374  0.36616  1.0000
  H   H2024     1.0  0.87756  0.52334  0.47612  1.0000
  H   H2025     1.0  0.80378  0.56346  0.98607  1.0000
  C   C1669     1.0  0.99428  0.48232  0.24344  1.0000
  C   C1670     1.0  0.94530  0.47328  0.98470  1.0000
  C   C1671     1.0  0.89649  0.50296  0.98149  1.0000
  C   C1672     1.0  0.95930  0.50130  0.99445  1.0000
  H   H2026     1.0  0.99759  0.44166  0.43055  1.0000
  H   H2027     1.0  0.82511  0.58468  0.47930  1.0000
  H   H2028     1.0  0.85690  0.56370  0.98217  1.0000
  C   C1673     1.0  0.99764  0.51995  0.17122  1.0000
  H   H2029     1.0  0.99312  0.47141  0.98288  1.0000
  Fe  Fe225     1.0  0.80113  0.63033  0.51855  1.0000
  S   S453      1.0  0.77317  0.62427  0.50697  1.0000
  S   S454      1.0  0.81577  0.60520  0.53482  1.0000
  C   C1674     1.0  0.84419  0.58887  0.64244  1.0000
  H   H2030     1.0  0.82003  0.40664  0.86801  1.0000
  Fe  Fe226     1.0  0.76572  0.64911  0.52985  1.0000
  C   C1675     1.0  0.93493  0.46503  0.93881  1.0000
  C   C1676     1.0  0.99622  0.45111  0.88173  1.0000
  C   C1677     1.0  0.89801  0.55436  0.51393  1.0000
  Fe  Fe227     1.0  0.89803  0.51831  0.65370  1.0000
  S   S455      1.0  0.91416  0.54190  0.64382  1.0000
  S   S456      1.0  0.88862  0.51694  0.69967  1.0000
  Fe  Fe228     1.0  0.89952  0.50660  0.59160  1.0000
  S   S457      1.0  0.91603  0.52906  0.57844  1.0000
  S   S458      1.0  0.88837  0.48724  0.56055  1.0000
  Fe  Fe229     1.0  0.93139  0.52344  0.61806  1.0000
  S   S459      1.0  0.96091  0.51726  0.62327  1.0000
  Fe  Fe230     1.0  0.89720  0.54548  0.60507  1.0000
  S   S460      1.0  0.88661  0.57278  0.59092  1.0000
  S   S461      1.0  0.91583  0.49969  0.62959  1.0000
  S   S462      1.0  0.88007  0.52316  0.61643  1.0000
  Fe  Fe231     1.0  0.89125  0.45235  0.84090  1.0000
  S   S463      1.0  0.89620  0.42432  0.85547  1.0000
  S   S464      1.0  0.89180  0.45562  0.79274  1.0000
  Fe  Fe232     1.0  0.89085  0.46535  0.90217  1.0000
  S   S465      1.0  0.89607  0.43853  0.92029  1.0000
  S   S466      1.0  0.88993  0.49006  0.92894  1.0000
  Fe  Fe233     1.0  0.91588  0.43572  0.88520  1.0000
  S   S467      1.0  0.94342  0.42365  0.89187  1.0000
  Fe  Fe234     1.0  0.87586  0.42937  0.88936  1.0000
  S   S468      1.0  0.85126  0.41325  0.89940  1.0000
  S   S469      1.0  0.91199  0.46314  0.86913  1.0000
  S   S470      1.0  0.86959  0.45678  0.87274  1.0000
  H   H2031     1.0  0.86062  0.54165  0.94418  1.0000
  H   H2032     1.0  0.86401  0.55820  0.63591  1.0000
  C   C1678     1.0  0.82614  0.34309  0.89179  1.0000
  H   H2033     1.0  0.79653  0.58812  0.94674  1.0000
  H   H2034     1.0  0.87365  0.54566  0.66394  1.0000
  H   H2035     1.0  0.82661  0.57211  0.89101  1.0000
  C   C1679     1.0  0.75730  0.35026  0.86447  1.0000
  H   H2036     1.0  0.86720  0.39722  0.48552  1.0000
  N   N114      1.0  0.88239  0.54435  0.50560  1.0000
  C   C1680     1.0  0.81521  0.60106  0.65277  1.0000
  H   H2037     1.0  0.95777  0.43703  0.94664  1.0000
  C   C1681     1.0  0.84477  0.39499  0.92052  1.0000
  C   C1682     1.0  0.82671  0.39215  0.92452  1.0000
  C   C1683     1.0  0.82082  0.37732  0.93925  1.0000
  C   C1684     1.0  0.83291  0.36498  0.95042  1.0000
  C   C1685     1.0  0.85098  0.36799  0.94694  1.0000
  C   C1686     1.0  0.85688  0.38283  0.93215  1.0000
  H   H2038     1.0  0.81711  0.40150  0.91625  1.0000
  H   H2039     1.0  0.80691  0.37532  0.94170  1.0000
  H   H2040     1.0  0.93220  0.45414  0.92408  1.0000
  H   H2041     1.0  0.87079  0.38467  0.92939  1.0000
  C   C1687     1.0  0.97953  0.42505  0.89137  1.0000
  C   C1688     1.0  0.96356  0.43457  0.88778  1.0000
  C   C1689     1.0  0.96400  0.45247  0.88141  1.0000
  H   H2042     1.0  0.97935  0.41120  0.89638  1.0000
  H   H2043     1.0  0.95188  0.46000  0.87856  1.0000
  C   C1690     1.0  0.89578  0.48678  0.52546  1.0000
  C   C1691     1.0  0.88586  0.47824  0.50505  1.0000
  H   H2044     1.0  0.85021  0.55490  0.71016  1.0000
  H   H2045     1.0  0.80355  0.60855  0.64627  1.0000
  H   H2046     1.0  0.84123  0.61608  0.91955  1.0000
  C   C1692     1.0  0.91133  0.49470  0.51759  1.0000
  H   H2047     1.0  0.87381  0.47214  0.51108  1.0000
  C   C1693     1.0  0.99425  0.44035  0.81304  1.0000
  H   H2048     1.0  0.81284  0.39287  0.79379  1.0000
  H   H2049     1.0  0.91922  0.50108  0.53317  1.0000
  C   C1694     1.0  0.89062  0.49983  0.72544  1.0000
  C   C1695     1.0  0.89485  0.48235  0.71841  1.0000
  C   C1696     1.0  0.89518  0.46913  0.73926  1.0000
  C   C1697     1.0  0.89163  0.47314  0.76759  1.0000
  C   C1698     1.0  0.88784  0.49069  0.77476  1.0000
  C   C1699     1.0  0.88717  0.50386  0.75382  1.0000
  H   H2050     1.0  0.89741  0.47892  0.69676  1.0000
  H   H2051     1.0  0.89799  0.45564  0.73324  1.0000
  H   H2052     1.0  0.88500  0.49408  0.79633  1.0000
  H   H2053     1.0  0.88383  0.51728  0.75964  1.0000
  S   S471      1.0  0.76908  0.63124  0.91949  1.0000
  C   C1700     1.0  0.98042  0.52851  0.61556  1.0000
  C   C1701     1.0  0.98025  0.54543  0.60418  1.0000
  C   C1702     1.0  0.87967  0.40414  0.48935  1.0000
  H   H2054     1.0  0.96784  0.55213  0.59965  1.0000
  H   H2055     1.0  0.87688  0.59275  0.68504  1.0000
  H   H2056     1.0  0.80285  0.61392  0.89887  1.0000
  H   H2057     1.0  0.87346  0.55562  0.71104  1.0000
  H   H2058     1.0  0.84950  0.62072  0.55062  1.0000
  Fe  Fe235     1.0  0.77536  0.33696  0.52825  1.0000
  H   H2059     1.0  0.76898  0.63850  0.59404  1.0000
  H   H2060     1.0  0.79963  0.39868  0.85536  1.0000
  C   C1703     1.0  0.83548  0.59666  0.55108  1.0000
  C   C1704     1.0  0.83665  0.57872  0.55844  1.0000
  C   C1705     1.0  0.85212  0.57114  0.57039  1.0000
  C   C1706     1.0  0.86679  0.58138  0.57504  1.0000
  C   C1707     1.0  0.86558  0.59934  0.56794  1.0000
  C   C1708     1.0  0.85008  0.60694  0.55611  1.0000
  H   H2061     1.0  0.82549  0.57059  0.55470  1.0000
  H   H2062     1.0  0.85256  0.55741  0.57615  1.0000
  H   H2063     1.0  0.87673  0.60750  0.57163  1.0000
  C   C1709     1.0  0.75655  0.63542  0.63446  1.0000
  N   N115      1.0  0.94616  0.45164  0.79538  1.0000
  C   C1710     1.0  0.93978  0.44899  0.76634  1.0000
  C   C1711     1.0  0.93853  0.43777  0.81311  1.0000
  C   C1712     1.0  0.93927  0.46888  0.80578  1.0000
  C   C1713     1.0  0.96562  0.45146  0.79573  1.0000
  C   C1714     1.0  0.97485  0.46359  0.77913  1.0000
  C   C1715     1.0  0.82968  0.61582  0.93380  1.0000
  H   H2064     1.0  0.90014  0.51481  0.97076  1.0000
  S   S472      1.0  0.79328  0.65482  0.54326  1.0000
  H   H2065     1.0  0.94563  0.43672  0.75710  1.0000
  H   H2066     1.0  0.92522  0.44793  0.76564  1.0000
  H   H2067     1.0  0.94281  0.46008  0.75224  1.0000
  H   H2068     1.0  0.94303  0.42439  0.80634  1.0000
  H   H2069     1.0  0.92391  0.43808  0.81202  1.0000
  H   H2070     1.0  0.94188  0.43950  0.83558  1.0000
  H   H2071     1.0  0.94292  0.47993  0.79200  1.0000
  H   H2072     1.0  0.92466  0.46937  0.80682  1.0000
  H   H2073     1.0  0.94430  0.47163  0.82719  1.0000
  H   H2074     1.0  0.94378  0.47393  0.92756  1.0000
  H   H2075     1.0  0.77294  0.34238  0.63654  1.0000
  H   H2076     1.0  0.97017  0.43019  0.82634  1.0000
  N   N116      1.0  0.82291  0.38740  0.83532  1.0000
  C   C1716     1.0  0.81308  0.40222  0.84889  1.0000
  C   C1717     1.0  0.84021  0.39398  0.82636  1.0000
  H   H2077     1.0  0.81975  0.37037  0.79983  1.0000
  C   C1718     1.0  0.82432  0.37232  0.85489  1.0000
  C   C1719     1.0  0.80895  0.36405  0.86435  1.0000
  C   C1720     1.0  0.84068  0.36543  0.86510  1.0000
  C   C1721     1.0  0.75591  0.34908  0.89385  1.0000
  H   H2078     1.0  0.92864  0.50075  0.48338  1.0000
  H   H2079     1.0  0.96634  0.44501  0.97910  1.0000
  H   H2080     1.0  0.99594  0.56688  0.59009  1.0000
  H   H2081     1.0  0.84778  0.39899  0.84451  1.0000
  H   H2082     1.0  0.83875  0.40522  0.81156  1.0000
  H   H2083     1.0  0.85400  0.34626  0.89146  1.0000
  H   H2084     1.0  0.82681  0.33233  0.90666  1.0000
  S   S473      1.0  0.79889  0.65273  0.97574  1.0000
  H   H2085     1.0  0.96340  0.48659  0.95699  1.0000
  C   C1722     1.0  0.83674  0.57662  0.48394  1.0000
  H   H2086     1.0  0.77005  0.35134  0.85482  1.0000
  H   H2087     1.0  0.81169  0.41380  0.83478  1.0000
  H   H2088     1.0  0.87415  0.54054  0.54820  1.0000
  C   C1723     1.0  0.86689  0.55568  0.49839  1.0000
  N   N117      1.0  0.86135  0.57017  0.67684  1.0000
  C   C1724     1.0  0.87753  0.58028  0.67287  1.0000
  C   C1725     1.0  0.86134  0.56371  0.70622  1.0000
  C   C1726     1.0  0.84562  0.58112  0.66939  1.0000
  C   C1727     1.0  0.89709  0.43841  0.53164  1.0000
  H   H2089     1.0  0.92235  0.47247  0.94257  1.0000
  H   H2090     1.0  0.90939  0.54545  0.51938  1.0000
  H   H2091     1.0  0.79604  0.36884  0.85814  1.0000
  H   H2092     1.0  0.82839  0.60415  0.61331  1.0000
  H   H2093     1.0  0.87985  0.58368  0.65054  1.0000
  H   H2094     1.0  0.88951  0.57259  0.67953  1.0000
  H   H2095     1.0  0.86078  0.57478  0.72145  1.0000
  C   C1728     1.0  0.75974  0.33855  0.63152  1.0000
  N   N118      1.0  0.94253  0.45835  0.96546  1.0000
  C   C1729     1.0  0.84147  0.35097  0.88315  1.0000
  Fe  Fe236     1.0  0.77369  0.63922  0.96580  1.0000
  H   H2096     1.0  0.85022  0.54681  0.65987  1.0000
  C   C1730     1.0  0.86232  0.55457  0.65830  1.0000
  H   H2097     1.0  0.92869  0.43408  0.96171  1.0000
  H   H2098     1.0  0.82163  0.62813  0.93049  1.0000
  C   C1731     1.0  0.80991  0.34965  0.88248  1.0000
  H   H2099     1.0  0.89528  0.56255  0.53290  1.0000
  H   H2100     1.0  0.85461  0.58723  0.62728  1.0000
  H   H2101     1.0  0.88747  0.39641  0.50503  1.0000
  H   H2102     1.0  0.85305  0.37124  0.86018  1.0000
  C   C1732     1.0  0.75583  0.63136  0.86530  1.0000
  C   C1733     1.0  0.89105  0.48848  0.96589  1.0000
  H   H2103     1.0  0.82139  0.60229  0.88399  1.0000
  N   N119      1.0  0.87631  0.42246  0.49907  1.0000
  C   C1734     1.0  0.89317  0.43087  0.50516  1.0000
  H   H2104     1.0  0.83088  0.57846  0.70869  1.0000
  C   C1735     1.0  0.95957  0.44911  0.95941  1.0000
  C   C1736     1.0  0.85095  0.54801  0.49001  1.0000
  H   H2105     1.0  0.83468  0.61664  0.95563  1.0000
  H   H2106     1.0  0.88945  0.52407  0.53536  1.0000
  C   C1737     1.0  0.98023  0.46067  0.87848  1.0000
  H   H2107     1.0  0.80234  0.59068  0.89612  1.0000
  C   C1738     1.0  0.86437  0.42179  0.52366  1.0000
  H   H2108     1.0  0.80956  0.59980  0.97154  1.0000
  H   H2109     1.0  0.88805  0.43845  0.54905  1.0000
  C   C1739     1.0  0.84363  0.55590  0.91554  1.0000
  H   H2110     1.0  0.81228  0.53354  0.96960  1.0000
  H   H2111     1.0  0.84530  0.54618  0.89903  1.0000
  C   C1740     1.0  0.91675  0.49433  0.48942  1.0000
  C   C1741     1.0  0.85229  0.55331  0.94098  1.0000
  C   C1742     1.0  0.83110  0.58389  0.68784  1.0000
  C   C1743     1.0  0.85024  0.56572  0.96227  1.0000
  H   H2112     1.0  0.86050  0.43523  0.53114  1.0000
  H   H2113     1.0  0.98043  0.47449  0.87329  1.0000
  H   H2114     1.0  0.76753  0.34959  0.90680  1.0000
  C   C1744     1.0  0.81122  0.60166  0.90066  1.0000
  S   S474      1.0  0.77149  0.33867  0.57645  1.0000
  S   S475      1.0  0.76955  0.35753  0.49502  1.0000
  H   H2115     1.0  0.79944  0.37900  0.81407  1.0000
  H   H2116     1.0  0.91524  0.45324  0.55614  1.0000
  C   C1745     1.0  0.97591  0.43975  0.81271  1.0000
  C   C1746     1.0  0.81618  0.59378  0.67951  1.0000
  C   C1747     1.0  0.82921  0.59861  0.63426  1.0000
  H   H2117     1.0  0.76867  0.63163  0.64497  1.0000
  H   H2118     1.0  0.84985  0.53392  0.48895  1.0000
  H   H2119     1.0  0.90246  0.56296  0.49668  1.0000
  H   H2120     1.0  0.96790  0.47295  0.76584  1.0000
  H   H2121     1.0  0.86052  0.35862  0.95546  1.0000
  H   H2122     1.0  0.85194  0.41514  0.51849  1.0000
  S   S476      1.0  0.82629  0.34529  0.96771  1.0000
  H   H2123     1.0  0.88205  0.46202  0.96822  1.0000
  C   C1748     1.0  0.83291  0.57094  0.91120  1.0000
  H   H2124     1.0  0.84829  0.38356  0.81565  1.0000
  H   H2125     1.0  0.90002  0.52588  0.48458  1.0000
  C   C1749     1.0  0.80476  0.59979  0.94957  1.0000
  H   H2126     1.0  0.99698  0.50690  0.62997  1.0000
  H   H2127     1.0  0.96861  0.45732  0.94713  1.0000
  H   H2128     1.0  0.93691  0.45555  0.51790  1.0000
  H   H2129     1.0  0.75125  0.33884  0.67496  1.0000
  H   H2130     1.0  0.80518  0.59569  0.69376  1.0000
  H   H2131     1.0  0.79596  0.61165  0.94741  1.0000
  H   H2132     1.0  0.76731  0.62321  0.86048  1.0000
  C   C1750     1.0  0.81333  0.38218  0.80969  1.0000
  C   C1751     1.0  0.87806  0.53272  0.52936  1.0000
  C   C1752     1.0  0.83955  0.58075  0.95817  1.0000
  N   N120      1.0  0.81928  0.59994  0.92893  1.0000
  C   C1753     1.0  0.83060  0.58391  0.93249  1.0000
  C   C1754     1.0  0.92503  0.44836  0.51458  1.0000
  C   C1755     1.0  0.91284  0.44696  0.53613  1.0000
  H   H2133     1.0  0.87057  0.41429  0.54126  1.0000
  H   H2134     1.0  0.86726  0.52375  0.52449  1.0000
  C   C1756     1.0  0.83610  0.55838  0.48308  1.0000
  C   C1757     1.0  0.75513  0.33593  0.60323  1.0000
  Fe  Fe237     1.0  0.79956  0.33354  0.97913  1.0000
  C   C1758     1.0  0.99671  0.52002  0.62129  1.0000
  C   C1759     1.0  0.95666  0.48689  0.97692  1.0000
  H   H2135     1.0  0.79802  0.34375  0.88994  1.0000
  C   C1760     1.0  0.99621  0.55376  0.59881  1.0000
  C   C1761     1.0  0.75677  0.63936  0.60561  1.0000
  Fe  Fe238     1.0  0.76035  0.33430  0.96758  1.0000
  C   C1762     1.0  0.88650  0.47319  0.97997  1.0000
  S   S477      1.0  0.80354  0.33338  0.51332  1.0000
  H   H2136     1.0  0.91705  0.45100  0.98048  1.0000
  H   H2137     1.0  0.83825  0.58989  0.97542  1.0000
  C   C1763     1.0  0.75330  0.63749  0.89298  1.0000
  C   C1764     1.0  0.90603  0.43229  0.48383  1.0000
  C   C1765     1.0  0.85223  0.58456  0.49162  1.0000
  C   C1766     1.0  0.99319  0.46404  0.77961  1.0000
  C   C1767     1.0  0.92167  0.44097  0.48852  1.0000
  H   H2138     1.0  0.87841  0.58144  0.50569  1.0000
  C   C1768     1.0  0.93043  0.44514  0.97671  1.0000
  C   C1769     1.0  0.86709  0.57435  0.49902  1.0000
  C   C1770     1.0  0.99580  0.43325  0.88833  1.0000
  H   H2139     1.0  0.85246  0.59878  0.49293  1.0000
  H   H2140     1.0  0.86521  0.44654  0.48232  1.0000
  C   C1771     1.0  0.88744  0.53334  0.48104  1.0000
  Fe  Fe239     1.0  0.92759  0.93406  0.11330  1.0000
  S   S478      1.0  0.92246  0.96193  0.12652  1.0000
  S   S479      1.0  0.95441  0.91981  0.11210  1.0000
  Fe  Fe240     1.0  0.88775  0.92618  0.10884  1.0000
  S   S480      1.0  0.87984  0.95388  0.12269  1.0000
  S   S481      1.0  0.87161  0.90105  0.10268  1.0000
  Fe  Fe241     1.0  0.90144  0.96208  0.09313  1.0000
  C   C1772     1.0  0.82642  0.87693  0.44567  1.0000
  Fe  Fe242     1.0  0.90159  0.95191  0.15521  1.0000
  S   S482      1.0  0.90357  0.95721  0.20277  1.0000
  S   S483      1.0  0.90812  0.93481  0.07786  1.0000
  S   S484      1.0  0.90789  0.92370  0.14347  1.0000
  C   C1773     1.0  0.89835  0.98361  0.02723  1.0000
  H   H2141     1.0  0.96187  0.95476  0.09114  1.0000
  C   C1774     1.0  0.99310  0.95553  0.16981  1.0000
  Fe  Fe243     1.0  0.76362  0.82498  0.03292  1.0000
  S   S485      1.0  0.79115  0.82165  0.04944  1.0000
  H   H2142     1.0  0.78546  0.70697  0.44047  1.0000
  C   C1775     1.0  0.89072  0.89721  0.02772  1.0000
  C   C1776     1.0  0.77830  0.70455  0.42052  1.0000
  S   S486      1.0  0.77160  0.82391  0.42717  1.0000
  Fe  Fe244     1.0  0.79410  0.80090  0.01570  1.0000
  S   S487      1.0  0.80903  0.77460  0.02091  1.0000
  Fe  Fe245     1.0  0.79813  0.84127  0.01618  1.0000
  S   S488      1.0  0.81380  0.86659  0.02256  1.0000
  S   S489      1.0  0.76607  0.80292  0.00167  1.0000
  S   S490      1.0  0.77009  0.84561  0.00099  1.0000
  C   C1777     1.0  0.76123  0.76712  0.15359  1.0000
  H   H2143     1.0  0.78874  0.86554  0.15323  1.0000
  H   H2144     1.0  0.75649  0.71253  0.05757  1.0000
  H   H2145     1.0  0.90945  0.89671  0.09213  1.0000
  C   C1778     1.0  0.78598  0.67389  0.42287  1.0000
  H   H2146     1.0  0.83294  0.87020  0.42756  1.0000
  C   C1779     1.0  0.93111  0.87255  0.04237  1.0000
  H   H2147     1.0  0.93580  0.86124  0.05542  1.0000
  C   C1780     1.0  0.78136  0.75178  0.01760  1.0000
  C   C1781     1.0  0.78533  0.71982  0.01320  1.0000
  H   H2148     1.0  0.94354  0.98933  0.39031  1.0000
  H   H2149     1.0  0.80830  0.87730  0.14690  1.0000
  C   C1782     1.0  0.79954  0.75361  0.01917  1.0000
  C   C1783     1.0  0.81055  0.73842  0.01825  1.0000
  C   C1784     1.0  0.80350  0.72159  0.01527  1.0000
  C   C1785     1.0  0.90250  0.86824  0.06159  1.0000
  H   H2150     1.0  0.76153  0.77823  0.20870  1.0000
  H   H2151     1.0  0.81417  0.89035  0.10265  1.0000
  C   C1786     1.0  0.79410  0.87676  0.14135  1.0000
  C   C1787     1.0  0.89709  0.97397  0.22729  1.0000
  H   H2152     1.0  0.81195  0.69710  0.41900  1.0000
  H   H2153     1.0  0.92394  0.97880  0.40013  1.0000
  H   H2154     1.0  0.80594  0.70506  0.38466  1.0000
  H   H2155     1.0  0.98996  0.96872  0.07968  1.0000
  C   C1788     1.0  0.99041  0.92133  0.10872  1.0000
  H   H2156     1.0  0.77226  0.67025  0.42731  1.0000
  H   H2157     1.0  0.80298  0.89795  0.41638  1.0000
  C   C1789     1.0  0.88571  0.97266  0.01603  1.0000
  H   H2158     1.0  0.80106  0.85632  0.07909  1.0000
  C   C1790     1.0  0.75875  0.87507  0.12187  1.0000
  S   S491      1.0  0.77543  0.69920  0.00874  1.0000
  H   H2159     1.0  0.87860  0.96409  0.02973  1.0000
  C   C1791     1.0  0.80127  0.88349  0.41686  1.0000
  H   H2160     1.0  0.77271  0.76330  0.01860  1.0000
  C   C1792     1.0  0.85564  0.89182  0.07978  1.0000
  C   C1793     1.0  0.84724  0.90142  0.05838  1.0000
  C   C1794     1.0  0.83475  0.89339  0.04093  1.0000
  C   C1795     1.0  0.83045  0.87564  0.04442  1.0000
  C   C1796     1.0  0.83904  0.86598  0.06558  1.0000
  C   C1797     1.0  0.85140  0.87404  0.08318  1.0000
  H   H2161     1.0  0.85028  0.91506  0.05534  1.0000
  H   H2162     1.0  0.82826  0.90107  0.02468  1.0000
  H   H2163     1.0  0.83613  0.85229  0.06844  1.0000
  H   H2164     1.0  0.85782  0.86640  0.09954  1.0000
  H   H2165     1.0  0.90775  0.95937  0.26236  1.0000
  C   C1798     1.0  0.97424  0.93043  0.10460  1.0000
  C   C1799     1.0  0.97422  0.94762  0.09438  1.0000
  C   C1800     1.0  0.92999  0.97379  0.45294  1.0000
  C   C1801     1.0  0.88157  0.97354  0.98727  1.0000
  C   C1802     1.0  0.98482  0.97439  0.46973  1.0000
  H   H2166     1.0  0.76855  0.82782  0.09868  1.0000
  H   H2167     1.0  0.78775  0.88921  0.14911  1.0000
  H   H2168     1.0  0.92630  0.88003  0.09685  1.0000
  H   H2169     1.0  0.83176  0.87019  0.46472  1.0000
  C   C1803     1.0  0.76194  0.77505  0.10451  1.0000
  S   S492      1.0  0.80336  0.82019  0.98351  1.0000
  H   H2170     1.0  0.94252  0.88122  0.04048  1.0000
  C   C1804     1.0  0.75966  0.82618  0.37257  1.0000
  H   H2171     1.0  0.76970  0.83160  0.15030  1.0000
  H   H2172     1.0  0.77134  0.88136  0.45127  1.0000
  C   C1805     1.0  0.80066  0.85797  0.10222  1.0000
  C   C1806     1.0  0.99679  0.96574  0.21743  1.0000
  H   H2173     1.0  0.78192  0.75921  0.12484  1.0000
  N   N121      1.0  0.91553  0.88176  0.05496  1.0000
  C   C1807     1.0  0.92002  0.90858  0.02527  1.0000
  H   H2174     1.0  0.79254  0.67622  0.44327  1.0000
  C   C1808     1.0  0.77505  0.66791  0.33526  1.0000
  H   H2175     1.0  0.75628  0.70626  0.38059  1.0000
  Fe  Fe246     1.0  0.78308  0.66986  0.00593  1.0000
  C   C1809     1.0  0.90735  0.99479  0.00924  1.0000
  C   C1810     1.0  0.90115  0.97147  0.25586  1.0000
  H   H2176     1.0  0.79398  0.84642  0.11105  1.0000
  C   C1811     1.0  0.97132  0.99503  0.42603  1.0000
  H   H2177     1.0  0.93474  0.95986  0.45146  1.0000
  C   C1812     1.0  0.97891  0.96334  0.22246  1.0000
  H   H2178     1.0  0.88519  0.99182  0.19749  1.0000
  H   H2179     1.0  0.79998  0.88821  0.07340  1.0000
  H   H2180     1.0  0.89105  0.87400  0.07329  1.0000
  H   H2181     1.0  0.75325  0.67411  0.30793  1.0000
  C   C1813     1.0  0.75638  0.83110  0.40063  1.0000
  H   H2182     1.0  0.79333  0.90223  0.10188  1.0000
  H   H2183     1.0  0.77862  0.71700  0.40838  1.0000
  C   C1814     1.0  0.76829  0.87238  0.07356  1.0000
  C   C1815     1.0  0.92086  0.88989  0.08174  1.0000
  S   S493      1.0  0.90154  0.98557  0.06378  1.0000
  C   C1816     1.0  0.77433  0.73500  0.01446  1.0000
  C   C1817     1.0  0.97525  0.95315  0.17508  1.0000
  H   H2184     1.0  0.77133  0.81831  0.36765  1.0000
  N   N122      1.0  0.94052  0.98547  0.43504  1.0000
  H   H2185     1.0  0.76125  0.67821  0.13741  1.0000
  H   H2186     1.0  0.93110  0.89980  0.07874  1.0000
  H   H2187     1.0  0.76555  0.67018  0.09089  1.0000
  H   H2188     1.0  0.90815  0.85774  0.07540  1.0000
  H   H2189     1.0  0.75074  0.82726  0.32943  1.0000
  C   C1818     1.0  0.75376  0.69143  0.34350  1.0000
  H   H2190     1.0  0.93368  0.90875  0.03139  1.0000
  C   C1819     1.0  0.91375  0.92219  0.00792  1.0000
  C   C1820     1.0  0.76948  0.76636  0.12739  1.0000
  N   N123      1.0  0.80698  0.87599  0.44421  1.0000
  C   C1821     1.0  0.98934  0.99451  0.43159  1.0000
  H   H2191     1.0  0.87836  0.96700  0.47420  1.0000
  H   H2192     1.0  0.87076  0.91198  0.00503  1.0000
  H   H2193     1.0  0.88101  0.88825  0.03496  1.0000
  H   H2194     1.0  0.89984  0.98217  0.29794  1.0000
  H   H2195     1.0  0.89763  0.86183  0.04227  1.0000
  H   H2196     1.0  0.92801  0.86750  0.02110  1.0000
  C   C1822     1.0  0.75653  0.82925  0.11053  1.0000
  C   C1823     1.0  0.90869  0.89565  0.03576  1.0000
  H   H2197     1.0  0.75270  0.79934  0.19823  1.0000
  C   C1824     1.0  0.76216  0.69560  0.36861  1.0000
  H   H2198     1.0  0.89119  0.93414  0.98761  1.0000
  H   H2199     1.0  0.91595  0.97394  0.44641  1.0000
  H   H2200     1.0  0.76848  0.77472  0.08430  1.0000
  C   C1825     1.0  0.79777  0.88533  0.46748  1.0000
  C   C1826     1.0  0.76596  0.68443  0.08581  1.0000
  H   H2201     1.0  0.99052  0.90803  0.11663  1.0000
  C   C1827     1.0  0.80008  0.88948  0.09660  1.0000
  C   C1828     1.0  0.74984  0.71150  0.07827  1.0000
  H   H2202     1.0  0.77188  0.68530  0.06454  1.0000
  C   C1829     1.0  0.96818  0.95697  0.20135  1.0000
  C   C1830     1.0  0.89606  0.92336  0.00057  1.0000
  N   N124      1.0  0.79153  0.87463  0.11070  1.0000
  H   H2203     1.0  0.97329  0.96636  0.24284  1.0000
  H   H2204     1.0  0.81456  0.85737  0.10943  1.0000
  C   C1831     1.0  0.88773  0.99319  0.46874  1.0000
  H   H2205     1.0  0.77522  0.69085  0.10031  1.0000
  H   H2206     1.0  0.80886  0.87755  0.39909  1.0000
  H   H2207     1.0  0.83064  0.89079  0.44576  1.0000
  C   C1832     1.0  0.78354  0.67193  0.36031  1.0000
  C   C1833     1.0  0.96674  0.97491  0.46445  1.0000
  H   H2208     1.0  0.80897  0.84954  0.42763  1.0000
  H   H2209     1.0  0.77827  0.87130  0.05746  1.0000
  H   H2210     1.0  0.76452  0.70194  0.42661  1.0000
  C   C1834     1.0  0.80258  0.85719  0.44493  1.0000
  C   C1835     1.0  0.75713  0.83136  0.13979  1.0000
  C   C1836     1.0  0.88845  0.98966  0.21929  1.0000
  C   C1837     1.0  0.77735  0.68589  0.37784  1.0000
  H   H2211     1.0  0.81213  0.71004  0.01443  1.0000
  H   H2212     1.0  0.81255  0.68243  0.38991  1.0000
  H   H2213     1.0  0.95431  0.95502  0.20526  1.0000
  H   H2214     1.0  0.80688  0.85102  0.46503  1.0000
  C   C1838     1.0  0.77284  0.87419  0.10225  1.0000
  H   H2215     1.0  0.78823  0.85529  0.44292  1.0000
  H   H2216     1.0  0.93266  0.98923  0.20168  1.0000
  S   S494      1.0  0.88285  0.99344  0.43247  1.0000
  H   H2217     1.0  0.78727  0.88098  0.41217  1.0000
  C   C1839     1.0  0.99019  0.95548  0.08783  1.0000
  N   N125      1.0  0.78639  0.68958  0.40460  1.0000
  H   H2218     1.0  0.94462  0.96679  0.40162  1.0000
  C   C1840     1.0  0.88459  0.91088  0.01041  1.0000
  H   H2219     1.0  0.76080  0.87597  0.14419  1.0000
  H   H2220     1.0  0.82464  0.73969  0.01958  1.0000
  C   C1841     1.0  0.80499  0.69372  0.39921  1.0000
  H   H2221     1.0  0.96684  0.94813  0.15870  1.0000
  C   C1842     1.0  0.93812  0.97985  0.40553  1.0000
  C   C1843     1.0  0.89667  0.98441  0.27613  1.0000
  H   H2222     1.0  0.76025  0.73379  0.01291  1.0000
  Fe  Fe247     1.0  0.77533  0.82498  0.47528  1.0000
  C   C1844     1.0  0.75077  0.87149  0.06509  1.0000
  H   H2223     1.0  0.92252  0.93222  0.00084  1.0000
  H   H2224     1.0  0.76771  0.76035  0.17077  1.0000
  C   C1845     1.0  0.95947  0.98508  0.44204  1.0000
  H   H2225     1.0  0.93000  0.97804  0.47530  1.0000
  C   C1846     1.0  0.76019  0.67764  0.32688  1.0000
  H   H2226     1.0  0.80804  0.73054  0.46571  1.0000
  H   H2227     1.0  0.75771  0.71882  0.09377  1.0000
  C   C1847     1.0  0.77913  0.88692  0.46779  1.0000
  C   C1848     1.0  0.74913  0.78606  0.20573  1.0000
  H   H2228     1.0  0.99760  0.95223  0.14901  1.0000
  H   H2229     1.0  0.95877  0.96716  0.47813  1.0000
  C   C1849     1.0  0.99609  0.98406  0.45322  1.0000
  H   H2230     1.0  0.96243  0.99489  0.18354  1.0000
  C   C1850     1.0  0.74840  0.68457  0.13857  1.0000
  Fe  Fe248     1.0  0.92290  0.93631  0.60933  1.0000
  S   S495      1.0  0.92089  0.96439  0.62311  1.0000
  S   S496      1.0  0.94846  0.91997  0.60787  1.0000
  Fe  Fe249     1.0  0.88260  0.93242  0.60647  1.0000
  S   S497      1.0  0.87780  0.96063  0.62081  1.0000
  S   S498      1.0  0.86019  0.91254  0.60273  1.0000
  Fe  Fe250     1.0  0.89954  0.96678  0.59029  1.0000
  H   H2231     1.0  0.75933  0.69423  0.61059  1.0000
  Fe  Fe251     1.0  0.89956  0.95640  0.65273  1.0000
  S   S499      1.0  0.90183  0.96061  0.70067  1.0000
  S   S500      1.0  0.90313  0.93904  0.57429  1.0000
  S   S501      1.0  0.90278  0.92786  0.64047  1.0000
  C   C1851     1.0  0.79758  0.90022  0.51321  1.0000
  H   H2232     1.0  0.95700  0.95374  0.58356  1.0000
  C   C1852     1.0  0.89017  0.98519  0.96947  1.0000
  Fe  Fe252     1.0  0.76388  0.83128  0.53659  1.0000
  S   S502      1.0  0.78984  0.82202  0.55427  1.0000
  H   H2233     1.0  0.79578  0.78891  0.91323  1.0000
  H   H2234     1.0  0.80198  0.76045  0.48513  1.0000
  C   C1853     1.0  0.77910  0.75695  0.90976  1.0000
  S   S503      1.0  0.76957  0.81822  0.92351  1.0000
  Fe  Fe253     1.0  0.78779  0.79986  0.52291  1.0000
  S   S504      1.0  0.79028  0.77205  0.54115  1.0000
  Fe  Fe254     1.0  0.80187  0.83803  0.51989  1.0000
  S   S505      1.0  0.82649  0.85527  0.52045  1.0000
  S   S506      1.0  0.76119  0.80856  0.50682  1.0000
  S   S507      1.0  0.77576  0.84867  0.50376  1.0000
  H   H2235     1.0  0.77562  0.87681  0.74440  1.0000
  C   C1854     1.0  0.96454  0.95422  0.66693  1.0000
  H   H2236     1.0  0.91085  0.88972  0.56011  1.0000
  C   C1855     1.0  0.76122  0.86320  0.82443  1.0000
  H   H2237     1.0  0.78815  0.77730  0.97108  1.0000
  C   C1856     1.0  0.75395  0.82557  0.89777  1.0000
  H   H2238     1.0  0.74999  0.88904  0.77389  1.0000
  H   H2239     1.0  0.76755  0.82949  0.60380  1.0000
  H   H2240     1.0  0.76682  0.82655  0.65547  1.0000
  C   C1857     1.0  0.79962  0.71688  0.50267  1.0000
  C   C1858     1.0  0.75564  0.74511  0.86804  1.0000
  H   H2241     1.0  0.89913  0.87060  0.64214  1.0000
  C   C1859     1.0  0.79319  0.75107  0.52505  1.0000
  C   C1860     1.0  0.79002  0.73597  0.54103  1.0000
  C   C1861     1.0  0.79298  0.71898  0.52983  1.0000
  C   C1862     1.0  0.77986  0.77215  0.95394  1.0000
  H   H2242     1.0  0.75497  0.78562  0.55927  1.0000
  H   H2243     1.0  0.78558  0.73747  0.56243  1.0000
  H   H2244     1.0  0.79083  0.70751  0.54256  1.0000
  C   C1863     1.0  0.89784  0.97713  0.72688  1.0000
  C   C1864     1.0  0.76518  0.73300  0.88431  1.0000
  C   C1865     1.0  0.89799  0.98533  0.77685  1.0000
  C   C1866     1.0  0.90037  0.97269  0.75531  1.0000
  H   H2245     1.0  0.79377  0.74008  0.95726  1.0000
  H   H2246     1.0  0.89981  0.98155  0.79851  1.0000
  H   H2247     1.0  0.90411  0.95930  0.76073  1.0000
  H   H2248     1.0  0.79563  0.86634  0.77871  1.0000
  C   C1867     1.0  0.76893  0.76890  0.89312  1.0000
  C   C1868     1.0  0.80675  0.89236  0.49087  1.0000
  N   N126      1.0  0.79078  0.76356  0.93194  1.0000
  C   C1869     1.0  0.88822  0.97718  0.51314  1.0000
  C   C1870     1.0  0.98556  0.96449  0.71153  1.0000
  C   C1871     1.0  0.80270  0.73197  0.48660  1.0000
  H   H2249     1.0  0.88539  0.96550  0.52499  1.0000
  C   C1872     1.0  0.85052  0.89743  0.57864  1.0000
  C   C1873     1.0  0.83536  0.88856  0.58687  1.0000
  C   C1874     1.0  0.82758  0.87600  0.56924  1.0000
  C   C1875     1.0  0.83495  0.87189  0.54307  1.0000
  C   C1876     1.0  0.84996  0.88093  0.53465  1.0000
  C   C1877     1.0  0.85764  0.89362  0.55216  1.0000
  H   H2250     1.0  0.82963  0.89135  0.60719  1.0000
  H   H2251     1.0  0.81605  0.86927  0.57615  1.0000
  H   H2252     1.0  0.85587  0.87793  0.51455  1.0000
  H   H2253     1.0  0.86917  0.90030  0.54525  1.0000
  C   C1878     1.0  0.98462  0.92056  0.60532  1.0000
  C   C1879     1.0  0.96868  0.92977  0.59984  1.0000
  C   C1880     1.0  0.96915  0.94651  0.58791  1.0000
  H   H2254     1.0  0.98437  0.90759  0.61450  1.0000
  N   N127      1.0  0.90530  0.87657  0.59914  1.0000
  C   C1881     1.0  0.92290  0.86762  0.60023  1.0000
  C   C1882     1.0  0.90653  0.89263  0.58188  1.0000
  C   C1883     1.0  0.90074  0.88211  0.62817  1.0000
  C   C1884     1.0  0.89230  0.86486  0.58644  1.0000
  C   C1885     1.0  0.89547  0.85720  0.55969  1.0000
  C   C1886     1.0  0.87603  0.86118  0.59951  1.0000
  C   C1887     1.0  0.88332  0.84626  0.54714  1.0000
  C   C1888     1.0  0.86403  0.85013  0.58681  1.0000
  C   C1889     1.0  0.86766  0.84270  0.56073  1.0000
  H   H2255     1.0  0.92237  0.85497  0.61180  1.0000
  H   H2256     1.0  0.92839  0.86482  0.57909  1.0000
  H   H2257     1.0  0.93274  0.87594  0.61081  1.0000
  H   H2258     1.0  0.89357  0.89976  0.58059  1.0000
  C   C1890     1.0  0.76954  0.86374  0.74577  1.0000
  H   H2259     1.0  0.81236  0.78114  0.93637  1.0000
  C   C1891     1.0  0.77080  0.86395  0.84934  1.0000
  H   H2260     1.0  0.99012  0.96631  0.48662  1.0000
  H   H2261     1.0  0.76411  0.86310  0.86936  1.0000
  H   H2262     1.0  0.90722  0.85991  0.54801  1.0000
  H   H2263     1.0  0.87195  0.86709  0.61912  1.0000
  C   C1892     1.0  0.74980  0.78390  0.58023  1.0000
  H   H2264     1.0  0.85149  0.84787  0.59674  1.0000
  H   H2265     1.0  0.75984  0.68610  0.65814  1.0000
  C   C1893     1.0  0.75837  0.77248  0.59881  1.0000
  C   C1894     1.0  0.79756  0.86657  0.82290  1.0000
  H   H2266     1.0  0.94281  0.95691  0.69557  1.0000
  H   H2267     1.0  0.88586  0.84077  0.52653  1.0000
  Fe  Fe255     1.0  0.79453  0.66939  0.50193  1.0000
  C   C1895     1.0  0.75531  0.81879  0.87032  1.0000
  H   H2268     1.0  0.91613  0.90186  0.59084  1.0000
  S   S508      1.0  0.80212  0.81490  0.48984  1.0000
  N   N128      1.0  0.75912  0.86203  0.77192  1.0000
  C   C1896     1.0  0.77009  0.89493  0.49015  1.0000
  C   C1897     1.0  0.98537  0.95380  0.58107  1.0000
  C   C1898     1.0  0.75491  0.83025  0.64432  1.0000
  H   H2269     1.0  0.80474  0.90495  0.53123  1.0000
  H   H2270     1.0  0.77193  0.78351  0.94577  1.0000
  H   H2271     1.0  0.95634  0.95003  0.64971  1.0000
  C   C1899     1.0  0.79930  0.74898  0.49757  1.0000
  H   H2272     1.0  0.81169  0.86794  0.82247  1.0000
  C   C1900     1.0  0.89561  0.99149  0.52659  1.0000
  H   H2273     1.0  0.94729  0.98605  0.80418  1.0000
  H   H2274     1.0  0.75936  0.76176  0.63979  1.0000
  H   H2275     1.0  0.76318  0.71516  0.57330  1.0000
  H   H2276     1.0  0.82085  0.89145  0.49298  1.0000
  H   H2277     1.0  0.75695  0.77436  0.68347  1.0000
  H   H2278     1.0  0.96138  0.96600  0.73522  1.0000
  S   S509      1.0  0.76631  0.66552  0.49062  1.0000
  C   C1901     1.0  0.96740  0.96317  0.71508  1.0000
  H   H2279     1.0  0.77225  0.90729  0.53050  1.0000
  H   H2280     1.0  0.78352  0.72863  0.91701  1.0000
  C   C1902     1.0  0.80184  0.74957  0.94553  1.0000
  S   S510      1.0  0.88330  0.98731  0.93411  1.0000
  S   S511      1.0  0.90047  0.99119  0.56284  1.0000
  H   H2281     1.0  0.74986  0.77248  0.86014  1.0000
  H   H2282     1.0  0.77019  0.76534  0.59204  1.0000
  C   C1903     1.0  0.80282  0.77669  0.92031  1.0000
  H   H2283     1.0  0.99316  0.96836  0.72949  1.0000
  C   C1904     1.0  0.98268  0.95551  0.66314  1.0000
  H   H2284     1.0  0.76120  0.86234  0.72669  1.0000
  C   C1905     1.0  0.77930  0.90150  0.51287  1.0000
  H   H2285     1.0  0.75584  0.89558  0.49024  1.0000
  H   H2286     1.0  0.76160  0.83382  0.77288  1.0000
  H   H2287     1.0  0.81016  0.74227  0.93000  1.0000
  H   H2288     1.0  0.88844  0.89046  0.62872  1.0000
  C   C1906     1.0  0.95690  0.95805  0.69280  1.0000
  C   C1907     1.0  0.78810  0.86565  0.79781  1.0000
  H   H2289     1.0  0.81090  0.75510  0.96140  1.0000
  H   H2290     1.0  0.79631  0.86616  0.86800  1.0000
  H   H2291     1.0  0.91115  0.89020  0.63761  1.0000
  C   C1908     1.0  0.75538  0.83192  0.61497  1.0000
  H   H2292     1.0  0.76952  0.78293  0.89634  1.0000
  H   H2293     1.0  0.76592  0.80957  0.86523  1.0000
  C   C1909     1.0  0.76956  0.86383  0.79788  1.0000
  H   H2294     1.0  0.77059  0.76281  0.96332  1.0000
  C   C1910     1.0  0.77673  0.73873  0.90496  1.0000
  H   H2295     1.0  0.77998  0.85323  0.74405  1.0000
  H   H2296     1.0  0.76357  0.71903  0.88102  1.0000
  C   C1911     1.0  0.78894  0.86562  0.84859  1.0000
  C   C1912     1.0  0.75750  0.76303  0.87246  1.0000
  H   H2297     1.0  0.98764  0.95224  0.64259  1.0000
  S   S512      1.0  0.80533  0.69580  0.48861  1.0000
  H   H2298     1.0  0.81043  0.77117  0.90228  1.0000
  H   H2299     1.0  0.85799  0.83465  0.55061  1.0000
  Fe  Fe256     1.0  0.77484  0.82315  0.97064  1.0000
  C   C1913     1.0  0.89291  0.99452  0.72035  1.0000
  H   H2300     1.0  0.98553  0.96665  0.57149  1.0000
  C   C1914     1.0  0.75206  0.77059  0.62611  1.0000
  C   C1915     1.0  0.75129  0.84447  0.77152  1.0000
  H   H2301     1.0  0.75049  0.79688  0.67817  1.0000
  H   H2302     1.0  0.93148  0.99086  0.71111  1.0000
  H   H2303     1.0  0.93264  0.99117  0.76170  1.0000
  C   C1916     1.0  0.99379  0.96068  0.68541  1.0000
  C   C1917     1.0  0.75006  0.70526  0.60974  1.0000
  C   C1918     1.0  0.88420  0.97810  0.48437  1.0000
  C   C1919     1.0  0.75246  0.71725  0.58802  1.0000
  H   H2304     1.0  0.87133  0.96551  0.97894  1.0000
  C   C1920     1.0  0.90340  0.99548  0.98047  1.0000
