data_image0
_chemical_formula_structural       FeSHFeSCFeSFeS3FeS2FeSHFeSFeS3CHC2HC6H4C2H4C2H2C2HC2H3NC8H5CH8CHC2H8C2HC2NC4H2SNC6H2CH11SCHC4HCSHC2H2NHCHC2HC2H2FeS2HC2FeS3HNC2HCHC2H2C2NCSC2HCHC2HC3H4CSCH3FeHCHC2H2SHCHNHC5H6CH6CH2FeHCFeS2FeS2FeSFeS3H2C2HC3H4SCH3C3H5CH2C7H2NC9H12C5H2C2HCHCH2CSHC3HCNH7CH2SH2CH3CH3C3FeS2FeCSFeS2FeSCFeSFeS3C2H2CH2CHFeC6H4CH2C2HC2HNC2HCH3C2H5C2HC2H4NCHC4H4CH2CH8CH2C2NHSHCH2SC2H2CHCH4SC2HCHC2H2CHSC3HCHSHS2FeS3HC2SH2Fe2S2FeCSHCFeSHFeHFeS3C3SCH2CHC6H4C2H2CH2CNC9H11C2HC2SCH3C3HCHCH2C2HCH3CH2SCSC2HFeH2C2HC2H2C2H3SH5CNH2CHCHC2HNC2FeC2HCH2C2H5SC2H3CFeS2FeS2FeHFeS3HC2H5CH3CHC4H3NC4HCNHCHC2HCH2C2H3C3HCHC3H4C2HCHCH3CH3C4HC3HCH2NCH2FeSCFeS2FeSFeSC2H5CH3CHC2H6CHCHSC2HCH3CH7NC6HC2H5CHC5SCH4CHSC3H2CH2C2NC2H3FeCSFeS2FeSH2S2FeS2FeS2FeHFeHS2C4H7CH2CH3CNC6H4CHCNHC2HCHCH4CHFeHC3H3CH2C2HCHCH3SH3NHC2HC4H3CHC2H2C3H2C2HCSCHNFeS2C2H2CH2C2H8CSCFeNHSHC2HC3HCSHCHCH2C5HCHCH4CHCH3CH2SCFeHCFeS2FeS2Fe2CS2FeS2FeHSHCH2CH4C6H4NC3HFeS2FeS2HCNC2HCH6C2HCH2CHCHC2H7C2HC4H2C3H2CH4CNH4NCH2C3H2C2H6CHCHCFeHSFeS2FeSCHS2HFeHFeHSC2H7C4H2C7H2CHC2H4CSNHC3HC6H7C2HNC2NSH3CSH6CH2SH2C2H
_chemical_formula_sum              "Fe64 S128 H576 C480 N32"
_cell_length_a       36.9316
_cell_length_b       36.7612
_cell_length_c       46.5945
_cell_angle_alpha    89.9599
_cell_angle_beta     89.5441
_cell_angle_gamma    89.9437

_space_group_name_H-M_alt    "P 1"
_space_group_IT_number       1

loop_
  _space_group_symop_operation_xyz
  'x, y, z'

loop_
  _atom_site_type_symbol
  _atom_site_label
  _atom_site_symmetry_multiplicity
  _atom_site_fract_x
  _atom_site_fract_y
  _atom_site_fract_z
  _atom_site_occupancy
  Fe  Fe1       1.0  0.19404  0.46156  0.22487  1.0000
  S   S1        1.0  0.17837  0.40893  0.20411  1.0000
  H   H1        1.0  0.33443  0.22533  0.05675  1.0000
  Fe  Fe2       1.0  0.17439  0.43588  0.28567  1.0000
  S   S2        1.0  0.15754  0.38087  0.26872  1.0000
  C   C1        1.0  0.46337  0.17755  0.26127  1.0000
  Fe  Fe3       1.0  0.20782  0.38261  0.24075  1.0000
  S   S3        1.0  0.24245  0.33063  0.23772  1.0000
  Fe  Fe4       1.0  0.12982  0.41156  0.23360  1.0000
  S   S4        1.0  0.07517  0.40106  0.21320  1.0000
  S   S5        1.0  0.22680  0.43553  0.26021  1.0000
  S   S6        1.0  0.14335  0.46614  0.25176  1.0000
  Fe  Fe5       1.0  0.42001  0.17083  0.09301  1.0000
  S   S7        1.0  0.36228  0.16327  0.10821  1.0000
  S   S8        1.0  0.42939  0.15619  0.04569  1.0000
  Fe  Fe6       1.0  0.44484  0.19010  0.15407  1.0000
  S   S9        1.0  0.38921  0.18451  0.17306  1.0000
  H   H2        1.0  0.24381  0.26265  0.11943  1.0000
  Fe  Fe7       1.0  0.38658  0.13381  0.14578  1.0000
  S   S10       1.0  0.37080  0.08140  0.16814  1.0000
  Fe  Fe8       1.0  0.37019  0.21455  0.13403  1.0000
  S   S11       1.0  0.33135  0.26310  0.13176  1.0000
  S   S12       1.0  0.44351  0.13787  0.12909  1.0000
  S   S13       1.0  0.42657  0.22386  0.11652  1.0000
  C   C2        1.0  0.36721  0.03931  0.14998  1.0000
  H   H3        1.0  0.09253  0.26275  0.21674  1.0000
  C   C3        1.0  0.35401  0.03724  0.12197  1.0000
  C   C4        1.0  0.42497  0.05694  0.07106  1.0000
  H   H4        1.0  0.34718  0.06190  0.11055  1.0000
  C   C5        1.0  0.26685  0.31255  0.20780  1.0000
  C   C6        1.0  0.27013  0.33121  0.18172  1.0000
  C   C7        1.0  0.29027  0.31592  0.15880  1.0000
  C   C8        1.0  0.30746  0.28189  0.16165  1.0000
  C   C9        1.0  0.30416  0.26325  0.18773  1.0000
  C   C10       1.0  0.28384  0.27842  0.21057  1.0000
  H   H5        1.0  0.25719  0.35742  0.17920  1.0000
  H   H6        1.0  0.29244  0.33052  0.13871  1.0000
  H   H7        1.0  0.31687  0.23692  0.19012  1.0000
  H   H8        1.0  0.28112  0.26353  0.23048  1.0000
  C   C11       1.0  0.03493  0.40150  0.23415  1.0000
  C   C12       1.0  0.03582  0.39953  0.26411  1.0000
  H   H9        1.0  0.42863  0.24676  0.21311  1.0000
  H   H10       1.0  0.06157  0.39864  0.27502  1.0000
  H   H11       1.0  0.10486  0.24573  0.18176  1.0000
  H   H12       1.0  0.36320  0.19531  0.03691  1.0000
  C   C13       1.0  0.37007  0.33167  0.19748  1.0000
  C   C14       1.0  0.21226  0.50768  0.16088  1.0000
  H   H13       1.0  0.41433  0.28174  0.04987  1.0000
  H   H14       1.0  0.22484  0.44684  0.10649  1.0000
  C   C15       1.0  0.22008  0.47267  0.11699  1.0000
  C   C16       1.0  0.46015  0.17429  0.01983  1.0000
  H   H15       1.0  0.04192  0.46316  0.17943  1.0000
  C   C17       1.0  0.46375  0.18129  0.23121  1.0000
  C   C18       1.0  0.21799  0.47430  0.14716  1.0000
  H   H16       1.0  0.44027  0.17376  0.21895  1.0000
  H   H17       1.0  0.43924  0.16776  0.27209  1.0000
  H   H18       1.0  0.22148  0.44986  0.15975  1.0000
  N   N1        1.0  0.13664  0.29121  0.19589  1.0000
  C   C19       1.0  0.11580  0.25751  0.20193  1.0000
  C   C20       1.0  0.15323  0.30402  0.22288  1.0000
  C   C21       1.0  0.34939  0.28538  0.02563  1.0000
  C   C22       1.0  0.16560  0.28378  0.17448  1.0000
  C   C23       1.0  0.16985  0.30432  0.14877  1.0000
  C   C24       1.0  0.19126  0.25569  0.17941  1.0000
  C   C25       1.0  0.41839  0.04519  0.04319  1.0000
  C   C26       1.0  0.50618  0.06787  0.29496  1.0000
  H   H19       1.0  0.38324  0.25893  0.07280  1.0000
  H   H20       1.0  0.13246  0.31059  0.23956  1.0000
  H   H21       1.0  0.09687  0.31174  0.16619  1.0000
  H   H22       1.0  0.34551  0.32508  0.23819  1.0000
  H   H23       1.0  0.17202  0.28372  0.23236  1.0000
  C   C27       1.0  0.48687  0.04250  0.27898  1.0000
  H   H24       1.0  0.16945  0.32902  0.21898  1.0000
  H   H25       1.0  0.46549  0.05171  0.26487  1.0000
  H   H26       1.0  0.23831  0.22668  0.16387  1.0000
  H   H27       1.0  0.12356  0.34645  0.18380  1.0000
  H   H28       1.0  0.15241  0.32688  0.14350  1.0000
  H   H29       1.0  0.19083  0.23998  0.19901  1.0000
  H   H30       1.0  0.42590  0.29521  0.00458  1.0000
  H   H31       1.0  0.20079  0.31277  0.10985  1.0000
  C   C28       1.0  0.21865  0.24789  0.15947  1.0000
  H   H32       1.0  0.08850  0.32382  0.20285  1.0000
  C   C29       1.0  0.11625  0.49068  0.12225  1.0000
  C   C30       1.0  0.19761  0.29647  0.12911  1.0000
  H   H33       1.0  0.32990  0.28323  0.00760  1.0000
  H   H34       1.0  0.35309  0.35484  0.19234  1.0000
  H   H35       1.0  0.43903  0.24816  0.26076  1.0000
  H   H36       1.0  0.13246  0.23626  0.21249  1.0000
  H   H37       1.0  0.41512  0.24546  0.29389  1.0000
  H   H38       1.0  0.10242  0.44804  0.16759  1.0000
  H   H39       1.0  0.42199  0.08546  0.07654  1.0000
  H   H40       1.0  0.33355  0.29015  0.04577  1.0000
  C   C31       1.0  0.11037  0.31942  0.18656  1.0000
  C   C32       1.0  0.03276  0.47908  0.16136  1.0000
  H   H41       1.0  0.43501  0.27805  0.16754  1.0000
  C   C33       1.0  0.39473  0.31867  0.17716  1.0000
  C   C34       1.0  0.48464  0.20200  0.02641  1.0000
  N   N2        1.0  0.37197  0.25215  0.02772  1.0000
  C   C35       1.0  0.41905  0.27201  0.99152  1.0000
  C   C36       1.0  0.41586  0.28833  0.18336  1.0000
  C   C37       1.0  0.39767  0.25676  0.05175  1.0000
  C   C38       1.0  0.22180  0.26819  0.13437  1.0000
  H   H42       1.0  0.14590  0.48914  0.12584  1.0000
  H   H43       1.0  0.43900  0.04115  0.11390  1.0000
  S   S14       1.0  0.21754  0.50135  0.06258  1.0000
  N   N3        1.0  0.38216  0.26224  0.25800  1.0000
  C   C39       1.0  0.35466  0.27830  0.27772  1.0000
  C   C40       1.0  0.37072  0.22441  0.25171  1.0000
  C   C41       1.0  0.41712  0.26127  0.27350  1.0000
  C   C42       1.0  0.38663  0.28257  0.23072  1.0000
  C   C43       1.0  0.36594  0.31406  0.22392  1.0000
  C   C44       1.0  0.41196  0.27053  0.20968  1.0000
  H   H44       1.0  0.10730  0.46351  0.11453  1.0000
  H   H45       1.0  0.36605  0.31013  0.02184  1.0000
  C   C45       1.0  0.10884  0.47702  0.17222  1.0000
  H   H46       1.0  0.36187  0.30663  0.28387  1.0000
  H   H47       1.0  0.32725  0.27861  0.26787  1.0000
  H   H48       1.0  0.35214  0.26247  0.29804  1.0000
  H   H49       1.0  0.34511  0.22405  0.23926  1.0000
  H   H50       1.0  0.36634  0.20828  0.27168  1.0000
  H   H51       1.0  0.39123  0.20932  0.23888  1.0000
  H   H52       1.0  0.42650  0.28921  0.27879  1.0000
  H   H53       1.0  0.49989  0.09667  0.29335  1.0000
  H   H54       1.0  0.39698  0.33171  0.15637  1.0000
  H   H55       1.0  0.48536  0.21300  0.04792  1.0000
  H   H56       1.0  0.41658  0.23321  0.05292  1.0000
  S   S15       1.0  0.49335  0.20688  0.18036  1.0000
  C   C46       1.0  0.43480  0.03193  0.09204  1.0000
  H   H57       1.0  0.09657  0.48446  0.19332  1.0000
  C   C47       1.0  0.21555  0.50420  0.10039  1.0000
  C   C48       1.0  0.05686  0.49974  0.14379  1.0000
  C   C49       1.0  0.34774  0.22130  0.03541  1.0000
  C   C50       1.0  0.49418  0.19566  0.21722  1.0000
  H   H58       1.0  0.41070  0.06497  0.02704  1.0000
  C   C51       1.0  0.39201  0.24679  0.00033  1.0000
  S   S16       1.0  0.49073  0.18801  0.31517  1.0000
  H   H59       1.0  0.13872  0.47858  0.17524  1.0000
  C   C52       1.0  0.46001  0.16006  0.99180  1.0000
  C   C53       1.0  0.49385  0.18705  0.27738  1.0000
  H   H60       1.0  0.48738  0.04445  0.01406  1.0000
  H   H61       1.0  0.32557  0.21786  0.01964  1.0000
  N   N4        1.0  0.09640  0.50136  0.14878  1.0000
  H   H62       1.0  0.49404  0.09293  0.05047  1.0000
  C   C54       1.0  0.50649  0.06628  0.01042  1.0000
  H   H63       1.0  0.25887  0.44456  0.42817  1.0000
  C   C55       1.0  0.27156  0.03099  0.62362  1.0000
  C   C56       1.0  0.17138  0.47968  0.35795  1.0000
  H   H64       1.0  0.29671  0.45638  0.50298  1.0000
  C   C57       1.0  0.49808  0.18675  0.52629  1.0000
  C   C58       1.0  0.23173  0.37398  0.49878  1.0000
  H   H65       1.0  0.30271  0.17294  0.61348  1.0000
  H   H66       1.0  0.13575  0.45787  0.39053  1.0000
  Fe  Fe9       1.0  0.43282  0.21868  0.59122  1.0000
  S   S17       1.0  0.38362  0.18566  0.60347  1.0000
  S   S18       1.0  0.44409  0.23479  0.54448  1.0000
  H   H67       1.0  0.38325  0.09229  0.60094  1.0000
  C   C59       1.0  0.38884  0.06599  0.61032  1.0000
  C   C60       1.0  0.16051  0.49004  0.64670  1.0000
  Fe  Fe10      1.0  0.41881  0.16031  0.63718  1.0000
  S   S19       1.0  0.31298  0.24825  0.64011  1.0000
  S   S20       1.0  0.46888  0.19000  0.62268  1.0000
  S   S21       1.0  0.41873  0.26420  0.62198  1.0000
  H   H68       1.0  0.20220  0.48972  0.50019  1.0000
  N   N5        1.0  0.29533  0.12854  0.64347  1.0000
  C   C61       1.0  0.29617  0.01107  0.63978  1.0000
  C   C62       1.0  0.37564  0.03410  0.59731  1.0000
  H   H69       1.0  0.35979  0.03601  0.57795  1.0000
  C   C63       1.0  0.49864  0.21359  0.46978  1.0000
  H   H70       1.0  0.35547  0.32279  0.61616  1.0000
  C   C64       1.0  0.21598  0.40442  0.63782  1.0000
  C   C65       1.0  0.26277  0.37263  0.51555  1.0000
  H   H71       1.0  0.14132  0.46544  0.60763  1.0000
  H   H72       1.0  0.27645  0.13648  0.59989  1.0000
  C   C66       1.0  0.47414  0.21470  0.51896  1.0000
  C   C67       1.0  0.23422  0.45920  0.43579  1.0000
  N   N6        1.0  0.23704  0.46905  0.46661  1.0000
  C   C68       1.0  0.28321  0.37928  0.60790  1.0000
  S   S22       1.0  0.42310  0.10274  0.65439  1.0000
  C   C69       1.0  0.26409  0.49882  0.46878  1.0000
  C   C70       1.0  0.24639  0.43635  0.48361  1.0000
  H   H73       1.0  0.30990  0.40148  0.52974  1.0000
  C   C71       1.0  0.27778  0.43416  0.50107  1.0000
  H   H74       1.0  0.24402  0.28423  0.64459  1.0000
  C   C72       1.0  0.27081  0.06897  0.62544  1.0000
  C   C73       1.0  0.47463  0.22801  0.49059  1.0000
  H   H75       1.0  0.49819  0.17634  0.54801  1.0000
  C   C74       1.0  0.16133  0.50716  0.40545  1.0000
  C   C75       1.0  0.30987  0.35360  0.60099  1.0000
  C   C76       1.0  0.40865  0.06364  0.63571  1.0000
  H   H76       1.0  0.21389  0.35059  0.49791  1.0000
  H   H77       1.0  0.21035  0.44178  0.43124  1.0000
  H   H78       1.0  0.25080  0.44725  0.60081  1.0000
  H   H79       1.0  0.45631  0.24970  0.48471  1.0000
  C   C77       1.0  0.28570  0.40266  0.51672  1.0000
  S   S23       1.0  0.16306  0.44297  0.33392  1.0000
  C   C78       1.0  0.29988  0.14271  0.61380  1.0000
  H   H80       1.0  0.29110  0.49019  0.46051  1.0000
  H   H81       1.0  0.25348  0.01685  0.60921  1.0000
  H   H82       1.0  0.26911  0.34820  0.52756  1.0000
  Fe  Fe11      1.0  0.37191  0.22936  0.63635  1.0000
  H   H83       1.0  0.14791  0.50668  0.42615  1.0000
  C   C79       1.0  0.22358  0.40530  0.48303  1.0000
  H   H84       1.0  0.23539  0.47519  0.62949  1.0000
  C   C80       1.0  0.15686  0.48747  0.61674  1.0000
  C   C81       1.0  0.28091  0.39496  0.63573  1.0000
  H   H85       1.0  0.49882  0.22432  0.44816  1.0000
  H   H86       1.0  0.19920  0.40511  0.47034  1.0000
  S   S24       1.0  0.17074  0.50733  0.56102  1.0000
  H   H87       1.0  0.49425  0.01474  0.49577  1.0000
  C   C82       1.0  0.20171  0.48365  0.47674  1.0000
  H   H88       1.0  0.17896  0.46454  0.47301  1.0000
  N   N7        1.0  0.25185  0.42141  0.64265  1.0000
  H   H89       1.0  0.25126  0.08318  0.61246  1.0000
  C   C83       1.0  0.15443  0.47953  0.38517  1.0000
  C   C84       1.0  0.29540  0.08822  0.64312  1.0000
  C   C85       1.0  0.25546  0.45374  0.62377  1.0000
  C   C86       1.0  0.19538  0.50791  0.35127  1.0000
  C   C87       1.0  0.33536  0.34336  0.62132  1.0000
  H   H90       1.0  0.23118  0.48368  0.42193  1.0000
  H   H91       1.0  0.31060  0.34107  0.57995  1.0000
  H   H92       1.0  0.26404  0.38643  0.59144  1.0000
  H   H93       1.0  0.46122  0.02735  0.53992  1.0000
  H   H94       1.0  0.21139  0.39735  0.61499  1.0000
  H   H95       1.0  0.32445  0.13089  0.60337  1.0000
  C   C88       1.0  0.41592  0.02931  0.64757  1.0000
  H   H96       1.0  0.28283  0.46614  0.62563  1.0000
  H   H97       1.0  0.23702  0.13343  0.64204  1.0000
  H   H98       1.0  0.19346  0.42297  0.64399  1.0000
  H   H99       1.0  0.26680  0.50857  0.49127  1.0000
  H   H100      1.0  0.19448  0.50928  0.46540  1.0000
  H   H101      1.0  0.20876  0.50836  0.33054  1.0000
  C   C89       1.0  0.33444  0.35886  0.64856  1.0000
  H   H102      1.0  0.35185  0.13561  0.65302  1.0000
  H   H103      1.0  0.21289  0.37916  0.65078  1.0000
  Fe  Fe12      1.0  0.45101  0.23260  0.65435  1.0000
  H   H104      1.0  0.04989  0.49850  0.61387  1.0000
  C   C90       1.0  0.26041  0.14196  0.65528  1.0000
  Fe  Fe13      1.0  0.17348  0.47074  0.72346  1.0000
  S   S25       1.0  0.16098  0.41707  0.70330  1.0000
  S   S26       1.0  0.40334  0.20124  0.67100  1.0000
  Fe  Fe14      1.0  0.16293  0.44117  0.78518  1.0000
  S   S27       1.0  0.14872  0.38548  0.76818  1.0000
  S   S28       1.0  0.16705  0.44143  0.83434  1.0000
  Fe  Fe15      1.0  0.19580  0.39237  0.73741  1.0000
  S   S29       1.0  0.24604  0.35580  0.73458  1.0000
  Fe  Fe16      1.0  0.11515  0.41577  0.73575  1.0000
  S   S30       1.0  0.05916  0.40745  0.71705  1.0000
  S   S31       1.0  0.21128  0.44662  0.75586  1.0000
  S   S32       1.0  0.12643  0.47090  0.75448  1.0000
  H   H105      1.0  0.37862  0.28989  0.80756  1.0000
  H   H106      1.0  0.24889  0.41144  0.68831  1.0000
  C   C91       1.0  0.26397  0.32627  0.70775  1.0000
  C   C92       1.0  0.24418  0.31595  0.68362  1.0000
  H   H107      1.0  0.05967  0.46532  0.86350  1.0000
  C   C93       1.0  0.05837  0.46585  0.81758  1.0000
  C   C94       1.0  0.31464  0.28858  0.69069  1.0000
  C   C95       1.0  0.29921  0.31237  0.71117  1.0000
  H   H108      1.0  0.21679  0.32574  0.68103  1.0000
  H   H109      1.0  0.34178  0.27821  0.69362  1.0000
  H   H110      1.0  0.31478  0.32015  0.72974  1.0000
  H   H111      1.0  0.14727  0.47043  0.66044  1.0000
  S   S33       1.0  0.46799  0.24402  0.81794  1.0000
  C   C96       1.0  0.04251  0.46716  0.84478  1.0000
  H   H112      1.0  0.33918  0.01332  0.67034  1.0000
  H   H113      1.0  0.04074  0.37674  0.77335  1.0000
  H   H114      1.0  0.08753  0.46313  0.81531  1.0000
  C   C97       1.0  0.16752  0.46846  0.88944  1.0000
  C   C98       1.0  0.16385  0.47705  0.86013  1.0000
  C   C99       1.0  0.43049  0.23861  0.94765  1.0000
  H   H115      1.0  0.45978  0.28634  0.95995  1.0000
  H   H116      1.0  0.17196  0.44050  0.89575  1.0000
  H   H117      1.0  0.44693  0.13663  0.70729  1.0000
  H   H118      1.0  0.41874  0.25420  0.77108  1.0000
  H   H119      1.0  0.04888  0.46515  0.77209  1.0000
  C   C100      1.0  0.45128  0.25467  0.73237  1.0000
  H   H120      1.0  0.46282  0.18318  0.75533  1.0000
  H   H121      1.0  0.42832  0.25709  0.71823  1.0000
  C   C101      1.0  0.01777  0.40213  0.73607  1.0000
  C   C102      1.0  0.40365  0.21377  0.95530  1.0000
  C   C103      1.0  0.48391  0.17342  0.97050  1.0000
  C   C104      1.0  0.47586  0.14342  0.71110  1.0000
  C   C105      1.0  0.48638  0.25334  0.72089  1.0000
  C   C106      1.0  0.16575  0.49576  0.91072  1.0000
  C   C107      1.0  0.43824  0.26760  0.96576  1.0000
  H   H122      1.0  0.30776  0.39389  0.67774  1.0000
  H   H123      1.0  0.37915  0.33881  0.84375  1.0000
  N   N8        1.0  0.25877  0.37184  0.82581  1.0000
  C   C108      1.0  0.26419  0.40596  0.80950  1.0000
  C   C109      1.0  0.22469  0.35453  0.81586  1.0000
  C   C110      1.0  0.25331  0.38111  0.85663  1.0000
  C   C111      1.0  0.29102  0.34837  0.82135  1.0000
  C   C112      1.0  0.32359  0.35476  0.83662  1.0000
  C   C113      1.0  0.29214  0.32071  0.80001  1.0000
  C   C114      1.0  0.35457  0.33357  0.83183  1.0000
  C   C115      1.0  0.32333  0.29980  0.79532  1.0000
  C   C116      1.0  0.35439  0.30602  0.81134  1.0000
  H   H124      1.0  0.26740  0.40037  0.78610  1.0000
  H   H125      1.0  0.24079  0.42483  0.81233  1.0000
  H   H126      1.0  0.28888  0.42070  0.81647  1.0000
  H   H127      1.0  0.22361  0.35226  0.79212  1.0000
  H   H128      1.0  0.20032  0.37095  0.82164  1.0000
  H   H129      1.0  0.22110  0.32698  0.82534  1.0000
  H   H130      1.0  0.27411  0.40017  0.86480  1.0000
  H   H131      1.0  0.22712  0.39564  0.86037  1.0000
  H   H132      1.0  0.25316  0.35619  0.87019  1.0000
  H   H133      1.0  0.32581  0.37658  0.85196  1.0000
  H   H134      1.0  0.26945  0.31519  0.78620  1.0000
  H   H135      1.0  0.45941  0.01196  0.71733  1.0000
  C   C117      1.0  0.29492  0.27838  0.66648  1.0000
  C   C118      1.0  0.01607  0.38549  0.76306  1.0000
  C   C119      1.0  0.44592  0.25337  0.76230  1.0000
  C   C120      1.0  0.48878  0.04362  0.78146  1.0000
  C   C121      1.0  0.46876  0.03118  0.73332  1.0000
  H   H136      1.0  0.46498  0.07561  0.70462  1.0000
  H   H137      1.0  0.48300  0.16256  0.94898  1.0000
  C   C122      1.0  0.47216  0.06805  0.72628  1.0000
  C   C123      1.0  0.31968  0.02898  0.65818  1.0000
  H   H138      1.0  0.32355  0.27901  0.77880  1.0000
  C   C124      1.0  0.31962  0.06696  0.65984  1.0000
  H   H139      1.0  0.25574  0.13150  0.67744  1.0000
  C   C125      1.0  0.32474  0.14435  0.66107  1.0000
  H   H140      1.0  0.32445  0.17465  0.66047  1.0000
  H   H141      1.0  0.16884  0.48873  0.93312  1.0000
  C   C126      1.0  0.47554  0.24956  0.78079  1.0000
  S   S34       1.0  0.49431  0.25470  0.68357  1.0000
  H   H142      1.0  0.47867  0.17322  0.70706  1.0000
  C   C127      1.0  0.49241  0.08046  0.77462  1.0000
  C   C128      1.0  0.03665  0.46722  0.79330  1.0000
  C   C129      1.0  0.25246  0.43434  0.67287  1.0000
  H   H143      1.0  0.23012  0.45397  0.67743  1.0000
  C   C130      1.0  0.25959  0.29212  0.66313  1.0000
  N   N9        1.0  0.48706  0.13330  0.74064  1.0000
  H   H144      1.0  0.50540  0.01684  0.86003  1.0000
  H   H145      1.0  0.35404  0.35031  0.66442  1.0000
  H   H146      1.0  0.32210  0.13663  0.68407  1.0000
  H   H147      1.0  0.36509  0.19663  0.98617  1.0000
  H   H148      1.0  0.43120  0.02729  0.66719  1.0000
  H   H149      1.0  0.47369  0.15281  0.78347  1.0000
  H   H150      1.0  0.43544  0.14366  0.76083  1.0000
  C   C131      1.0  0.46377  0.15393  0.76099  1.0000
  H   H151      1.0  0.50168  0.09846  0.79141  1.0000
  H   H152      1.0  0.49274  0.12968  0.69442  1.0000
  S   S35       1.0  0.50258  0.17919  0.87717  1.0000
  H   H153      1.0  0.27800  0.44897  0.67783  1.0000
  H   H154      1.0  0.33972  0.07890  0.67365  1.0000
  C   C132      1.0  0.48398  0.09392  0.74689  1.0000
  H   H155      1.0  0.44121  0.13861  0.98647  1.0000
  H   H156      1.0  0.39833  0.19080  0.94137  1.0000
  H   H157      1.0  0.25978  0.17232  0.65623  1.0000
  C   C133      1.0  0.47693  0.01901  0.76086  1.0000
  H   H158      1.0  0.44603  0.23489  0.92799  1.0000
  H   H159      1.0  0.49539  0.03428  0.80291  1.0000
  H   H160      1.0  0.01381  0.49701  0.93045  1.0000
  C   C134      1.0  0.38472  0.21749  0.98128  1.0000
  C   C135      1.0  0.30752  0.38405  0.65591  1.0000
  C   C136      1.0  0.02047  0.58845  0.02995  1.0000
  Fe  Fe17      1.0  0.18476  0.62519  0.02473  1.0000
  S   S36       1.0  0.21364  0.57883  0.00279  1.0000
  S   S37       1.0  0.21683  0.67829  0.02840  1.0000
  Fe  Fe18      1.0  0.18775  0.54462  0.03739  1.0000
  C   C137      1.0  0.44082  0.91877  0.07421  1.0000
  S   S38       1.0  0.16136  0.59117  0.06044  1.0000
  Fe  Fe19      1.0  0.40692  0.82953  0.17068  1.0000
  S   S39       1.0  0.34867  0.83748  0.15755  1.0000
  S   S40       1.0  0.41453  0.82580  0.21946  1.0000
  Fe  Fe20      1.0  0.43112  0.82459  0.10752  1.0000
  S   S41       1.0  0.37485  0.83105  0.09056  1.0000
  C   C138      1.0  0.29704  0.57280  0.11942  1.0000
  Fe  Fe21      1.0  0.37057  0.87541  0.12384  1.0000
  S   S42       1.0  0.34678  0.92845  0.10765  1.0000
  Fe  Fe22      1.0  0.35784  0.79235  0.12559  1.0000
  S   S43       1.0  0.31894  0.74355  0.12612  1.0000
  S   S44       1.0  0.42789  0.87096  0.13908  1.0000
  S   S45       1.0  0.41504  0.78237  0.14043  1.0000
  C   C139      1.0  0.37064  0.97287  0.15158  1.0000
  C   C140      1.0  0.35632  0.97078  0.12395  1.0000
  H   H161      1.0  0.41980  0.92164  0.09125  1.0000
  H   H162      1.0  0.37673  0.94819  0.16326  1.0000
  C   C141      1.0  0.48808  0.83730  0.22974  1.0000
  H   H163      1.0  0.28737  0.54842  0.10900  1.0000
  H   H164      1.0  0.09120  0.54861  0.17566  1.0000
  C   C142      1.0  0.35604  0.74903  0.25151  1.0000
  H   H165      1.0  0.47683  0.82698  0.31250  1.0000
  Fe  Fe23      1.0  0.11455  0.58028  0.03097  1.0000
  C   C143      1.0  0.28915  0.72763  0.09899  1.0000
  C   C144      1.0  0.29079  0.74042  0.07074  1.0000
  C   C145      1.0  0.26802  0.72540  0.04962  1.0000
  C   C146      1.0  0.24348  0.69729  0.05636  1.0000
  C   C147      1.0  0.24135  0.68500  0.08478  1.0000
  C   C148      1.0  0.26411  0.70003  0.10588  1.0000
  H   H166      1.0  0.30975  0.76172  0.06507  1.0000
  H   H167      1.0  0.26966  0.73543  0.02781  1.0000
  H   H168      1.0  0.22207  0.66405  0.09052  1.0000
  H   H169      1.0  0.26236  0.69009  0.12768  1.0000
  C   C149      1.0  0.29537  0.57387  0.14941  1.0000
  H   H170      1.0  0.46489  0.90790  0.02194  1.0000
  H   H171      1.0  0.04807  0.63763  0.01762  1.0000
  C   C150      1.0  0.45368  0.83045  0.24129  1.0000
  C   C151      1.0  0.44995  0.82690  0.27129  1.0000
  H   H172      1.0  0.42349  0.82174  0.28052  1.0000
  C   C152      1.0  0.32267  0.63343  0.11893  1.0000
  C   C153      1.0  0.44435  0.82991  0.02710  1.0000
  H   H173      1.0  0.41960  0.82625  0.03922  1.0000
  N   N10       1.0  0.31215  0.60066  0.07146  1.0000
  C   C154      1.0  0.33593  0.57008  0.06254  1.0000
  C   C155      1.0  0.27538  0.59414  0.06000  1.0000
  H   H174      1.0  0.39199  0.94367  0.01620  1.0000
  C   C156      1.0  0.31061  0.60262  0.10321  1.0000
  H   H175      1.0  0.33316  0.65764  0.10864  1.0000
  H   H176      1.0  0.35468  0.64011  0.06424  1.0000
  H   H177      1.0  0.39750  0.90073  0.03329  1.0000
  C   C157      1.0  0.49996  0.93274  0.31092  1.0000
  C   C158      1.0  0.10670  0.53906  0.15650  1.0000
  H   H178      1.0  0.32508  0.54327  0.06961  1.0000
  H   H179      1.0  0.41589  0.00039  0.01436  1.0000
  H   H180      1.0  0.36351  0.57308  0.07171  1.0000
  H   H181      1.0  0.27523  0.59512  0.03615  1.0000
  H   H182      1.0  0.33867  0.56852  0.03874  1.0000
  C   C159      1.0  0.39792  0.93065  0.03713  1.0000
  C   C160      1.0  0.48018  0.82990  0.28952  1.0000
  H   H183      1.0  0.46785  0.92446  0.08357  1.0000
  C   C161      1.0  0.46693  0.74429  0.99958  1.0000
  C   C162      1.0  0.32080  0.63424  0.14890  1.0000
  H   H184      1.0  0.45653  0.95193  0.00737  1.0000
  H   H185      1.0  0.32972  0.65831  0.16029  1.0000
  H   H186      1.0  0.27677  0.64426  0.26542  1.0000
  H   H187      1.0  0.44103  0.88954  0.06808  1.0000
  N   N11       1.0  0.33744  0.74394  0.22361  1.0000
  C   C163      1.0  0.36554  0.73590  0.20162  1.0000
  H   H188      1.0  0.20500  0.56532  0.15476  1.0000
  C   C164      1.0  0.31035  0.71422  0.22395  1.0000
  C   C165      1.0  0.30567  0.69022  0.24768  1.0000
  C   C166      1.0  0.28006  0.66216  0.24704  1.0000
  C   C167      1.0  0.25856  0.65708  0.22294  1.0000
  H   H189      1.0  0.35418  0.73476  0.17963  1.0000
  H   H190      1.0  0.38694  0.75723  0.20108  1.0000
  H   H191      1.0  0.37906  0.70941  0.20587  1.0000
  H   H192      1.0  0.30948  0.77959  0.19390  1.0000
  C   C168      1.0  0.20878  0.53930  0.14429  1.0000
  H   H193      1.0  0.32137  0.69254  0.26703  1.0000
  H   H194      1.0  0.28455  0.55083  0.16131  1.0000
  C   C169      1.0  0.43069  0.98186  0.05721  1.0000
  H   H195      1.0  0.20780  0.56221  0.10183  1.0000
  H   H196      1.0  0.25588  0.61508  0.06767  1.0000
  H   H197      1.0  0.30924  0.65830  0.06308  1.0000
  H   H198      1.0  0.10180  0.55859  0.13870  1.0000
  H   H199      1.0  0.13599  0.54104  0.16182  1.0000
  H   H200      1.0  0.48856  0.94656  0.03596  1.0000
  H   H201      1.0  0.29052  0.72473  0.18069  1.0000
  H   H202      1.0  0.26429  0.56712  0.06618  1.0000
  C   C170      1.0  0.34825  0.00307  0.10914  1.0000
  H   H203      1.0  0.33715  0.00165  0.08776  1.0000
  H   H204      1.0  0.49145  0.84009  0.20676  1.0000
  C   C171      1.0  0.30720  0.60454  0.16412  1.0000
  C   C172      1.0  0.28819  0.70797  0.19968  1.0000
  N   N12       1.0  0.43287  0.94280  0.04942  1.0000
  H   H205      1.0  0.30569  0.60529  0.18735  1.0000
  S   S46       1.0  0.48071  0.82108  0.07846  1.0000
  H   H206      1.0  0.37498  0.93703  0.05197  1.0000
  C   C173      1.0  0.47775  0.82880  0.04104  1.0000
  H   H207      1.0  0.47948  0.98679  0.26809  1.0000
  H   H208      1.0  0.33639  0.75520  0.26907  1.0000
  S   S47       1.0  0.05775  0.56924  0.04776  1.0000
  C   C174      1.0  0.31972  0.77900  0.21628  1.0000
  C   C175      1.0  0.32636  0.63431  0.05770  1.0000
  H   H209      1.0  0.23872  0.63532  0.22258  1.0000
  H   H210      1.0  0.32639  0.63239  0.03383  1.0000
  C   C176      1.0  0.26264  0.67993  0.19930  1.0000
  H   H211      1.0  0.33893  0.80231  0.21777  1.0000
  C   C177      1.0  0.21003  0.53754  0.11420  1.0000
  H   H212      1.0  0.37544  0.77224  0.25073  1.0000
  H   H213      1.0  0.37251  0.72483  0.25741  1.0000
  H   H214      1.0  0.44414  0.97707  0.10305  1.0000
  H   H215      1.0  0.29655  0.78481  0.23099  1.0000
  S   S48       1.0  0.13953  0.53113  0.01017  1.0000
  C   C178      1.0  0.02275  0.62282  0.01727  1.0000
  C   C179      1.0  0.46194  0.93720  0.02772  1.0000
  H   H216      1.0  0.24598  0.67593  0.18048  1.0000
  C   C180      1.0  0.43757  0.99491  0.08541  1.0000
  H   H217      1.0  0.38544  0.00840  0.18644  1.0000
  C   C181      1.0  0.46618  0.74038  0.02930  1.0000
  C   C182      1.0  0.42137  0.00825  0.03623  1.0000
  H   H218      1.0  0.44085  0.74323  0.04102  1.0000
  H   H219      1.0  0.05776  0.53636  0.10677  1.0000
  C   C183      1.0  0.49515  0.00540  0.28094  1.0000
  H   H220      1.0  0.47664  0.93450  0.29605  1.0000
  S   S49       1.0  0.13487  0.61895  0.99715  1.0000
  C   C184      1.0  0.44298  0.83437  0.99714  1.0000
  C   C185      1.0  0.04126  0.51968  0.12086  1.0000
  C   C186      1.0  0.49831  0.73500  0.04415  1.0000
  H   H221      1.0  0.49767  0.73384  0.06742  1.0000
  C   C187      1.0  0.37555  0.00701  0.16467  1.0000
  H   H222      1.0  0.50608  0.90320  0.31334  1.0000
  S   S50       1.0  0.20954  0.51118  0.19858  1.0000
  H   H223      1.0  0.11268  0.51041  0.10438  1.0000
  S   S51       1.0  0.13429  0.56258  0.49723  1.0000
  S   S52       1.0  0.07708  0.65218  0.51923  1.0000
  Fe  Fe24      1.0  0.18189  0.58184  0.47081  1.0000
  S   S53       1.0  0.19907  0.56829  0.42462  1.0000
  S   S54       1.0  0.17379  0.64073  0.48289  1.0000
  S   S55       1.0  0.36420  0.96038  0.59346  1.0000
  H   H224      1.0  0.26038  0.83463  0.56193  1.0000
  C   C188      1.0  0.00847  0.56256  0.55666  1.0000
  C   C189      1.0  0.18598  0.53494  0.39897  1.0000
  S   S56       1.0  0.48395  0.82024  0.43775  1.0000
  H   H225      1.0  0.46180  0.74181  0.52190  1.0000
  H   H226      1.0  0.42701  0.81941  0.48006  1.0000
  Fe  Fe25      1.0  0.12931  0.62059  0.51202  1.0000
  Fe  Fe26      1.0  0.21118  0.63048  0.51998  1.0000
  S   S57       1.0  0.22222  0.57282  0.50611  1.0000
  S   S58       1.0  0.25962  0.66869  0.52543  1.0000
  Fe  Fe27      1.0  0.17413  0.55786  0.53345  1.0000
  C   C190      1.0  0.45241  0.82219  0.49127  1.0000
  S   S59       1.0  0.16605  0.61440  0.55020  1.0000
  H   H227      1.0  0.43832  0.97732  0.57047  1.0000
  C   C191      1.0  0.45877  0.93525  0.54278  1.0000
  Fe  Fe28      1.0  0.43606  0.84418  0.59943  1.0000
  S   S60       1.0  0.38229  0.85681  0.57951  1.0000
  H   H228      1.0  0.27167  0.78617  0.52635  1.0000
  Fe  Fe29      1.0  0.38260  0.90507  0.60934  1.0000
  H   H229      1.0  0.40854  0.97120  0.64393  1.0000
  Fe  Fe30      1.0  0.35894  0.82497  0.61654  1.0000
  S   S61       1.0  0.30955  0.78724  0.61751  1.0000
  S   S62       1.0  0.43801  0.89470  0.62677  1.0000
  S   S63       1.0  0.41301  0.80901  0.63492  1.0000
  C   C192      1.0  0.48512  0.82769  0.53616  1.0000
  C   C193      1.0  0.38256  0.99977  0.60942  1.0000
  C   C194      1.0  0.48501  0.82327  0.47561  1.0000
  S   S64       1.0  0.35461  0.87466  0.64470  1.0000
  C   C195      1.0  0.17315  0.51324  0.59857  1.0000
  H   H230      1.0  0.22196  0.55643  0.36649  1.0000
  H   H231      1.0  0.19925  0.84266  0.58291  1.0000
  C   C196      1.0  0.19269  0.54196  0.61060  1.0000
  H   H232      1.0  0.20542  0.56196  0.59680  1.0000
  C   C197      1.0  0.29706  0.75318  0.59233  1.0000
  C   C198      1.0  0.31746  0.74632  0.56750  1.0000
  C   C199      1.0  0.30587  0.71986  0.54766  1.0000
  C   C200      1.0  0.27386  0.69987  0.55234  1.0000
  C   C201      1.0  0.25386  0.70615  0.57750  1.0000
  C   C202      1.0  0.26537  0.73274  0.59730  1.0000
  H   H233      1.0  0.34191  0.76171  0.56338  1.0000
  H   H234      1.0  0.32161  0.71519  0.52832  1.0000
  H   H235      1.0  0.22952  0.69069  0.58166  1.0000
  H   H236      1.0  0.24947  0.73771  0.61649  1.0000
  C   C203      1.0  0.03610  0.63571  0.50479  1.0000
  C   C204      1.0  0.03604  0.60808  0.48420  1.0000
  H   H237      1.0  0.06139  0.59653  0.47680  1.0000
  H   H238      1.0  0.49089  0.94301  0.33227  1.0000
  C   C205      1.0  0.45241  0.82468  0.52141  1.0000
  H   H239      1.0  0.42715  0.82349  0.53322  1.0000
  H   H240      1.0  0.46241  0.93692  0.44852  1.0000
  C   C206      1.0  0.19706  0.54400  0.64057  1.0000
  N   N13       1.0  0.15284  0.74313  0.53157  1.0000
  C   C207      1.0  0.11607  0.75360  0.54186  1.0000
  C   C208      1.0  0.15068  0.73800  0.49998  1.0000
  C   C209      1.0  0.16210  0.70787  0.54494  1.0000
  C   C210      1.0  0.18129  0.76989  0.53886  1.0000
  C   C211      1.0  0.17558  0.79839  0.55906  1.0000
  C   C212      1.0  0.21681  0.76625  0.52731  1.0000
  C   C213      1.0  0.20382  0.82161  0.56701  1.0000
  C   C214      1.0  0.24461  0.78996  0.53508  1.0000
  C   C215      1.0  0.23828  0.81731  0.55512  1.0000
  H   H241      1.0  0.10803  0.78072  0.53341  1.0000
  H   H242      1.0  0.09513  0.73367  0.53479  1.0000
  H   H243      1.0  0.11427  0.75380  0.56571  1.0000
  H   H244      1.0  0.14643  0.76442  0.48883  1.0000
  H   H245      1.0  0.12808  0.71939  0.49404  1.0000
  H   H246      1.0  0.17543  0.72517  0.49078  1.0000
  H   H247      1.0  0.16516  0.71054  0.56859  1.0000
  H   H248      1.0  0.14079  0.68718  0.54094  1.0000
  H   H249      1.0  0.18802  0.69674  0.53637  1.0000
  H   H250      1.0  0.14980  0.80289  0.56949  1.0000
  H   H251      1.0  0.22395  0.74409  0.51308  1.0000
  C   C216      1.0  0.04585  0.55639  0.55729  1.0000
  C   C217      1.0  0.45295  0.97125  0.55079  1.0000
  H   H252      1.0  0.21312  0.56565  0.64967  1.0000
  C   C218      1.0  0.40316  0.99747  0.63439  1.0000
  C   C219      1.0  0.50628  0.73580  0.55086  1.0000
  S   S65       1.0  0.48647  0.82928  0.57400  1.0000
  C   C220      1.0  0.20278  0.53516  0.37174  1.0000
  H   H253      1.0  0.48939  0.73852  0.56989  1.0000
  H   H254      1.0  0.06349  0.56984  0.54184  1.0000
  H   H255      1.0  0.48069  0.89647  0.46406  1.0000
  C   C221      1.0  0.46592  0.99937  0.53349  1.0000
  C   C222      1.0  0.48485  0.99164  0.50804  1.0000
  C   C223      1.0  0.49114  0.95510  0.49918  1.0000
  H   H256      1.0  0.25600  0.52310  0.45587  1.0000
  C   C224      1.0  0.03817  0.51634  0.59785  1.0000
  H   H257      1.0  0.49870  0.73947  0.47890  1.0000
  C   C225      1.0  0.06070  0.53334  0.57782  1.0000
  H   H258      1.0  0.08976  0.52875  0.57825  1.0000
  H   H259      1.0  0.49920  0.99436  0.44854  1.0000
  C   C226      1.0  0.48811  0.92273  0.45388  1.0000
  C   C227      1.0  0.47750  0.92723  0.51739  1.0000
  H   H260      1.0  0.29765  0.98170  0.63759  1.0000
  C   C228      1.0  0.49079  0.73774  0.52377  1.0000
  H   H261      1.0  0.50214  0.91548  0.43341  1.0000
  H   H262      1.0  0.48131  0.89888  0.51220  1.0000
  H   H263      1.0  0.44871  0.91336  0.55632  1.0000
  C   C229      1.0  0.35694  0.78628  0.74315  1.0000
  H   H264      1.0  0.39072  0.75733  0.67925  1.0000
  H   H265      1.0  0.03975  0.61570  0.95822  1.0000
  S   S66       1.0  0.15743  0.56784  0.92861  1.0000
  C   C230      1.0  0.31573  0.72143  0.73364  1.0000
  S   S67       1.0  0.41570  0.86983  0.70927  1.0000
  C   C231      1.0  0.33092  0.74048  0.70985  1.0000
  C   C232      1.0  0.32341  0.72650  0.68210  1.0000
  H   H266      1.0  0.15203  0.56860  0.86728  1.0000
  Fe  Fe31      1.0  0.16261  0.57000  0.97761  1.0000
  H   H267      1.0  0.08794  0.56301  0.90453  1.0000
  H   H268      1.0  0.35185  0.82992  0.70003  1.0000
  C   C233      1.0  0.44867  0.85559  0.73451  1.0000
  C   C234      1.0  0.44521  0.86717  0.76321  1.0000
  H   H269      1.0  0.42294  0.88478  0.76927  1.0000
  C   C235      1.0  0.18150  0.51769  0.65871  1.0000
  C   C236      1.0  0.47747  0.83270  0.72702  1.0000
  H   H270      1.0  0.48054  0.82360  0.70505  1.0000
  H   H271      1.0  0.28255  0.67653  0.74801  1.0000
  C   C237      1.0  0.06240  0.54704  0.95870  1.0000
  C   C238      1.0  0.47015  0.85595  0.78424  1.0000
  H   H272      1.0  0.37053  0.76574  0.75693  1.0000
  H   H273      1.0  0.49911  0.74791  0.96174  1.0000
  H   H274      1.0  0.04410  0.56378  0.88850  1.0000
  S   S68       1.0  0.47186  0.84109  0.94305  1.0000
  H   H275      1.0  0.06210  0.51694  0.95695  1.0000
  H   H276      1.0  0.03740  0.62045  0.91956  1.0000
  H   H277      1.0  0.30860  0.80772  0.70150  1.0000
  H   H278      1.0  0.07959  0.61131  0.93673  1.0000
  H   H279      1.0  0.40838  0.79023  0.70358  1.0000
  C   C239      1.0  0.15622  0.54059  0.87362  1.0000
  N   N14       1.0  0.35359  0.77343  0.71305  1.0000
  H   H280      1.0  0.33003  0.79325  0.75257  1.0000
  H   H281      1.0  0.26990  0.65425  0.69904  1.0000
  C   C240      1.0  0.29404  0.69064  0.72963  1.0000
  H   H282      1.0  0.09145  0.55502  0.95940  1.0000
  C   C241      1.0  0.50230  0.82135  0.74807  1.0000
  H   H283      1.0  0.46692  0.86482  0.80625  1.0000
  C   C242      1.0  0.33775  0.80368  0.69614  1.0000
  C   C243      1.0  0.39064  0.76578  0.70213  1.0000
  H   H284      1.0  0.32006  0.72980  0.75554  1.0000
  N   N15       1.0  0.04330  0.56522  0.93472  1.0000
  C   C244      1.0  0.28689  0.67798  0.70205  1.0000
  C   C245      1.0  0.15794  0.51330  0.85235  1.0000
  Fe  Fe32      1.0  0.41040  0.86082  0.66074  1.0000
  C   C246      1.0  0.47492  0.83785  0.98082  1.0000
  C   C247      1.0  0.16034  0.53209  0.90290  1.0000
  H   H285      1.0  0.33973  0.79894  0.67266  1.0000
  C   C248      1.0  0.30157  0.69589  0.67834  1.0000
  H   H286      1.0  0.40367  0.74354  0.71456  1.0000
  H   H287      1.0  0.06115  0.52306  0.90523  1.0000
  C   C249      1.0  0.05962  0.55314  0.90709  1.0000
  C   C250      1.0  0.05002  0.60493  0.93739  1.0000
  H   H288      1.0  0.37388  0.81139  0.74447  1.0000
  H   H289      1.0  0.15508  0.52039  0.82993  1.0000
  H   H290      1.0  0.33418  0.73935  0.66297  1.0000
  H   H291      1.0  0.05008  0.55444  0.97980  1.0000
  H   H292      1.0  0.47407  0.99045  0.76621  1.0000
  S   S69       1.0  0.19084  0.51863  0.69590  1.0000
  C   C251      1.0  0.49878  0.83280  0.77679  1.0000
  C   C252      1.0  0.49983  0.74282  0.98460  1.0000
  H   H293      1.0  0.41706  0.83431  0.98646  1.0000
  H   H294      1.0  0.44210  0.75018  0.98819  1.0000
  H   H295      1.0  0.29591  0.68622  0.65682  1.0000
  C   C253      1.0  0.52526  0.20335  0.23322  1.0000
  Fe  Fe33      1.0  0.79571  0.38767  0.26579  1.0000
  S   S70       1.0  0.77723  0.44197  0.24833  1.0000
  S   S71       1.0  0.76378  0.33430  0.27003  1.0000
  Fe  Fe34      1.0  0.87510  0.41281  0.26961  1.0000
  S   S72       1.0  0.86280  0.46883  0.25343  1.0000
  S   S73       1.0  0.92941  0.39457  0.28693  1.0000
  Fe  Fe35      1.0  0.81377  0.46552  0.28245  1.0000
  H   H296      1.0  0.76798  0.40073  0.04994  1.0000
  Fe  Fe36      1.0  0.82774  0.44148  0.22051  1.0000
  S   S74       1.0  0.83592  0.45000  0.17204  1.0000
  S   S75       1.0  0.82883  0.41159  0.30131  1.0000
  S   S76       1.0  0.84341  0.38515  0.23525  1.0000
  H   H297      1.0  0.74148  0.48405  0.13096  1.0000
  C   C254      1.0  0.96959  0.39883  0.26620  1.0000
  C   C255      1.0  0.96870  0.40175  0.23627  1.0000
  H   H298      1.0  0.53689  0.14326  0.04210  1.0000
  H   H299      1.0  0.94293  0.40236  0.22538  1.0000
  H   H300      1.0  0.81189  0.48277  0.03472  1.0000
  H   H301      1.0  0.87782  0.29677  0.27538  1.0000
  H   H302      1.0  0.54654  0.31143  0.30290  1.0000
  C   C256      1.0  0.78630  0.49738  0.02967  1.0000
  H   H303      1.0  0.72113  0.50423  0.00298  1.0000
  H   H304      1.0  0.85495  0.46380  0.11332  1.0000
  H   H305      1.0  0.91081  0.31896  0.31786  1.0000
  C   C257      1.0  0.76153  0.41998  0.06669  1.0000
  H   H306      1.0  0.60033  0.23656  0.26977  1.0000
  C   C258      1.0  0.53467  0.12172  0.02631  1.0000
  C   C259      1.0  0.83635  0.23406  0.31571  1.0000
  C   C260      1.0  0.74574  0.47968  0.08492  1.0000
  C   C261      1.0  0.52523  0.19850  0.26317  1.0000
  H   H307      1.0  0.55340  0.27525  0.24734  1.0000
  H   H308      1.0  0.54906  0.20430  0.27544  1.0000
  H   H309      1.0  0.54930  0.21331  0.22239  1.0000
  N   N16       1.0  0.59295  0.29394  0.27796  1.0000
  C   C262      1.0  0.72080  0.28106  0.29397  1.0000
  C   C263      1.0  0.73324  0.31708  0.29654  1.0000
  C   C264      1.0  0.85266  0.30546  0.28679  1.0000
  C   C265      1.0  0.53368  0.05619  0.31305  1.0000
  H   H310      1.0  0.73048  0.26441  0.27636  1.0000
  C   C266      1.0  0.65973  0.38938  0.28911  1.0000
  N   N17       1.0  0.75473  0.47274  0.03160  1.0000
  H   H311      1.0  0.75740  0.41985  0.13979  1.0000
  C   C267      1.0  0.82581  0.48723  0.14906  1.0000
  H   H312      1.0  0.64756  0.31980  0.24293  1.0000
  C   C268      1.0  0.75318  0.45705  0.06088  1.0000
  C   C269      1.0  0.75863  0.44507  0.00850  1.0000
  H   H313      1.0  0.68676  0.23852  0.31159  1.0000
  C   C270      1.0  0.51040  0.09337  0.03103  1.0000
  H   H314      1.0  0.00422  0.39549  0.30315  1.0000
  H   H315      1.0  0.59165  0.29704  0.23156  1.0000
  C   C271      1.0  0.72113  0.33792  0.31983  1.0000
  C   C272      1.0  0.00126  0.40261  0.22031  1.0000
  H   H316      1.0  0.81158  0.24178  0.30502  1.0000
  H   H317      1.0  0.74077  0.50851  0.08245  1.0000
  H   H318      1.0  0.84819  0.33461  0.28165  1.0000
  C   C273      1.0  0.61590  0.26086  0.27651  1.0000
  C   C274      1.0  0.76266  0.40679  0.09487  1.0000
  C   C275      1.0  0.74645  0.46605  0.11292  1.0000
  H   H319      1.0  0.67698  0.41296  0.29190  1.0000
  C   C276      1.0  0.66433  0.36711  0.26522  1.0000
  H   H320      1.0  0.76989  0.37867  0.09898  1.0000
  C   C277      1.0  0.55504  0.12331  0.00091  1.0000
  C   C278      1.0  0.56560  0.28808  0.30112  1.0000
  C   C279      1.0  0.00327  0.39777  0.28002  1.0000
  H   H321      1.0  0.95869  0.46349  0.31020  1.0000
  H   H322      1.0  0.78493  0.43037  0.00980  1.0000
  H   H323      1.0  0.52782  0.23635  0.01055  1.0000
  H   H324      1.0  0.68544  0.37333  0.24963  1.0000
  C   C280      1.0  0.69572  0.26638  0.31382  1.0000
  C   C281      1.0  0.64271  0.33624  0.26179  1.0000
  H   H325      1.0  0.82951  0.29057  0.27722  1.0000
  C   C282      1.0  0.75536  0.42983  0.11793  1.0000
  H   H326      1.0  0.97768  0.46225  0.16953  1.0000
  C   C283      1.0  0.54203  0.01918  0.31529  1.0000
  H   H327      1.0  0.62745  0.25454  0.29786  1.0000
  H   H328      1.0  0.55783  0.32380  0.24981  1.0000
  H   H329      1.0  0.63890  0.26343  0.26116  1.0000
  C   C284      1.0  0.61596  0.32644  0.28248  1.0000
  H   H330      1.0  0.00031  0.40379  0.19714  1.0000
  H   H331      1.0  0.54887  0.26339  0.29723  1.0000
  H   H332      1.0  0.73607  0.42502  0.00920  1.0000
  C   C285      1.0  0.99555  0.47824  0.15587  1.0000
  C   C286      1.0  0.98129  0.49762  0.13286  1.0000
  C   C287      1.0  0.57317  0.29774  0.25050  1.0000
  C   C288      1.0  0.83854  0.48649  0.12048  1.0000
  H   H333      1.0  0.95244  0.49670  0.12869  1.0000
  C   C289      1.0  0.72141  0.49401  0.02554  1.0000
  C   C290      1.0  0.63387  0.38058  0.30990  1.0000
  C   C291      1.0  0.50877  0.21512  0.00518  1.0000
  H   H334      1.0  0.57224  0.14684  0.99829  1.0000
  C   C292      1.0  0.61238  0.34948  0.30688  1.0000
  H   H335      1.0  0.69673  0.47715  0.02897  1.0000
  H   H336      1.0  0.78921  0.50911  0.00779  1.0000
  N   N18       1.0  0.85548  0.29963  0.31817  1.0000
  C   C293      1.0  0.84186  0.19705  0.32107  1.0000
  H   H337      1.0  0.82156  0.17735  0.31474  1.0000
  H   H338      1.0  0.89313  0.47234  0.31865  1.0000
  Fe  Fe37      1.0  0.60499  0.13663  0.35646  1.0000
  S   S77       1.0  0.54752  0.13736  0.37193  1.0000
  C   C294      1.0  0.79029  0.50792  0.40828  1.0000
  Fe  Fe38      1.0  0.61321  0.21975  0.36047  1.0000
  S   S78       1.0  0.55537  0.22613  0.37623  1.0000
  S   S79       1.0  0.64694  0.27236  0.35989  1.0000
  Fe  Fe39      1.0  0.56610  0.17792  0.40479  1.0000
  S   S80       1.0  0.55613  0.16898  0.45284  1.0000
  Fe  Fe40      1.0  0.54156  0.18508  0.34213  1.0000
  S   S81       1.0  0.62481  0.17391  0.39120  1.0000
  C   C295      1.0  0.57482  0.30838  0.53454  1.0000
  C   C296      1.0  0.79273  0.47770  0.36156  1.0000
  H   H339      1.0  0.54186  0.26016  0.53311  1.0000
  H   H340      1.0  0.54097  0.15124  0.51160  1.0000
  H   H341      1.0  0.67989  0.28949  0.46309  1.0000
  H   H342      1.0  0.64834  0.31450  0.44077  1.0000
  H   H343      1.0  0.66968  0.27451  0.42748  1.0000
  C   C297      1.0  0.60313  0.32762  0.52164  1.0000
  H   H344      1.0  0.98446  0.50880  0.61359  1.0000
  H   H345      1.0  0.56101  0.31927  0.55328  1.0000
  H   H346      1.0  0.65586  0.21595  0.44564  1.0000
  C   C298      1.0  0.63308  0.00962  0.35039  1.0000
  H   H347      1.0  0.68528  0.34034  0.35665  1.0000
  C   C299      1.0  0.62278  0.04348  0.36189  1.0000
  C   C300      1.0  0.60668  0.04472  0.38913  1.0000
  H   H348      1.0  0.66109  0.22806  0.48289  1.0000
  H   H349      1.0  0.59894  0.07064  0.39832  1.0000
  H   H350      1.0  0.78664  0.44993  0.40217  1.0000
  H   H351      1.0  0.61133  0.35356  0.53053  1.0000
  H   H352      1.0  0.89590  0.44874  0.42713  1.0000
  H   H353      1.0  0.63108  0.39751  0.32883  1.0000
  C   C301      1.0  0.96087  0.48799  0.38067  1.0000
  H   H354      1.0  0.85916  0.47307  0.41123  1.0000
  C   C302      1.0  0.78762  0.48169  0.62502  1.0000
  H   H355      1.0  0.79217  0.45299  0.34903  1.0000
  S   S82       1.0  0.63052  0.08361  0.34178  1.0000
  C   C303      1.0  0.97331  0.47748  0.35345  1.0000
  C   C304      1.0  0.56411  0.27509  0.52323  1.0000
  H   H356      1.0  0.87746  0.15660  0.33867  1.0000
  C   C305      1.0  0.52267  0.18575  0.47718  1.0000
  H   H357      1.0  0.81511  0.34028  0.32854  1.0000
  H   H358      1.0  0.57235  0.23511  0.49107  1.0000
  H   H359      1.0  0.79721  0.29624  0.32343  1.0000
  C   C306      1.0  0.78940  0.47605  0.39167  1.0000
  H   H360      1.0  0.59030  0.01393  0.42637  1.0000
  H   H361      1.0  0.64221  0.33017  0.48825  1.0000
  H   H362      1.0  0.82156  0.30600  0.35567  1.0000
  H   H363      1.0  0.56349  0.01228  0.32985  1.0000
  H   H364      1.0  0.95231  0.48197  0.44057  1.0000
  H   H365      1.0  0.76958  0.45949  0.61994  1.0000
  H   H366      1.0  0.62003  0.20784  0.47029  1.0000
  N   N19       1.0  0.62730  0.26462  0.45882  1.0000
  C   C307      1.0  0.59967  0.26196  0.43604  1.0000
  C   C308      1.0  0.65765  0.28690  0.44725  1.0000
  C   C309      1.0  0.64172  0.22766  0.46473  1.0000
  C   C310      1.0  0.61034  0.27984  0.48513  1.0000
  C   C311      1.0  0.58167  0.26095  0.49903  1.0000
  C   C312      1.0  0.62073  0.31375  0.49724  1.0000
  H   H367      1.0  0.91567  0.26571  0.34399  1.0000
  C   C313      1.0  0.89424  0.24770  0.33735  1.0000
  C   C314      1.0  0.52226  0.17251  0.50554  1.0000
  H   H368      1.0  0.57733  0.24301  0.44189  1.0000
  H   H369      1.0  0.58723  0.28892  0.43152  1.0000
  H   H370      1.0  0.61164  0.25166  0.41561  1.0000
  H   H371      1.0  0.59366  0.34382  0.32421  1.0000
  H   H372      1.0  0.54891  0.07595  0.32537  1.0000
  C   C315      1.0  0.68183  0.28792  0.33610  1.0000
  H   H373      1.0  0.98128  0.49210  0.39680  1.0000
  C   C316      1.0  0.89947  0.21057  0.34257  1.0000
  C   C317      1.0  0.87332  0.18533  0.33453  1.0000
  C   C318      1.0  0.89928  0.48719  0.36312  1.0000
  C   C319      1.0  0.60159  0.01246  0.40493  1.0000
  C   C320      1.0  0.88287  0.47594  0.42547  1.0000
  S   S83       1.0  0.59813  0.18214  0.32432  1.0000
  C   C321      1.0  0.69538  0.32348  0.33933  1.0000
  H   H374      1.0  0.87037  0.49084  0.36562  1.0000
  H   H375      1.0  0.88788  0.32157  0.35248  1.0000
  H   H376      1.0  0.92401  0.20127  0.35293  1.0000
  H   H377      1.0  0.93359  0.50460  0.55291  1.0000
  C   C322      1.0  0.86224  0.26060  0.32390  1.0000
  H   H378      1.0  0.00206  0.47365  0.34947  1.0000
  S   S84       1.0  0.78912  0.50454  0.44618  1.0000
  C   C323      1.0  0.82098  0.31093  0.33211  1.0000
  C   C324      1.0  0.79738  0.50686  0.60333  1.0000
  C   C325      1.0  0.80077  0.48510  0.65322  1.0000
  H   H379      1.0  0.57875  0.28369  0.32232  1.0000
  H   H380      1.0  0.87143  0.48318  0.44696  1.0000
  C   C326      1.0  0.92326  0.49295  0.38638  1.0000
  H   H381      1.0  0.78683  0.50389  0.58188  1.0000
  H   H382      1.0  0.93024  0.49827  0.59112  1.0000
  C   C327      1.0  0.88440  0.32411  0.32888  1.0000
  C   C328      1.0  0.93724  0.50780  0.43714  1.0000
  N   N20       1.0  0.90890  0.50372  0.41492  1.0000
  C   C329      1.0  0.94895  0.47180  0.33123  1.0000
  C   C330      1.0  0.91202  0.47672  0.33604  1.0000
  H   H383      1.0  0.59471  0.32832  0.65339  1.0000
  H   H384      1.0  0.87811  0.35326  0.32457  1.0000
  H   H385      1.0  0.73069  0.36553  0.32233  1.0000
  Fe  Fe41      1.0  0.54840  0.14708  0.85771  1.0000
  C   C331      1.0  0.59148  0.06108  0.94760  1.0000
  S   S85       1.0  0.53285  0.08815  0.84925  1.0000
  Fe  Fe42      1.0  0.59629  0.21563  0.85096  1.0000
  S   S86       1.0  0.55371  0.25205  0.87053  1.0000
  S   S87       1.0  0.65290  0.23125  0.83461  1.0000
  Fe  Fe43      1.0  0.54493  0.20713  0.90315  1.0000
  S   S88       1.0  0.53994  0.21843  0.95138  1.0000
  H   H386      1.0  0.56269  0.02114  0.71570  1.0000
  H   H387      1.0  0.89259  0.48055  0.80341  1.0000
  S   S89       1.0  0.59066  0.17276  0.88564  1.0000
  S   S90       1.0  0.55761  0.18652  0.82152  1.0000
  Fe  Fe44      1.0  0.77337  0.40798  0.78110  1.0000
  S   S91       1.0  0.76761  0.46487  0.76328  1.0000
  S   S92       1.0  0.71966  0.38622  0.79945  1.0000
  Fe  Fe45      1.0  0.85562  0.40843  0.76829  1.0000
  S   S93       1.0  0.85481  0.46454  0.74927  1.0000
  S   S94       1.0  0.90781  0.37893  0.77938  1.0000
  Fe  Fe46      1.0  0.81867  0.47775  0.78718  1.0000
  H   H388      1.0  0.55736  0.30418  0.69324  1.0000
  Fe  Fe47      1.0  0.80394  0.44661  0.72691  1.0000
  H   H389      1.0  0.62046  0.12237  0.96988  1.0000
  S   S95       1.0  0.82211  0.42271  0.80727  1.0000
  S   S96       1.0  0.80706  0.38875  0.74350  1.0000
  C   C332      1.0  0.65019  0.35177  0.70939  1.0000
  C   C333      1.0  0.94986  0.38910  0.76268  1.0000
  C   C334      1.0  0.98220  0.37867  0.77615  1.0000
  C   C335      1.0  0.92920  0.43886  0.84025  1.0000
  H   H390      1.0  0.98105  0.36479  0.79661  1.0000
  H   H391      1.0  0.73501  0.35577  0.73746  1.0000
  H   H392      1.0  0.63663  0.01418  0.88090  1.0000
  H   H393      1.0  0.63591  0.33916  0.75399  1.0000
  H   H394      1.0  0.52669  0.08227  0.92651  1.0000
  H   H395      1.0  0.53363  0.24623  0.78333  1.0000
  H   H396      1.0  0.78656  0.47710  0.84867  1.0000
  C   C336      1.0  0.70879  0.34323  0.73129  1.0000
  H   H397      1.0  0.61028  0.06196  0.92880  1.0000
  H   H398      1.0  0.70380  0.41561  0.74075  1.0000
  C   C337      1.0  0.98190  0.47169  0.82345  1.0000
  H   H399      1.0  0.92696  0.41501  0.72559  1.0000
  H   H400      1.0  0.58933  0.15312  0.95223  1.0000
  H   H401      1.0  0.56267  0.10362  0.90728  1.0000
  C   C338      1.0  0.60139  0.12528  0.95165  1.0000
  N   N21       1.0  0.57306  0.09658  0.95235  1.0000
  C   C339      1.0  0.67093  0.27469  0.82509  1.0000
  C   C340      1.0  0.65025  0.30658  0.82648  1.0000
  C   C341      1.0  0.66580  0.34036  0.81882  1.0000
  C   C342      1.0  0.70218  0.34283  0.80971  1.0000
  C   C343      1.0  0.72280  0.31094  0.80807  1.0000
  C   C344      1.0  0.70724  0.27715  0.81574  1.0000
  H   H402      1.0  0.62233  0.30523  0.83360  1.0000
  H   H403      1.0  0.64951  0.36478  0.82010  1.0000
  H   H404      1.0  0.75074  0.31226  0.80102  1.0000
  H   H405      1.0  0.72352  0.25271  0.81456  1.0000
  C   C345      1.0  0.55431  0.04860  0.86243  1.0000
  H   H406      1.0  0.94981  0.47969  0.93153  1.0000
  C   C346      1.0  0.59125  0.04783  0.86877  1.0000
  N   N22       1.0  0.68504  0.36954  0.71629  1.0000
  H   H407      1.0  0.60728  0.07231  0.86653  1.0000
  C   C347      1.0  0.62790  0.33747  0.73172  1.0000
  C   C348      1.0  0.60783  0.01486  0.87682  1.0000
  H   H408      1.0  0.57837  0.30988  0.74331  1.0000
  C   C349      1.0  0.51060  0.24852  0.76926  1.0000
  H   H409      1.0  0.69657  0.33308  0.75159  1.0000
  C   C350      1.0  0.52513  0.14518  0.74424  1.0000
  H   H410      1.0  0.57762  0.06844  0.75149  1.0000
  H   H411      1.0  0.77159  0.47525  0.90061  1.0000
  H   H412      1.0  0.65976  0.42118  0.72511  1.0000
  H   H413      1.0  0.61792  0.12415  0.93157  1.0000
  C   C351      1.0  0.92235  0.47852  0.79981  1.0000
  H   H414      1.0  0.66589  0.39311  0.75624  1.0000
  Fe  Fe48      1.0  0.51492  0.22057  0.84296  1.0000
  H   H415      1.0  0.93809  0.41504  0.82717  1.0000
  C   C352      1.0  0.79014  0.49568  0.89253  1.0000
  C   C353      1.0  0.54807  0.10341  0.92822  1.0000
  C   C354      1.0  0.59487  0.32059  0.72587  1.0000
  H   H416      1.0  0.68988  0.40429  0.67900  1.0000
  H   H417      1.0  0.73145  0.39623  0.69700  1.0000
  H   H418      1.0  0.93973  0.43475  0.86225  1.0000
  C   C355      1.0  0.98543  0.41296  0.72282  1.0000
  H   H419      1.0  0.99369  0.46964  0.86926  1.0000
  H   H420      1.0  0.71473  0.31909  0.71765  1.0000
  C   C356      1.0  0.95165  0.40698  0.73622  1.0000
  C   C357      1.0  0.67822  0.40117  0.73534  1.0000
  H   H421      1.0  0.58690  0.05150  0.80227  1.0000
  C   C358      1.0  0.51599  0.25083  0.73943  1.0000
  H   H422      1.0  0.89905  0.43771  0.84159  1.0000
  C   C359      1.0  0.70538  0.38312  0.69079  1.0000
  H   H423      1.0  0.54319  0.24989  0.73068  1.0000
  H   H424      1.0  0.98403  0.46993  0.77621  1.0000
  H   H425      1.0  0.71268  0.36067  0.67582  1.0000
  S   S97       1.0  0.78674  0.45291  0.67985  1.0000
  H   H426      1.0  0.92617  0.45506  0.78506  1.0000
  H   H427      1.0  0.98649  0.42558  0.70185  1.0000
  H   H428      1.0  0.60761  0.05303  0.96667  1.0000
  N   N23       1.0  0.94204  0.47334  0.82717  1.0000
  H   H429      1.0  0.53484  0.14138  0.76658  1.0000
  C   C360      1.0  0.79871  0.49660  0.86307  1.0000
  C   C361      1.0  0.58302  0.31735  0.69770  1.0000
  H   H430      1.0  0.53434  0.13022  0.93060  1.0000
  C   C362      1.0  0.00483  0.46986  0.84778  1.0000
  C   C363      1.0  0.57578  0.04017  0.75793  1.0000
  C   C364      1.0  0.52678  0.06751  0.98496  1.0000
  C   C365      1.0  0.58116  0.03058  0.78649  1.0000
  H   H431      1.0  0.52843  0.17468  0.73934  1.0000
  H   H432      1.0  0.57223  0.03869  0.94280  1.0000
  H   H433      1.0  0.54362  0.12987  0.72964  1.0000
  C   C366      1.0  0.99903  0.47005  0.79603  1.0000
  H   H434      1.0  0.65226  0.35806  0.66250  1.0000
  C   C367      1.0  0.55204  0.09584  0.97955  1.0000
  C   C368      1.0  0.63728  0.34806  0.68085  1.0000
  H   H435      1.0  0.93086  0.50384  0.78856  1.0000
  H   H436      1.0  0.75845  0.45780  0.98672  1.0000
  C   C369      1.0  0.53401  0.01646  0.86486  1.0000
  C   C370      1.0  0.60416  0.33103  0.67526  1.0000
  C   C371      1.0  0.50853  0.20102  0.97709  1.0000
  H   H437      1.0  0.52220  0.04634  0.96933  1.0000
  H   H438      1.0  0.94162  0.50068  0.86846  1.0000
  C   C372      1.0  0.93170  0.50408  0.84623  1.0000
  C   C373      1.0  0.56745  0.01347  0.73784  1.0000
  H   H439      1.0  0.90168  0.50686  0.84806  1.0000
  C   C374      1.0  0.95728  0.50813  0.93325  1.0000
  S   S98       1.0  0.55377  0.84125  0.29976  1.0000
  C   C375      1.0  0.91882  0.60469  0.12030  1.0000
  H   H440      1.0  0.87580  0.55234  0.17137  1.0000
  N   N24       1.0  0.53194  0.95324  0.30030  1.0000
  Fe  Fe49      1.0  0.80714  0.59052  0.03887  1.0000
  S   S99       1.0  0.79492  0.57913  0.08623  1.0000
  S   S100      1.0  0.82515  0.64713  0.02743  1.0000
  C   C376      1.0  0.52322  0.99259  0.29903  1.0000
  C   C377      1.0  0.00412  0.51833  0.11540  1.0000
  H   H441      1.0  0.77874  0.56692  0.14568  1.0000
  H   H442      1.0  0.87686  0.66785  0.07817  1.0000
  C   C378      1.0  0.88192  0.65143  0.09786  1.0000
  H   H443      1.0  0.85535  0.63894  0.10357  1.0000
  H   H444      1.0  0.93163  0.57016  0.01596  1.0000
  C   C379      1.0  0.54167  0.93990  0.27116  1.0000
  C   C380      1.0  0.80780  0.54345  0.10986  1.0000
  H   H445      1.0  0.86326  0.58681  0.12786  1.0000
  H   H446      1.0  0.54478  0.84540  0.23874  1.0000
  H   H447      1.0  0.96467  0.62358  0.07450  1.0000
  H   H448      1.0  0.97742  0.61517  0.12189  1.0000
  H   H449      1.0  0.83997  0.51354  0.07922  1.0000
  H   H450      1.0  0.53559  0.83268  0.03544  1.0000
  H   H451      1.0  0.88929  0.67053  0.11539  1.0000
  H   H452      1.0  0.91786  0.57468  0.06887  1.0000
  C   C381      1.0  0.51462  0.83647  0.27794  1.0000
  S   S101      1.0  0.80119  0.51481  0.31008  1.0000
  C   C382      1.0  0.89080  0.58631  0.13544  1.0000
  Fe  Fe50      1.0  0.86328  0.62024  0.99637  1.0000
  N   N25       1.0  0.91080  0.62388  0.09311  1.0000
  H   H453      1.0  0.87180  0.58446  0.07822  1.0000
  S   S102      1.0  0.76293  0.59130  0.00576  1.0000
  H   H454      1.0  0.89347  0.61006  0.05046  1.0000
  C   C383      1.0  0.95426  0.60237  0.13194  1.0000
  C   C384      1.0  0.89793  0.59711  0.07176  1.0000
  H   H455      1.0  0.93787  0.54953  0.19078  1.0000
  C   C385      1.0  0.94260  0.64294  0.08037  1.0000
  C   C386      1.0  0.59933  0.72496  0.99999  1.0000
  C   C387      1.0  0.98744  0.56958  0.02955  1.0000
  H   H456      1.0  0.98567  0.54275  0.03902  1.0000
  C   C388      1.0  0.79560  0.54453  0.13854  1.0000
  S   S103      1.0  0.84837  0.56363  0.01006  1.0000
  H   H457      1.0  0.99313  0.53346  0.09745  1.0000
  C   C389      1.0  0.95676  0.58515  0.01673  1.0000
  H   H458      1.0  0.93550  0.65726  0.06003  1.0000
  C   C390      1.0  0.53138  0.73312  0.02936  1.0000
  H   H459      1.0  0.79466  0.51768  0.17998  1.0000
  H   H460      1.0  0.95346  0.66392  0.09518  1.0000
  C   C391      1.0  0.89771  0.56658  0.16046  1.0000
  C   C392      1.0  0.96082  0.58291  0.15723  1.0000
  C   C393      1.0  0.93265  0.56493  0.17138  1.0000
  C   C394      1.0  0.95866  0.62018  0.00514  1.0000
  C   C395      1.0  0.80465  0.51670  0.15809  1.0000
  H   H461      1.0  0.78391  0.52059  0.04486  1.0000
  C   C396      1.0  0.53306  0.73670  0.99898  1.0000
  H   H462      1.0  0.98802  0.58133  0.16574  1.0000
  C   C397      1.0  0.99185  0.63872  0.00509  1.0000
  H   H463      1.0  0.51850  0.94089  0.25611  1.0000
  H   H464      1.0  0.59516  0.69758  0.00966  1.0000
  H   H465      1.0  0.60522  0.74490  0.01731  1.0000
  H   H466      1.0  0.58803  0.95844  0.31233  1.0000
  C   C398      1.0  0.51829  0.84031  0.24797  1.0000
  H   H467      1.0  0.55065  0.91095  0.27157  1.0000
  C   C399      1.0  0.82988  0.51455  0.10103  1.0000
  H   H468      1.0  0.71892  0.51871  0.03917  1.0000
  H   H469      1.0  0.55523  0.72984  0.04232  1.0000
  H   H470      1.0  0.56418  0.95619  0.26170  1.0000
  C   C400      1.0  0.50967  0.83322  0.02480  1.0000
  H   H471      1.0  0.57650  0.79330  0.98937  1.0000
  H   H472      1.0  0.56892  0.91487  0.31974  1.0000
  S   S104      1.0  0.92023  0.64208  0.99102  1.0000
  C   C401      1.0  0.56274  0.94457  0.31950  1.0000
  Fe  Fe51      1.0  0.78399  0.64606  0.99194  1.0000
  H   H473      1.0  0.99355  0.66579  0.99599  1.0000
  C   C402      1.0  0.50824  0.83807  0.99484  1.0000
  Fe  Fe52      1.0  0.59355  0.88291  0.39694  1.0000
  S   S105      1.0  0.53733  0.87620  0.38005  1.0000
  S   S106      1.0  0.60598  0.93901  0.41460  1.0000
  Fe  Fe53      1.0  0.60990  0.80033  0.39481  1.0000
  S   S107      1.0  0.55406  0.78878  0.37738  1.0000
  S   S108      1.0  0.64295  0.74768  0.40134  1.0000
  Fe  Fe54      1.0  0.56205  0.83714  0.34839  1.0000
  Fe  Fe55      1.0  0.53433  0.82884  0.41049  1.0000
  C   C403      1.0  0.78702  0.72262  0.39879  1.0000
  S   S109      1.0  0.61941  0.84665  0.36354  1.0000
  S   S110      1.0  0.58899  0.83760  0.42951  1.0000
  Fe  Fe56      1.0  0.79673  0.63256  0.48927  1.0000
  S   S111      1.0  0.77227  0.58152  0.50834  1.0000
  S   S112      1.0  0.76944  0.68823  0.48234  1.0000
  Fe  Fe57      1.0  0.80515  0.55258  0.47396  1.0000
  H   H474      1.0  0.85123  0.56180  0.64300  1.0000
  S   S113      1.0  0.82646  0.60345  0.45374  1.0000
  H   H475      1.0  0.79866  0.56938  0.35380  1.0000
  C   C404      1.0  0.79329  0.54155  0.39444  1.0000
  H   H476      1.0  0.56263  0.94120  0.49368  1.0000
  H   H477      1.0  0.74813  0.66116  0.39362  1.0000
  C   C405      1.0  0.96992  0.63812  0.50265  1.0000
  H   H478      1.0  0.94455  0.65008  0.50963  1.0000
  H   H479      1.0  0.86710  0.53814  0.39717  1.0000
  H   H480      1.0  0.89551  0.52219  0.57282  1.0000
  H   H481      1.0  0.54274  0.82847  0.47854  1.0000
  C   C406      1.0  0.67663  0.73180  0.42559  1.0000
  C   C407      1.0  0.68388  0.69420  0.42691  1.0000
  C   C408      1.0  0.71091  0.68017  0.44513  1.0000
  C   C409      1.0  0.73186  0.70370  0.46174  1.0000
  C   C410      1.0  0.72418  0.74124  0.46080  1.0000
  C   C411      1.0  0.69665  0.75522  0.44299  1.0000
  H   H482      1.0  0.66848  0.67575  0.41367  1.0000
  H   H483      1.0  0.71599  0.65120  0.44588  1.0000
  H   H484      1.0  0.74008  0.75976  0.47361  1.0000
  H   H485      1.0  0.69156  0.78420  0.44224  1.0000
  N   N26       1.0  0.94509  0.55267  0.57747  1.0000
  C   C412      1.0  0.61143  0.97857  0.39333  1.0000
  C   C413      1.0  0.62701  0.97721  0.36589  1.0000
  C   C414      1.0  0.55086  0.73296  0.50098  1.0000
  H   H486      1.0  0.63546  0.95134  0.35702  1.0000
  Fe  Fe58      1.0  0.87289  0.59745  0.48426  1.0000
  S   S114      1.0  0.85339  0.54451  0.50238  1.0000
  S   S115      1.0  0.92980  0.59539  0.46548  1.0000
  Fe  Fe59      1.0  0.82301  0.57754  0.53523  1.0000
  S   S116      1.0  0.83334  0.56916  0.58341  1.0000
  S   S117      1.0  0.84559  0.63073  0.51837  1.0000
  H   H487      1.0  0.00276  0.67217  0.52983  1.0000
  C   C415      1.0  0.52277  0.97765  0.45536  1.0000
  N   N27       1.0  0.51120  0.94558  0.47255  1.0000
  C   C416      1.0  0.97002  0.61081  0.48176  1.0000
  C   C417      1.0  0.54426  0.92478  0.48000  1.0000
  H   H488      1.0  0.92530  0.51570  0.45830  1.0000
  C   C418      1.0  0.83807  0.68052  0.39511  1.0000
  H   H489      1.0  0.54312  0.83102  0.53176  1.0000
  H   H490      1.0  0.93872  0.54924  0.62370  1.0000
  H   H491      1.0  0.91964  0.65000  0.36818  1.0000
  H   H492      1.0  0.57466  0.74121  0.42949  1.0000
  H   H493      1.0  0.79882  0.66095  0.34557  1.0000
  H   H494      1.0  0.87801  0.54762  0.43351  1.0000
  C   C419      1.0  0.90978  0.66343  0.41235  1.0000
  C   C420      1.0  0.54357  0.73144  0.55345  1.0000
  H   H495      1.0  0.61022  0.69058  0.49127  1.0000
  C   C421      1.0  0.88449  0.67551  0.43249  1.0000
  H   H496      1.0  0.57247  0.67502  0.47055  1.0000
  H   H497      1.0  0.59437  0.72632  0.53202  1.0000
  C   C422      1.0  0.51762  0.82701  0.49033  1.0000
  H   H498      1.0  0.94984  0.59370  0.61013  1.0000
  C   C423      1.0  0.83367  0.53929  0.63774  1.0000
  H   H499      1.0  0.85866  0.66388  0.35268  1.0000
  C   C424      1.0  0.93434  0.56841  0.60561  1.0000
  C   C425      1.0  0.86459  0.66800  0.37507  1.0000
  H   H500      1.0  0.75864  0.72875  0.39231  1.0000
  H   H501      1.0  0.55548  0.73018  0.57462  1.0000
  H   H502      1.0  0.81150  0.70867  0.34497  1.0000
  H   H503      1.0  0.62362  0.75425  0.49549  1.0000
  H   H504      1.0  0.77864  0.65696  0.42310  1.0000
  H   H505      1.0  0.53800  0.89936  0.49185  1.0000
  H   H506      1.0  0.59135  0.78804  0.48474  1.0000
  C   C426      1.0  0.60345  0.76136  0.47883  1.0000
  C   C427      1.0  0.00074  0.52246  0.59749  1.0000
  H   H507      1.0  0.89206  0.67741  0.45491  1.0000
  C   C428      1.0  0.51256  0.73641  0.49909  1.0000
  C   C429      1.0  0.93276  0.57824  0.55481  1.0000
  C   C430      1.0  0.59288  0.69713  0.47256  1.0000
  C   C431      1.0  0.98470  0.54596  0.57696  1.0000
  H   H508      1.0  0.93868  0.56763  0.53288  1.0000
  H   H509      1.0  0.93692  0.65631  0.41916  1.0000
  C   C432      1.0  0.84917  0.68386  0.42412  1.0000
  C   C433      1.0  0.55578  0.74067  0.44822  1.0000
  C   C434      1.0  0.79626  0.54326  0.36434  1.0000
  H   H510      1.0  0.55680  0.95228  0.34216  1.0000
  H   H511      1.0  0.79320  0.56623  0.40691  1.0000
  C   C435      1.0  0.51772  0.82875  0.52048  1.0000
  H   H512      1.0  0.64584  0.00851  0.32943  1.0000
  H   H513      1.0  0.90862  0.56104  0.40537  1.0000
  H   H514      1.0  0.61933  0.76545  0.45871  1.0000
  H   H515      1.0  0.61078  0.69612  0.45318  1.0000
  C   C436      1.0  0.56559  0.72964  0.52893  1.0000
  N   N28       1.0  0.79987  0.68722  0.38711  1.0000
  H   H516      1.0  0.94546  0.60550  0.55717  1.0000
  H   H517      1.0  0.83031  0.69157  0.44092  1.0000
  H   H518      1.0  0.90293  0.58278  0.55587  1.0000
  H   H519      1.0  0.53540  0.71936  0.44331  1.0000
  N   N29       1.0  0.57505  0.73310  0.47547  1.0000
  C   C437      1.0  0.79389  0.68803  0.35560  1.0000
  H   H520      1.0  0.76533  0.69513  0.35035  1.0000
  H   H521      1.0  0.80459  0.74539  0.39140  1.0000
  C   C438      1.0  0.79634  0.51135  0.34778  1.0000
  C   C439      1.0  0.89989  0.65975  0.38371  1.0000
  C   C440      1.0  0.77718  0.65773  0.39928  1.0000
  H   H522      1.0  0.53735  0.96933  0.43536  1.0000
  H   H523      1.0  0.78611  0.63060  0.39132  1.0000
  C   C441      1.0  0.82032  0.53602  0.60960  1.0000
  C   C442      1.0  0.92541  0.51790  0.57340  1.0000
  H   H524      1.0  0.90499  0.57552  0.60628  1.0000
  H   H525      1.0  0.55984  0.91655  0.46049  1.0000
  H   H526      1.0  0.54201  0.76760  0.44884  1.0000
  H   H527      1.0  0.78639  0.72320  0.42261  1.0000
  H   H528      1.0  0.95673  0.52982  0.43147  1.0000
  H   H529      1.0  0.54199  0.99514  0.46741  1.0000
  C   C443      1.0  0.88984  0.53909  0.41253  1.0000
  H   H530      1.0  0.00358  0.57512  0.45621  1.0000
  C   C444      1.0  0.00292  0.65072  0.51395  1.0000
  H   H531      1.0  0.99897  0.58064  0.54013  1.0000
  C   C445      1.0  0.00318  0.59598  0.47256  1.0000
  Fe  Fe60      1.0  0.58083  0.88670  0.88759  1.0000
  H   H532      1.0  0.90199  0.52652  0.93702  1.0000
  S   S118      1.0  0.60990  0.94124  0.88691  1.0000
  Fe  Fe61      1.0  0.59218  0.80426  0.89729  1.0000
  S   S119      1.0  0.53410  0.79306  0.88580  1.0000
  S   S120      1.0  0.62394  0.75117  0.90388  1.0000
  Fe  Fe62      1.0  0.54125  0.83249  0.84923  1.0000
  S   S121      1.0  0.53133  0.81784  0.80216  1.0000
  C   C446      1.0  0.82203  0.52329  0.85224  1.0000
  H   H533      1.0  0.75115  0.60169  0.82475  1.0000
  S   S122      1.0  0.60019  0.84103  0.85914  1.0000
  S   S123      1.0  0.57805  0.85081  0.92698  1.0000
  H   H534      1.0  0.55794  0.95775  0.72954  1.0000
  Fe  Fe63      1.0  0.52065  0.84173  0.91308  1.0000
  H   H535      1.0  0.65056  0.72852  0.84170  1.0000
  Fe  Fe64      1.0  0.80577  0.56877  0.97590  1.0000
  H   H536      1.0  0.64602  0.66586  0.82273  1.0000
  S   S124      1.0  0.82388  0.62342  0.95981  1.0000
  C   C447      1.0  0.56488  0.97694  0.74614  1.0000
  C   C448      1.0  0.82879  0.54765  0.90067  1.0000
  H   H537      1.0  0.84059  0.56732  0.91504  1.0000
  H   H538      1.0  0.85561  0.56917  0.86299  1.0000
  H   H539      1.0  0.80359  0.62111  0.88932  1.0000
  H   H540      1.0  0.75717  0.57668  0.88696  1.0000
  H   H541      1.0  0.62663  0.92393  0.78916  1.0000
  H   H542      1.0  0.69264  0.62071  0.83343  1.0000
  H   H543      1.0  0.70257  0.74617  0.87133  1.0000
  C   C449      1.0  0.83737  0.54856  0.87120  1.0000
  C   C450      1.0  0.56559  0.90138  0.76064  1.0000
  C   C451      1.0  0.77068  0.61610  0.83876  1.0000
  C   C452      1.0  0.00443  0.55527  0.93552  1.0000
  H   H544      1.0  0.55319  0.78269  0.95678  1.0000
  H   H545      1.0  0.71675  0.58330  0.86728  1.0000
  C   C453      1.0  0.56501  0.71065  0.95802  1.0000
  C   C454      1.0  0.65951  0.73735  0.92706  1.0000
  C   C455      1.0  0.67027  0.70057  0.92707  1.0000
  C   C456      1.0  0.69866  0.68826  0.94473  1.0000
  C   C457      1.0  0.71636  0.71261  0.96290  1.0000
  C   C458      1.0  0.70520  0.74926  0.96320  1.0000
  C   C459      1.0  0.67707  0.76163  0.94534  1.0000
  H   H546      1.0  0.65686  0.68153  0.91301  1.0000
  H   H547      1.0  0.70676  0.65999  0.94436  1.0000
  C   C460      1.0  0.80473  0.52146  0.91136  1.0000
  H   H548      1.0  0.66927  0.79001  0.94555  1.0000
  C   C461      1.0  0.55044  0.98370  0.87338  1.0000
  C   C462      1.0  0.58758  0.98257  0.87886  1.0000
  H   H549      1.0  0.78224  0.63915  0.82619  1.0000
  H   H550      1.0  0.53443  0.95925  0.87530  1.0000
  H   H551      1.0  0.53372  0.89509  0.81133  1.0000
  H   H552      1.0  0.54693  0.72090  0.94083  1.0000
  C   C463      1.0  0.57113  0.96612  0.77502  1.0000
  S   S125      1.0  0.52253  0.88046  0.87541  1.0000
  N   N30       1.0  0.56870  0.92778  0.78467  1.0000
  H   H553      1.0  0.53760  0.94126  0.82266  1.0000
  C   C464      1.0  0.78327  0.64267  0.88466  1.0000
  C   C465      1.0  0.93980  0.57086  0.93916  1.0000
  C   C466      1.0  0.73679  0.59762  0.88087  1.0000
  H   H554      1.0  0.58290  0.98823  0.81740  1.0000
  C   C467      1.0  0.72601  0.65680  0.85942  1.0000
  C   C468      1.0  0.69584  0.64777  0.84209  1.0000
  C   C469      1.0  0.72794  0.69326  0.86958  1.0000
  C   C470      1.0  0.66909  0.67342  0.83568  1.0000
  C   C471      1.0  0.70120  0.71874  0.86277  1.0000
  C   C472      1.0  0.67172  0.70880  0.84610  1.0000
  H   H555      1.0  0.60075  0.77458  0.95933  1.0000
  H   H556      1.0  0.79836  0.66545  0.87434  1.0000
  H   H557      1.0  0.77250  0.65200  0.90585  1.0000
  H   H558      1.0  0.53286  0.84187  0.98256  1.0000
  H   H559      1.0  0.60279  0.93176  0.82243  1.0000
  H   H560      1.0  0.98144  0.61004  0.94165  1.0000
  H   H561      1.0  0.79296  0.59637  0.84265  1.0000
  C   C473      1.0  0.57481  0.77326  0.97154  1.0000
  C   C474      1.0  0.93031  0.53439  0.93640  1.0000
  H   H562      1.0  0.53946  0.90426  0.74907  1.0000
  N   N31       1.0  0.56761  0.73620  0.98263  1.0000
  C   C475      1.0  0.82407  0.51402  0.65938  1.0000
  C   C476      1.0  0.60136  0.91764  0.80134  1.0000
  N   N32       1.0  0.75384  0.62901  0.86595  1.0000
  S   S126      1.0  0.79162  0.52078  0.94788  1.0000
  H   H563      1.0  0.74937  0.70279  0.88328  1.0000
  H   H564      1.0  0.94233  0.53028  0.83765  1.0000
  H   H565      1.0  0.55494  0.68356  0.96510  1.0000
  C   C477      1.0  0.53638  0.92353  0.80338  1.0000
  S   S127      1.0  0.75213  0.69892  0.98590  1.0000
  H   H566      1.0  0.58849  0.90417  0.74513  1.0000
  H   H567      1.0  0.72263  0.60649  0.90088  1.0000
  H   H568      1.0  0.60175  0.88808  0.80663  1.0000
  H   H569      1.0  0.56612  0.87272  0.76842  1.0000
  H   H570      1.0  0.51108  0.93027  0.79169  1.0000
  H   H571      1.0  0.71872  0.76833  0.97718  1.0000
  C   C478      1.0  0.97622  0.58135  0.93883  1.0000
  H   H572      1.0  0.91880  0.59125  0.94209  1.0000
  H   H573      1.0  0.52440  0.80349  0.74206  1.0000
  S   S128      1.0  0.83130  0.52686  0.81511  1.0000
  H   H574      1.0  0.59167  0.70637  0.94725  1.0000
  H   H575      1.0  0.83433  0.51718  0.68091  1.0000
  C   C479      1.0  0.57880  0.99418  0.79497  1.0000
  C   C480      1.0  0.99380  0.51831  0.93274  1.0000
  H   H576      1.0  0.62459  0.72350  0.98673  1.0000
