data_image0
_chemical_formula_structural       H2SFeS2C2SH2S2H2SHCFeSC3H3C8H5CHC3H2C8H5CFeCH4CH3CH3CH2NSCHSNH2NFe2HC3HSCHFeH2SC2HNC4H2CHC2H3CH2CHSH4CH2CH2CH2CH4CH2C5HC2H2SFeCSHC2HCSHNHSH2FeSC2HNHCSHC6H5CH2CH3CHC6H4C2HCH7SH3C3SHC2H2C2HCHCH6CH3N2C2NH2C3HCHC3H2CHFeH2C2H2C3HCSC5HCH6CSCFeHCH2CHCH3CHCH4S2CSFeHFeS3FeHFeS2FeSHSFeS2FeSFeHFeHFeS2CSHSC2H2C6H4C6H4CHCHSHC6H4C6H6FeCH2CHSCNHCSC2H3NC2FeH2CH2C2NC9H13FeC2NCSH2SH2C3H5C2HC2H5CH3CHSHC2SCSH6C3H3C3FeC3NC9H13CNC4HSH4CHCH2CH3C2S2CH2C2SHCSFeSFeS3FeHFeS2FeSHSFeS2FeSFeCFeSFeS2CHS2C10H4C6H4SCHC2HC6H4C6H3C2H2CH2NCH2C2H2CHSHCH2CHCHC2HFe2HSNC6H12CH3C2HC2H2C2HCNCHC2HSHCHCHSCH3C2HCHN2H2CHNHC2HCH2C2HCSH2CHSCHCHC2H10CHCH4CH3C4H2SFeH5NH2CFeH2CH3FeS2FeSHFeSFeS3HC2FeSHSHFeS2H2SCHFeSCSFeS2FeSCHSHC6H4C6H4C6H4C4HCFe2CHC6H4CHC5H3C6H3CH4NC2H2SH4CHSCHC2H2SCH2NHFeSH2CN2FeHCHC2H3C3H2C2H3SFeCH9CH2CH3CSH4C2HC4HNH2CHC3H10C2HSHC3HSCSHC2HCH3FeH2CH2CHCH2C2HCH2CSCFeS2FeSCFeHFeS3FeHSFeSCSHFeS2H2SHSFeSFeSFeS2FeSH2SC7H4C6H4C6H4SC2H4SHC7H4C6H4C6H5C2NH3NC2H2CHSCHCH3C4HSC2H3CHC2HNC9H15CHCHSHSHSC2HCHNH2C2H8CHNH5C2H4CH2CHCH3SHC3H2FeH2CSC2H3CS2CS2FeS2FeCFeSHS2FeS2Fe2S2CHSCFeS2FeS2HSCFeS2FeSFeSCSC6H4C6H4C6H3CFeC2H4CHFeC6H4C6H4C6H5NC8H15NC9H13CHSNCH2C2HC2HCHC2NC2H3FeHC4H5C2NH2NHCHC3HCH2FeHCH3CH2CHCH3NCHCSCSH5CH2SCH2CHCH6CH3C2H2CFeHC2HCNH2S2CH3C2HC4HCHCHSCS2FeS2FeSFeSHS2FeS2Fe2S2CHS2FeS2FeS2FeSHFeS2FeHFeSCSC6H4C6H2CHC6H4CHC2HCH4C6H4C6H4C6H4CH4NCNHCHC3HNC6HC2H9CHCHCNHC3HC3HCHC2FeH2CH4SH2CHCFeNC6H18CH3CH5CHCH2CHCHCSHC2H2CNCHCHCHSCH3CH2CSHCHC2HC2HCH2FeHC2H3CHCH2NFeCHSCH2NCHCHFeHSHCHCH2C2HSH2C2FeS2FeS2CHCHS2FeHFeS2FeS2CFeSH2SC2HCH4C8H4C6H3C7H4C7H3C2HCSH4CSFeHCHCSCH4CH7NH2CFeHNH3CHCFeH2CHSCSC3NH2CHFeNC2HC3HC2SH3FeCH3C3H3CH2CHCSCHCHC2H5CHCHSNCFeCHC4H2C2HCNH2C2H4NH4CH3C2H5CSH2CSHSH3CFeS2FeS2HCHFeSHFeHFeS2FeS2HFeSHCSH3C5H2C6H4C5NH4C6H4C6H7CSCSH3C2H3CSCHCH3C2HC3H2FeSH3NHC4SNH2CH2C2FeCH3FeHSFeSNH2C2HSHC2HC5H3FeH2S2HCHC2HCH2CHCH4FeH2C2HSCHCSH2SHCHFeSHC2H2CHC2SCH2C3S2HNHSC2SH4C6H6SC7HCH3NCH2FeC2HC3H4CFeH2CHCH2CSH5C3H3CHC3H12CH4C2HS2H2SHCS2H3C6H8C6H4CHCHC3HC2HCH4NH3SFeCHCH2CHC4H3NCH3FeH2C3HCH2CHC3HSHNH2CHCH
_chemical_formula_sum              "H1152 S256 Fe128 C960 N64"
_cell_length_a       55.4029
_cell_length_b       55.4426
_cell_length_c       39.4403
_cell_angle_alpha    90.2457
_cell_angle_beta     90.2335
_cell_angle_gamma    88.7558

_space_group_name_H-M_alt    "P 1"
_space_group_IT_number       1

loop_
  _space_group_symop_operation_xyz
  'x, y, z'

loop_
  _atom_site_type_symbol
  _atom_site_label
  _atom_site_symmetry_multiplicity
  _atom_site_fract_x
  _atom_site_fract_y
  _atom_site_fract_z
  _atom_site_occupancy
  H   H1        1.0  0.00048  0.15767  0.40452  1.0000
  H   H2        1.0  0.06825  0.40002  0.22352  1.0000
  S   S1        1.0  0.08701  0.02123  0.17287  1.0000
  Fe  Fe1       1.0  0.00427  0.08179  0.02697  1.0000
  S   S2        1.0  0.98739  0.11242  0.05670  1.0000
  S   S3        1.0  0.03485  0.05439  0.03622  1.0000
  C   C1        1.0  0.99487  0.36661  0.27210  1.0000
  C   C2        1.0  0.99413  0.44065  0.22614  1.0000
  S   S4        1.0  0.12673  0.98061  0.23066  1.0000
  H   H3        1.0  0.02359  0.00738  0.13973  1.0000
  H   H4        1.0  0.04388  0.42410  0.29174  1.0000
  S   S5        1.0  0.11730  0.43057  0.31383  1.0000
  S   S6        1.0  0.98304  0.34350  0.38377  1.0000
  H   H5        1.0  0.30052  0.05752  0.32567  1.0000
  H   H6        1.0  0.22392  0.04558  0.27848  1.0000
  S   S7        1.0  0.00569  0.35475  0.45829  1.0000
  H   H7        1.0  0.26614  0.05363  0.28940  1.0000
  C   C3        1.0  0.24159  0.98973  0.30439  1.0000
  Fe  Fe2       1.0  0.99965  0.37546  0.40995  1.0000
  S   S8        1.0  0.01917  0.40855  0.39055  1.0000
  C   C4        1.0  0.02686  0.01251  0.21611  1.0000
  C   C5        1.0  0.99179  0.01913  0.09270  1.0000
  C   C6        1.0  0.99595  0.01966  0.47921  1.0000
  H   H8        1.0  0.07694  0.41049  0.26502  1.0000
  H   H9        1.0  0.02016  0.36386  0.23111  1.0000
  H   H10       1.0  0.09582  0.41616  0.23018  1.0000
  C   C7        1.0  0.26606  0.99375  0.31041  1.0000
  C   C8        1.0  0.26016  0.03559  0.29426  1.0000
  C   C9        1.0  0.09056  0.42448  0.33656  1.0000
  C   C10       1.0  0.07553  0.44311  0.34877  1.0000
  C   C11       1.0  0.05380  0.43775  0.36517  1.0000
  C   C12       1.0  0.04699  0.41374  0.37010  1.0000
  C   C13       1.0  0.06206  0.39504  0.35814  1.0000
  C   C14       1.0  0.08373  0.40043  0.34133  1.0000
  H   H11       1.0  0.08060  0.46168  0.34555  1.0000
  H   H12       1.0  0.04222  0.45235  0.37411  1.0000
  H   H13       1.0  0.05704  0.37649  0.36176  1.0000
  H   H14       1.0  0.09529  0.38589  0.33204  1.0000
  H   H15       1.0  0.02176  0.44877  0.19141  1.0000
  C   C15       1.0  0.03049  0.42854  0.27258  1.0000
  H   H16       1.0  0.99211  0.03007  0.22226  1.0000
  C   C16       1.0  0.03736  0.43613  0.23969  1.0000
  C   C17       1.0  0.00669  0.23639  0.45707  1.0000
  C   C18       1.0  0.99134  0.99266  0.23676  1.0000
  H   H17       1.0  0.01558  0.16141  0.12316  1.0000
  H   H18       1.0  0.00280  0.01936  0.06913  1.0000
  C   C19       1.0  0.01855  0.99218  0.12272  1.0000
  C   C20       1.0  0.98559  0.99832  0.46612  1.0000
  C   C21       1.0  0.07243  0.03002  0.13476  1.0000
  C   C22       1.0  0.07687  0.01795  0.10418  1.0000
  C   C23       1.0  0.06523  0.02576  0.07426  1.0000
  C   C24       1.0  0.04888  0.04551  0.07469  1.0000
  C   C25       1.0  0.04406  0.05732  0.10539  1.0000
  C   C26       1.0  0.05590  0.04965  0.13527  1.0000
  H   H19       1.0  0.08963  0.00289  0.10346  1.0000
  H   H20       1.0  0.06913  0.01658  0.05058  1.0000
  H   H21       1.0  0.03159  0.07260  0.10599  1.0000
  H   H22       1.0  0.05249  0.05916  0.15883  1.0000
  H   H23       1.0  0.30100  0.45710  0.31600  1.0000
  C   C27       1.0  0.00248  0.01332  0.22471  1.0000
  Fe  Fe3       1.0  0.11007  0.98695  0.17921  1.0000
  C   C28       1.0  0.27615  0.01682  0.30553  1.0000
  H   H24       1.0  0.31200  0.98631  0.28575  1.0000
  H   H25       1.0  0.05920  0.99057  0.21349  1.0000
  H   H26       1.0  0.03568  0.02854  0.20710  1.0000
  H   H27       1.0  0.02640  0.43444  0.45528  1.0000
  C   C29       1.0  0.07646  0.41521  0.23763  1.0000
  H   H28       1.0  0.30013  0.02127  0.36448  1.0000
  H   H29       1.0  0.26232  0.45199  0.20553  1.0000
  H   H30       1.0  0.01063  0.22204  0.02023  1.0000
  C   C30       1.0  0.98918  0.13699  0.14176  1.0000
  H   H31       1.0  0.00849  0.36392  0.29166  1.0000
  H   H32       1.0  0.99436  0.43370  0.45706  1.0000
  H   H33       1.0  0.03200  0.99182  0.10181  1.0000
  C   C31       1.0  0.98807  0.43293  0.25852  1.0000
  H   H34       1.0  0.22410  0.46531  0.23350  1.0000
  H   H35       1.0  0.04836  0.46747  0.47722  1.0000
  N   N1        1.0  0.00940  0.46701  0.47531  1.0000
  S   S9        1.0  0.00221  0.11815  0.48982  1.0000
  C   C32       1.0  0.26084  0.46996  0.21623  1.0000
  H   H36       1.0  0.07272  0.45316  0.27985  1.0000
  S   S10       1.0  0.99644  0.17288  0.01128  1.0000
  N   N2        1.0  0.30243  0.02019  0.31003  1.0000
  H   H37       1.0  0.02341  0.23754  0.44314  1.0000
  H   H38       1.0  0.01254  0.19865  0.46971  1.0000
  N   N3        1.0  0.06322  0.43831  0.23102  1.0000
  Fe  Fe4       1.0  0.98568  0.32380  0.43427  1.0000
  Fe  Fe5       1.0  0.98507  0.13318  0.00737  1.0000
  H   H39       1.0  0.05980  0.46315  0.18904  1.0000
  C   C33       1.0  0.01054  0.44037  0.47077  1.0000
  C   C34       1.0  0.00622  0.42698  0.28176  1.0000
  C   C35       1.0  0.00050  0.21418  0.47201  1.0000
  H   H40       1.0  0.06472  0.47509  0.24817  1.0000
  S   S11       1.0  0.00069  0.28474  0.44058  1.0000
  C   C36       1.0  0.23574  0.03127  0.28798  1.0000
  H   H41       1.0  0.09338  0.45946  0.24680  1.0000
  Fe  Fe6       1.0  0.12874  0.46873  0.30107  1.0000
  H   H42       1.0  0.06003  0.43138  0.17726  1.0000
  H   H43       1.0  0.08719  0.44621  0.18955  1.0000
  S   S12       1.0  0.30781  0.47452  0.19418  1.0000
  C   C37       1.0  0.06752  0.44492  0.19508  1.0000
  C   C38       1.0  0.04010  0.99103  0.21951  1.0000
  H   H44       1.0  0.99842  0.03379  0.10948  1.0000
  N   N4        1.0  0.99353  0.99518  0.10939  1.0000
  C   C39       1.0  0.07386  0.45729  0.25243  1.0000
  C   C40       1.0  0.99157  0.25710  0.45998  1.0000
  C   C41       1.0  0.00138  0.36667  0.23801  1.0000
  C   C42       1.0  0.01837  0.44232  0.21670  1.0000
  H   H45       1.0  0.24515  0.99650  0.21168  1.0000
  H   H46       1.0  0.00151  0.42125  0.30718  1.0000
  C   C43       1.0  0.22651  0.00838  0.29286  1.0000
  H   H47       1.0  0.99287  0.18755  0.36657  1.0000
  C   C44       1.0  0.98865  0.47563  0.49603  1.0000
  C   C45       1.0  0.30715  0.46896  0.29522  1.0000
  H   H48       1.0  0.20780  0.00484  0.28665  1.0000
  H   H49       1.0  0.31001  0.01172  0.25787  1.0000
  H   H50       1.0  0.99418  0.23121  0.35894  1.0000
  C   C46       1.0  0.30993  0.04567  0.30686  1.0000
  H   H51       1.0  0.98294  0.03097  0.41362  1.0000
  H   H52       1.0  0.30656  0.05278  0.28088  1.0000
  C   C47       1.0  0.98378  0.37011  0.21281  1.0000
  H   H53       1.0  0.01218  0.43081  0.49547  1.0000
  S   S13       1.0  0.14475  0.47511  0.24943  1.0000
  H   H54       1.0  0.00219  0.12641  0.15634  1.0000
  H   H55       1.0  0.99566  0.00241  0.40033  1.0000
  H   H56       1.0  0.97989  0.44573  0.20844  1.0000
  H   H57       1.0  0.30791  0.99204  0.34753  1.0000
  C   C48       1.0  0.03233  0.47431  0.49159  1.0000
  H   H58       1.0  0.00118  0.46160  0.00102  1.0000
  H   H59       1.0  0.98966  0.36956  0.18672  1.0000
  C   C49       1.0  0.98007  0.17012  0.10361  1.0000
  H   H60       1.0  0.30924  0.45737  0.27213  1.0000
  H   H61       1.0  0.98757  0.16259  0.44565  1.0000
  C   C50       1.0  0.98470  0.15365  0.42061  1.0000
  H   H62       1.0  0.98526  0.13377  0.42461  1.0000
  H   H63       1.0  0.99139  0.03720  0.46869  1.0000
  C   C51       1.0  0.99666  0.15677  0.12320  1.0000
  H   H64       1.0  0.02264  0.47102  0.42429  1.0000
  H   H65       1.0  0.28560  0.98135  0.23022  1.0000
  H   H66       1.0  0.98217  0.00819  0.15857  1.0000
  H   H67       1.0  0.06621  0.98315  0.49350  1.0000
  C   C52       1.0  0.31034  0.01169  0.34406  1.0000
  H   H68       1.0  0.99043  0.47378  0.42851  1.0000
  H   H69       1.0  0.98733  0.18456  0.08875  1.0000
  C   C53       1.0  0.99708  0.22201  0.00040  1.0000
  C   C54       1.0  0.97909  0.21232  0.49051  1.0000
  C   C55       1.0  0.98005  0.22354  0.37420  1.0000
  C   C56       1.0  0.97923  0.19859  0.37898  1.0000
  C   C57       1.0  0.23905  0.47749  0.23207  1.0000
  H   H70       1.0  0.27720  0.97828  0.31740  1.0000
  C   C58       1.0  0.24711  0.97855  0.22211  1.0000
  C   C59       1.0  0.00790  0.47796  0.44107  1.0000
  H   H71       1.0  0.11644  0.05015  0.64382  1.0000
  H   H72       1.0  0.18572  0.46479  0.87907  1.0000
  S   S14       1.0  0.08343  0.01222  0.66640  1.0000
  Fe  Fe7       1.0  0.00654  0.09641  0.53785  1.0000
  C   C60       1.0  0.01284  0.45658  0.98000  1.0000
  S   S15       1.0  0.04331  0.07739  0.54490  1.0000
  H   H73       1.0  0.00752  0.29569  0.84586  1.0000
  C   C61       1.0  0.27107  0.46296  0.81516  1.0000
  C   C62       1.0  0.13173  0.06199  0.65056  1.0000
  H   H74       1.0  0.17112  0.44226  0.83226  1.0000
  C   C63       1.0  0.16127  0.01312  0.57741  1.0000
  S   S16       1.0  0.11510  0.43467  0.85930  1.0000
  H   H75       1.0  0.13833  0.04403  0.71134  1.0000
  N   N5        1.0  0.99678  0.00407  0.95285  1.0000
  H   H76       1.0  0.16204  0.02262  0.70188  1.0000
  S   S17       1.0  0.00054  0.33528  0.95666  1.0000
  H   H77       1.0  0.13563  0.07376  0.62854  1.0000
  H   H78       1.0  0.02896  0.27533  0.52676  1.0000
  Fe  Fe8       1.0  0.00006  0.35306  0.90513  1.0000
  S   S18       1.0  0.03005  0.35932  0.86689  1.0000
  C   C64       1.0  0.15187  0.02905  0.60188  1.0000
  C   C65       1.0  0.99730  0.23248  0.56606  1.0000
  H   H79       1.0  0.13284  0.01944  0.68301  1.0000
  N   N6        1.0  0.15341  0.04761  0.66117  1.0000
  H   H80       1.0  0.02757  0.02724  0.95755  1.0000
  C   C66       1.0  0.98681  0.20001  0.99051  1.0000
  S   S19       1.0  0.98538  0.12442  0.56828  1.0000
  H   H81       1.0  0.00022  0.38181  0.76163  1.0000
  C   C67       1.0  0.08958  0.41586  0.86229  1.0000
  C   C68       1.0  0.07168  0.41519  0.83716  1.0000
  C   C69       1.0  0.05265  0.39872  0.83968  1.0000
  C   C70       1.0  0.05084  0.38334  0.86783  1.0000
  C   C71       1.0  0.06827  0.38471  0.89352  1.0000
  C   C72       1.0  0.08761  0.40068  0.89058  1.0000
  H   H82       1.0  0.07297  0.42668  0.81517  1.0000
  H   H83       1.0  0.03961  0.39748  0.81928  1.0000
  H   H84       1.0  0.06752  0.37261  0.91491  1.0000
  H   H85       1.0  0.10136  0.40095  0.91012  1.0000
  H   H86       1.0  0.99942  0.04296  0.95366  1.0000
  C   C73       1.0  0.18935  0.44142  0.82035  1.0000
  H   H87       1.0  0.13559  0.03895  0.59501  1.0000
  H   H88       1.0  0.12487  0.07391  0.67133  1.0000
  C   C74       1.0  0.18426  0.01717  0.64018  1.0000
  H   H89       1.0  0.99611  0.27223  0.87112  1.0000
  H   H90       1.0  0.19356  0.01764  0.66433  1.0000
  H   H91       1.0  0.19039  0.42415  0.80604  1.0000
  C   C75       1.0  0.16314  0.03152  0.63417  1.0000
  H   H92       1.0  0.98695  0.36177  0.81399  1.0000
  C   C76       1.0  0.07072  0.02764  0.63092  1.0000
  C   C77       1.0  0.08103  0.02623  0.59861  1.0000
  C   C78       1.0  0.07207  0.04119  0.57231  1.0000
  C   C79       1.0  0.05235  0.05722  0.57775  1.0000
  C   C80       1.0  0.04146  0.05786  0.60966  1.0000
  C   C81       1.0  0.05082  0.04340  0.63616  1.0000
  H   H93       1.0  0.09638  0.01426  0.59425  1.0000
  H   H94       1.0  0.08067  0.04064  0.54774  1.0000
  H   H95       1.0  0.02640  0.07017  0.61429  1.0000
  H   H96       1.0  0.04278  0.04470  0.66108  1.0000
  C   C82       1.0  0.26240  0.42411  0.79099  1.0000
  C   C83       1.0  0.19345  0.00128  0.61561  1.0000
  H   H97       1.0  0.01508  0.28536  0.92268  1.0000
  C   C84       1.0  0.05432  0.20529  0.90902  1.0000
  H   H98       1.0  0.01406  0.33930  0.52977  1.0000
  H   H99       1.0  0.00534  0.31808  0.60012  1.0000
  H   H100      1.0  0.19018  0.45625  0.80149  1.0000
  H   H101      1.0  0.05758  0.27950  0.83254  1.0000
  H   H102      1.0  0.15224  0.01129  0.55312  1.0000
  H   H103      1.0  0.17888  0.07519  0.65014  1.0000
  H   H104      1.0  0.02606  0.31126  0.90110  1.0000
  S   S20       1.0  0.13860  0.46569  0.77173  1.0000
  H   H105      1.0  0.20981  0.40508  0.85525  1.0000
  H   H106      1.0  0.01375  0.26473  0.83422  1.0000
  H   H107      1.0  0.06635  0.47024  0.87838  1.0000
  C   C85       1.0  0.09004  0.46827  0.93713  1.0000
  C   C86       1.0  0.04165  0.25254  0.88654  1.0000
  C   C87       1.0  0.05335  0.28970  0.85621  1.0000
  S   S21       1.0  0.19570  0.97827  0.71359  1.0000
  H   H108      1.0  0.22885  0.40882  0.80391  1.0000
  C   C88       1.0  0.22762  0.47437  0.74161  1.0000
  C   C89       1.0  0.07125  0.21909  0.89222  1.0000
  H   H109      1.0  0.02175  0.41108  0.92329  1.0000
  H   H110      1.0  0.99055  0.02065  0.90412  1.0000
  C   C90       1.0  0.99020  0.24400  0.98465  1.0000
  C   C91       1.0  0.06516  0.24242  0.88115  1.0000
  H   H111      1.0  0.01954  0.03559  0.51634  1.0000
  C   C92       1.0  0.17212  0.06478  0.67211  1.0000
  H   H112      1.0  0.07921  0.25218  0.86869  1.0000
  C   C93       1.0  0.98177  0.37585  0.76362  1.0000
  H   H113      1.0  0.09148  0.45122  0.92225  1.0000
  H   H114      1.0  0.18794  0.05552  0.68419  1.0000
  H   H115      1.0  0.98667  0.06879  0.68829  1.0000
  H   H116      1.0  0.03224  0.31543  0.54771  1.0000
  H   H117      1.0  0.04660  0.29195  0.92430  1.0000
  H   H118      1.0  0.23499  0.47569  0.62529  1.0000
  C   C94       1.0  0.18198  0.99925  0.58428  1.0000
  H   H119      1.0  0.21149  0.46390  0.73902  1.0000
  H   H120      1.0  0.99034  0.34266  0.57812  1.0000
  H   H121      1.0  0.98775  0.98867  0.90396  1.0000
  N   N7        1.0  0.20893  0.44355  0.84590  1.0000
  N   N8        1.0  0.99390  0.30949  0.54939  1.0000
  C   C95       1.0  0.99563  0.28313  0.55535  1.0000
  C   C96       1.0  0.14647  0.03285  0.69067  1.0000
  N   N9        1.0  0.03470  0.27747  0.87652  1.0000
  H   H122      1.0  0.04724  0.30822  0.84849  1.0000
  H   H123      1.0  0.16501  0.07790  0.69126  1.0000
  C   C97       1.0  0.03041  0.29211  0.90749  1.0000
  C   C98       1.0  0.00846  0.98196  0.96685  1.0000
  C   C99       1.0  0.01212  0.27744  0.85604  1.0000
  H   H124      1.0  0.07024  0.29227  0.87104  1.0000
  C   C100      1.0  0.01552  0.24340  0.54783  1.0000
  H   H125      1.0  0.22305  0.42312  0.88802  1.0000
  C   C101      1.0  0.02492  0.23792  0.90363  1.0000
  C   C102      1.0  0.04665  0.46581  0.94228  1.0000
  C   C103      1.0  0.99055  0.32270  0.58194  1.0000
  H   H126      1.0  0.00687  0.24448  0.90899  1.0000
  H   H127      1.0  0.24907  0.45090  0.70912  1.0000
  C   C104      1.0  0.00953  0.43466  0.96339  1.0000
  H   H128      1.0  0.02985  0.23232  0.53682  1.0000
  Fe  Fe9       1.0  0.12012  0.46592  0.82273  1.0000
  H   H129      1.0  0.21728  0.46801  0.88689  1.0000
  H   H130      1.0  0.01808  0.20405  0.92809  1.0000
  C   C105      1.0  0.24902  0.46699  0.72471  1.0000
  C   C106      1.0  0.20365  0.46557  0.86645  1.0000
  H   H131      1.0  0.99549  0.42268  0.97162  1.0000
  H   H132      1.0  0.03058  0.99680  0.54336  1.0000
  C   C107      1.0  0.01209  0.01898  0.50656  1.0000
  C   C108      1.0  0.02858  0.98250  0.98949  1.0000
  C   C109      1.0  0.02433  0.42814  0.93627  1.0000
  H   H133      1.0  0.23726  0.99764  0.74734  1.0000
  C   C110      1.0  0.24020  0.42418  0.80778  1.0000
  S   S22       1.0  0.00516  0.10359  0.97901  1.0000
  C   C111      1.0  0.24880  0.46338  0.83179  1.0000
  C   C112      1.0  0.04258  0.44343  0.92582  1.0000
  C   C113      1.0  0.01837  0.99711  0.52176  1.0000
  C   C114      1.0  0.03120  0.21471  0.91470  1.0000
  C   C115      1.0  0.99815  0.00365  0.91529  1.0000
  H   H134      1.0  0.01719  0.00160  0.90668  1.0000
  C   C116      1.0  0.20813  0.42255  0.86903  1.0000
  H   H135      1.0  0.08928  0.21169  0.88803  1.0000
  H   H136      1.0  0.29468  0.44373  0.78081  1.0000
  H   H137      1.0  0.05361  0.43750  0.90478  1.0000
  H   H138      1.0  0.09244  0.46352  0.96434  1.0000
  H   H139      1.0  0.20927  0.99011  0.62132  1.0000
  H   H140      1.0  0.26760  0.40921  0.77449  1.0000
  C   C117      1.0  0.00819  0.02657  0.96472  1.0000
  S   S23       1.0  0.29705  0.46976  0.70650  1.0000
  C   C118      1.0  0.01474  0.26831  0.54227  1.0000
  Fe  Fe10      1.0  0.10869  0.97919  0.67135  1.0000
  H   H141      1.0  0.00663  0.02857  0.99263  1.0000
  C   C119      1.0  0.27780  0.44347  0.79469  1.0000
  H   H142      1.0  0.01797  0.31186  0.50659  1.0000
  H   H143      1.0  0.05913  0.18731  0.91787  1.0000
  C   C120      1.0  0.23265  0.44387  0.82865  1.0000
  H   H144      1.0  0.99753  0.21303  0.56916  1.0000
  C   C121      1.0  0.01557  0.31932  0.53272  1.0000
  H   H145      1.0  0.19072  0.42212  0.88310  1.0000
  H   H146      1.0  0.18898  0.98663  0.56548  1.0000
  H   H147      1.0  0.03372  0.46731  0.51795  1.0000
  C   C122      1.0  0.03110  0.47201  0.96978  1.0000
  H   H148      1.0  0.99850  0.26064  0.99233  1.0000
  C   C123      1.0  0.24300  0.98071  0.73590  1.0000
  H   H149      1.0  0.27995  0.98349  0.75377  1.0000
  H   H150      1.0  0.03620  0.99913  0.99856  1.0000
  H   H151      1.0  0.00027  0.96009  0.30557  1.0000
  H   H152      1.0  0.07315  0.95407  0.44835  1.0000
  S   S24       1.0  0.05618  0.81690  0.45326  1.0000
  S   S25       1.0  0.14310  0.97296  0.15178  1.0000
  C   C124      1.0  0.27013  0.97005  0.23289  1.0000
  S   S26       1.0  0.01831  0.82731  0.38888  1.0000
  Fe  Fe11      1.0  0.01923  0.80494  0.43729  1.0000
  H   H153      1.0  0.98988  0.68424  0.07974  1.0000
  Fe  Fe12      1.0  0.05404  0.84121  0.40736  1.0000
  S   S27       1.0  0.08707  0.84704  0.37474  1.0000
  S   S28       1.0  0.00007  0.83467  0.46637  1.0000
  S   S29       1.0  0.03803  0.87267  0.43583  1.0000
  Fe  Fe13      1.0  0.15891  0.96390  0.20334  1.0000
  H   H154      1.0  0.03406  0.49426  0.49287  1.0000
  Fe  Fe14      1.0  0.12573  0.93669  0.15486  1.0000
  S   S30       1.0  0.09176  0.95141  0.17824  1.0000
  S   S31       1.0  0.12628  0.91013  0.11092  1.0000
  Fe  Fe15      1.0  0.11021  0.94394  0.22805  1.0000
  S   S32       1.0  0.08248  0.93177  0.26662  1.0000
  H   H155      1.0  0.03064  0.59526  0.42505  1.0000
  S   S33       1.0  0.14343  0.92646  0.20460  1.0000
  Fe  Fe16      1.0  0.11798  0.50619  0.24736  1.0000
  S   S34       1.0  0.14432  0.53245  0.26913  1.0000
  S   S35       1.0  0.09217  0.50641  0.20241  1.0000
  Fe  Fe17      1.0  0.12984  0.52192  0.32009  1.0000
  S   S36       1.0  0.12492  0.55051  0.36112  1.0000
  Fe  Fe18      1.0  0.00229  0.85799  0.42003  1.0000
  H   H156      1.0  0.06656  0.64791  0.44831  1.0000
  Fe  Fe19      1.0  0.01997  0.64593  0.02971  1.0000
  H   H157      1.0  0.04073  0.95443  0.23362  1.0000
  Fe  Fe20      1.0  0.04250  0.60464  0.07321  1.0000
  S   S37       1.0  0.01606  0.57729  0.05513  1.0000
  S   S38       1.0  0.06987  0.60082  0.11595  1.0000
  C   C125      1.0  0.01138  0.58430  0.16663  1.0000
  S   S39       1.0  0.03790  0.54408  0.46538  1.0000
  H   H158      1.0  0.07953  0.88721  0.47647  1.0000
  S   S40       1.0  0.01396  0.63298  0.08292  1.0000
  C   C126      1.0  0.25659  0.51609  0.24393  1.0000
  C   C127      1.0  0.27829  0.50864  0.22782  1.0000
  H   H159      1.0  0.25500  0.53418  0.25413  1.0000
  H   H160      1.0  0.29306  0.52097  0.22575  1.0000
  C   C128      1.0  0.10106  0.54812  0.39057  1.0000
  C   C129      1.0  0.08385  0.53016  0.38745  1.0000
  C   C130      1.0  0.06474  0.52904  0.41075  1.0000
  C   C131      1.0  0.06272  0.54576  0.43748  1.0000
  C   C132      1.0  0.08014  0.56351  0.44100  1.0000
  C   C133      1.0  0.09914  0.56477  0.41747  1.0000
  H   H161      1.0  0.08518  0.51715  0.36701  1.0000
  H   H162      1.0  0.05143  0.51517  0.40792  1.0000
  H   H163      1.0  0.07894  0.57625  0.46178  1.0000
  H   H164      1.0  0.11247  0.57862  0.42021  1.0000
  C   C134      1.0  0.08691  0.53255  0.17777  1.0000
  C   C135      1.0  0.09693  0.55460  0.18668  1.0000
  C   C136      1.0  0.09183  0.57525  0.16709  1.0000
  C   C137      1.0  0.07674  0.57402  0.13846  1.0000
  C   C138      1.0  0.06678  0.55191  0.12943  1.0000
  C   C139      1.0  0.07178  0.53127  0.14915  1.0000
  H   H165      1.0  0.10860  0.55578  0.20865  1.0000
  H   H166      1.0  0.09960  0.59229  0.17418  1.0000
  H   H167      1.0  0.05528  0.55077  0.10730  1.0000
  H   H168      1.0  0.06398  0.51425  0.14212  1.0000
  C   C140      1.0  0.99506  0.50856  0.22704  1.0000
  H   H169      1.0  0.00556  0.92154  0.05137  1.0000
  C   C141      1.0  0.12839  0.91243  0.44061  1.0000
  H   H170      1.0  0.29843  0.57419  0.34906  1.0000
  S   S41       1.0  0.03204  0.87692  0.03312  1.0000
  H   H171      1.0  0.05531  0.96190  0.01777  1.0000
  C   C142      1.0  0.08455  0.90790  0.29614  1.0000
  C   C143      1.0  0.10498  0.89273  0.29876  1.0000
  C   C144      1.0  0.10551  0.87389  0.32268  1.0000
  C   C145      1.0  0.08562  0.87003  0.34386  1.0000
  C   C146      1.0  0.06521  0.88514  0.34105  1.0000
  C   C147      1.0  0.06478  0.90405  0.31748  1.0000
  H   H172      1.0  0.12043  0.89569  0.28274  1.0000
  H   H173      1.0  0.12144  0.86236  0.32497  1.0000
  H   H174      1.0  0.04982  0.88239  0.35730  1.0000
  H   H175      1.0  0.04905  0.91586  0.31607  1.0000
  C   C148      1.0  0.05842  0.88791  0.05250  1.0000
  C   C149      1.0  0.05625  0.90067  0.08323  1.0000
  C   C150      1.0  0.07687  0.90843  0.10071  1.0000
  C   C151      1.0  0.09987  0.90311  0.08787  1.0000
  C   C152      1.0  0.10202  0.89069  0.05685  1.0000
  C   C153      1.0  0.08135  0.88331  0.03900  1.0000
  H   H176      1.0  0.03857  0.90411  0.09393  1.0000
  H   H177      1.0  0.07494  0.91790  0.12453  1.0000
  H   H178      1.0  0.11977  0.88650  0.04677  1.0000
  H   H179      1.0  0.07958  0.62013  0.43246  1.0000
  H   H180      1.0  0.13305  0.93050  0.43065  1.0000
  H   H181      1.0  0.01419  0.92189  0.22925  1.0000
  Fe  Fe21      1.0  0.02182  0.59375  0.00359  1.0000
  C   C154      1.0  0.27286  0.94717  0.24747  1.0000
  H   H182      1.0  0.05739  0.67743  0.40734  1.0000
  H   H183      1.0  0.05975  0.61162  0.34650  1.0000
  C   C155      1.0  0.01788  0.50935  0.24188  1.0000
  H   H184      1.0  0.00951  0.64419  0.39953  1.0000
  S   S42       1.0  0.00396  0.76677  0.44480  1.0000
  C   C156      1.0  0.09759  0.88749  0.46414  1.0000
  N   N10       1.0  0.99228  0.94911  0.25445  1.0000
  H   H185      1.0  0.08321  0.87346  0.01538  1.0000
  C   C157      1.0  0.06252  0.63062  0.35077  1.0000
  S   S43       1.0  0.02570  0.68689  0.02579  1.0000
  C   C158      1.0  0.04459  0.71059  0.48515  1.0000
  C   C159      1.0  0.02662  0.73493  0.00852  1.0000
  H   H186      1.0  0.09120  0.90067  0.40074  1.0000
  H   H187      1.0  0.04007  0.92238  0.99938  1.0000
  H   H188      1.0  0.07794  0.63388  0.30090  1.0000
  N   N11       1.0  0.99503  0.56348  0.16932  1.0000
  C   C160      1.0  0.01391  0.73819  0.46166  1.0000
  C   C161      1.0  0.00385  0.69681  0.47843  1.0000
  Fe  Fe22      1.0  0.03691  0.84754  0.48001  1.0000
  H   H189      1.0  0.25420  0.91483  0.26075  1.0000
  H   H190      1.0  0.02568  0.66082  0.43110  1.0000
  C   C162      1.0  0.23675  0.50064  0.24612  1.0000
  H   H191      1.0  0.05167  0.52774  0.24378  1.0000
  H   H192      1.0  0.01332  0.63288  0.44200  1.0000
  C   C163      1.0  0.02653  0.54514  0.20942  1.0000
  C   C164      1.0  0.99401  0.93727  0.05610  1.0000
  N   N12       1.0  0.20184  0.56209  0.35354  1.0000
  C   C165      1.0  0.19680  0.53643  0.36069  1.0000
  C   C166      1.0  0.18901  0.57697  0.37953  1.0000
  C   C167      1.0  0.19126  0.56843  0.32003  1.0000
  C   C168      1.0  0.22829  0.56563  0.35303  1.0000
  C   C169      1.0  0.24017  0.58199  0.37509  1.0000
  C   C170      1.0  0.24306  0.55246  0.32984  1.0000
  C   C171      1.0  0.26520  0.58490  0.37361  1.0000
  C   C172      1.0  0.26801  0.55554  0.32849  1.0000
  C   C173      1.0  0.27907  0.57176  0.35031  1.0000
  H   H193      1.0  0.20566  0.53038  0.38463  1.0000
  H   H194      1.0  0.17706  0.53344  0.36325  1.0000
  H   H195      1.0  0.20311  0.52414  0.34001  1.0000
  H   H196      1.0  0.19536  0.57247  0.40559  1.0000
  H   H197      1.0  0.16919  0.57380  0.37919  1.0000
  H   H198      1.0  0.19819  0.55653  0.29931  1.0000
  H   H199      1.0  0.17125  0.56654  0.31983  1.0000
  H   H200      1.0  0.19531  0.58732  0.31298  1.0000
  H   H201      1.0  0.23057  0.59284  0.39363  1.0000
  H   H202      1.0  0.23534  0.53974  0.31234  1.0000
  H   H203      1.0  0.27391  0.59756  0.39050  1.0000
  H   H204      1.0  0.27878  0.54538  0.31022  1.0000
  H   H205      1.0  0.06311  0.70726  0.49293  1.0000
  Fe  Fe23      1.0  0.17030  0.50067  0.27504  1.0000
  C   C174      1.0  0.31019  0.91461  0.16519  1.0000
  C   C175      1.0  0.25237  0.93264  0.24980  1.0000
  N   N13       1.0  0.10267  0.91185  0.45073  1.0000
  C   C176      1.0  0.03979  0.96117  0.00093  1.0000
  S   S44       1.0  0.21012  0.51101  0.26785  1.0000
  H   H206      1.0  0.98557  0.72505  0.07636  1.0000
  H   H207      1.0  0.02414  0.92956  0.27157  1.0000
  S   S45       1.0  0.05064  0.61907  0.02120  1.0000
  H   H208      1.0  0.00426  0.59821  0.14863  1.0000
  H   H209      1.0  0.09200  0.93246  0.40643  1.0000
  C   C177      1.0  0.99269  0.97619  0.48188  1.0000
  C   C178      1.0  0.03781  0.73340  0.47172  1.0000
  C   C179      1.0  0.07170  0.67978  0.35757  1.0000
  H   H210      1.0  0.09788  0.87338  0.44385  1.0000
  H   H211      1.0  0.02928  0.57882  0.15636  1.0000
  H   H212      1.0  0.03985  0.55835  0.20315  1.0000
  H   H213      1.0  0.05475  0.61999  0.46169  1.0000
  H   H214      1.0  0.01134  0.54360  0.12813  1.0000
  C   C180      1.0  0.01608  0.71252  0.00164  1.0000
  C   C181      1.0  0.30502  0.51708  0.37986  1.0000
  H   H215      1.0  0.19113  0.59659  0.37490  1.0000
  C   C182      1.0  0.99362  0.55188  0.13551  1.0000
  C   C183      1.0  0.98662  0.97603  0.08514  1.0000
  H   H216      1.0  0.13256  0.89881  0.42043  1.0000
  H   H217      1.0  0.01909  0.95261  0.08987  1.0000
  H   H218      1.0  0.05116  0.74718  0.46894  1.0000
  H   H219      1.0  0.05520  0.59315  0.39635  1.0000
  H   H220      1.0  0.06816  0.91518  0.42542  1.0000
  C   C184      1.0  0.99708  0.71961  0.46493  1.0000
  H   H221      1.0  0.02652  0.84375  0.13738  1.0000
  H   H222      1.0  0.97991  0.53751  0.13456  1.0000
  H   H223      1.0  0.29967  0.91870  0.18871  1.0000
  C   C185      1.0  0.07310  0.64323  0.32421  1.0000
  H   H224      1.0  0.02573  0.60317  0.38152  1.0000
  S   S46       1.0  0.10113  0.49877  0.29792  1.0000
  H   H225      1.0  0.21378  0.92984  0.24149  1.0000
  C   C186      1.0  0.98785  0.52599  0.20331  1.0000
  C   C187      1.0  0.00154  0.95535  0.07835  1.0000
  S   S47       1.0  0.30122  0.93572  0.26318  1.0000
  C   C188      1.0  0.22936  0.94108  0.23881  1.0000
  S   S48       1.0  0.99152  0.62147  0.00854  1.0000
  H   H226      1.0  0.08575  0.67745  0.30687  1.0000
  H   H227      1.0  0.98285  0.49436  0.23390  1.0000
  H   H228      1.0  0.29959  0.92254  0.14378  1.0000
  H   H229      1.0  0.99055  0.68294  0.48098  1.0000
  H   H230      1.0  0.14078  0.90840  0.46221  1.0000
  H   H231      1.0  0.98588  0.95897  0.47379  1.0000
  C   C189      1.0  0.03364  0.52747  0.23287  1.0000
  C   C190      1.0  0.07758  0.66776  0.32755  1.0000
  C   C191      1.0  0.02768  0.69215  0.48888  1.0000
  H   H232      1.0  0.99838  0.91129  0.26567  1.0000
  H   H233      1.0  0.28959  0.49257  0.34510  1.0000
  H   H234      1.0  0.04645  0.83413  0.08293  1.0000
  C   C192      1.0  0.22647  0.96427  0.22528  1.0000
  C   C193      1.0  0.06125  0.66734  0.38434  1.0000
  C   C194      1.0  0.00800  0.92704  0.25514  1.0000
  Fe  Fe24      1.0  0.98788  0.60661  0.06135  1.0000
  C   C195      1.0  0.00315  0.54519  0.19437  1.0000
  C   C196      1.0  0.30614  0.50127  0.35209  1.0000
  C   C197      1.0  0.09791  0.93033  0.47729  1.0000
  N   N14       1.0  0.09919  0.86254  0.19100  1.0000
  C   C198      1.0  0.09182  0.88784  0.19831  1.0000
  C   C199      1.0  0.09431  0.84764  0.22133  1.0000
  C   C200      1.0  0.12573  0.86196  0.18552  1.0000
  C   C201      1.0  0.08521  0.85381  0.16145  1.0000
  C   C202      1.0  0.05973  0.85188  0.16348  1.0000
  C   C203      1.0  0.09603  0.84810  0.12967  1.0000
  C   C204      1.0  0.04600  0.84462  0.13555  1.0000
  C   C205      1.0  0.08213  0.84065  0.10203  1.0000
  C   C206      1.0  0.05719  0.83902  0.10488  1.0000
  H   H235      1.0  0.07243  0.88982  0.20503  1.0000
  H   H236      1.0  0.10211  0.89534  0.22007  1.0000
  H   H237      1.0  0.09504  0.89941  0.17585  1.0000
  H   H238      1.0  0.07533  0.84952  0.23010  1.0000
  H   H239      1.0  0.10559  0.85304  0.24347  1.0000
  H   H240      1.0  0.09813  0.82818  0.21609  1.0000
  H   H241      1.0  0.13099  0.87437  0.16475  1.0000
  H   H242      1.0  0.13576  0.86812  0.20841  1.0000
  H   H243      1.0  0.13251  0.84343  0.17934  1.0000
  H   H244      1.0  0.05016  0.85652  0.18648  1.0000
  H   H245      1.0  0.11510  0.85000  0.12505  1.0000
  H   H246      1.0  0.00958  0.49793  0.44184  1.0000
  H   H247      1.0  0.09065  0.83701  0.07777  1.0000
  C   C207      1.0  0.08779  0.91536  0.41961  1.0000
  N   N15       1.0  0.04508  0.62969  0.41050  1.0000
  C   C208      1.0  0.03890  0.60428  0.40280  1.0000
  C   C209      1.0  0.06227  0.62942  0.43939  1.0000
  C   C210      1.0  0.02246  0.64243  0.42106  1.0000
  C   C211      1.0  0.05605  0.64242  0.38165  1.0000
  H   H248      1.0  0.07531  0.69886  0.36022  1.0000
  S   S49       1.0  0.15668  0.49134  0.32725  1.0000
  H   H249      1.0  0.02344  0.49582  0.26024  1.0000
  H   H250      1.0  0.28812  0.51997  0.39321  1.0000
  H   H251      1.0  0.23453  0.97174  0.30698  1.0000
  H   H252      1.0  0.11111  0.88139  0.48329  1.0000
  C   C212      1.0  0.08237  0.95079  0.47209  1.0000
  H   H253      1.0  0.01403  0.59330  0.19158  1.0000
  C   C213      1.0  0.28062  0.48543  0.21391  1.0000
  H   H254      1.0  0.04041  0.73605  0.02794  1.0000
  H   H255      1.0  0.98851  0.56520  0.11562  1.0000
  C   C214      1.0  0.98469  0.95438  0.28977  1.0000
  H   H256      1.0  0.31077  0.89461  0.16265  1.0000
  H   H257      1.0  0.98556  0.76466  0.05090  1.0000
  H   H258      1.0  0.99745  0.51384  0.49291  1.0000
  C   C215      1.0  0.00432  0.97046  0.24046  1.0000
  C   C216      1.0  0.02914  0.97025  0.23134  1.0000
  S   S50       1.0  0.00059  0.59974  0.49726  1.0000
  S   S51       1.0  0.19759  0.97700  0.21401  1.0000
  C   C217      1.0  0.07815  0.96772  0.49796  1.0000
  H   H259      1.0  0.29250  0.48228  0.28887  1.0000
  H   H260      1.0  0.02086  0.97549  0.13806  1.0000
  C   C218      1.0  0.08911  0.96483  0.52959  1.0000
  C   C219      1.0  0.01585  0.75890  0.55753  1.0000
  S   S52       1.0  0.04536  0.82652  0.95780  1.0000
  H   H261      1.0  0.04229  0.91966  0.77171  1.0000
  C   C220      1.0  0.27041  0.48017  0.72790  1.0000
  S   S53       1.0  0.00991  0.83792  0.89120  1.0000
  Fe  Fe25      1.0  0.00738  0.81879  0.94165  1.0000
  S   S54       1.0  0.99176  0.78077  0.94228  1.0000
  Fe  Fe26      1.0  0.04709  0.84731  0.90861  1.0000
  S   S55       1.0  0.07579  0.84182  0.86814  1.0000
  S   S56       1.0  0.99125  0.85197  0.96697  1.0000
  S   S57       1.0  0.03517  0.88222  0.93264  1.0000
  Fe  Fe27      1.0  0.16047  0.96152  0.69437  1.0000
  H   H262      1.0  0.03261  0.48869  0.98382  1.0000
  Fe  Fe28      1.0  0.12843  0.93001  0.65049  1.0000
  S   S58       1.0  0.09363  0.94201  0.67535  1.0000
  S   S59       1.0  0.13182  0.90399  0.60603  1.0000
  Fe  Fe29      1.0  0.11462  0.93820  0.72409  1.0000
  S   S60       1.0  0.09782  0.93265  0.77602  1.0000
  H   H263      1.0  0.98458  0.95692  0.94077  1.0000
  S   S61       1.0  0.14857  0.92319  0.69986  1.0000
  Fe  Fe30      1.0  0.11108  0.49496  0.75884  1.0000
  S   S62       1.0  0.13465  0.52524  0.77537  1.0000
  S   S63       1.0  0.09448  0.49293  0.70627  1.0000
  Fe  Fe31      1.0  0.11724  0.52081  0.82623  1.0000
  S   S64       1.0  0.11230  0.55255  0.86193  1.0000
  Fe  Fe32      1.0  0.16123  0.49614  0.79103  1.0000
  C   C221      1.0  0.24283  0.52357  0.67751  1.0000
  Fe  Fe33      1.0  0.02474  0.62628  0.52368  1.0000
  S   S65       1.0  0.09103  0.49295  0.80853  1.0000
  Fe  Fe34      1.0  0.03826  0.58877  0.57910  1.0000
  S   S66       1.0  0.01567  0.55960  0.55643  1.0000
  S   S67       1.0  0.05709  0.58750  0.63028  1.0000
  C   C222      1.0  0.20511  0.92397  0.85381  1.0000
  H   H264      1.0  0.14638  0.90811  0.77929  1.0000
  S   S68       1.0  0.05539  0.59888  0.52969  1.0000
  S   S69       1.0  0.00939  0.61778  0.57501  1.0000
  C   C223      1.0  0.24869  0.50830  0.76510  1.0000
  C   C224      1.0  0.27005  0.50096  0.74816  1.0000
  C   C225      1.0  0.03456  0.74353  0.57041  1.0000
  C   C226      1.0  0.23030  0.49070  0.64186  1.0000
  C   C227      1.0  0.08666  0.55743  0.88765  1.0000
  C   C228      1.0  0.06430  0.54779  0.87926  1.0000
  C   C229      1.0  0.04430  0.55201  0.90053  1.0000
  C   C230      1.0  0.04657  0.56575  0.93037  1.0000
  C   C231      1.0  0.06885  0.57562  0.93850  1.0000
  C   C232      1.0  0.08878  0.57159  0.91708  1.0000
  H   H265      1.0  0.06236  0.53737  0.85621  1.0000
  H   H266      1.0  0.02703  0.54449  0.89399  1.0000
  H   H267      1.0  0.07081  0.58621  0.96141  1.0000
  H   H268      1.0  0.10600  0.57927  0.92353  1.0000
  C   C233      1.0  0.08461  0.51939  0.68514  1.0000
  C   C234      1.0  0.08558  0.54200  0.70081  1.0000
  C   C235      1.0  0.07737  0.56272  0.68343  1.0000
  C   C236      1.0  0.06818  0.56102  0.65029  1.0000
  C   C237      1.0  0.06743  0.53843  0.63445  1.0000
  C   C238      1.0  0.07557  0.51768  0.65190  1.0000
  H   H269      1.0  0.09242  0.54353  0.72645  1.0000
  H   H270      1.0  0.07800  0.58014  0.69584  1.0000
  H   H271      1.0  0.06053  0.53694  0.60885  1.0000
  H   H272      1.0  0.07485  0.50022  0.63961  1.0000
  S   S70       1.0  0.03969  0.85916  0.53507  1.0000
  C   C239      1.0  0.23395  0.94516  0.70314  1.0000
  H   H273      1.0  0.04488  0.78877  0.59525  1.0000
  C   C240      1.0  0.10466  0.94520  0.53533  1.0000
  C   C241      1.0  0.98363  0.96159  0.74428  1.0000
  H   H274      1.0  0.24877  0.52432  0.78086  1.0000
  C   C242      1.0  0.09251  0.90676  0.80064  1.0000
  C   C243      1.0  0.08145  0.91011  0.83230  1.0000
  C   C244      1.0  0.07620  0.89032  0.85289  1.0000
  C   C245      1.0  0.08226  0.86691  0.84231  1.0000
  C   C246      1.0  0.09374  0.86350  0.81083  1.0000
  C   C247      1.0  0.09872  0.88337  0.78989  1.0000
  H   H275      1.0  0.07679  0.92817  0.84095  1.0000
  H   H276      1.0  0.06777  0.89326  0.87725  1.0000
  H   H277      1.0  0.09858  0.84543  0.80248  1.0000
  H   H278      1.0  0.10722  0.88055  0.76550  1.0000
  C   C248      1.0  0.06552  0.87206  0.55351  1.0000
  C   C249      1.0  0.06254  0.88858  0.58031  1.0000
  C   C250      1.0  0.08268  0.89853  0.59655  1.0000
  C   C251      1.0  0.10602  0.89171  0.58649  1.0000
  C   C252      1.0  0.10901  0.87495  0.55991  1.0000
  C   C253      1.0  0.08883  0.86517  0.54342  1.0000
  H   H279      1.0  0.04455  0.89377  0.58853  1.0000
  H   H280      1.0  0.08011  0.91138  0.61694  1.0000
  H   H281      1.0  0.12702  0.86938  0.55226  1.0000
  C   C254      1.0  0.00885  0.97575  0.50930  1.0000
  C   C255      1.0  0.98162  0.57791  0.65269  1.0000
  H   H282      1.0  0.03440  0.78089  0.50308  1.0000
  H   H283      1.0  0.17634  0.90922  0.76310  1.0000
  C   C256      1.0  0.27520  0.95098  0.72480  1.0000
  H   H284      1.0  0.17915  0.53783  0.72935  1.0000
  H   H285      1.0  0.02894  0.91194  0.84513  1.0000
  N   N16       1.0  0.17090  0.92828  0.81055  1.0000
  C   C257      1.0  0.22612  0.96704  0.71764  1.0000
  H   H286      1.0  0.15687  0.90852  0.85302  1.0000
  H   H287      1.0  0.07880  0.49891  0.88601  1.0000
  C   C258      1.0  0.19683  0.92750  0.81993  1.0000
  C   C259      1.0  0.99981  0.94653  0.76206  1.0000
  H   H288      1.0  0.02531  0.89621  0.75172  1.0000
  H   H289      1.0  0.15691  0.94108  0.85852  1.0000
  C   C260      1.0  0.08744  0.69549  0.88123  1.0000
  H   H290      1.0  0.17692  0.55730  0.69256  1.0000
  S   S71       1.0  0.03754  0.66373  0.50624  1.0000
  H   H291      1.0  0.02220  0.57672  0.68559  1.0000
  C   C261      1.0  0.00939  0.70855  0.56561  1.0000
  H   H292      1.0  0.04300  0.89035  0.78920  1.0000
  H   H293      1.0  0.99156  0.53344  0.62641  1.0000
  C   C262      1.0  0.19963  0.51481  0.67262  1.0000
  H   H294      1.0  0.15899  0.50748  0.63364  1.0000
  C   C263      1.0  0.99196  0.92539  0.77861  1.0000
  H   H295      1.0  0.99273  0.79250  0.51502  1.0000
  C   C264      1.0  0.26730  0.97273  0.73963  1.0000
  C   C265      1.0  0.22979  0.92339  0.86160  1.0000
  H   H296      1.0  0.28627  0.51130  0.75093  1.0000
  Fe  Fe35      1.0  0.98781  0.58891  0.54932  1.0000
  Fe  Fe36      1.0  0.99748  0.87177  0.91822  1.0000
  H   H297      1.0  0.26736  0.50034  0.64985  1.0000
  S   S72       1.0  0.20132  0.50508  0.78517  1.0000
  N   N17       1.0  0.05712  0.75832  0.88128  1.0000
  C   C266      1.0  0.07062  0.76793  0.85195  1.0000
  C   C267      1.0  0.03108  0.75908  0.87238  1.0000
  C   C268      1.0  0.06113  0.77487  0.91033  1.0000
  C   C269      1.0  0.06444  0.73335  0.89070  1.0000
  C   C270      1.0  0.08122  0.71912  0.87156  1.0000
  C   C271      1.0  0.05434  0.72237  0.91966  1.0000
  H   H298      1.0  0.00721  0.68921  0.56768  1.0000
  H   H299      1.0  0.28286  0.47828  0.81709  1.0000
  H   H300      1.0  0.05677  0.77957  0.53602  1.0000
  H   H301      1.0  0.06728  0.75735  0.82843  1.0000
  H   H302      1.0  0.06506  0.78696  0.84619  1.0000
  H   H303      1.0  0.09038  0.76814  0.85725  1.0000
  H   H304      1.0  0.12143  0.91342  0.51543  1.0000
  H   H305      1.0  0.02464  0.77773  0.86611  1.0000
  H   H306      1.0  0.14557  0.50079  0.70735  1.0000
  H   H307      1.0  0.07996  0.77313  0.92012  1.0000
  H   H308      1.0  0.05801  0.79408  0.90302  1.0000
  H   H309      1.0  0.04865  0.77160  0.93176  1.0000
  C   C272      1.0  0.06760  0.50464  0.94971  1.0000
  H   H310      1.0  0.04131  0.73192  0.93519  1.0000
  H   H311      1.0  0.99008  0.69433  0.97060  1.0000
  H   H312      1.0  0.14519  0.95344  0.78808  1.0000
  C   C273      1.0  0.24686  0.92619  0.83615  1.0000
  C   C274      1.0  0.00860  0.56451  0.69667  1.0000
  H   H313      1.0  0.00148  0.92951  0.84376  1.0000
  C   C275      1.0  0.99831  0.79871  0.54078  1.0000
  C   C276      1.0  0.16578  0.90813  0.78692  1.0000
  H   H314      1.0  0.20305  0.48206  0.85037  1.0000
  H   H315      1.0  0.02770  0.93960  0.82173  1.0000
  C   C277      1.0  0.16467  0.49790  0.69938  1.0000
  C   C278      1.0  0.00419  0.54091  0.64558  1.0000
  H   H316      1.0  0.09130  0.85187  0.52353  1.0000
  C   C279      1.0  0.03133  0.71875  0.57423  1.0000
  N   N18       1.0  0.17397  0.51929  0.68165  1.0000
  C   C280      1.0  0.03080  0.90386  0.77666  1.0000
  H   H317      1.0  0.01786  0.55143  0.63172  1.0000
  C   C281      1.0  0.25830  0.93730  0.70655  1.0000
  C   C282      1.0  0.03123  0.93886  0.99067  1.0000
  H   H318      1.0  0.01959  0.75304  0.89366  1.0000
  S   S73       1.0  0.12768  0.97608  0.72160  1.0000
  H   H319      1.0  0.04326  0.80788  0.52470  1.0000
  C   C283      1.0  0.00154  0.75485  0.96565  1.0000
  H   H320      1.0  0.01850  0.95170  0.76297  1.0000
  C   C284      1.0  0.20617  0.49567  0.65017  1.0000
  H   H321      1.0  0.10562  0.47935  0.92935  1.0000
  S   S74       1.0  0.14528  0.49382  0.84322  1.0000
  C   C285      1.0  0.07721  0.68538  0.90996  1.0000
  H   H322      1.0  0.04665  0.49546  0.88879  1.0000
  H   H323      1.0  0.20989  0.93293  0.76836  1.0000
  H   H324      1.0  0.10025  0.68487  0.86635  1.0000
  C   C286      1.0  0.10918  0.92829  0.50959  1.0000
  C   C287      1.0  0.06070  0.69882  0.92917  1.0000
  H   H325      1.0  0.02945  0.81593  0.58361  1.0000
  C   C288      1.0  0.21475  0.93020  0.79466  1.0000
  H   H326      1.0  0.00409  0.92035  0.96224  1.0000
  N   N19       1.0  0.99111  0.55617  0.67072  1.0000
  N   N20       1.0  0.01993  0.78503  0.55318  1.0000
  H   H327      1.0  0.08981  0.72577  0.84906  1.0000
  H   H328      1.0  0.99923  0.57454  0.71747  1.0000
  C   C289      1.0  0.15438  0.92616  0.83995  1.0000
  H   H329      1.0  0.19269  0.48410  0.63939  1.0000
  N   N21       1.0  0.00936  0.90998  0.79782  1.0000
  H   H330      1.0  0.19292  0.92165  0.87477  1.0000
  C   C290      1.0  0.99066  0.72306  0.55290  1.0000
  C   C291      1.0  0.99990  0.95889  0.95760  1.0000
  H   H331      1.0  0.11311  0.94286  0.56005  1.0000
  C   C292      1.0  0.23935  0.92952  0.80276  1.0000
  H   H332      1.0  0.21585  0.54289  0.70453  1.0000
  H   H333      1.0  0.05272  0.69094  0.95159  1.0000
  C   C293      1.0  0.03948  0.78843  0.52825  1.0000
  C   C294      1.0  0.15927  0.52352  0.65058  1.0000
  H   H334      1.0  0.02722  0.74714  0.85037  1.0000
  C   C295      1.0  0.22736  0.49507  0.76208  1.0000
  S   S75       1.0  0.30573  0.93991  0.72792  1.0000
  H   H335      1.0  0.01286  0.87518  0.82231  1.0000
  H   H336      1.0  0.99183  0.87634  0.78748  1.0000
  C   C296      1.0  0.16489  0.95145  0.79343  1.0000
  H   H337      1.0  0.17401  0.95309  0.76856  1.0000
  S   S76       1.0  0.02152  0.56894  0.95764  1.0000
  C   C297      1.0  0.99910  0.88683  0.80921  1.0000
  H   H338      1.0  0.23578  0.92079  0.88758  1.0000
  C   C298      1.0  0.99105  0.73243  0.95864  1.0000
  H   H339      1.0  0.22131  0.93437  0.68901  1.0000
  C   C299      1.0  0.02725  0.79602  0.58593  1.0000
  C   C300      1.0  0.99830  0.71137  0.97640  1.0000
  H   H340      1.0  0.25725  0.53387  0.68879  1.0000
  H   H341      1.0  0.05036  0.51517  0.94684  1.0000
  H   H342      1.0  0.08211  0.51634  0.93988  1.0000
  H   H343      1.0  0.08204  0.66707  0.91737  1.0000
  H   H344      1.0  0.30816  0.91987  0.65887  1.0000
  H   H345      1.0  0.26406  0.92040  0.69508  1.0000
  H   H346      1.0  0.15061  0.54393  0.70960  1.0000
  H   H347      1.0  0.24446  0.47951  0.84612  1.0000
  H   H348      1.0  0.16627  0.53890  0.63577  1.0000
  H   H349      1.0  0.25271  0.93166  0.78302  1.0000
  C   C301      1.0  0.01729  0.92337  0.82835  1.0000
  H   H350      1.0  0.17027  0.96712  0.80925  1.0000
  C   C302      1.0  0.01109  0.93775  0.96954  1.0000
  H   H351      1.0  0.08554  0.97778  0.54975  1.0000
  H   H352      1.0  0.01927  0.54942  0.70821  1.0000
  H   H353      1.0  0.00189  0.81836  0.53847  1.0000
  H   H354      1.0  0.17019  0.89037  0.79873  1.0000
  C   C303      1.0  0.21879  0.52856  0.68630  1.0000
  H   H355      1.0  0.13998  0.52772  0.65680  1.0000
  H   H356      1.0  0.02773  0.77299  0.99643  1.0000
  H   H357      1.0  0.01380  0.95872  0.52123  1.0000
  C   C304      1.0  0.01948  0.75594  0.99064  1.0000
  C   C305      1.0  0.24858  0.50464  0.65549  1.0000
  C   C306      1.0  0.17013  0.54054  0.70425  1.0000
  C   C307      1.0  0.98514  0.50068  0.50269  1.0000
  H   H358      1.0  0.05204  0.75050  0.57695  1.0000
  H   H359      1.0  0.04606  0.70719  0.58313  1.0000
  S   S77       1.0  0.14242  0.96765  0.64349  1.0000
  Fe  Fe37      1.0  0.02961  0.86093  0.98007  1.0000
  H   H360      1.0  0.99717  0.51573  0.71020  1.0000
  H   H361      1.0  0.16500  0.48147  0.68319  1.0000
  H   H362      1.0  0.26599  0.92579  0.84224  1.0000
  H   H363      1.0  0.17558  0.49381  0.72250  1.0000
  H   H364      1.0  0.01351  0.79290  0.60585  1.0000
  N   N22       1.0  0.06670  0.48121  0.93132  1.0000
  H   H365      1.0  0.01416  0.52552  0.65756  1.0000
  H   H366      1.0  0.07132  0.50217  0.97723  1.0000
  C   C308      1.0  0.06442  0.48661  0.89460  1.0000
  Fe  Fe38      1.0  0.03028  0.57216  0.50631  1.0000
  H   H367      1.0  0.98281  0.79709  0.55840  1.0000
  H   H368      1.0  0.98453  0.88981  0.82811  1.0000
  C   C309      1.0  0.99376  0.74784  0.54860  1.0000
  H   H369      1.0  0.99645  0.58857  0.64150  1.0000
  H   H370      1.0  0.13507  0.92718  0.83192  1.0000
  H   H371      1.0  0.99003  0.97751  0.73153  1.0000
  Fe  Fe39      1.0  0.49097  0.09759  0.40448  1.0000
  S   S78       1.0  0.51942  0.12156  0.38273  1.0000
  S   S79       1.0  0.45411  0.09722  0.37867  1.0000
  Fe  Fe40      1.0  0.52189  0.08575  0.46609  1.0000
  S   S80       1.0  0.55230  0.10847  0.44911  1.0000
  H   H372      1.0  0.54568  0.35472  0.15756  1.0000
  Fe  Fe41      1.0  0.52391  0.13645  0.43556  1.0000
  S   S81       1.0  0.53397  0.17614  0.44268  1.0000
  Fe  Fe42      1.0  0.54552  0.09204  0.39794  1.0000
  S   S82       1.0  0.57965  0.08269  0.36914  1.0000
  S   S83       1.0  0.49360  0.11469  0.45647  1.0000
  S   S84       1.0  0.51693  0.06694  0.41589  1.0000
  H   H373      1.0  0.61609  0.41879  0.43512  1.0000
  C   C310      1.0  0.58037  0.06945  0.03881  1.0000
  C   C311      1.0  0.50655  0.24628  0.49552  1.0000
  Fe  Fe43      1.0  0.61694  0.00090  0.21591  1.0000
  S   S85       1.0  0.58632  0.00285  0.25383  1.0000
  H   H374      1.0  0.48753  0.20799  0.04712  1.0000
  S   S86       1.0  0.37927  0.02255  0.31580  1.0000
  H   H375      1.0  0.52209  0.13830  0.00967  1.0000
  Fe  Fe44      1.0  0.50248  0.34227  0.06438  1.0000
  S   S87       1.0  0.53041  0.31608  0.08524  1.0000
  S   S88       1.0  0.47171  0.35118  0.10111  1.0000
  H   H376      1.0  0.61491  0.07308  0.31778  1.0000
  H   H377      1.0  0.55638  0.34388  0.28564  1.0000
  S   S89       1.0  0.52454  0.38910  0.45310  1.0000
  C   C312      1.0  0.53719  0.35440  0.24004  1.0000
  H   H378      1.0  0.46533  0.27075  0.44653  1.0000
  Fe  Fe45      1.0  0.55697  0.34347  0.06862  1.0000
  S   S90       1.0  0.58732  0.35150  0.10544  1.0000
  C   C313      1.0  0.56066  0.38141  0.27480  1.0000
  S   S91       1.0  0.52916  0.37030  0.04989  1.0000
  Fe  Fe46      1.0  0.62078  0.42441  0.31690  1.0000
  S   S92       1.0  0.59261  0.45098  0.29862  1.0000
  S   S93       1.0  0.61474  0.39427  0.35442  1.0000
  Fe  Fe47      1.0  0.60910  0.44505  0.24714  1.0000
  S   S94       1.0  0.58527  0.44439  0.20017  1.0000
  C   C314      1.0  0.51120  0.38977  0.16524  1.0000
  H   H379      1.0  0.52835  0.39680  0.15512  1.0000
  S   S95       1.0  0.42061  0.45523  0.11495  1.0000
  H   H380      1.0  0.57839  0.99672  0.48515  1.0000
  C   C315      1.0  0.45747  0.38010  0.10472  1.0000
  C   C316      1.0  0.46099  0.39805  0.08059  1.0000
  C   C317      1.0  0.44920  0.42069  0.08399  1.0000
  C   C318      1.0  0.43430  0.42599  0.11199  1.0000
  C   C319      1.0  0.43102  0.40815  0.13643  1.0000
  C   C320      1.0  0.44237  0.38525  0.13260  1.0000
  H   H381      1.0  0.47231  0.39427  0.05884  1.0000
  H   H382      1.0  0.45136  0.43404  0.06443  1.0000
  H   H383      1.0  0.41944  0.41187  0.15793  1.0000
  H   H384      1.0  0.43927  0.37141  0.15122  1.0000
  C   C321      1.0  0.54901  0.38888  0.42445  1.0000
  C   C322      1.0  0.54855  0.40521  0.39724  1.0000
  C   C323      1.0  0.56827  0.40662  0.37498  1.0000
  C   C324      1.0  0.58873  0.39181  0.37994  1.0000
  C   C325      1.0  0.58897  0.37512  0.40667  1.0000
  C   C326      1.0  0.56922  0.37367  0.42891  1.0000
  H   H385      1.0  0.53291  0.41695  0.39356  1.0000
  H   H386      1.0  0.56772  0.41930  0.35423  1.0000
  H   H387      1.0  0.60467  0.36349  0.41056  1.0000
  H   H388      1.0  0.56977  0.36102  0.44973  1.0000
  C   C327      1.0  0.58585  0.37724  0.13181  1.0000
  C   C328      1.0  0.59791  0.37675  0.16316  1.0000
  C   C329      1.0  0.59747  0.39708  0.18455  1.0000
  C   C330      1.0  0.58545  0.41827  0.17439  1.0000
  C   C331      1.0  0.57328  0.41877  0.14311  1.0000
  C   C332      1.0  0.57333  0.39825  0.12195  1.0000
  H   H389      1.0  0.60742  0.36045  0.17107  1.0000
  H   H390      1.0  0.60632  0.39626  0.20897  1.0000
  H   H391      1.0  0.56391  0.43508  0.13505  1.0000
  H   H392      1.0  0.56410  0.39883  0.09774  1.0000
  C   C333      1.0  0.52284  0.20271  0.46367  1.0000
  C   C334      1.0  0.52733  0.34939  0.16558  1.0000
  C   C335      1.0  0.50097  0.19747  0.06100  1.0000
  C   C336      1.0  0.60162  0.00702  0.42456  1.0000
  H   H393      1.0  0.63570  0.40678  0.13643  1.0000
  C   C337      1.0  0.53560  0.22427  0.46014  1.0000
  Fe  Fe48      1.0  0.39597  0.47418  0.15395  1.0000
  Fe  Fe49      1.0  0.63543  0.01732  0.14760  1.0000
  C   C338      1.0  0.54475  0.21283  0.99976  1.0000
  H   H394      1.0  0.55182  0.22429  0.44497  1.0000
  C   C339      1.0  0.43491  0.07455  0.36200  1.0000
  C   C340      1.0  0.41209  0.08229  0.35058  1.0000
  C   C341      1.0  0.39574  0.06597  0.33679  1.0000
  C   C342      1.0  0.40173  0.04141  0.33378  1.0000
  C   C343      1.0  0.42466  0.03328  0.34505  1.0000
  C   C344      1.0  0.44124  0.04985  0.35928  1.0000
  H   H395      1.0  0.40694  0.10118  0.35241  1.0000
  H   H396      1.0  0.37825  0.07256  0.32821  1.0000
  H   H397      1.0  0.42959  0.01438  0.34271  1.0000
  H   H398      1.0  0.45885  0.04361  0.36783  1.0000
  C   C345      1.0  0.56044  0.05535  0.04619  1.0000
  H   H399      1.0  0.56669  0.44697  0.48140  1.0000
  C   C346      1.0  0.60213  0.06597  0.05693  1.0000
  C   C347      1.0  0.60404  0.04851  0.08263  1.0000
  C   C348      1.0  0.58404  0.03453  0.08991  1.0000
  C   C349      1.0  0.56235  0.03799  0.07186  1.0000
  C   C350      1.0  0.50192  0.20302  0.48343  1.0000
  H   H400      1.0  0.61752  0.07691  0.05122  1.0000
  H   H401      1.0  0.58523  0.02104  0.10944  1.0000
  H   H402      1.0  0.54696  0.02712  0.07784  1.0000
  C   C351      1.0  0.58002  0.06196  0.33507  1.0000
  C   C352      1.0  0.56144  0.04560  0.33031  1.0000
  C   C353      1.0  0.56348  0.02774  0.30498  1.0000
  C   C354      1.0  0.58387  0.02637  0.28394  1.0000
  C   C355      1.0  0.60223  0.04301  0.28830  1.0000
  C   C356      1.0  0.60039  0.06059  0.31402  1.0000
  H   H403      1.0  0.54581  0.04634  0.34664  1.0000
  H   H404      1.0  0.54935  0.01474  0.30194  1.0000
  H   H405      1.0  0.61806  0.04202  0.27235  1.0000
  C   C357      1.0  0.50364  0.17271  0.05484  1.0000
  H   H406      1.0  0.34996  0.44906  0.28843  1.0000
  H   H407      1.0  0.50131  0.40440  0.17911  1.0000
  H   H408      1.0  0.51490  0.22837  0.08701  1.0000
  H   H409      1.0  0.58462  0.42397  0.44090  1.0000
  N   N23       1.0  0.52476  0.13257  0.06368  1.0000
  C   C358      1.0  0.54162  0.11950  0.08701  1.0000
  C   C359      1.0  0.50133  0.12004  0.06472  1.0000
  H   H410      1.0  0.49327  0.34235  0.21214  1.0000
  H   H411      1.0  0.48719  0.15965  0.35259  1.0000
  S   S96       1.0  0.53244  0.05941  0.02527  1.0000
  H   H412      1.0  0.56137  0.04526  0.46361  1.0000
  H   H413      1.0  0.49225  0.12288  0.08958  1.0000
  H   H414      1.0  0.49224  0.16507  0.03541  1.0000
  H   H415      1.0  0.32997  0.01472  0.34843  1.0000
  C   C360      1.0  0.48474  0.24645  0.41328  1.0000
  H   H416      1.0  0.50162  0.21919  0.38370  1.0000
  S   S97       1.0  0.56222  0.32543  0.01791  1.0000
  C   C361      1.0  0.60461  0.01579  0.39113  1.0000
  H   H417      1.0  0.50445  0.45933  0.44802  1.0000
  C   C362      1.0  0.62973  0.46408  0.44495  1.0000
  C   C363      1.0  0.46530  0.25341  0.43360  1.0000
  H   H418      1.0  0.52182  0.98614  0.14167  1.0000
  H   H419      1.0  0.61373  0.44286  0.38627  1.0000
  S   S98       1.0  0.60527  0.99327  0.16243  1.0000
  C   C364      1.0  0.55179  0.35852  0.26845  1.0000
  H   H420      1.0  0.47967  0.35627  0.17603  1.0000
  H   H421      1.0  0.53085  0.33630  0.23614  1.0000
  N   N24       1.0  0.60494  0.45649  0.43623  1.0000
  H   H422      1.0  0.49193  0.18668  0.48669  1.0000
  Fe  Fe50      1.0  0.52029  0.36319  0.49739  1.0000
  S   S99       1.0  0.63171  0.04444  0.10469  1.0000
  H   H423      1.0  0.55200  0.14005  0.02673  1.0000
  H   H424      1.0  0.55107  0.16163  0.10893  1.0000
  C   C365      1.0  0.48052  0.47726  0.08140  1.0000
  N   N25       1.0  0.59314  0.02351  0.45189  1.0000
  N   N26       1.0  0.51567  0.36831  0.18701  1.0000
  Fe  Fe51      1.0  0.37797  0.98250  0.30278  1.0000
  H   H425      1.0  0.54628  0.20479  0.11781  1.0000
  C   C366      1.0  0.48552  0.22366  0.39792  1.0000
  H   H426      1.0  0.43164  0.24302  0.45506  1.0000
  C   C367      1.0  0.50645  0.00227  0.24835  1.0000
  C   C368      1.0  0.56880  0.03336  0.44315  1.0000
  H   H427      1.0  0.50370  0.10020  0.06058  1.0000
  H   H428      1.0  0.63658  0.43155  0.18509  1.0000
  H   H429      1.0  0.51201  0.01787  0.26287  1.0000
  C   C369      1.0  0.60991  0.04391  0.45540  1.0000
  C   C370      1.0  0.60524  0.98008  0.02975  1.0000
  C   C371      1.0  0.46642  0.20718  0.40219  1.0000
  H   H430      1.0  0.54272  0.09980  0.08110  1.0000
  H   H431      1.0  0.48259  0.37314  0.21486  1.0000
  C   C372      1.0  0.54029  0.39639  0.22436  1.0000
  C   C373      1.0  0.44688  0.21490  0.42308  1.0000
  H   H432      1.0  0.48866  0.12613  0.04440  1.0000
  H   H433      1.0  0.32974  0.04748  0.31143  1.0000
  H   H434      1.0  0.49978  0.25850  0.41056  1.0000
  S   S100      1.0  0.50268  0.32364  0.01311  1.0000
  Fe  Fe52      1.0  0.53305  0.29983  0.03292  1.0000
  C   C374      1.0  0.46699  0.16434  0.41371  1.0000
  H   H435      1.0  0.44475  0.16162  0.35278  1.0000
  H   H436      1.0  0.42785  0.18054  0.38078  1.0000
  H   H437      1.0  0.45073  0.16547  0.43006  1.0000
  H   H438      1.0  0.46763  0.14570  0.40298  1.0000
  H   H439      1.0  0.48304  0.16638  0.43044  1.0000
  H   H440      1.0  0.55577  0.01865  0.43888  1.0000
  H   H441      1.0  0.51661  0.34598  0.14217  1.0000
  H   H442      1.0  0.53755  0.26229  0.47285  1.0000
  H   H443      1.0  0.53569  0.12128  0.11384  1.0000
  C   C375      1.0  0.49099  0.46426  0.46687  1.0000
  H   H444      1.0  0.52923  0.33175  0.17863  1.0000
  H   H445      1.0  0.60992  0.05564  0.43253  1.0000
  C   C376      1.0  0.53104  0.37320  0.21700  1.0000
  H   H446      1.0  0.54796  0.99468  0.16560  1.0000
  H   H447      1.0  0.56199  0.41802  0.25760  1.0000
  H   H448      1.0  0.53806  0.11123  0.02197  1.0000
  C   C377      1.0  0.55487  0.40028  0.25283  1.0000
  S   S101      1.0  0.37690  0.46492  0.20247  1.0000
  H   H449      1.0  0.50510  0.17824  0.37925  1.0000
  H   H450      1.0  0.56044  0.12591  0.08472  1.0000
  H   H451      1.0  0.57215  0.38451  0.29673  1.0000
  H   H452      1.0  0.61396  0.00776  0.33924  1.0000
  C   C378      1.0  0.49182  0.35965  0.19811  1.0000
  C   C379      1.0  0.52223  0.99166  0.22477  1.0000
  H   H453      1.0  0.53694  0.41181  0.20827  1.0000
  C   C380      1.0  0.44467  0.17963  0.36557  1.0000
  C   C381      1.0  0.53465  0.13043  0.02900  1.0000
  C   C382      1.0  0.51636  0.20897  0.08354  1.0000
  C   C383      1.0  0.53412  0.19563  0.10069  1.0000
  H   H454      1.0  0.62989  0.00712  0.04641  1.0000
  N   N27       1.0  0.46665  0.18279  0.38664  1.0000
  H   H455      1.0  0.56296  0.21252  0.00978  1.0000
  H   H456      1.0  0.44323  0.19374  0.34562  1.0000
  C   C384      1.0  0.52143  0.15850  0.07202  1.0000
  H   H457      1.0  0.60483  0.05596  0.47698  1.0000
  C   C385      1.0  0.48787  0.17788  0.36453  1.0000
  C   C386      1.0  0.53669  0.17074  0.09522  1.0000
  C   C387      1.0  0.44642  0.23767  0.43853  1.0000
  H   H458      1.0  0.60113  0.03453  0.38518  1.0000
  H   H459      1.0  0.43200  0.20319  0.42818  1.0000
  H   H460      1.0  0.48880  0.19114  0.34350  1.0000
  H   H461      1.0  0.49997  0.38533  0.14267  1.0000
  H   H462      1.0  0.53975  0.99964  0.22196  1.0000
  H   H463      1.0  0.51570  0.46792  0.12104  1.0000
  H   H464      1.0  0.33536  0.00807  0.28593  1.0000
  H   H465      1.0  0.58310  0.45339  0.39140  1.0000
  H   H466      1.0  0.60709  0.47445  0.38764  1.0000
  H   H467      1.0  0.51617  0.46725  0.24432  1.0000
  C   C388      1.0  0.52756  0.24590  0.47594  1.0000
  C   C389      1.0  0.34876  0.46197  0.31014  1.0000
  H   H468      1.0  0.62876  0.03727  0.45985  1.0000
  S   S102      1.0  0.54287  0.25968  0.02383  1.0000
  H   H469      1.0  0.47712  0.46321  0.10084  1.0000
  C   C390      1.0  0.61747  0.00160  0.02658  1.0000
  C   C391      1.0  0.60210  0.45686  0.39883  1.0000
  C   C392      1.0  0.60261  0.43112  0.44757  1.0000
  H   H470      1.0  0.56894  0.04448  0.41972  1.0000
  S   S103      1.0  0.63496  0.41610  0.26474  1.0000
  C   C393      1.0  0.47870  0.44633  0.48387  1.0000
  S   S104      1.0  0.63624  0.47442  0.25249  1.0000
  H   H471      1.0  0.57897  0.08320  0.01950  1.0000
  C   C394      1.0  0.61202  0.00059  0.36462  1.0000
  C   C395      1.0  0.58696  0.47331  0.45173  1.0000
  H   H472      1.0  0.64362  0.45125  0.43451  1.0000
  C   C396      1.0  0.31550  0.00593  0.28380  1.0000
  H   H473      1.0  0.34485  0.45155  0.33346  1.0000
  H   H474      1.0  0.47087  0.00037  0.42069  1.0000
  H   H475      1.0  0.36717  0.46943  0.31290  1.0000
  Fe  Fe53      1.0  0.53199  0.34986  0.00033  1.0000
  H   H476      1.0  0.47136  0.00118  0.27147  1.0000
  H   H477      1.0  0.48285  0.42747  0.47825  1.0000
  C   C397      1.0  0.48361  0.99289  0.25323  1.0000
  H   H478      1.0  0.60532  0.42933  0.47543  1.0000
  H   H479      1.0  0.46561  0.47561  0.06251  1.0000
  C   C398      1.0  0.56861  0.46561  0.47418  1.0000
  H   H480      1.0  0.49765  0.47285  0.06789  1.0000
  C   C399      1.0  0.59147  0.01166  0.48552  1.0000
  H   H481      1.0  0.56542  0.15523  0.49707  1.0000
  H   H482      1.0  0.63228  0.46501  0.47295  1.0000
  C   C400      1.0  0.53049  0.23409  0.00280  1.0000
  C   C401      1.0  0.46535  0.98211  0.42608  1.0000
  H   H483      1.0  0.54687  0.47477  0.16319  1.0000
  C   C402      1.0  0.60684  0.98206  0.42989  1.0000
  H   H484      1.0  0.43461  0.98431  0.39252  1.0000
  H   H485      1.0  0.60940  0.00471  0.49443  1.0000
  C   C403      1.0  0.53848  0.97905  0.15438  1.0000
  S   S105      1.0  0.64539  0.02729  0.20150  1.0000
  C   C404      1.0  0.49383  0.22468  0.49913  1.0000
  Fe  Fe54      1.0  0.48774  0.07770  0.91960  1.0000
  S   S106      1.0  0.50505  0.10764  0.89026  1.0000
  S   S107      1.0  0.45384  0.05549  0.91251  1.0000
  Fe  Fe55      1.0  0.52651  0.07896  0.97550  1.0000
  S   S108      1.0  0.54713  0.10845  0.95057  1.0000
  C   C405      1.0  0.58476  0.98782  0.97636  1.0000
  Fe  Fe56      1.0  0.51088  0.12640  0.94089  1.0000
  H   H486      1.0  0.49120  0.99123  0.78093  1.0000
  Fe  Fe57      1.0  0.53996  0.08772  0.90232  1.0000
  S   S109      1.0  0.57207  0.08057  0.86820  1.0000
  S   S110      1.0  0.49070  0.09793  0.96904  1.0000
  S   S111      1.0  0.52230  0.05689  0.92824  1.0000
  Fe  Fe58      1.0  0.61844  0.01235  0.64029  1.0000
  H   H487      1.0  0.57183  0.98142  0.95806  1.0000
  S   S112      1.0  0.61843  0.03786  0.59521  1.0000
  Fe  Fe59      1.0  0.59664  0.00064  0.70873  1.0000
  S   S113      1.0  0.56500  0.00721  0.74446  1.0000
  C   C406      1.0  0.56061  0.44278  0.93745  1.0000
  S   S114      1.0  0.40944  0.00978  0.77793  1.0000
  H   H488      1.0  0.53216  0.11819  0.52108  1.0000
  Fe  Fe60      1.0  0.48228  0.35914  0.55270  1.0000
  S   S115      1.0  0.50116  0.32692  0.57571  1.0000
  S   S116      1.0  0.44576  0.37252  0.57252  1.0000
  H   H489      1.0  0.60662  0.06495  0.81838  1.0000
  H   H490      1.0  0.55522  0.43663  0.87001  1.0000
  S   S117      1.0  0.53082  0.36654  0.94766  1.0000
  H   H491      1.0  0.59802  0.05944  0.97069  1.0000
  S   S118      1.0  0.49945  0.16603  0.95115  1.0000
  Fe  Fe61      1.0  0.53522  0.34741  0.56815  1.0000
  S   S119      1.0  0.56176  0.34573  0.61227  1.0000
  Fe  Fe62      1.0  0.60142  0.47708  0.80787  1.0000
  S   S120      1.0  0.51588  0.38069  0.54886  1.0000
  Fe  Fe63      1.0  0.62186  0.42679  0.82284  1.0000
  S   S121      1.0  0.58760  0.43996  0.79812  1.0000
  S   S122      1.0  0.62321  0.40022  0.86661  1.0000
  Fe  Fe64      1.0  0.60931  0.44052  0.75014  1.0000
  S   S123      1.0  0.59010  0.43771  0.69937  1.0000
  H   H492      1.0  0.53779  0.47577  0.50472  1.0000
  H   H493      1.0  0.47961  0.21342  0.96430  1.0000
  S   S124      1.0  0.42475  0.46109  0.67162  1.0000
  C   C407      1.0  0.58428  0.05010  0.95519  1.0000
  C   C408      1.0  0.43978  0.39865  0.59726  1.0000
  C   C409      1.0  0.45778  0.41504  0.60528  1.0000
  C   C410      1.0  0.45284  0.43420  0.62796  1.0000
  C   C411      1.0  0.42959  0.43776  0.64158  1.0000
  C   C412      1.0  0.41128  0.42213  0.63212  1.0000
  C   C413      1.0  0.41644  0.40254  0.61029  1.0000
  H   H494      1.0  0.47554  0.41274  0.59431  1.0000
  H   H495      1.0  0.46706  0.44636  0.63491  1.0000
  H   H496      1.0  0.39333  0.42467  0.64246  1.0000
  H   H497      1.0  0.40234  0.39005  0.60396  1.0000
  C   C414      1.0  0.55688  0.37451  0.92491  1.0000
  C   C415      1.0  0.55427  0.38339  0.89173  1.0000
  C   C416      1.0  0.57447  0.39100  0.87336  1.0000
  C   C417      1.0  0.59747  0.38985  0.88809  1.0000
  C   C418      1.0  0.60015  0.38034  0.92091  1.0000
  C   C419      1.0  0.57995  0.37276  0.93932  1.0000
  H   H498      1.0  0.53650  0.38455  0.88027  1.0000
  H   H499      1.0  0.57230  0.39767  0.84777  1.0000
  H   H500      1.0  0.61792  0.37915  0.93234  1.0000
  H   H501      1.0  0.58222  0.36589  0.96480  1.0000
  C   C420      1.0  0.57086  0.37155  0.63508  1.0000
  C   C421      1.0  0.56299  0.39472  0.62578  1.0000
  C   C422      1.0  0.56925  0.41474  0.64570  1.0000
  C   C423      1.0  0.58352  0.41184  0.67499  1.0000
  C   C424      1.0  0.59165  0.38871  0.68416  1.0000
  C   C425      1.0  0.58536  0.36864  0.66420  1.0000
  H   H502      1.0  0.55201  0.39723  0.60330  1.0000
  H   H503      1.0  0.56301  0.43260  0.63838  1.0000
  H   H504      1.0  0.60275  0.38629  0.70657  1.0000
  H   H505      1.0  0.59156  0.35076  0.67151  1.0000
  S   S125      1.0  0.36667  0.47310  0.73447  1.0000
  C   C426      1.0  0.57538  0.28725  0.94386  1.0000
  C   C427      1.0  0.52999  0.22398  0.89906  1.0000
  H   H506      1.0  0.57193  0.02999  0.89683  1.0000
  H   H507      1.0  0.57429  0.12733  0.51622  1.0000
  H   H508      1.0  0.59920  0.46789  0.92082  1.0000
  H   H509      1.0  0.58811  0.25974  0.88363  1.0000
  S   S126      1.0  0.63455  0.46399  0.83587  1.0000
  H   H510      1.0  0.47758  0.22473  0.51422  1.0000
  C   C428      1.0  0.55507  0.13495  0.57657  1.0000
  C   C429      1.0  0.44209  0.04309  0.87448  1.0000
  C   C430      1.0  0.45339  0.04577  0.84310  1.0000
  C   C431      1.0  0.44333  0.03531  0.81372  1.0000
  C   C432      1.0  0.42233  0.02155  0.81560  1.0000
  C   C433      1.0  0.41142  0.01839  0.84712  1.0000
  C   C434      1.0  0.42102  0.02948  0.87623  1.0000
  H   H511      1.0  0.46957  0.05627  0.84136  1.0000
  H   H512      1.0  0.45176  0.03807  0.78939  1.0000
  H   H513      1.0  0.39504  0.00819  0.84882  1.0000
  H   H514      1.0  0.41182  0.02779  0.90020  1.0000
  C   C435      1.0  0.54876  0.05847  0.53805  1.0000
  C   C436      1.0  0.57046  0.06965  0.53039  1.0000
  C   C437      1.0  0.59159  0.06363  0.54871  1.0000
  C   C438      1.0  0.59120  0.04631  0.57462  1.0000
  C   C439      1.0  0.56940  0.03548  0.58256  1.0000
  C   C440      1.0  0.54827  0.04160  0.56442  1.0000
  H   H515      1.0  0.53537  0.31405  0.94838  1.0000
  H   H516      1.0  0.60841  0.07212  0.54255  1.0000
  H   H517      1.0  0.56883  0.02222  0.60250  1.0000
  H   H518      1.0  0.53152  0.03300  0.57064  1.0000
  C   C441      1.0  0.56976  0.06019  0.83386  1.0000
  C   C442      1.0  0.54832  0.04817  0.82707  1.0000
  C   C443      1.0  0.54712  0.03195  0.79960  1.0000
  C   C444      1.0  0.56730  0.02763  0.77879  1.0000
  C   C445      1.0  0.58878  0.03949  0.78579  1.0000
  C   C446      1.0  0.58999  0.05570  0.81327  1.0000
  H   H519      1.0  0.53261  0.05158  0.84272  1.0000
  H   H520      1.0  0.53041  0.02295  0.79426  1.0000
  H   H521      1.0  0.60443  0.03628  0.76994  1.0000
  H   H522      1.0  0.58523  0.21830  0.86292  1.0000
  H   H523      1.0  0.54184  0.43971  0.94623  1.0000
  C   C447      1.0  0.54708  0.45326  0.88136  1.0000
  C   C448      1.0  0.43689  0.98626  0.93679  1.0000
  N   N28       1.0  0.56119  0.46174  0.91108  1.0000
  H   H524      1.0  0.50088  0.20629  0.60236  1.0000
  H   H525      1.0  0.40827  0.47018  0.57197  1.0000
  H   H526      1.0  0.57167  0.44738  0.96004  1.0000
  N   N29       1.0  0.55464  0.28638  0.91999  1.0000
  C   C449      1.0  0.57480  0.01717  0.91829  1.0000
  C   C450      1.0  0.52284  0.17907  0.57716  1.0000
  H   H527      1.0  0.54838  0.19493  0.87296  1.0000
  H   H528      1.0  0.48087  0.01238  0.94841  1.0000
  C   C451      1.0  0.57015  0.22660  0.87637  1.0000
  H   H529      1.0  0.45365  0.98476  0.75092  1.0000
  S   S127      1.0  0.64313  0.42417  0.77379  1.0000
  C   C452      1.0  0.52781  0.13715  0.52877  1.0000
  H   H530      1.0  0.45146  0.98266  0.87177  1.0000
  C   C453      1.0  0.50611  0.99689  0.98327  1.0000
  H   H531      1.0  0.57792  0.30580  0.95394  1.0000
  H   H532      1.0  0.54430  0.30230  0.87232  1.0000
  H   H533      1.0  0.51185  0.13625  0.54563  1.0000
  C   C454      1.0  0.51214  0.19188  0.97114  1.0000
  C   C455      1.0  0.55893  0.30330  0.89168  1.0000
  C   C456      1.0  0.57161  0.25031  0.88840  1.0000
  C   C457      1.0  0.58652  0.46429  0.89966  1.0000
  H   H534      1.0  0.59274  0.28180  0.93184  1.0000
  S   S128      1.0  0.52202  0.06467  0.51494  1.0000
  C   C458      1.0  0.51589  0.20279  0.58536  1.0000
  C   C459      1.0  0.56951  0.14651  0.52195  1.0000
  H   H535      1.0  0.45252  0.43761  0.52037  1.0000
  H   H536      1.0  0.42115  0.98521  0.91920  1.0000
  H   H537      1.0  0.49564  0.25020  0.99203  1.0000
  C   C460      1.0  0.50696  0.23414  0.98975  1.0000
  H   H538      1.0  0.52214  0.14735  0.50567  1.0000
  C   C461      1.0  0.61584  0.02924  0.92422  1.0000
  C   C462      1.0  0.53573  0.19191  0.98396  1.0000
  H   H539      1.0  0.55591  0.23294  0.53761  1.0000
  N   N30       1.0  0.49071  0.36887  0.67340  1.0000
  C   C463      1.0  0.49799  0.34307  0.67700  1.0000
  C   C464      1.0  0.46391  0.37013  0.67117  1.0000
  C   C465      1.0  0.50045  0.37793  0.64103  1.0000
  C   C466      1.0  0.50069  0.38318  0.70179  1.0000
  C   C467      1.0  0.52599  0.38345  0.70747  1.0000
  C   C468      1.0  0.48608  0.39802  0.72337  1.0000
  C   C469      1.0  0.53606  0.39753  0.73315  1.0000
  C   C470      1.0  0.49636  0.41201  0.74906  1.0000
  C   C471      1.0  0.52129  0.41174  0.75396  1.0000
  H   H540      1.0  0.49214  0.33580  0.70183  1.0000
  H   H541      1.0  0.49004  0.33180  0.65649  1.0000
  H   H542      1.0  0.45540  0.36303  0.69447  1.0000
  H   H543      1.0  0.45698  0.35930  0.64941  1.0000
  H   H544      1.0  0.45716  0.38890  0.66679  1.0000
  H   H545      1.0  0.49914  0.39793  0.63982  1.0000
  H   H546      1.0  0.51974  0.37280  0.63760  1.0000
  H   H547      1.0  0.49078  0.37051  0.61863  1.0000
  H   H548      1.0  0.53823  0.37305  0.69159  1.0000
  H   H549      1.0  0.46669  0.39939  0.72072  1.0000
  H   H550      1.0  0.55552  0.39772  0.73656  1.0000
  H   H551      1.0  0.48493  0.42338  0.76499  1.0000
  H   H552      1.0  0.52927  0.42283  0.77354  1.0000
  H   H553      1.0  0.47051  0.00249  0.89445  1.0000
  H   H554      1.0  0.51563  0.25448  0.92477  1.0000
  C   C472      1.0  0.50503  0.46512  0.70200  1.0000
  H   H555      1.0  0.54705  0.17587  0.98165  1.0000
  C   C473      1.0  0.54700  0.21778  0.54907  1.0000
  H   H556      1.0  0.56826  0.19231  0.52200  1.0000
  S   S129      1.0  0.62620  0.02549  0.69341  1.0000
  H   H557      1.0  0.62336  0.01156  0.91529  1.0000
  S   S130      1.0  0.54242  0.33112  0.51634  1.0000
  H   H558      1.0  0.48377  0.99615  0.68689  1.0000
  S   S131      1.0  0.58706  0.98976  0.65533  1.0000
  C   C474      1.0  0.55394  0.19416  0.54036  1.0000
  C   C475      1.0  0.52793  0.22211  0.57129  1.0000
  H   H559      1.0  0.61311  0.04099  0.90149  1.0000
  C   C476      1.0  0.53127  0.24765  0.91131  1.0000
  H   H560      1.0  0.56100  0.11605  0.57060  1.0000
  N   N31       1.0  0.54866  0.14869  0.54544  1.0000
  H   H561      1.0  0.51295  0.01434  0.99085  1.0000
  H   H562      1.0  0.58070  0.99969  0.90672  1.0000
  C   C477      1.0  0.46119  0.45249  0.50812  1.0000
  C   C478      1.0  0.55231  0.26150  0.90662  1.0000
  H   H563      1.0  0.51670  0.29617  0.92185  1.0000
  H   H564      1.0  0.62331  0.03297  0.99736  1.0000
  H   H565      1.0  0.57002  0.14367  0.59068  1.0000
  H   H566      1.0  0.58490  0.02440  0.50544  1.0000
  H   H567      1.0  0.51788  0.34009  0.67505  1.0000
  H   H568      1.0  0.51976  0.98247  0.76335  1.0000
  H   H569      1.0  0.58595  0.15469  0.53301  1.0000
  H   H570      1.0  0.51394  0.21354  0.90340  1.0000
  C   C479      1.0  0.52727  0.46647  0.71834  1.0000
  H   H571      1.0  0.57639  0.29957  0.87874  1.0000
  N   N32       1.0  0.59294  0.02614  0.94293  1.0000
  H   H572      1.0  0.53960  0.13344  0.59420  1.0000
  H   H573      1.0  0.52909  0.28400  0.96097  1.0000
  H   H574      1.0  0.54243  0.45545  0.70962  1.0000
  H   H575      1.0  0.52833  0.44862  0.88848  1.0000
  H   H576      1.0  0.57983  0.06249  0.93385  1.0000
  C   C480      1.0  0.45553  0.47706  0.51608  1.0000
  C   C481      1.0  0.48768  0.99555  0.95901  1.0000
  H   H577      1.0  0.51278  0.16472  0.58848  1.0000
  H   H578      1.0  0.57105  0.08266  0.51016  1.0000
  H   H579      1.0  0.57263  0.27505  0.96589  1.0000
  H   H580      1.0  0.62989  0.03793  0.93999  1.0000
  C   C482      1.0  0.54942  0.21343  0.88187  1.0000
  H   H581      1.0  0.43289  0.44976  0.56637  1.0000
  H   H582      1.0  0.50297  0.45294  0.68064  1.0000
  C   C483      1.0  0.49789  0.21317  0.97410  1.0000
  H   H583      1.0  0.55687  0.01504  0.93039  1.0000
  C   C484      1.0  0.46594  0.98316  0.89148  1.0000
  H   H584      1.0  0.56795  0.42526  0.92780  1.0000
  H   H585      1.0  0.47966  0.01236  0.72617  1.0000
  H   H586      1.0  0.56781  0.04841  0.97096  1.0000
  S   S132      1.0  0.48514  0.34356  0.50016  1.0000
  H   H587      1.0  0.52214  0.24053  0.57691  1.0000
  C   C485      1.0  0.53294  0.29540  0.93852  1.0000
  C   C486      1.0  0.59703  0.00993  0.97229  1.0000
  C   C487      1.0  0.49052  0.99782  0.71340  1.0000
  H   H588      1.0  0.59362  0.44746  0.88723  1.0000
  H   H589      1.0  0.44070  0.00579  0.93984  1.0000
  Fe  Fe65      1.0  0.50676  0.31252  0.52270  1.0000
  H   H590      1.0  0.50931  0.00455  0.71235  1.0000
  H   H591      1.0  0.55950  0.32239  0.90073  1.0000
  C   C488      1.0  0.54208  0.17399  0.55433  1.0000
  S   S133      1.0  0.49506  0.27305  0.51561  1.0000
  C   C489      1.0  0.61352  0.01633  0.99833  1.0000
  C   C490      1.0  0.42218  0.46408  0.55325  1.0000
  H   H592      1.0  0.41257  0.45581  0.53142  1.0000
  H   H593      1.0  0.54655  0.46705  0.86086  1.0000
  H   H594      1.0  0.43114  0.97941  0.96192  1.0000
  C   C491      1.0  0.45888  0.70030  0.06749  1.0000
  S   S134      1.0  0.36591  0.97013  0.25082  1.0000
  S   S135      1.0  0.62637  0.92554  0.14581  1.0000
  C   C492      1.0  0.53455  0.48945  0.15623  1.0000
  S   S136      1.0  0.45866  0.82990  0.01736  1.0000
  S   S137      1.0  0.46609  0.84404  0.43173  1.0000
  Fe  Fe66      1.0  0.50847  0.87420  0.04866  1.0000
  S   S138      1.0  0.49686  0.84251  0.07994  1.0000
  S   S139      1.0  0.53077  0.90750  0.05977  1.0000
  Fe  Fe67      1.0  0.49698  0.82062  0.03115  1.0000
  C   C493      1.0  0.43748  0.94989  0.41727  1.0000
  Fe  Fe68      1.0  0.45920  0.85357  0.06420  1.0000
  S   S140      1.0  0.42866  0.85199  0.10233  1.0000
  H   H595      1.0  0.60065  0.88195  0.13057  1.0000
  S   S141      1.0  0.47045  0.88640  0.03578  1.0000
  S   S142      1.0  0.35007  0.96029  0.32867  1.0000
  Fe  Fe69      1.0  0.39380  0.94035  0.25777  1.0000
  S   S143      1.0  0.36762  0.91480  0.28115  1.0000
  S   S144      1.0  0.42052  0.93462  0.21463  1.0000
  Fe  Fe70      1.0  0.34026  0.94564  0.27736  1.0000
  Fe  Fe71      1.0  0.37902  0.93136  0.33076  1.0000
  S   S145      1.0  0.38059  0.91338  0.38224  1.0000
  S   S146      1.0  0.40751  0.95458  0.30800  1.0000
  C   C494      1.0  0.51651  0.48581  0.13188  1.0000
  H   H596      1.0  0.38128  0.93882  0.15483  1.0000
  S   S147      1.0  0.61255  0.51508  0.32872  1.0000
  C   C495      1.0  0.45050  0.93545  0.44020  1.0000
  Fe  Fe72      1.0  0.38099  0.52722  0.15963  1.0000
  S   S148      1.0  0.41356  0.50636  0.17759  1.0000
  S   S149      1.0  0.38765  0.56313  0.13440  1.0000
  Fe  Fe73      1.0  0.39206  0.49903  0.22418  1.0000
  S   S150      1.0  0.40882  0.49624  0.27667  1.0000
  S   S151      1.0  0.36072  0.52300  0.20875  1.0000
  H   H597      1.0  0.55098  0.51464  0.19038  1.0000
  S   S152      1.0  0.43906  0.61028  0.46518  1.0000
  C   C496      1.0  0.52112  0.53084  0.16306  1.0000
  Fe  Fe74      1.0  0.49405  0.57256  0.42917  1.0000
  S   S153      1.0  0.47550  0.60239  0.39955  1.0000
  S   S154      1.0  0.51653  0.53972  0.41169  1.0000
  Fe  Fe75      1.0  0.47504  0.62424  0.44852  1.0000
  S   S155      1.0  0.47667  0.66576  0.44513  1.0000
  Fe  Fe76      1.0  0.44084  0.58714  0.41805  1.0000
  S   S156      1.0  0.40973  0.58394  0.38073  1.0000
  C   C497      1.0  0.34954  0.91994  0.13626  1.0000
  S   S157      1.0  0.45897  0.55628  0.44473  1.0000
  C   C498      1.0  0.40868  0.52091  0.30505  1.0000
  C   C499      1.0  0.41932  0.51789  0.33714  1.0000
  C   C500      1.0  0.42005  0.53722  0.36030  1.0000
  C   C501      1.0  0.40973  0.55961  0.35174  1.0000
  C   C502      1.0  0.39846  0.56243  0.31999  1.0000
  C   C503      1.0  0.39815  0.54322  0.29653  1.0000
  H   H598      1.0  0.42708  0.50053  0.34415  1.0000
  H   H599      1.0  0.42824  0.53470  0.38501  1.0000
  H   H600      1.0  0.39022  0.57966  0.31336  1.0000
  H   H601      1.0  0.38977  0.54572  0.27193  1.0000
  C   C504      1.0  0.40506  0.56234  0.09699  1.0000
  C   C505      1.0  0.40918  0.54067  0.07956  1.0000
  C   C506      1.0  0.42331  0.54020  0.05007  1.0000
  C   C507      1.0  0.43366  0.56134  0.03786  1.0000
  C   C508      1.0  0.42928  0.58316  0.05490  1.0000
  C   C509      1.0  0.41492  0.58365  0.08435  1.0000
  H   H602      1.0  0.40133  0.52424  0.08878  1.0000
  H   H603      1.0  0.42621  0.52332  0.03671  1.0000
  H   H604      1.0  0.44374  0.91769  0.44515  1.0000
  H   H605      1.0  0.41166  0.60051  0.09764  1.0000
  C   C510      1.0  0.58526  0.52204  0.35042  1.0000
  C   C511      1.0  0.58038  0.54590  0.36110  1.0000
  C   C512      1.0  0.55915  0.55189  0.37922  1.0000
  C   C513      1.0  0.54286  0.53391  0.38736  1.0000
  C   C514      1.0  0.54770  0.51012  0.37650  1.0000
  C   C515      1.0  0.56857  0.50427  0.35774  1.0000
  H   H606      1.0  0.59317  0.55979  0.35549  1.0000
  H   H607      1.0  0.55571  0.57026  0.38754  1.0000
  H   H608      1.0  0.53529  0.49603  0.38282  1.0000
  C   C516      1.0  0.50772  0.93876  0.49361  1.0000
  Fe  Fe77      1.0  0.47053  0.83499  0.48725  1.0000
  C   C517      1.0  0.49089  0.90447  0.46582  1.0000
  C   C518      1.0  0.47651  0.97286  0.23457  1.0000
  H   H609      1.0  0.45868  0.96561  0.23845  1.0000
  H   H610      1.0  0.35532  0.50335  0.27773  1.0000
  H   H611      1.0  0.45713  0.71396  0.45091  1.0000
  H   H612      1.0  0.35122  0.89394  0.19208  1.0000
  C   C519      1.0  0.33722  0.49537  0.27445  1.0000
  H   H613      1.0  0.55866  0.48002  0.24556  1.0000
  Fe  Fe78      1.0  0.62147  0.47824  0.30566  1.0000
  C   C520      1.0  0.40460  0.89421  0.39542  1.0000
  C   C521      1.0  0.40460  0.88521  0.42867  1.0000
  C   C522      1.0  0.42349  0.86999  0.44024  1.0000
  C   C523      1.0  0.44237  0.86351  0.41843  1.0000
  C   C524      1.0  0.44246  0.87258  0.38525  1.0000
  C   C525      1.0  0.42369  0.88801  0.37380  1.0000
  H   H614      1.0  0.38986  0.89001  0.44549  1.0000
  H   H615      1.0  0.42324  0.86303  0.46582  1.0000
  H   H616      1.0  0.45709  0.86770  0.36831  1.0000
  H   H617      1.0  0.42387  0.89496  0.34820  1.0000
  C   C526      1.0  0.42712  0.87441  0.13443  1.0000
  C   C527      1.0  0.41004  0.87266  0.16055  1.0000
  C   C528      1.0  0.40820  0.89055  0.18599  1.0000
  C   C529      1.0  0.42310  0.91059  0.18504  1.0000
  C   C530      1.0  0.44035  0.91215  0.15915  1.0000
  C   C531      1.0  0.44246  0.89410  0.13408  1.0000
  H   H618      1.0  0.39824  0.85739  0.16115  1.0000
  H   H619      1.0  0.39536  0.88881  0.20632  1.0000
  H   H620      1.0  0.45196  0.92756  0.15821  1.0000
  H   H621      1.0  0.45572  0.89563  0.11419  1.0000
  C   C532      1.0  0.59983  0.92033  0.12184  1.0000
  C   C533      1.0  0.58737  0.93935  0.10593  1.0000
  C   C534      1.0  0.56659  0.93489  0.08650  1.0000
  C   C535      1.0  0.55767  0.91145  0.08335  1.0000
  C   C536      1.0  0.56997  0.89237  0.09946  1.0000
  C   C537      1.0  0.59111  0.89680  0.11840  1.0000
  H   H622      1.0  0.59396  0.95748  0.10819  1.0000
  H   H623      1.0  0.55723  0.94975  0.07405  1.0000
  H   H624      1.0  0.56329  0.87424  0.09719  1.0000
  H   H625      1.0  0.48474  0.49111  0.27302  1.0000
  H   H626      1.0  0.46286  0.68206  0.05872  1.0000
  N   N33       1.0  0.44255  0.77424  0.09584  1.0000
  C   C538      1.0  0.42702  0.78518  0.06901  1.0000
  C   C539      1.0  0.42928  0.77523  0.12841  1.0000
  C   C540      1.0  0.46409  0.78953  0.09960  1.0000
  C   C541      1.0  0.44856  0.74881  0.08697  1.0000
  C   C542      1.0  0.42987  0.73221  0.08064  1.0000
  C   C543      1.0  0.47272  0.73981  0.08402  1.0000
  C   C544      1.0  0.45705  0.50599  0.11324  1.0000
  C   C545      1.0  0.47764  0.71587  0.07454  1.0000
  H   H627      1.0  0.57939  0.95641  0.00750  1.0000
  H   H628      1.0  0.40908  0.77675  0.06718  1.0000
  H   H629      1.0  0.42338  0.80475  0.07377  1.0000
  H   H630      1.0  0.43577  0.78347  0.04377  1.0000
  H   H631      1.0  0.41186  0.76571  0.12701  1.0000
  H   H632      1.0  0.42491  0.79424  0.13607  1.0000
  H   H633      1.0  0.44020  0.76679  0.14914  1.0000
  H   H634      1.0  0.47465  0.79005  0.07565  1.0000
  H   H635      1.0  0.45898  0.80856  0.10598  1.0000
  H   H636      1.0  0.47621  0.78310  0.12039  1.0000
  H   H637      1.0  0.41109  0.73762  0.08273  1.0000
  H   H638      1.0  0.48823  0.75101  0.08774  1.0000
  H   H639      1.0  0.47246  0.50252  0.33068  1.0000
  H   H640      1.0  0.49617  0.70959  0.07131  1.0000
  H   H641      1.0  0.56829  0.94387  0.17941  1.0000
  N   N34       1.0  0.48299  0.77517  0.39661  1.0000
  C   C546      1.0  0.49552  0.79744  0.38652  1.0000
  C   C547      1.0  0.46939  0.76656  0.36650  1.0000
  C   C548      1.0  0.46521  0.78139  0.42337  1.0000
  C   C549      1.0  0.50064  0.75712  0.41004  1.0000
  C   C550      1.0  0.50165  0.73272  0.39863  1.0000
  C   C551      1.0  0.51675  0.76345  0.43657  1.0000
  C   C552      1.0  0.51800  0.71598  0.41276  1.0000
  C   C553      1.0  0.53315  0.74660  0.45028  1.0000
  C   C554      1.0  0.53374  0.72291  0.43844  1.0000
  H   H642      1.0  0.51030  0.79332  0.36823  1.0000
  H   H643      1.0  0.48287  0.81089  0.37466  1.0000
  H   H644      1.0  0.50343  0.80710  0.40854  1.0000
  H   H645      1.0  0.48184  0.76103  0.34565  1.0000
  H   H646      1.0  0.45700  0.78090  0.35626  1.0000
  H   H647      1.0  0.45774  0.75112  0.37291  1.0000
  H   H648      1.0  0.45541  0.76516  0.43174  1.0000
  H   H649      1.0  0.47397  0.78934  0.44611  1.0000
  H   H650      1.0  0.45154  0.79501  0.41444  1.0000
  H   H651      1.0  0.48959  0.72583  0.37955  1.0000
  H   H652      1.0  0.51627  0.78125  0.44784  1.0000
  H   H653      1.0  0.51777  0.69721  0.40476  1.0000
  H   H654      1.0  0.55066  0.97155  0.13442  1.0000
  C   C555      1.0  0.52300  0.93936  0.16185  1.0000
  H   H655      1.0  0.57047  0.53344  0.45099  1.0000
  S   S158      1.0  0.36369  0.49557  0.13436  1.0000
  N   N35       1.0  0.33003  0.48106  0.30418  1.0000
  C   C556      1.0  0.37961  0.90942  0.07970  1.0000
  H   H656      1.0  0.36471  0.92218  0.20249  1.0000
  H   H657      1.0  0.46940  0.52978  0.35516  1.0000
  C   C557      1.0  0.50846  0.51971  0.29028  1.0000
  C   C558      1.0  0.50022  0.50483  0.12228  1.0000
  H   H658      1.0  0.60533  0.97370  0.45444  1.0000
  C   C559      1.0  0.57025  0.51451  0.45783  1.0000
  C   C560      1.0  0.47139  0.71226  0.46961  1.0000
  H   H659      1.0  0.32330  0.89877  0.10735  1.0000
  C   C561      1.0  0.47161  0.94383  0.45659  1.0000
  H   H660      1.0  0.48529  0.94670  0.19734  1.0000
  C   C562      1.0  0.35613  0.90096  0.08051  1.0000
  C   C563      1.0  0.52081  0.48392  0.25700  1.0000
  N   N36       1.0  0.48478  0.92830  0.48132  1.0000
  C   C564      1.0  0.48181  0.51925  0.33832  1.0000
  C   C565      1.0  0.44489  0.97315  0.41019  1.0000
  H   H661      1.0  0.32084  0.95496  0.19577  1.0000
  H   H662      1.0  0.49406  0.97601  0.46062  1.0000
  H   H663      1.0  0.39134  0.90495  0.05853  1.0000
  Fe  Fe79      1.0  0.34591  0.48926  0.18519  1.0000
  H   H664      1.0  0.32457  0.54158  0.41184  1.0000
  C   C566      1.0  0.32810  0.49715  0.33418  1.0000
  C   C567      1.0  0.34118  0.90610  0.10827  1.0000
  C   C568      1.0  0.34728  0.91347  0.19659  1.0000
  C   C569      1.0  0.34722  0.52569  0.37333  1.0000
  H   H665      1.0  0.60843  0.96873  0.05168  1.0000
  H   H666      1.0  0.50656  0.94417  0.14679  1.0000
  H   H667      1.0  0.34973  0.95966  0.17762  1.0000
  H   H668      1.0  0.45424  0.52493  0.12202  1.0000
  H   H669      1.0  0.54465  0.75167  0.47137  1.0000
  C   C570      1.0  0.47858  0.96779  0.44902  1.0000
  C   C571      1.0  0.51462  0.73391  0.00686  1.0000
  N   N37       1.0  0.48079  0.50175  0.09682  1.0000
  H   H670      1.0  0.53632  0.93160  0.14352  1.0000
  H   H671      1.0  0.56968  0.51737  0.27581  1.0000
  N   N38       1.0  0.48938  0.53353  0.30868  1.0000
  H   H672      1.0  0.50415  0.56871  0.30030  1.0000
  C   C572      1.0  0.34858  0.50979  0.34580  1.0000
  H   H673      1.0  0.50105  0.90655  0.44177  1.0000
  C   C573      1.0  0.48350  0.51939  0.06892  1.0000
  C   C574      1.0  0.50303  0.52742  0.13877  1.0000
  C   C575      1.0  0.32549  0.52929  0.39040  1.0000
  H   H674      1.0  0.45856  0.52130  0.27942  1.0000
  C   C576      1.0  0.43504  0.70839  0.07076  1.0000
  H   H675      1.0  0.51159  0.55555  0.34105  1.0000
  H   H676      1.0  0.43703  0.59959  0.04558  1.0000
  Fe  Fe80      1.0  0.63348  0.96390  0.16274  1.0000
  H   H677      1.0  0.48232  0.56776  0.33376  1.0000
  C   C577      1.0  0.38815  0.92338  0.10640  1.0000
  H   H678      1.0  0.45415  0.54975  0.29904  1.0000
  H   H679      1.0  0.47336  0.54712  0.26249  1.0000
  H   H680      1.0  0.48022  0.53835  0.07733  1.0000
  C   C578      1.0  0.49734  0.55740  0.32128  1.0000
  H   H681      1.0  0.53934  0.54211  0.30406  1.0000
  H   H682      1.0  0.61816  0.94802  0.40768  1.0000
  C   C579      1.0  0.46809  0.53806  0.28637  1.0000
  H   H683      1.0  0.54576  0.70964  0.45011  1.0000
  C   C580      1.0  0.55088  0.51222  0.27448  1.0000
  H   H684      1.0  0.42053  0.69618  0.06504  1.0000
  H   H685      1.0  0.55162  0.93972  0.21801  1.0000
  H   H686      1.0  0.49111  0.54258  0.13301  1.0000
  N   N39       1.0  0.53264  0.96063  0.18010  1.0000
  C   C581      1.0  0.53312  0.52639  0.29065  1.0000
  H   H687      1.0  0.49762  0.51373  0.35415  1.0000
  C   C582      1.0  0.37344  0.92856  0.13430  1.0000
  S   S159      1.0  0.45171  0.55935  0.00113  1.0000
  C   C583      1.0  0.49990  0.75487  0.00970  1.0000
  S   S160      1.0  0.51262  0.78201  0.02584  1.0000
  H   H688      1.0  0.50211  0.89294  0.48316  1.0000
  H   H689      1.0  0.40653  0.92972  0.10590  1.0000
  H   H690      1.0  0.52293  0.54829  0.17523  1.0000
  H   H691      1.0  0.62244  0.96457  0.34981  1.0000
  H   H692      1.0  0.47031  0.51637  0.04801  1.0000
  C   C584      1.0  0.48348  0.68982  0.47367  1.0000
  H   H693      1.0  0.36317  0.53534  0.38133  1.0000
  H   H694      1.0  0.32407  0.51039  0.26942  1.0000
  S   S161      1.0  0.49680  0.59546  0.47658  1.0000
  C   C585      1.0  0.54475  0.49107  0.25768  1.0000
  H   H695      1.0  0.44180  0.50209  0.09571  1.0000
  H   H696      1.0  0.50189  0.51816  0.05773  1.0000
  C   C586      1.0  0.50291  0.49787  0.27324  1.0000
  H   H697      1.0  0.34961  0.89009  0.05961  1.0000
  C   C587      1.0  0.49214  0.96210  0.21087  1.0000
  H   H698      1.0  0.46846  0.74966  0.48551  1.0000
  H   H699      1.0  0.47469  0.89373  0.45999  1.0000
  H   H700      1.0  0.33614  0.91492  0.21993  1.0000
  H   H701      1.0  0.51871  0.92453  0.17964  1.0000
  H   H702      1.0  0.42141  0.94305  0.40501  1.0000
  H   H703      1.0  0.56506  0.96803  0.20894  1.0000
  C   C588      1.0  0.33214  0.95095  0.17300  1.0000
  H   H704      1.0  0.53908  0.51906  0.48963  1.0000
  H   H705      1.0  0.49595  0.50242  0.46138  1.0000
  H   H706      1.0  0.45499  0.49392  0.13548  1.0000
  C   C589      1.0  0.55531  0.95272  0.19735  1.0000
  C   C590      1.0  0.53688  0.51192  0.17168  1.0000
  H   H707      1.0  0.36584  0.50761  0.33341  1.0000
  H   H708      1.0  0.53349  0.73469  0.01389  1.0000
  C   C591      1.0  0.47555  0.75347  0.00050  1.0000
  Fe  Fe81      1.0  0.46064  0.58045  0.49018  1.0000
  H   H709      1.0  0.60008  0.50540  0.42624  1.0000
  C   C592      1.0  0.58716  0.49828  0.44388  1.0000
  C   C593      1.0  0.61431  0.96700  0.40315  1.0000
  H   H710      1.0  0.52015  0.94236  0.47223  1.0000
  C   C594      1.0  0.47784  0.73260  0.48905  1.0000
  N   N40       1.0  0.33486  0.92459  0.16701  1.0000
  H   H711      1.0  0.46399  0.76929  0.00254  1.0000
  H   H712      1.0  0.57180  0.48596  0.34924  1.0000
  S   S162      1.0  0.51232  0.85143  0.00162  1.0000
  S   S163      1.0  0.64305  0.96951  0.21739  1.0000
  C   C595      1.0  0.51560  0.97125  0.20523  1.0000
  H   H713      1.0  0.33826  0.48404  0.25112  1.0000
  H   H714      1.0  0.32345  0.96006  0.15086  1.0000
  H   H715      1.0  0.39110  0.57330  0.00317  1.0000
  C   C596      1.0  0.46906  0.49481  0.49907  1.0000
  C   C597      1.0  0.48621  0.48846  0.47448  1.0000
  H   H716      1.0  0.63391  0.48207  0.43441  1.0000
  C   C598      1.0  0.58890  0.97320  0.00476  1.0000
  C   C599      1.0  0.55171  0.48204  0.48783  1.0000
  C   C600      1.0  0.55247  0.50641  0.47957  1.0000
  C   C601      1.0  0.61680  0.97624  0.37057  1.0000
  H   H717      1.0  0.51347  0.93732  0.00110  1.0000
  C   C602      1.0  0.50194  0.68797  0.49796  1.0000
  H   H718      1.0  0.52944  0.97705  0.01743  1.0000
  C   C603      1.0  0.45995  0.75991  0.88859  1.0000
  H   H719      1.0  0.42703  0.66331  0.50237  1.0000
  S   S164      1.0  0.60895  0.92022  0.64968  1.0000
  C   C604      1.0  0.46603  0.73137  0.98924  1.0000
  S   S165      1.0  0.45473  0.80382  0.51514  1.0000
  S   S166      1.0  0.46898  0.87210  0.93530  1.0000
  Fe  Fe82      1.0  0.50285  0.85011  0.54642  1.0000
  S   S167      1.0  0.49044  0.81954  0.57933  1.0000
  S   S168      1.0  0.52236  0.88553  0.55504  1.0000
  Fe  Fe83      1.0  0.49267  0.79580  0.53237  1.0000
  S   S169      1.0  0.50742  0.75681  0.53484  1.0000
  Fe  Fe84      1.0  0.45333  0.82904  0.56014  1.0000
  S   S170      1.0  0.42180  0.82976  0.59633  1.0000
  H   H720      1.0  0.57380  0.94628  0.60742  1.0000
  S   S171      1.0  0.46510  0.86086  0.53023  1.0000
  S   S172      1.0  0.35607  0.48904  0.65626  1.0000
  Fe  Fe85      1.0  0.39451  0.92730  0.74286  1.0000
  S   S173      1.0  0.36211  0.91123  0.76762  1.0000
  S   S174      1.0  0.42336  0.91430  0.70578  1.0000
  Fe  Fe86      1.0  0.34220  0.94628  0.75525  1.0000
  Fe  Fe87      1.0  0.37432  0.93030  0.81502  1.0000
  S   S175      1.0  0.37306  0.91481  0.86810  1.0000
  S   S176      1.0  0.40841  0.94303  0.79152  1.0000
  C   C605      1.0  0.48759  0.49558  0.74082  1.0000
  H   H721      1.0  0.47443  0.53830  0.71494  1.0000
  S   S177      1.0  0.57102  0.50431  0.81897  1.0000
  S   S178      1.0  0.37435  0.96105  0.72770  1.0000
  Fe  Fe88      1.0  0.36390  0.52687  0.67252  1.0000
  S   S179      1.0  0.39735  0.51672  0.70145  1.0000
  S   S180      1.0  0.36333  0.55526  0.63128  1.0000
  Fe  Fe89      1.0  0.37339  0.51211  0.74620  1.0000
  S   S181      1.0  0.38540  0.51878  0.80053  1.0000
  S   S182      1.0  0.34007  0.52616  0.71898  1.0000
  Fe  Fe90      1.0  0.46654  0.59084  0.97148  1.0000
  S   S183      1.0  0.44572  0.62113  0.94642  1.0000
  H   H722      1.0  0.44596  0.72607  0.87067  1.0000
  Fe  Fe91      1.0  0.51288  0.60257  0.93423  1.0000
  S   S184      1.0  0.49587  0.63435  0.90694  1.0000
  S   S185      1.0  0.55138  0.58807  0.92726  1.0000
  Fe  Fe92      1.0  0.47835  0.64404  0.95695  1.0000
  H   H723      1.0  0.41880  0.55236  0.93910  1.0000
  Fe  Fe93      1.0  0.46460  0.60972  0.89860  1.0000
  S   S186      1.0  0.44679  0.60844  0.84682  1.0000
  C   C606      1.0  0.38967  0.58085  0.97711  1.0000
  S   S187      1.0  0.48278  0.57769  0.92246  1.0000
  C   C607      1.0  0.40424  0.54282  0.81168  1.0000
  C   C608      1.0  0.41512  0.54297  0.84391  1.0000
  C   C609      1.0  0.42880  0.56269  0.85465  1.0000
  C   C610      1.0  0.43158  0.58245  0.83321  1.0000
  C   C611      1.0  0.42135  0.58194  0.80056  1.0000
  C   C612      1.0  0.40778  0.56215  0.78974  1.0000
  H   H724      1.0  0.41243  0.52805  0.86096  1.0000
  H   H725      1.0  0.43660  0.56295  0.87981  1.0000
  H   H726      1.0  0.42345  0.59719  0.78388  1.0000
  H   H727      1.0  0.39940  0.56223  0.76490  1.0000
  C   C613      1.0  0.38963  0.55762  0.60629  1.0000
  C   C614      1.0  0.41178  0.54806  0.61756  1.0000
  C   C615      1.0  0.43264  0.55063  0.59796  1.0000
  C   C616      1.0  0.43153  0.56217  0.56641  1.0000
  C   C617      1.0  0.40938  0.57160  0.55480  1.0000
  C   C618      1.0  0.38853  0.56953  0.57490  1.0000
  H   H728      1.0  0.41298  0.53912  0.64171  1.0000
  H   H729      1.0  0.44976  0.54364  0.60735  1.0000
  C   C619      1.0  0.36101  0.56786  0.86011  1.0000
  H   H730      1.0  0.37147  0.57706  0.56606  1.0000
  C   C620      1.0  0.56612  0.52677  0.85044  1.0000
  C   C621      1.0  0.54408  0.53977  0.84993  1.0000
  C   C622      1.0  0.53940  0.55845  0.87338  1.0000
  C   C623      1.0  0.55676  0.56441  0.89766  1.0000
  C   C624      1.0  0.57885  0.55138  0.89826  1.0000
  C   C625      1.0  0.58349  0.53250  0.87489  1.0000
  H   H731      1.0  0.53059  0.53559  0.83103  1.0000
  H   H732      1.0  0.52248  0.56850  0.87232  1.0000
  H   H733      1.0  0.59238  0.55593  0.91693  1.0000
  H   H734      1.0  0.60056  0.52274  0.87557  1.0000
  C   C626      1.0  0.38615  0.91596  0.61481  1.0000
  H   H735      1.0  0.53751  0.90479  0.66168  1.0000
  C   C627      1.0  0.34633  0.94527  0.64565  1.0000
  C   C628      1.0  0.50867  0.70846  0.51699  1.0000
  H   H736      1.0  0.36667  0.59712  0.82565  1.0000
  C   C629      1.0  0.58847  0.58227  0.82248  1.0000
  H   H737      1.0  0.48217  0.97352  0.88126  1.0000
  H   H738      1.0  0.39579  0.60693  0.92457  1.0000
  H   H739      1.0  0.46035  0.95323  0.75249  1.0000
  H   H740      1.0  0.40702  0.73033  0.54939  1.0000
  C   C630      1.0  0.39979  0.90298  0.88667  1.0000
  C   C631      1.0  0.40011  0.89724  0.92135  1.0000
  C   C632      1.0  0.42120  0.88773  0.93677  1.0000
  C   C633      1.0  0.44202  0.88381  0.91743  1.0000
  C   C634      1.0  0.44167  0.88948  0.88279  1.0000
  C   C635      1.0  0.42066  0.89909  0.86746  1.0000
  H   H741      1.0  0.38398  0.90018  0.93630  1.0000
  H   H742      1.0  0.42132  0.88343  0.96350  1.0000
  H   H743      1.0  0.45771  0.88645  0.86767  1.0000
  H   H744      1.0  0.42053  0.90319  0.84069  1.0000
  C   C636      1.0  0.42278  0.85244  0.62797  1.0000
  C   C637      1.0  0.40490  0.85379  0.65312  1.0000
  C   C638      1.0  0.40516  0.87219  0.67791  1.0000
  C   C639      1.0  0.42296  0.88969  0.67709  1.0000
  C   C640      1.0  0.44102  0.88805  0.65228  1.0000
  C   C641      1.0  0.44106  0.86943  0.62800  1.0000
  H   H745      1.0  0.39088  0.84051  0.65350  1.0000
  H   H746      1.0  0.39173  0.87275  0.69771  1.0000
  H   H747      1.0  0.45482  0.90152  0.65142  1.0000
  H   H748      1.0  0.45503  0.86850  0.60893  1.0000
  C   C642      1.0  0.58453  0.91068  0.62389  1.0000
  C   C643      1.0  0.57947  0.88596  0.62138  1.0000
  C   C644      1.0  0.56024  0.87785  0.60098  1.0000
  C   C645      1.0  0.54606  0.89442  0.58257  1.0000
  C   C646      1.0  0.55112  0.91912  0.58518  1.0000
  C   C647      1.0  0.57015  0.92723  0.60579  1.0000
  H   H749      1.0  0.59048  0.87301  0.63527  1.0000
  H   H750      1.0  0.55662  0.85879  0.59914  1.0000
  H   H751      1.0  0.54026  0.93212  0.57117  1.0000
  H   H752      1.0  0.43017  0.50612  0.76909  1.0000
  C   C648      1.0  0.59696  0.60047  0.84346  1.0000
  H   H753      1.0  0.37229  0.91366  0.68219  1.0000
  H   H754      1.0  0.31230  0.91950  0.61389  1.0000
  H   H755      1.0  0.45100  0.48220  0.78030  1.0000
  H   H756      1.0  0.46671  0.51382  0.50485  1.0000
  N   N41       1.0  0.34543  0.91858  0.64281  1.0000
  C   C649      1.0  0.38144  0.60435  0.87508  1.0000
  N   N42       1.0  0.46661  0.51081  0.75143  1.0000
  H   H757      1.0  0.46114  0.80660  0.86367  1.0000
  C   C650      1.0  0.52089  0.51717  0.92985  1.0000
  H   H758      1.0  0.36449  0.95163  0.65305  1.0000
  C   C651      1.0  0.50187  0.95520  0.71215  1.0000
  C   C652      1.0  0.36527  0.55879  0.89266  1.0000
  C   C653      1.0  0.64193  0.54227  0.76511  1.0000
  H   H759      1.0  0.56616  0.52722  0.98581  1.0000
  N   N43       1.0  0.47682  0.79816  0.91271  1.0000
  C   C654      1.0  0.47690  0.81108  0.87985  1.0000
  C   C655      1.0  0.45400  0.80434  0.93067  1.0000
  C   C656      1.0  0.49701  0.80750  0.93353  1.0000
  C   C657      1.0  0.47851  0.77178  0.90670  1.0000
  C   C658      1.0  0.63787  0.58506  0.83589  1.0000
  C   C659      1.0  0.49813  0.75711  0.91864  1.0000
  H   H760      1.0  0.49355  0.80657  0.86522  1.0000
  C   C660      1.0  0.49875  0.73216  0.91320  1.0000
  C   C661      1.0  0.47988  0.72102  0.89628  1.0000
  H   H761      1.0  0.47611  0.83106  0.88360  1.0000
  H   H762      1.0  0.33381  0.95240  0.66560  1.0000
  H   H763      1.0  0.51761  0.92625  0.51115  1.0000
  H   H764      1.0  0.43773  0.80069  0.91511  1.0000
  H   H765      1.0  0.45274  0.82387  0.93732  1.0000
  H   H766      1.0  0.45261  0.79394  0.95459  1.0000
  H   H767      1.0  0.49758  0.79911  0.95913  1.0000
  H   H768      1.0  0.51478  0.80440  0.92103  1.0000
  H   H769      1.0  0.49523  0.82733  0.93764  1.0000
  C   C662      1.0  0.36054  0.55061  0.96569  1.0000
  H   H770      1.0  0.51298  0.76427  0.93308  1.0000
  C   C663      1.0  0.46060  0.73489  0.88378  1.0000
  H   H771      1.0  0.51354  0.72119  0.92328  1.0000
  C   C664      1.0  0.37722  0.57260  0.91784  1.0000
  N   N44       1.0  0.38225  0.56239  0.95187  1.0000
  H   H772      1.0  0.34458  0.56317  0.96514  1.0000
  C   C665      1.0  0.45132  0.67575  0.54092  1.0000
  C   C666      1.0  0.55177  0.48477  0.92557  1.0000
  C   C667      1.0  0.49088  0.93322  0.70257  1.0000
  H   H773      1.0  0.52347  0.70694  0.53489  1.0000
  C   C668      1.0  0.40184  0.90704  0.58985  1.0000
  C   C669      1.0  0.41489  0.69712  0.52424  1.0000
  C   C670      1.0  0.48792  0.95202  0.96478  1.0000
  H   H774      1.0  0.51162  0.67097  0.50119  1.0000
  C   C671      1.0  0.50370  0.91533  0.68458  1.0000
  H   H775      1.0  0.48172  0.93408  0.95907  1.0000
  C   C672      1.0  0.48549  0.47947  0.71292  1.0000
  C   C673      1.0  0.50634  0.95359  0.98905  1.0000
  Fe  Fe94      1.0  0.61464  0.95998  0.66176  1.0000
  H   H776      1.0  0.35249  0.55672  0.84099  1.0000
  H   H777      1.0  0.62805  0.61605  0.86666  1.0000
  C   C674      1.0  0.42097  0.50357  0.52919  1.0000
  H   H778      1.0  0.48006  0.70154  0.89341  1.0000
  H   H779      1.0  0.44396  0.53934  0.73060  1.0000
  H   H780      1.0  0.51855  0.48832  0.89504  1.0000
  H   H781      1.0  0.45531  0.53729  0.78892  1.0000
  S   S188      1.0  0.35279  0.96451  0.80449  1.0000
  H   H782      1.0  0.39734  0.52926  0.93119  1.0000
  H   H783      1.0  0.43502  0.94751  0.89689  1.0000
  C   C675      1.0  0.45920  0.52696  0.72317  1.0000
  H   H784      1.0  0.58431  0.61312  0.85528  1.0000
  C   C676      1.0  0.35386  0.90783  0.67517  1.0000
  Fe  Fe95      1.0  0.38876  0.47857  0.68733  1.0000
  N   N45       1.0  0.44617  0.73463  0.59192  1.0000
  C   C677      1.0  0.47025  0.73232  0.60853  1.0000
  C   C678      1.0  0.44528  0.75816  0.57409  1.0000
  C   C679      1.0  0.42762  0.73505  0.61890  1.0000
  C   C680      1.0  0.44118  0.71478  0.56774  1.0000
  C   C681      1.0  0.45670  0.69415  0.56396  1.0000
  C   C682      1.0  0.41990  0.71549  0.54749  1.0000
  H   H785      1.0  0.49500  0.89868  0.67755  1.0000
  H   H786      1.0  0.52764  0.54548  0.96588  1.0000
  H   H787      1.0  0.45287  0.51676  0.70057  1.0000
  H   H788      1.0  0.48500  0.73164  0.58939  1.0000
  H   H789      1.0  0.45745  0.75769  0.55176  1.0000
  H   H790      1.0  0.45099  0.77333  0.59074  1.0000
  H   H791      1.0  0.42689  0.76331  0.56501  1.0000
  H   H792      1.0  0.42744  0.71752  0.63260  1.0000
  H   H793      1.0  0.43093  0.74960  0.63784  1.0000
  H   H794      1.0  0.40916  0.73841  0.60855  1.0000
  H   H795      1.0  0.47336  0.69191  0.57795  1.0000
  H   H796      1.0  0.43034  0.52064  0.52392  1.0000
  H   H797      1.0  0.36332  0.54473  0.99247  1.0000
  H   H798      1.0  0.35987  0.54053  0.89735  1.0000
  H   H799      1.0  0.42077  0.91159  0.59065  1.0000
  H   H800      1.0  0.51412  0.50811  0.77844  1.0000
  H   H801      1.0  0.47172  0.71594  0.62466  1.0000
  H   H802      1.0  0.47398  0.74800  0.62537  1.0000
  C   C683      1.0  0.56449  0.49651  0.95205  1.0000
  H   H803      1.0  0.44268  0.93847  0.93894  1.0000
  H   H804      1.0  0.39877  0.69820  0.50860  1.0000
  H   H805      1.0  0.34127  0.95404  0.62124  1.0000
  C   C684      1.0  0.44990  0.94747  0.91604  1.0000
  H   H806      1.0  0.46363  0.66040  0.53782  1.0000
  H   H807      1.0  0.40675  0.50864  0.54802  1.0000
  H   H808      1.0  0.53617  0.97385  0.70970  1.0000
  H   H809      1.0  0.50417  0.52554  0.92097  1.0000
  H   H810      1.0  0.58132  0.48913  0.96179  1.0000
  C   C685      1.0  0.52768  0.91868  0.67568  1.0000
  H   H811      1.0  0.36325  0.87224  0.54548  1.0000
  C   C686      1.0  0.36946  0.88480  0.56462  1.0000
  H   H812      1.0  0.50032  0.95981  0.77954  1.0000
  H   H813      1.0  0.48601  0.53934  0.77635  1.0000
  C   C687      1.0  0.53906  0.93987  0.68494  1.0000
  H   H814      1.0  0.47241  0.92931  0.70868  1.0000
  C   C688      1.0  0.48070  0.71034  0.98663  1.0000
  H   H815      1.0  0.62382  0.53493  0.75965  1.0000
  C   C689      1.0  0.47795  0.97307  0.94903  1.0000
  S   S189      1.0  0.49801  0.61396  0.98541  1.0000
  H   H816      1.0  0.59668  0.55056  0.79420  1.0000
  C   C690      1.0  0.39359  0.89128  0.56504  1.0000
  C   C691      1.0  0.52642  0.95786  0.70292  1.0000
  H   H817      1.0  0.62231  0.51816  0.81632  1.0000
  H   H818      1.0  0.44461  0.76987  0.87843  1.0000
  C   C692      1.0  0.47152  0.52626  0.78149  1.0000
  N   N46       1.0  0.43752  0.48423  0.54217  1.0000
  C   C693      1.0  0.49696  0.73101  0.51225  1.0000
  H   H819      1.0  0.43939  0.48482  0.73785  1.0000
  C   C694      1.0  0.55581  0.51811  0.96640  1.0000
  H   H820      1.0  0.55783  0.94234  0.67824  1.0000
  C   C695      1.0  0.31970  0.91223  0.63814  1.0000
  H   H821      1.0  0.40606  0.88361  0.54660  1.0000
  S   S190      1.0  0.45815  0.56322  0.54207  1.0000
  C   C696      1.0  0.62973  0.56599  0.81476  1.0000
  H   H822      1.0  0.46476  0.93595  0.90539  1.0000
  H   H823      1.0  0.34192  0.91308  0.69663  1.0000
  H   H824      1.0  0.40833  0.58054  0.53050  1.0000
  C   C697      1.0  0.40204  0.54412  0.94890  1.0000
  H   H825      1.0  0.47881  0.91363  0.53109  1.0000
  H   H826      1.0  0.44711  0.73049  0.98260  1.0000
  C   C698      1.0  0.36141  0.90977  0.61517  1.0000
  S   S191      1.0  0.46726  0.68286  0.97308  1.0000
  H   H827      1.0  0.33514  0.88779  0.58761  1.0000
  C   C699      1.0  0.38552  0.59559  0.90785  1.0000
  H   H828      1.0  0.64375  0.55920  0.75037  1.0000
  C   C700      1.0  0.60448  0.56512  0.80859  1.0000
  C   C701      1.0  0.45042  0.49346  0.57235  1.0000
  H   H829      1.0  0.35424  0.88778  0.67368  1.0000
  C   C702      1.0  0.35347  0.89388  0.58918  1.0000
  C   C703      1.0  0.46921  0.92447  0.51121  1.0000
  H   H830      1.0  0.38875  0.62153  0.86762  1.0000
  C   C704      1.0  0.36909  0.59060  0.85134  1.0000
  H   H831      1.0  0.39382  0.92702  0.63460  1.0000
  H   H832      1.0  0.47661  0.51526  0.80405  1.0000
  Fe  Fe96      1.0  0.47375  0.86198  0.99058  1.0000
  H   H833      1.0  0.56921  0.58086  0.81810  1.0000
  C   C705      1.0  0.43064  0.67735  0.52085  1.0000
  C   C706      1.0  0.46299  0.96971  0.73701  1.0000
  H   H834      1.0  0.43766  0.49850  0.59314  1.0000
  H   H835      1.0  0.35587  0.53395  0.95164  1.0000
  H   H836      1.0  0.46087  0.50983  0.56633  1.0000
  C   C707      1.0  0.51055  0.49640  0.75713  1.0000
  H   H837      1.0  0.46353  0.94197  0.52297  1.0000
  C   C708      1.0  0.44603  0.49528  0.76001  1.0000
  H   H838      1.0  0.31725  0.89237  0.63891  1.0000
  H   H839      1.0  0.40666  0.53594  0.97392  1.0000
  N   N47       1.0  0.45806  0.97227  0.92381  1.0000
  Fe  Fe97      1.0  0.33434  0.48738  0.70489  1.0000
  C   C709      1.0  0.52953  0.49573  0.91501  1.0000
  H   H840      1.0  0.45316  0.96751  0.71254  1.0000
  S   S192      1.0  0.62211  0.96916  0.71630  1.0000
  C   C710      1.0  0.50515  0.71182  0.99534  1.0000
  H   H841      1.0  0.40792  0.58783  0.97165  1.0000
  H   H842      1.0  0.37647  0.59625  0.97818  1.0000
  N   N48       1.0  0.48902  0.97448  0.73155  1.0000
  C   C711      1.0  0.62161  0.60196  0.84999  1.0000
  H   H843      1.0  0.64365  0.52657  0.84828  1.0000
  C   C712      1.0  0.64113  0.52413  0.82047  1.0000
  H   H844      1.0  0.45256  0.91463  0.50446  1.0000
  Fe  Fe98      1.0  0.38676  0.97603  0.77792  1.0000
  H   H845      1.0  0.41191  0.49787  0.50533  1.0000
  S   S193      1.0  0.50882  0.82553  0.50140  1.0000
  H   H846      1.0  0.51670  0.69589  0.99357  1.0000
  C   C713      1.0  0.53404  0.52840  0.95533  1.0000
  H   H847      1.0  0.50446  0.95567  0.50837  1.0000
  C   C714      1.0  0.53001  0.48200  0.74587  1.0000
  H   H848      1.0  0.54747  0.48301  0.75835  1.0000
  H   H849      1.0  0.46334  0.47963  0.58258  1.0000
  C   C715      1.0  0.50055  0.97710  0.76532  1.0000
  C   C716      1.0  0.51539  0.97595  0.99830  1.0000
  H   H850      1.0  0.58791  0.47917  0.88101  1.0000
  S   S194      1.0  0.62123  0.47857  0.75850  1.0000
  H   H851      1.0  0.46870  0.47799  0.69911  1.0000
  H   H852      1.0  0.89469  0.43403  0.37633  1.0000
  C   C717      1.0  0.97076  0.36988  0.28109  1.0000
  C   C718      1.0  0.84076  0.40633  0.37779  1.0000
  Fe  Fe99      1.0  0.88391  0.01331  0.30371  1.0000
  S   S195      1.0  0.91990  0.99815  0.28739  1.0000
  S   S196      1.0  0.87743  0.03546  0.35155  1.0000
  Fe  Fe100     1.0  0.90882  0.01020  0.23508  1.0000
  S   S197      1.0  0.93903  0.02520  0.20317  1.0000
  S   S198      1.0  0.87436  0.02824  0.25228  1.0000
  C   C719      1.0  0.72825  0.44550  0.24228  1.0000
  H   H853      1.0  0.66405  0.44134  0.20346  1.0000
  C   C720      1.0  0.94528  0.22918  0.41008  1.0000
  H   H854      1.0  0.95775  0.27049  0.48003  1.0000
  S   S199      1.0  0.92071  0.09363  0.07650  1.0000
  S   S200      1.0  0.96879  0.06508  0.01441  1.0000
  Fe  Fe101     1.0  0.83978  0.46066  0.18731  1.0000
  H   H855      1.0  0.97297  0.02453  0.08584  1.0000
  Fe  Fe102     1.0  0.87507  0.42583  0.15082  1.0000
  S   S201      1.0  0.90709  0.44692  0.16610  1.0000
  S   S202      1.0  0.88175  0.39187  0.11949  1.0000
  Fe  Fe103     1.0  0.88971  0.45011  0.21684  1.0000
  S   S203      1.0  0.91455  0.44727  0.26245  1.0000
  S   S204      1.0  0.85894  0.42617  0.20341  1.0000
  C   C721      1.0  0.97865  0.01181  0.40831  1.0000
  Fe  Fe104     1.0  0.94784  0.35825  0.40393  1.0000
  S   S205      1.0  0.91544  0.36144  0.36877  1.0000
  H   H856      1.0  0.91741  0.18954  0.12518  1.0000
  H   H857      1.0  0.78293  0.42443  0.21211  1.0000
  S   S206      1.0  0.94917  0.33676  0.45259  1.0000
  C   C722      1.0  0.65511  0.40981  0.13094  1.0000
  C   C723      1.0  0.95907  0.37398  0.22111  1.0000
  H   H858      1.0  0.80935  0.04138  0.21580  1.0000
  C   C724      1.0  0.77448  0.99335  0.18860  1.0000
  H   H859      1.0  0.69502  0.45846  0.17581  1.0000
  H   H860      1.0  0.91915  0.17237  0.03339  1.0000
  H   H861      1.0  0.86866  0.10485  0.23934  1.0000
  H   H862      1.0  0.96569  0.36954  0.30767  1.0000
  C   C725      1.0  0.83635  0.06365  0.19585  1.0000
  C   C726      1.0  0.65543  0.43640  0.17893  1.0000
  C   C727      1.0  0.91414  0.42322  0.29162  1.0000
  C   C728      1.0  0.89664  0.40542  0.29020  1.0000
  C   C729      1.0  0.89711  0.38653  0.31402  1.0000
  C   C730      1.0  0.91519  0.38522  0.33909  1.0000
  C   C731      1.0  0.93270  0.40299  0.34027  1.0000
  C   C732      1.0  0.93203  0.42200  0.31686  1.0000
  H   H863      1.0  0.88270  0.40624  0.27100  1.0000
  H   H864      1.0  0.88341  0.37292  0.31313  1.0000
  H   H865      1.0  0.94671  0.40221  0.35938  1.0000
  H   H866      1.0  0.94547  0.43583  0.31843  1.0000
  C   C733      1.0  0.94382  0.38858  0.04226  1.0000
  C   C734      1.0  0.93992  0.40929  0.06223  1.0000
  C   C735      1.0  0.92063  0.41073  0.08526  1.0000
  C   C736      1.0  0.90531  0.39121  0.08917  1.0000
  C   C737      1.0  0.90907  0.37053  0.06899  1.0000
  C   C738      1.0  0.92814  0.36926  0.04544  1.0000
  H   H867      1.0  0.95178  0.42443  0.05971  1.0000
  H   H868      1.0  0.91763  0.42705  0.09981  1.0000
  H   H869      1.0  0.89727  0.35536  0.07170  1.0000
  C   C739      1.0  0.94575  0.20169  0.07071  1.0000
  C   C740      1.0  0.90229  0.04865  0.37229  1.0000
  C   C741      1.0  0.92484  0.04962  0.35664  1.0000
  C   C742      1.0  0.94426  0.06047  0.37340  1.0000
  C   C743      1.0  0.94146  0.07017  0.40613  1.0000
  C   C744      1.0  0.91895  0.06922  0.42192  1.0000
  C   C745      1.0  0.89939  0.05858  0.40493  1.0000
  H   H870      1.0  0.92722  0.04234  0.33137  1.0000
  H   H871      1.0  0.80169  0.09074  0.30746  1.0000
  H   H872      1.0  0.91658  0.07665  0.44713  1.0000
  H   H873      1.0  0.88197  0.05794  0.41717  1.0000
  C   C746      1.0  0.93327  0.04470  0.16864  1.0000
  C   C747      1.0  0.95291  0.05375  0.15066  1.0000
  C   C748      1.0  0.94918  0.06829  0.12196  1.0000
  C   C749      1.0  0.92572  0.07461  0.11169  1.0000
  C   C750      1.0  0.90603  0.06612  0.13016  1.0000
  C   C751      1.0  0.90977  0.05097  0.15839  1.0000
  C   C752      1.0  0.81684  0.03220  0.29247  1.0000
  H   H874      1.0  0.81102  0.41320  0.34466  1.0000
  H   H875      1.0  0.88784  0.07092  0.12224  1.0000
  H   H876      1.0  0.89451  0.04407  0.17205  1.0000
  C   C753      1.0  0.76925  0.43731  0.22045  1.0000
  C   C754      1.0  0.95305  0.37350  0.25614  1.0000
  H   H877      1.0  0.94949  0.16057  0.03548  1.0000
  C   C755      1.0  0.70885  0.40499  0.13577  1.0000
  S   S207      1.0  0.96399  0.39077  0.42773  1.0000
  H   H878      1.0  0.86872  0.43058  0.06671  1.0000
  H   H879      1.0  0.90145  0.19347  0.08564  1.0000
  H   H880      1.0  0.90432  0.16434  0.10325  1.0000
  H   H881      1.0  0.87577  0.40236  0.02083  1.0000
  C   C756      1.0  0.88143  0.46130  0.03971  1.0000
  S   S208      1.0  0.69993  0.43389  0.25574  1.0000
  Fe  Fe105     1.0  0.96919  0.09617  0.48066  1.0000
  H   H882      1.0  0.76975  0.04905  0.29212  1.0000
  C   C757      1.0  0.78195  0.05424  0.27113  1.0000
  H   H883      1.0  0.84322  0.09175  0.28528  1.0000
  C   C758      1.0  0.89084  0.46968  0.00939  1.0000
  S   S209      1.0  0.80186  0.47370  0.20471  1.0000
  C   C759      1.0  0.87584  0.43707  0.04292  1.0000
  H   H884      1.0  0.90882  0.36899  0.22236  1.0000
  H   H885      1.0  0.74610  0.98781  0.27750  1.0000
  H   H886      1.0  0.79337  0.44871  0.32435  1.0000
  H   H887      1.0  0.96478  0.39386  0.15738  1.0000
  C   C760      1.0  0.94793  0.39785  0.17165  1.0000
  H   H888      1.0  0.91638  0.40067  0.22262  1.0000
  H   H889      1.0  0.96422  0.25820  0.38679  1.0000
  H   H890      1.0  0.83158  0.39227  0.39136  1.0000
  H   H891      1.0  0.95128  0.21269  0.09296  1.0000
  H   H892      1.0  0.67973  0.39930  0.20878  1.0000
  H   H893      1.0  0.95794  0.99998  0.13142  1.0000
  H   H894      1.0  0.78229  0.99478  0.16361  1.0000
  N   N49       1.0  0.82909  0.44745  0.30214  1.0000
  H   H895      1.0  0.92500  0.35770  0.15276  1.0000
  H   H896      1.0  0.79757  0.46959  0.29077  1.0000
  C   C761      1.0  0.94633  0.01405  0.44907  1.0000
  Fe  Fe106     1.0  0.67133  0.99511  0.19925  1.0000
  H   H897      1.0  0.77968  0.03997  0.25156  1.0000
  N   N50       1.0  0.93735  0.17756  0.08129  1.0000
  H   H898      1.0  0.74391  0.39646  0.11467  1.0000
  H   H899      1.0  0.90307  0.38715  0.18608  1.0000
  H   H900      1.0  0.87353  0.40210  0.40693  1.0000
  C   C762      1.0  0.82234  0.42832  0.27764  1.0000
  H   H901      1.0  0.86514  0.08700  0.18201  1.0000
  C   C763      1.0  0.86494  0.44201  0.34244  1.0000
  Fe  Fe107     1.0  0.66170  0.44576  0.27351  1.0000
  H   H902      1.0  0.96925  0.43176  0.26567  1.0000
  H   H903      1.0  0.76125  0.43575  0.13057  1.0000
  C   C764      1.0  0.88000  0.42095  0.01609  1.0000
  H   H904      1.0  0.96445  0.07502  0.10817  1.0000
  S   S210      1.0  0.85335  0.45813  0.13321  1.0000
  C   C765      1.0  0.91627  0.38388  0.20705  1.0000
  S   S211      1.0  0.82184  0.99026  0.21071  1.0000
  C   C766      1.0  0.66902  0.39536  0.18547  1.0000
  C   C767      1.0  0.73279  0.40993  0.12760  1.0000
  C   C768      1.0  0.93897  0.35556  0.17312  1.0000
  N   N51       1.0  0.94079  0.37776  0.19397  1.0000
  H   H905      1.0  0.95040  0.41472  0.18655  1.0000
  H   H906      1.0  0.96118  0.20026  0.05278  1.0000
  C   C769      1.0  0.85320  0.08141  0.20210  1.0000
  H   H907      1.0  0.65048  0.39078  0.19367  1.0000
  Fe  Fe108     1.0  0.96904  0.36846  0.47431  1.0000
  N   N52       1.0  0.80742  0.05639  0.28266  1.0000
  C   C770      1.0  0.96151  0.18816  0.39999  1.0000
  C   C771      1.0  0.78985  0.99098  0.21702  1.0000
  H   H908      1.0  0.81568  0.43608  0.25327  1.0000
  C   C772      1.0  0.82262  0.06584  0.25506  1.0000
  C   C773      1.0  0.97685  0.99504  0.13869  1.0000
  C   C774      1.0  0.84021  0.08378  0.26067  1.0000
  H   H909      1.0  0.93035  0.13655  0.11936  1.0000
  C   C775      1.0  0.85513  0.09144  0.23442  1.0000
  C   C776      1.0  0.70454  0.44452  0.16171  1.0000
  S   S212      1.0  0.96907  0.38722  0.01493  1.0000
  H   H910      1.0  0.83531  0.03320  0.30357  1.0000
  H   H911      1.0  0.87862  0.47361  0.06085  1.0000
  H   H912      1.0  0.83808  0.41622  0.27182  1.0000
  Fe  Fe109     1.0  0.85652  0.99245  0.24320  1.0000
  C   C777      1.0  0.74906  0.99380  0.19207  1.0000
  H   H913      1.0  0.80759  0.41691  0.28711  1.0000
  H   H914      1.0  0.93783  0.00582  0.47165  1.0000
  H   H915      1.0  0.93072  0.19825  0.43257  1.0000
  C   C778      1.0  0.74672  0.42916  0.23204  1.0000
  C   C779      1.0  0.94448  0.20428  0.41547  1.0000
  C   C780      1.0  0.82921  0.41837  0.35094  1.0000
  H   H916      1.0  0.96159  0.06126  0.36094  1.0000
  H   H917      1.0  0.95622  0.35080  0.16017  1.0000
  H   H918      1.0  0.79455  0.06514  0.33302  1.0000
  C   C781      1.0  0.94189  0.15372  0.42802  1.0000
  H   H919      1.0  0.82526  0.07181  0.32635  1.0000
  H   H920      1.0  0.74342  0.41000  0.23265  1.0000
  C   C782      1.0  0.86431  0.41196  0.38682  1.0000
  H   H921      1.0  0.93479  0.37578  0.26508  1.0000
  C   C783      1.0  0.80683  0.46073  0.31280  1.0000
  S   S213      1.0  0.70664  0.99172  0.23044  1.0000
  C   C784      1.0  0.80726  0.07183  0.31357  1.0000
  H   H922      1.0  0.65590  0.42445  0.11177  1.0000
  C   C785      1.0  0.82133  0.05590  0.22184  1.0000
  H   H923      1.0  0.94367  0.16181  0.45383  1.0000
  C   C786      1.0  0.75395  0.98956  0.25259  1.0000
  C   C787      1.0  0.94843  0.14340  0.12087  1.0000
  H   H924      1.0  0.81102  0.47502  0.33171  1.0000
  H   H925      1.0  0.80517  0.02354  0.31161  1.0000
  H   H926      1.0  0.77494  0.07154  0.26030  1.0000
  H   H927      1.0  0.67698  0.37878  0.17377  1.0000
  H   H928      1.0  0.81817  0.01983  0.27030  1.0000
  C   C788      1.0  0.72844  0.44931  0.15318  1.0000
  H   H929      1.0  0.97368  0.15213  0.35480  1.0000
  C   C789      1.0  0.74257  0.43204  0.13636  1.0000
  H   H930      1.0  0.70215  0.38749  0.12877  1.0000
  S   S214      1.0  0.86408  0.97847  0.29592  1.0000
  N   N53       1.0  0.66881  0.41622  0.16203  1.0000
  C   C790      1.0  0.84450  0.46474  0.28396  1.0000
  Fe  Fe110     1.0  0.95201  0.09720  0.04037  1.0000
  C   C791      1.0  0.73859  0.99189  0.22414  1.0000
  H   H931      1.0  0.97113  0.04961  0.15901  1.0000
  C   C792      1.0  0.93262  0.16329  0.05032  1.0000
  C   C793      1.0  0.95838  0.14912  0.37230  1.0000
  C   C794      1.0  0.91423  0.18138  0.09977  1.0000
  C   C795      1.0  0.73278  0.47022  0.24094  1.0000
  H   H932      1.0  0.94243  0.13375  0.43148  1.0000
  H   H933      1.0  0.95130  0.99214  0.07299  1.0000
  C   C796      1.0  0.69396  0.42213  0.15313  1.0000
  C   C797      1.0  0.77935  0.98898  0.24910  1.0000
  H   H934      1.0  0.66197  0.39288  0.11888  1.0000
  C   C798      1.0  0.95523  0.16414  0.10246  1.0000
  N   N54       1.0  0.96144  0.16172  0.40526  1.0000
  H   H935      1.0  0.79072  0.98643  0.27117  1.0000
  H   H936      1.0  0.93393  0.33989  0.18897  1.0000
  C   C799      1.0  0.87622  0.42997  0.36949  1.0000
  C   C800      1.0  0.84111  0.43627  0.33199  1.0000
  H   H937      1.0  0.93395  0.40168  0.15194  1.0000
  H   H938      1.0  0.95741  0.12917  0.37567  1.0000
  H   H939      1.0  0.93106  0.35312  0.03037  1.0000
  H   H940      1.0  0.92575  0.14506  0.05635  1.0000
  N   N55       1.0  0.96783  0.99973  0.43795  1.0000
  H   H941      1.0  0.95945  0.11435  0.15396  1.0000
  H   H942      1.0  0.93252  0.24122  0.42278  1.0000
  H   H943      1.0  0.97246  0.99430  0.24354  1.0000
  H   H944      1.0  0.87564  0.45517  0.32954  1.0000
  C   C801      1.0  0.77378  0.46205  0.21910  1.0000
  H   H945      1.0  0.73631  0.46632  0.16056  1.0000
  H   H946      1.0  0.73762  0.99561  0.16990  1.0000
  H   H947      1.0  0.83532  0.05531  0.17095  1.0000
  C   C802      1.0  0.96512  0.13027  0.14049  1.0000
  C   C803      1.0  0.96390  0.23298  0.49325  1.0000
  H   H948      1.0  0.86127  0.45576  0.27422  1.0000
  H   H949      1.0  0.93154  0.21208  0.05661  1.0000
  H   H950      1.0  0.95090  0.03287  0.45610  1.0000
  H   H951      1.0  0.92371  0.15848  0.41766  1.0000
  H   H952      1.0  0.96609  0.01223  0.38615  1.0000
  C   C804      1.0  0.96996  0.25511  0.47800  1.0000
  S   S215      1.0  0.64911  0.45199  0.32741  1.0000
  H   H953      1.0  0.83499  0.47279  0.26162  1.0000
  H   H954      1.0  0.93238  0.01547  0.42866  1.0000
  C   C805      1.0  0.96311  0.23880  0.38973  1.0000
  S   S216      1.0  0.96687  0.08266  0.42627  1.0000
  H   H955      1.0  0.65423  0.45267  0.16255  1.0000
  S   S217      1.0  0.66341  0.98723  0.14410  1.0000
  H   H956      1.0  0.94149  0.15533  0.35934  1.0000
  H   H957      1.0  0.96364  0.23762  0.59195  1.0000
  H   H958      1.0  0.92803  0.07858  0.81880  1.0000
  C   C806      1.0  0.97436  0.36452  0.79312  1.0000
  Fe  Fe111     1.0  0.86829  0.01403  0.79716  1.0000
  S   S218      1.0  0.90138  0.99230  0.78298  1.0000
  S   S219      1.0  0.86947  0.04415  0.83633  1.0000
  Fe  Fe112     1.0  0.88935  0.99906  0.72940  1.0000
  S   S220      1.0  0.91847  0.00586  0.69042  1.0000
  S   S221      1.0  0.85786  0.02311  0.74323  1.0000
  H   H959      1.0  0.85995  0.42064  0.93269  1.0000
  C   C807      1.0  0.73355  0.99548  0.75176  1.0000
  H   H960      1.0  0.85853  0.98402  0.63205  1.0000
  Fe  Fe113     1.0  0.95345  0.10179  0.55451  1.0000
  S   S222      1.0  0.92278  0.09597  0.59145  1.0000
  H   H961      1.0  0.88827  0.36904  0.56658  1.0000
  Fe  Fe114     1.0  0.83046  0.45401  0.70098  1.0000
  H   H962      1.0  0.90692  0.03165  0.56625  1.0000
  Fe  Fe115     1.0  0.87255  0.43175  0.65853  1.0000
  S   S223      1.0  0.89895  0.45983  0.67447  1.0000
  S   S224      1.0  0.88006  0.39927  0.62457  1.0000
  Fe  Fe116     1.0  0.88305  0.45511  0.72647  1.0000
  S   S225      1.0  0.91029  0.45401  0.76946  1.0000
  S   S226      1.0  0.85884  0.42501  0.71116  1.0000
  H   H963      1.0  0.94941  0.22217  0.92858  1.0000
  Fe  Fe117     1.0  0.94482  0.35576  0.90240  1.0000
  S   S227      1.0  0.91139  0.36592  0.87206  1.0000
  H   H964      1.0  0.93206  0.12183  0.66437  1.0000
  C   C808      1.0  0.93203  0.36477  0.68014  1.0000
  S   S228      1.0  0.94064  0.33816  0.95319  1.0000
  H   H965      1.0  0.92292  0.36395  0.52717  1.0000
  H   H966      1.0  0.72570  0.99882  0.77646  1.0000
  H   H967      1.0  0.93911  0.45624  0.53968  1.0000
  C   C809      1.0  0.92021  0.41320  0.94621  1.0000
  C   C810      1.0  0.76308  0.45542  0.73063  1.0000
  C   C811      1.0  0.74239  0.44114  0.72817  1.0000
  C   C812      1.0  0.72016  0.44861  0.74284  1.0000
  C   C813      1.0  0.88968  0.42887  0.98478  1.0000
  H   H968      1.0  0.74357  0.42403  0.71492  1.0000
  H   H969      1.0  0.82151  0.02663  0.68060  1.0000
  C   C814      1.0  0.91048  0.42937  0.79771  1.0000
  C   C815      1.0  0.93054  0.42532  0.81898  1.0000
  C   C816      1.0  0.93114  0.40585  0.84177  1.0000
  C   C817      1.0  0.91155  0.39042  0.84361  1.0000
  C   C818      1.0  0.89146  0.39453  0.82245  1.0000
  C   C819      1.0  0.89097  0.41385  0.79945  1.0000
  H   H970      1.0  0.94572  0.43723  0.81771  1.0000
  H   H971      1.0  0.94677  0.40280  0.85777  1.0000
  H   H972      1.0  0.87619  0.38274  0.82386  1.0000
  H   H973      1.0  0.87527  0.41701  0.78358  1.0000
  C   C820      1.0  0.94410  0.39112  0.55162  1.0000
  C   C821      1.0  0.94472  0.40822  0.57802  1.0000
  C   C822      1.0  0.92487  0.41155  0.59986  1.0000
  C   C823      1.0  0.90448  0.39735  0.59591  1.0000
  C   C824      1.0  0.90397  0.38014  0.56968  1.0000
  N   N56       1.0  0.92388  0.37789  0.71102  1.0000
  H   H974      1.0  0.83372  0.47181  0.54116  1.0000
  H   H975      1.0  0.92551  0.42479  0.62004  1.0000
  H   H976      1.0  0.70459  0.43725  0.74072  1.0000
  H   H977      1.0  0.92431  0.40065  0.92482  1.0000
  C   C825      1.0  0.89560  0.04925  0.86113  1.0000
  C   C826      1.0  0.91716  0.03629  0.85549  1.0000
  C   C827      1.0  0.93825  0.04235  0.87319  1.0000
  C   C828      1.0  0.93786  0.06091  0.89753  1.0000
  C   C829      1.0  0.91615  0.07333  0.90417  1.0000
  C   C830      1.0  0.89516  0.06767  0.88573  1.0000
  H   H978      1.0  0.91776  0.02187  0.83709  1.0000
  H   H979      1.0  0.90844  0.04594  0.73967  1.0000
  H   H980      1.0  0.91567  0.08774  0.92276  1.0000
  H   H981      1.0  0.87854  0.07775  0.89036  1.0000
  C   C831      1.0  0.91973  0.03148  0.66395  1.0000
  C   C832      1.0  0.93875  0.03313  0.64068  1.0000
  C   C833      1.0  0.94006  0.05289  0.61853  1.0000
  C   C834      1.0  0.92220  0.07109  0.61933  1.0000
  C   C835      1.0  0.90322  0.06949  0.64272  1.0000
  C   C836      1.0  0.90207  0.04986  0.66514  1.0000
  H   H982      1.0  0.95253  0.01901  0.63970  1.0000
  H   H983      1.0  0.95480  0.05397  0.60074  1.0000
  H   H984      1.0  0.88936  0.08353  0.64346  1.0000
  H   H985      1.0  0.88751  0.04890  0.68313  1.0000
  H   H986      1.0  0.91579  0.35565  0.77435  1.0000
  H   H987      1.0  0.90108  0.10966  0.77202  1.0000
  H   H988      1.0  0.94727  0.23187  0.50738  1.0000
  C   C837      1.0  0.93944  0.10845  0.68179  1.0000
  S   S229      1.0  0.94850  0.11924  0.99248  1.0000
  C   C838      1.0  0.96938  0.20032  0.96475  1.0000
  S   S230      1.0  0.97193  0.32813  0.88471  1.0000
  H   H989      1.0  0.82171  0.99329  0.59755  1.0000
  H   H990      1.0  0.82250  0.05571  0.59309  1.0000
  H   H991      1.0  0.86894  0.00598  0.66262  1.0000
  C   C839      1.0  0.89873  0.37063  0.71812  1.0000
  C   C840      1.0  0.96094  0.09634  0.67365  1.0000
  H   H992      1.0  0.94064  0.41100  0.69497  1.0000
  H   H993      1.0  0.96192  0.02228  0.95379  1.0000
  H   H994      1.0  0.81687  0.04892  0.64904  1.0000
  C   C841      1.0  0.72874  0.98824  0.69176  1.0000
  S   S231      1.0  0.80143  0.98594  0.71130  1.0000
  C   C842      1.0  0.89476  0.45381  0.98218  1.0000
  H   H995      1.0  0.84509  0.07797  0.55081  1.0000
  C   C843      1.0  0.84082  0.04983  0.58781  1.0000
  H   H996      1.0  0.90653  0.04534  0.78499  1.0000
  H   H997      1.0  0.89284  0.37488  0.94072  1.0000
  H   H998      1.0  0.93210  0.40804  0.96800  1.0000
  C   C844      1.0  0.92357  0.37722  0.54732  1.0000
  C   C845      1.0  0.96542  0.37986  0.73697  1.0000
  H   H999      1.0  0.91763  0.41462  0.72643  1.0000
  C   C846      1.0  0.97285  0.31486  0.52724  1.0000
  C   C847      1.0  0.87585  0.02363  0.59657  1.0000
  C   C848      1.0  0.95064  0.35703  0.79599  1.0000
  H   H1000     1.0  0.93470  0.03958  0.76486  1.0000
  H   H1001     1.0  0.88430  0.43822  0.91684  1.0000
  Fe  Fe118     1.0  0.97035  0.31205  0.93701  1.0000
  S   S232      1.0  0.84273  0.45850  0.64688  1.0000
  H   H1002     1.0  0.88738  0.06643  0.53759  1.0000
  H   H1003     1.0  0.77036  0.99594  0.77069  1.0000
  H   H1004     1.0  0.91913  0.36763  0.65862  1.0000
  N   N57       1.0  0.89439  0.41240  0.95576  1.0000
  H   H1005     1.0  0.89122  0.38040  0.74061  1.0000
  C   C849      1.0  0.81661  0.00642  0.61784  1.0000
  C   C850      1.0  0.83035  0.03554  0.65880  1.0000
  C   C851      1.0  0.71822  0.99276  0.72344  1.0000
  C   C852      1.0  0.85272  0.99858  0.64989  1.0000
  S   S233      1.0  0.79046  0.44506  0.71057  1.0000
  N   N58       1.0  0.92267  0.07715  0.76456  1.0000
  H   H1006     1.0  0.91008  0.11233  0.71548  1.0000
  H   H1007     1.0  0.94982  0.37096  0.67112  1.0000
  C   C853      1.0  0.91797  0.05093  0.76345  1.0000
  H   H1008     1.0  0.90008  0.37964  0.98433  1.0000
  H   H1009     1.0  0.88956  0.08371  0.79240  1.0000
  C   C854      1.0  0.94093  0.37294  0.73934  1.0000
  C   C855      1.0  0.88826  0.03637  0.57184  1.0000
  Fe  Fe119     1.0  0.65378  0.46245  0.78513  1.0000
  C   C856      1.0  0.88889  0.38680  0.96296  1.0000
  H   H1010     1.0  0.90989  0.40842  0.68308  1.0000
  H   H1011     1.0  0.84592  0.04564  0.66899  1.0000
  H   H1012     1.0  0.80374  0.01988  0.60673  1.0000
  Fe  Fe120     1.0  0.97060  0.36231  0.96924  1.0000
  H   H1013     1.0  0.94481  0.34849  0.81917  1.0000
  S   S234      1.0  0.94483  0.12283  0.50712  1.0000
  Fe  Fe121     1.0  0.83565  0.98934  0.74464  1.0000
  S   S235      1.0  0.97280  0.38170  0.91932  1.0000
  N   N59       1.0  0.83827  0.01780  0.63258  1.0000
  H   H1014     1.0  0.95469  0.07136  0.79540  1.0000
  H   H1015     1.0  0.89758  0.35087  0.72240  1.0000
  C   C857      1.0  0.89898  0.08985  0.76908  1.0000
  C   C858      1.0  0.85174  0.03021  0.60563  1.0000
  H   H1016     1.0  0.92563  0.43130  0.93751  1.0000
  S   S236      1.0  0.96993  0.38666  0.52604  1.0000
  H   H1017     1.0  0.96560  0.05844  0.74034  1.0000
  C   C859      1.0  0.85352  0.06260  0.56339  1.0000
  C   C860      1.0  0.87726  0.05600  0.55564  1.0000
  H   H1018     1.0  0.88590  0.00924  0.60894  1.0000
  C   C861      1.0  0.93403  0.36126  0.76974  1.0000
  C   C862      1.0  0.92307  0.40407  0.70360  1.0000
  C   C863      1.0  0.93563  0.08423  0.73348  1.0000
  C   C864      1.0  0.95781  0.07255  0.72466  1.0000
  C   C865      1.0  0.87949  0.42007  0.92620  1.0000
  H   H1019     1.0  0.80634  0.99650  0.63749  1.0000
  H   H1020     1.0  0.88192  0.40748  0.90426  1.0000
  H   H1021     1.0  0.97506  0.30579  0.50219  1.0000
  Fe  Fe122     1.0  0.65157  0.99305  0.69716  1.0000
  H   H1022     1.0  0.88655  0.08619  0.74749  1.0000
  H   H1023     1.0  0.93355  0.34503  0.68489  1.0000
  S   S237      1.0  0.96533  0.06899  0.91694  1.0000
  S   S238      1.0  0.68623  0.99316  0.72982  1.0000
  H   H1024     1.0  0.88632  0.37496  0.69649  1.0000
  C   C866      1.0  0.75415  0.98638  0.68863  1.0000
  H   H1025     1.0  0.97011  0.10042  0.65017  1.0000
  C   C867      1.0  0.76947  0.98914  0.71697  1.0000
  C   C868      1.0  0.93772  0.08242  0.79477  1.0000
  H   H1026     1.0  0.76196  0.98262  0.66405  1.0000
  C   C869      1.0  0.75896  0.99383  0.74858  1.0000
  H   H1027     1.0  0.86946  0.38455  0.96892  1.0000
  H   H1028     1.0  0.96060  0.41898  0.58156  1.0000
  C   C870      1.0  0.92685  0.10258  0.71121  1.0000
  H   H1029     1.0  0.95561  0.30877  0.53825  1.0000
  C   C871      1.0  0.71813  0.47069  0.76007  1.0000
  H   H1030     1.0  0.94275  0.10175  0.79553  1.0000
  H   H1031     1.0  0.84213  0.98961  0.66993  1.0000
  H   H1032     1.0  0.95495  0.03269  0.86780  1.0000
  H   H1033     1.0  0.96164  0.28119  0.58303  1.0000
  Fe  Fe123     1.0  0.96869  0.08815  0.96782  1.0000
  H   H1034     1.0  0.97202  0.38877  0.71465  1.0000
  H   H1035     1.0  0.96049  0.99023  0.95228  1.0000
  C   C872      1.0  0.97014  0.07846  0.69506  1.0000
  C   C873      1.0  0.96264  0.22227  0.94884  1.0000
  H   H1036     1.0  0.96130  0.18363  0.95675  1.0000
  S   S239      1.0  0.96485  0.27100  0.93568  1.0000
  C   C874      1.0  0.95203  0.46866  0.52932  1.0000
  H   H1037     1.0  0.90196  0.46122  0.95913  1.0000
  C   C875      1.0  0.78899  0.47538  0.60005  1.0000
  S   S240      1.0  0.97067  0.18514  0.51165  1.0000
  H   H1038     1.0  0.71731  0.98589  0.66976  1.0000
  H   H1039     1.0  0.96916  0.00494  0.99104  1.0000
  S   S241      1.0  0.97480  0.07300  0.52675  1.0000
  H   H1040     1.0  0.97063  0.33458  0.52259  1.0000
  C   C876      1.0  0.97295  0.24427  0.95862  1.0000
  H   H1041     1.0  0.97308  0.31877  0.59421  1.0000
  Fe  Fe124     1.0  0.97811  0.14410  0.51868  1.0000
  S   S242      1.0  0.84363  0.98213  0.80000  1.0000
  H   H1042     1.0  0.76555  0.47366  0.66223  1.0000
  C   C877      1.0  0.97101  0.00534  0.96296  1.0000
  C   C878      1.0  0.97144  0.45980  0.51001  1.0000
  H   H1043     1.0  0.79852  0.44933  0.56133  1.0000
  H   H1044     1.0  0.77431  0.46430  0.60812  1.0000
  C   C879      1.0  0.80283  0.46647  0.57296  1.0000
  H   H1045     1.0  0.97245  0.44046  0.50640  1.0000
  C   C880      1.0  0.97723  0.27133  0.57352  1.0000
  C   C881      1.0  0.97816  0.24639  0.57878  1.0000
  S   S243      1.0  0.64587  0.98162  0.64283  1.0000
  C   C882      1.0  0.76108  0.47753  0.74788  1.0000
  H   H1046     1.0  0.71083  0.93834  0.13576  1.0000
  H   H1047     1.0  0.97282  0.87104  0.34181  1.0000
  C   C883      1.0  0.95673  0.95927  0.04579  1.0000
  C   C884      1.0  0.97129  0.68300  0.09025  1.0000
  C   C885      1.0  0.93692  0.74267  0.00970  1.0000
  S   S244      1.0  0.89088  0.97552  0.22221  1.0000
  S   S245      1.0  0.91896  0.92784  0.28096  1.0000
  H   H1048     1.0  0.94234  0.67066  0.01647  1.0000
  N   N60       1.0  0.95264  0.68771  0.06377  1.0000
  H   H1049     1.0  0.95631  0.65086  0.04655  1.0000
  S   S246      1.0  0.95325  0.60334  0.09177  1.0000
  C   C886      1.0  0.69208  0.92303  0.21432  1.0000
  C   C887      1.0  0.77666  0.92623  0.17539  1.0000
  S   S247      1.0  0.90721  0.49981  0.11126  1.0000
  H   H1050     1.0  0.70427  0.95810  0.17075  1.0000
  H   H1051     1.0  0.97420  0.67222  0.02382  1.0000
  H   H1052     1.0  0.95608  0.95762  0.23603  1.0000
  H   H1053     1.0  0.97053  0.58022  0.20503  1.0000
  C   C888      1.0  0.94001  0.57469  0.09678  1.0000
  C   C889      1.0  0.94712  0.55502  0.07662  1.0000
  C   C890      1.0  0.93687  0.53232  0.08165  1.0000
  C   C891      1.0  0.91966  0.52885  0.10716  1.0000
  C   C892      1.0  0.91264  0.54846  0.12760  1.0000
  C   C893      1.0  0.92259  0.57135  0.12211  1.0000
  H   H1054     1.0  0.97519  0.94144  0.20655  1.0000
  H   H1055     1.0  0.94228  0.51731  0.06554  1.0000
  H   H1056     1.0  0.89920  0.54610  0.14705  1.0000
  H   H1057     1.0  0.91684  0.58650  0.13771  1.0000
  H   H1058     1.0  0.68558  0.89401  0.16282  1.0000
  H   H1059     1.0  0.71112  0.88220  0.18641  1.0000
  S   S248      1.0  0.87045  0.48487  0.20323  1.0000
  C   C894      1.0  0.70499  0.89690  0.16905  1.0000
  C   C895      1.0  0.95943  0.89901  0.37517  1.0000
  C   C896      1.0  0.96171  0.88727  0.34384  1.0000
  C   C897      1.0  0.94898  0.89619  0.31533  1.0000
  C   C898      1.0  0.93425  0.91714  0.31769  1.0000
  C   C899      1.0  0.93242  0.92918  0.34881  1.0000
  C   C900      1.0  0.94473  0.91996  0.37745  1.0000
  H   H1060     1.0  0.71888  0.48308  0.24863  1.0000
  C   C901      1.0  0.97060  0.94351  0.23384  1.0000
  H   H1061     1.0  0.92103  0.94520  0.35100  1.0000
  H   H1062     1.0  0.94251  0.92883  0.40171  1.0000
  H   H1063     1.0  0.67281  0.92102  0.20664  1.0000
  N   N61       1.0  0.70857  0.92092  0.18477  1.0000
  C   C902      1.0  0.93630  0.71974  0.02429  1.0000
  H   H1064     1.0  0.89525  0.48858  0.00716  1.0000
  H   H1065     1.0  0.92796  0.66566  0.09160  1.0000
  Fe  Fe125     1.0  0.89986  0.96445  0.27576  1.0000
  C   C903      1.0  0.97121  0.72926  0.05863  1.0000
  C   C904      1.0  0.74253  0.92796  0.22735  1.0000
  H   H1066     1.0  0.94980  0.96614  0.44680  1.0000
  C   C905      1.0  0.70101  0.93977  0.16017  1.0000
  C   C906      1.0  0.75227  0.92282  0.16790  1.0000
  C   C907      1.0  0.95343  0.71230  0.04925  1.0000
  H   H1067     1.0  0.78993  0.92615  0.15526  1.0000
  H   H1068     1.0  0.77282  0.93467  0.26034  1.0000
  H   H1069     1.0  0.96513  0.58863  0.16164  1.0000
  H   H1070     1.0  0.69321  0.94112  0.22662  1.0000
  C   C908      1.0  0.73438  0.92381  0.19362  1.0000
  Fe  Fe126     1.0  0.88534  0.47960  0.15050  1.0000
  H   H1071     1.0  0.95633  0.55994  0.17564  1.0000
  H   H1072     1.0  0.75854  0.49755  0.22859  1.0000
  C   C909      1.0  0.97077  0.57341  0.17846  1.0000
  H   H1073     1.0  0.74747  0.91988  0.14166  1.0000
  C   C910      1.0  0.97149  0.75222  0.04409  1.0000
  H   H1074     1.0  0.95043  0.88671  0.29137  1.0000
  H   H1075     1.0  0.84956  0.48016  0.30047  1.0000
  C   C911      1.0  0.75537  0.47837  0.22953  1.0000
  S   S249      1.0  0.97409  0.88827  0.41240  1.0000
  H   H1076     1.0  0.71502  0.89466  0.14487  1.0000
  H   H1077     1.0  0.73032  0.92967  0.24852  1.0000
  H   H1078     1.0  0.96037  0.55732  0.05687  1.0000
  H   H1079     1.0  0.68145  0.93856  0.15374  1.0000
  H   H1080     1.0  0.80286  0.93363  0.21427  1.0000
  C   C912      1.0  0.95649  0.66962  0.03646  1.0000
  C   C913      1.0  0.78401  0.93031  0.20866  1.0000
  C   C914      1.0  0.97178  0.93930  0.03966  1.0000
  H   H1081     1.0  0.96621  0.92525  0.02223  1.0000
  H   H1082     1.0  0.69609  0.90889  0.23355  1.0000
  H   H1083     1.0  0.92469  0.69767  0.09915  1.0000
  C   C915      1.0  0.95447  0.75888  0.01960  1.0000
  H   H1084     1.0  0.97690  0.93830  0.30204  1.0000
  C   C916      1.0  0.76703  0.93094  0.23459  1.0000
  C   C917      1.0  0.92874  0.68376  0.07941  1.0000
  C   C918      1.0  0.95935  0.97581  0.42629  1.0000
  H   H1085     1.0  0.96940  0.69583  0.11188  1.0000
  H   H1086     1.0  0.97001  0.66445  0.10084  1.0000
  H   H1087     1.0  0.97023  0.52420  0.19179  1.0000
  H   H1088     1.0  0.96215  0.92647  0.24219  1.0000
  H   H1089     1.0  0.97457  0.96410  0.41705  1.0000
  H   H1090     1.0  0.91380  0.68436  0.06054  1.0000
  H   H1091     1.0  0.92257  0.70770  0.01536  1.0000
  H   H1092     1.0  0.97050  0.96886  0.29108  1.0000
  H   H1093     1.0  0.95538  0.77639  0.00750  1.0000
  H   H1094     1.0  0.93927  0.96062  0.03327  1.0000
  H   H1095     1.0  0.97655  0.97696  0.15077  1.0000
  H   H1096     1.0  0.97856  0.72296  0.45716  1.0000
  C   C919      1.0  0.96388  0.97730  0.06839  1.0000
  H   H1097     1.0  0.94621  0.97752  0.40488  1.0000
  H   H1098     1.0  0.75327  0.86971  0.70320  1.0000
  H   H1099     1.0  0.64689  0.92256  0.73433  1.0000
  H   H1100     1.0  0.67101  0.90986  0.75972  1.0000
  C   C920      1.0  0.66748  0.89151  0.69459  1.0000
  C   C921      1.0  0.67650  0.93227  0.68030  1.0000
  H   H1101     1.0  0.67452  0.88545  0.66950  1.0000
  S   S250      1.0  0.88816  0.92365  0.80100  1.0000
  S   S251      1.0  0.69029  0.48138  0.77856  1.0000
  H   H1102     1.0  0.76080  0.53914  0.66018  1.0000
  H   H1103     1.0  0.75039  0.49983  0.67798  1.0000
  S   S252      1.0  0.94799  0.58487  0.56150  1.0000
  H   H1104     1.0  0.96324  0.52859  0.52655  1.0000
  C   C922      1.0  0.95917  0.95630  0.74294  1.0000
  S   S253      1.0  0.87079  0.52294  0.64146  1.0000
  S   S254      1.0  0.86711  0.96576  0.72729  1.0000
  H   H1105     1.0  0.95891  0.90560  0.78976  1.0000
  H   H1106     1.0  0.91052  0.53707  0.69441  1.0000
  H   H1107     1.0  0.93392  0.50012  0.55003  1.0000
  C   C923      1.0  0.92818  0.56565  0.58368  1.0000
  C   C924      1.0  0.93467  0.54270  0.59645  1.0000
  C   C925      1.0  0.91739  0.52878  0.61388  1.0000
  C   C926      1.0  0.89377  0.53799  0.61889  1.0000
  C   C927      1.0  0.88763  0.56075  0.60591  1.0000
  C   C928      1.0  0.90454  0.57430  0.58843  1.0000
  H   H1108     1.0  0.95282  0.53570  0.59281  1.0000
  H   H1109     1.0  0.92240  0.51121  0.62381  1.0000
  H   H1110     1.0  0.86956  0.56810  0.60949  1.0000
  H   H1111     1.0  0.89922  0.59187  0.57869  1.0000
  H   H1112     1.0  0.67739  0.55247  0.83359  1.0000
  H   H1113     1.0  0.71060  0.94551  0.73624  1.0000
  H   H1114     1.0  0.77555  0.90321  0.72961  1.0000
  H   H1115     1.0  0.80467  0.48930  0.68199  1.0000
  C   C929      1.0  0.95224  0.91028  0.87373  1.0000
  C   C930      1.0  0.93917  0.89095  0.86085  1.0000
  C   C931      1.0  0.91944  0.89533  0.83885  1.0000
  C   C932      1.0  0.91261  0.91899  0.82955  1.0000
  C   C933      1.0  0.92570  0.93827  0.84251  1.0000
  C   C934      1.0  0.94541  0.93391  0.86446  1.0000
  H   H1116     1.0  0.67693  0.56891  0.79385  1.0000
  H   H1117     1.0  0.90938  0.88032  0.82896  1.0000
  H   H1118     1.0  0.92064  0.95655  0.83563  1.0000
  H   H1119     1.0  0.68387  0.53712  0.79509  1.0000
  C   C935      1.0  0.66685  0.92195  0.73794  1.0000
  H   H1120     1.0  0.93165  0.93217  0.75885  1.0000
  C   C936      1.0  0.71917  0.92862  0.72897  1.0000
  H   H1121     1.0  0.92404  0.74781  0.99012  1.0000
  C   C937      1.0  0.94702  0.54723  0.68312  1.0000
  C   C938      1.0  0.73877  0.48511  0.76229  1.0000
  C   C939      1.0  0.67215  0.55171  0.80634  1.0000
  H   H1122     1.0  0.77675  0.48868  0.75038  1.0000
  C   C940      1.0  0.74402  0.92615  0.73457  1.0000
  C   C941      1.0  0.75623  0.90495  0.72534  1.0000
  H   H1123     1.0  0.65342  0.50910  0.81222  1.0000
  C   C942      1.0  0.94910  0.49335  0.53523  1.0000
  H   H1124     1.0  0.97718  0.73133  0.93935  1.0000
  H   H1125     1.0  0.95541  0.94898  0.87422  1.0000
  H   H1126     1.0  0.71016  0.87339  0.69257  1.0000
  H   H1127     1.0  0.76115  0.53244  0.61545  1.0000
  N   N62       1.0  0.67960  0.91361  0.70679  1.0000
  H   H1128     1.0  0.68342  0.95005  0.68862  1.0000
  H   H1129     1.0  0.64772  0.89480  0.69055  1.0000
  H   H1130     1.0  0.81338  0.51927  0.67208  1.0000
  S   S255      1.0  0.97784  0.90607  0.90032  1.0000
  Fe  Fe127     1.0  0.87660  0.96098  0.78237  1.0000
  C   C943      1.0  0.74362  0.88614  0.71045  1.0000
  H   H1131     1.0  0.97148  0.59026  0.67010  1.0000
  C   C944      1.0  0.71873  0.88851  0.70456  1.0000
  H   H1132     1.0  0.94422  0.87268  0.86781  1.0000
  H   H1133     1.0  0.66945  0.87656  0.71319  1.0000
  C   C945      1.0  0.77220  0.53193  0.63910  1.0000
  H   H1134     1.0  0.94027  0.56223  0.66818  1.0000
  C   C946      1.0  0.76002  0.49243  0.65533  1.0000
  C   C947      1.0  0.82867  0.50080  0.57698  1.0000
  C   C948      1.0  0.70571  0.90994  0.71379  1.0000
  C   C949      1.0  0.95080  0.93599  0.75944  1.0000
  H   H1135     1.0  0.65663  0.58706  0.84251  1.0000
  H   H1136     1.0  0.67165  0.94064  0.74547  1.0000
  H   H1137     1.0  0.68628  0.92711  0.65668  1.0000
  N   N63       1.0  0.78120  0.50704  0.64616  1.0000
  C   C950      1.0  0.82268  0.47910  0.56154  1.0000
  H   H1138     1.0  0.96610  0.49137  0.73658  1.0000
  H   H1139     1.0  0.73758  0.50217  0.77564  1.0000
  H   H1140     1.0  0.82079  0.52648  0.61559  1.0000
  Fe  Fe128     1.0  0.86839  0.48627  0.66671  1.0000
  H   H1141     1.0  0.75388  0.94091  0.74581  1.0000
  H   H1142     1.0  0.74666  0.49164  0.63424  1.0000
  C   C951      1.0  0.81489  0.50993  0.60391  1.0000
  C   C952      1.0  0.92959  0.53286  0.69814  1.0000
  C   C953      1.0  0.79472  0.49744  0.61651  1.0000
  H   H1143     1.0  0.84454  0.51032  0.56884  1.0000
  C   C954      1.0  0.96089  0.50703  0.72160  1.0000
  H   H1144     1.0  0.78713  0.54481  0.63604  1.0000
  H   H1145     1.0  0.78803  0.51447  0.69915  1.0000
  C   C955      1.0  0.97211  0.54180  0.68693  1.0000
  H   H1146     1.0  0.65712  0.93511  0.67354  1.0000
  C   C956      1.0  0.93649  0.51284  0.71736  1.0000
  C   C957      1.0  0.79750  0.50767  0.67606  1.0000
  C   C958      1.0  0.96563  0.50933  0.52198  1.0000
  H   H1147     1.0  0.92289  0.50171  0.72888  1.0000
  S   S256      1.0  0.85407  0.48393  0.72015  1.0000
  H   H1148     1.0  0.94662  0.96805  0.72929  1.0000
  N   N64       1.0  0.64609  0.54658  0.80187  1.0000
  H   H1149     1.0  0.65498  0.52855  0.75463  1.0000
  H   H1150     1.0  0.96965  0.57305  0.63108  1.0000
  C   C959      1.0  0.96682  0.92073  0.77712  1.0000
  H   H1151     1.0  0.97389  0.71489  0.54520  1.0000
  C   C960      1.0  0.97849  0.52117  0.70655  1.0000
  H   H1152     1.0  0.97878  0.75776  0.53744  1.0000
