data_image0
_chemical_formula_structural       CH3CH3NC2SHC2S2C4H2C2H2CH2C2HCH2CHCH3CH2C5HSC2HC2H2C2SCHCHC2H2C4H5C2H2NCH2CH3C2H4C2H2CH2CH3CH2CH2CNCH2CHC2H4C2HCH2CSH2C4HC2SC2SHCHC3H2S2C2FeSHFeC2FeCFeS2H2SCFeSHFeSFeCH2FeSHFeSHFeSFeS2C4HCHNH3C5H4CHC3HC2H2C6SCSNCHC2H7CNCH2CSNC2HC2H3CHC2NCFeH3SH2C3SHSH6SH2C2FeH2CSCSCH8CH2C2SHC2H2CHSH2C2HSCH2C2H2C4HCH4CH2CSCH2CH5CH2CH2CHFeS2HSHFeHFeHSCHCHFeSCFeSFeH3FeSHFeSHFeSFeHSC3H2C2H2SHC5H5SHCH2C3H2C3SHCSH3CSCH4C2SC3H2C3HSCH2CHSFeH2SNC9H11NHNHCH3C2H2CHCHC2HNHC3HC2H2C3FeSFeS2FeHFeHS2FeCFe2C2SFeS2H2FeS2H2FeHS2CH2C2H3C5HCNC6H6FeHCH2CH2CHCNC6H2SH4CHCHNC9H12CH2CHC2SC3HS2CH5CHC4HNH6C2SCH4C2HCH2CH2CFeCHSHFeSFeS2FeHFeCS2FeCFeCHNCFeS2FeSFeS2CHFeHS2HCH2C2H2C2HCSCHC7H5C5H2CH8CSHCHCNCH2CFeH2CH3CHCH2CSHSH2SNC6HC2H12CH4CH2C2HC3HFeHSHSH2NHSHCH8CH2CH2N2C2H3CHSNCHC3HSHC2HCHNC3HCHC3HCH3C2H5CHSC4H4C2SCH2CHCHCHSCH2C3HCH2C4H4CHCHCH2CH2
_chemical_formula_sum              "C360 H432 N24 S96 Fe48"
_cell_length_a       37.4696
_cell_length_b       37.2497
_cell_length_c       40.1328
_cell_angle_alpha    90.1661
_cell_angle_beta     90.1049
_cell_angle_gamma    120.052

_space_group_name_H-M_alt    "P 1"
_space_group_IT_number       1

loop_
  _space_group_symop_operation_xyz
  'x, y, z'

loop_
  _atom_site_type_symbol
  _atom_site_label
  _atom_site_symmetry_multiplicity
  _atom_site_fract_x
  _atom_site_fract_y
  _atom_site_fract_z
  _atom_site_occupancy
  C   C1        1.0  0.41685  0.08088  0.42733  1.0000
  H   H1        1.0  0.07264  0.45425  0.17501  1.0000
  H   H2        1.0  0.48217  0.00095  0.17668  1.0000
  H   H3        1.0  0.44762  0.39772  0.22671  1.0000
  C   C2        1.0  0.03404  0.47925  0.29040  1.0000
  H   H4        1.0  0.43467  0.13146  0.46083  1.0000
  H   H5        1.0  0.48656  0.20219  0.03759  1.0000
  H   H6        1.0  0.03892  0.48684  0.31678  1.0000
  N   N1        1.0  0.45029  0.44425  0.19318  1.0000
  C   C3        1.0  0.06739  0.49597  0.26836  1.0000
  C   C4        1.0  0.00653  0.46070  0.42106  1.0000
  S   S1        1.0  0.46925  0.06941  0.19708  1.0000
  H   H7        1.0  0.44161  0.03881  0.26297  1.0000
  C   C5        1.0  0.44846  0.01704  0.25075  1.0000
  C   C6        1.0  0.48161  0.11308  0.45937  1.0000
  S   S2        1.0  0.41800  0.48803  0.27844  1.0000
  S   S3        1.0  0.47151  0.10995  0.10359  1.0000
  C   C7        1.0  0.46281  0.05348  0.42236  1.0000
  C   C8        1.0  0.44728  0.45767  0.32734  1.0000
  C   C9        1.0  0.47673  0.45922  0.35017  1.0000
  C   C10       1.0  0.47944  0.40233  0.10206  1.0000
  H   H8        1.0  0.41762  0.42961  0.32516  1.0000
  H   H9        1.0  0.46972  0.43251  0.36531  1.0000
  C   C11       1.0  0.45584  0.49208  0.30736  1.0000
  C   C12       1.0  0.49219  0.27631  0.49670  1.0000
  H   H10       1.0  0.43414  0.45612  0.12858  1.0000
  H   H11       1.0  0.38804  0.39290  0.19391  1.0000
  C   C13       1.0  0.45893  0.42480  0.10115  1.0000
  H   H12       1.0  0.42684  0.23444  0.49285  1.0000
  H   H13       1.0  0.39342  0.43881  0.17460  1.0000
  C   C14       1.0  0.02070  0.45971  0.22258  1.0000
  C   C15       1.0  0.44953  0.43820  0.13071  1.0000
  H   H14       1.0  0.40535  0.02912  0.39592  1.0000
  C   C16       1.0  0.40509  0.42738  0.19509  1.0000
  H   H15       1.0  0.01299  0.45139  0.19671  1.0000
  H   H16       1.0  0.45488  0.44359  0.24689  1.0000
  C   C17       1.0  0.46274  0.02434  0.21768  1.0000
  H   H17       1.0  0.38826  0.07972  0.42056  1.0000
  C   C18       1.0  0.47124  0.49019  0.19279  1.0000
  H   H18       1.0  0.46967  0.03063  0.41203  1.0000
  H   H19       1.0  0.48706  0.39243  0.07902  1.0000
  H   H20       1.0  0.39624  0.43671  0.21871  1.0000
  C   C19       1.0  0.48873  0.25254  0.00904  1.0000
  H   H21       1.0  0.39994  0.01721  0.03269  1.0000
  H   H22       1.0  0.01951  0.45346  0.44235  1.0000
  C   C20       1.0  0.46317  0.43203  0.22420  1.0000
  C   C21       1.0  0.46033  0.42929  0.16230  1.0000
  C   C22       1.0  0.06185  0.48630  0.23377  1.0000
  C   C23       1.0  0.48103  0.40601  0.16240  1.0000
  C   C24       1.0  0.49005  0.08309  0.44511  1.0000
  H   H23       1.0  0.49051  0.39768  0.18511  1.0000
  S   S4        1.0  0.49271  0.07020  0.02265  1.0000
  C   C25       1.0  0.42639  0.05241  0.41341  1.0000
  C   C26       1.0  0.44384  0.11064  0.45015  1.0000
  H   H24       1.0  0.11570  0.46008  0.22600  1.0000
  C   C27       1.0  0.99424  0.45284  0.27867  1.0000
  C   C28       1.0  0.49031  0.39280  0.13261  1.0000
  H   H25       1.0  0.45071  0.43237  0.07734  1.0000
  H   H26       1.0  0.49096  0.19054  0.47464  1.0000
  C   C29       1.0  0.12928  0.49419  0.22298  1.0000
  C   C30       1.0  0.08714  0.48862  0.17619  1.0000
  S   S5        1.0  0.49101  0.30672  0.46322  1.0000
  C   C31       1.0  0.49245  0.02813  0.00160  1.0000
  H   H27       1.0  0.46755  0.47488  0.46528  1.0000
  C   C32       1.0  0.46468  0.00065  0.49729  1.0000
  H   H28       1.0  0.48927  0.48986  0.42473  1.0000
  C   C33       1.0  0.38238  0.34445  0.84939  1.0000
  C   C34       1.0  0.46985  0.01360  0.97174  1.0000
  H   H29       1.0  0.47513  0.38479  0.80923  1.0000
  H   H30       1.0  0.44117  0.29848  0.57821  1.0000
  C   C35       1.0  0.48905  0.13507  0.51676  1.0000
  C   C36       1.0  0.44880  0.36372  0.90092  1.0000
  C   C37       1.0  0.00002  0.43064  0.64160  1.0000
  C   C38       1.0  0.42347  0.35317  0.84426  1.0000
  H   H31       1.0  0.46440  0.35535  0.92057  1.0000
  H   H32       1.0  0.45427  0.35145  0.53639  1.0000
  H   H33       1.0  0.47374  0.05942  0.77714  1.0000
  H   H34       1.0  0.12278  0.46157  0.65763  1.0000
  H   H35       1.0  0.43508  0.28539  0.89422  1.0000
  C   C39       1.0  0.45337  0.21638  0.53236  1.0000
  C   C40       1.0  0.03738  0.43176  0.65012  1.0000
  H   H36       1.0  0.38901  0.28681  0.88765  1.0000
  H   H37       1.0  0.36742  0.38765  0.77998  1.0000
  N   N2        1.0  0.07041  0.44411  0.62504  1.0000
  C   C41       1.0  0.42864  0.46817  0.84186  1.0000
  H   H38       1.0  0.47472  0.23362  0.98714  1.0000
  H   H39       1.0  0.23457  0.47706  0.57255  1.0000
  C   C42       1.0  0.43507  0.48183  0.80860  1.0000
  H   H40       1.0  0.43190  0.43246  0.65606  1.0000
  H   H41       1.0  0.06225  0.49356  0.60540  1.0000
  H   H42       1.0  0.09557  0.40749  0.64469  1.0000
  C   C43       1.0  0.48597  0.34971  0.85933  1.0000
  C   C44       1.0  0.05396  0.41849  0.59435  1.0000
  H   H43       1.0  0.99506  0.43909  0.61698  1.0000
  H   H44       1.0  0.48489  0.33379  0.83554  1.0000
  H   H45       1.0  0.39902  0.45820  0.85332  1.0000
  H   H46       1.0  0.42612  0.45678  0.55620  1.0000
  C   C45       1.0  0.41916  0.38479  0.61987  1.0000
  C   C46       1.0  0.49040  0.04350  0.73030  1.0000
  H   H47       1.0  0.04607  0.48951  0.87478  1.0000
  H   H48       1.0  0.06936  0.42336  0.69279  1.0000
  C   C47       1.0  0.44464  0.41722  0.64116  1.0000
  H   H49       1.0  0.42394  0.19045  0.53972  1.0000
  H   H50       1.0  0.41476  0.34151  0.58315  1.0000
  C   C48       1.0  0.48919  0.47136  0.55027  1.0000
  H   H51       1.0  0.47820  0.99971  0.85549  1.0000
  H   H52       1.0  0.01467  0.40636  0.73275  1.0000
  H   H53       1.0  0.38656  0.37469  0.61864  1.0000
  C   C49       1.0  0.01022  0.48322  0.95468  1.0000
  H   H54       1.0  0.41870  0.35707  0.91142  1.0000
  H   H55       1.0  0.46747  0.39782  0.89687  1.0000
  C   C50       1.0  0.47340  0.49447  0.79401  1.0000
  H   H56       1.0  0.36567  0.32904  0.87168  1.0000
  H   H57       1.0  0.12902  0.44737  0.61676  1.0000
  C   C51       1.0  0.36236  0.35638  0.82625  1.0000
  N   N3        1.0  0.44422  0.34085  0.86949  1.0000
  C   C52       1.0  0.38256  0.37732  0.79742  1.0000
  H   H58       1.0  0.03103  0.42396  0.58118  1.0000
  H   H59       1.0  0.46057  0.13738  0.51678  1.0000
  C   C53       1.0  0.42292  0.38659  0.79167  1.0000
  H   H60       1.0  0.07887  0.42590  0.57578  1.0000
  C   C54       1.0  0.01059  0.41278  0.70713  1.0000
  C   C55       1.0  0.08649  0.48811  0.61620  1.0000
  H   H61       1.0  0.48175  0.04157  0.54011  1.0000
  H   H62       1.0  0.02619  0.47068  0.82024  1.0000
  H   H63       1.0  0.41337  0.27732  0.85285  1.0000
  H   H64       1.0  0.33127  0.35014  0.83092  1.0000
  C   C56       1.0  0.45998  0.46673  0.86032  1.0000
  C   C57       1.0  0.47857  0.37992  0.59978  1.0000
  H   H65       1.0  0.48795  0.29928  0.56986  1.0000
  C   C58       1.0  0.44339  0.37509  0.81473  1.0000
  H   H66       1.0  0.45249  0.02766  0.96272  1.0000
  H   H67       1.0  0.02605  0.47519  0.97317  1.0000
  C   C59       1.0  0.43571  0.36623  0.59954  1.0000
  S   S6        1.0  0.35847  0.48288  0.69175  1.0000
  H   H68       1.0  0.45450  0.45610  0.88582  1.0000
  H   H69       1.0  0.47745  0.30900  0.61144  1.0000
  C   C60       1.0  0.47482  0.03521  0.76302  1.0000
  C   C61       1.0  0.04184  0.42261  0.68376  1.0000
  C   C62       1.0  0.10575  0.43980  0.63679  1.0000
  C   C63       1.0  0.41927  0.29568  0.87621  1.0000
  H   H70       1.0  0.03911  0.38485  0.60018  1.0000
  C   C64       1.0  0.48917  0.22451  0.54958  1.0000
  C   C65       1.0  0.45709  0.47394  0.56620  1.0000
  S   S7        1.0  0.48327  0.19306  0.58456  1.0000
  C   C66       1.0  0.47450  0.31486  0.58466  1.0000
  C   C67       1.0  0.01098  0.48977  0.82067  1.0000
  S   S8        1.0  0.39405  0.48142  0.78606  1.0000
  H   H71       1.0  0.43893  0.40420  0.76973  1.0000
  C   C68       1.0  0.48678  0.43135  0.64211  1.0000
  H   H72       1.0  0.48277  0.45246  0.52817  1.0000
  C   C69       1.0  0.48761  0.36599  0.54243  1.0000
  C   C70       1.0  0.23248  0.49524  0.59273  1.0000
  C   C71       1.0  0.45497  0.24152  0.50588  1.0000
  H   H73       1.0  0.48032  0.10322  0.52494  1.0000
  H   H74       1.0  0.27834  0.49139  0.62305  1.0000
  S   S9        1.0  0.17122  0.49593  0.55519  1.0000
  S   S10       1.0  0.49125  0.31645  0.97254  1.0000
  C   C72       1.0  0.49086  0.01169  0.71206  1.0000
  C   C73       1.0  0.49243  0.02838  0.52128  1.0000
  Fe  Fe1       1.0  0.36082  0.55934  0.20751  1.0000
  S   S11       1.0  0.41213  0.60912  0.17799  1.0000
  H   H75       1.0  0.26162  0.55283  0.04168  1.0000
  Fe  Fe2       1.0  0.42076  0.53806  0.24388  1.0000
  C   C74       1.0  0.40418  0.81155  0.21647  1.0000
  C   C75       1.0  0.40594  0.93505  0.06170  1.0000
  Fe  Fe3       1.0  0.44735  0.62742  0.22634  1.0000
  C   C76       1.0  0.30607  0.60757  0.35746  1.0000
  Fe  Fe4       1.0  0.43538  0.56428  0.17071  1.0000
  S   S12       1.0  0.47524  0.89724  0.36249  1.0000
  S   S13       1.0  0.39486  0.57955  0.25645  1.0000
  H   H76       1.0  0.01894  0.50584  0.11401  1.0000
  H   H77       1.0  0.47067  0.93780  0.20684  1.0000
  S   S14       1.0  0.11766  0.62645  0.04811  1.0000
  C   C77       1.0  0.47133  0.99587  0.20214  1.0000
  Fe  Fe5       1.0  0.15394  0.54766  0.06353  1.0000
  S   S15       1.0  0.17340  0.60378  0.09513  1.0000
  H   H78       1.0  0.40732  0.73714  0.26269  1.0000
  Fe  Fe6       1.0  0.10667  0.58607  0.09297  1.0000
  S   S16       1.0  0.24499  0.69428  0.03767  1.0000
  Fe  Fe7       1.0  0.18220  0.63721  0.04660  1.0000
  C   C78       1.0  0.23697  0.70617  0.48227  1.0000
  H   H79       1.0  0.43071  0.97597  0.29329  1.0000
  H   H80       1.0  0.38282  0.87656  0.03766  1.0000
  Fe  Fe8       1.0  0.43847  0.82784  0.37072  1.0000
  S   S17       1.0  0.38989  0.81669  0.33332  1.0000
  H   H81       1.0  0.38550  0.88671  0.48455  1.0000
  Fe  Fe9       1.0  0.43468  0.90224  0.40206  1.0000
  S   S18       1.0  0.38534  0.89406  0.36513  1.0000
  H   H82       1.0  0.41801  0.92632  0.08280  1.0000
  Fe  Fe10      1.0  0.35664  0.82579  0.37600  1.0000
  S   S19       1.0  0.28861  0.77919  0.38474  1.0000
  Fe  Fe11      1.0  0.42432  0.88598  0.32644  1.0000
  S   S20       1.0  0.44034  0.90584  0.27204  1.0000
  S   S21       1.0  0.40359  0.83400  0.41406  1.0000
  C   C79       1.0  0.27524  0.58005  0.02475  1.0000
  C   C80       1.0  0.35486  0.86457  0.49523  1.0000
  C   C81       1.0  0.02388  0.50178  0.41040  1.0000
  C   C82       1.0  0.44991  0.95246  0.25225  1.0000
  H   H83       1.0  0.35895  0.93785  0.48498  1.0000
  C   C83       1.0  0.02744  0.54662  0.15493  1.0000
  H   H84       1.0  0.47380  0.81205  0.22483  1.0000
  N   N4        1.0  0.32166  0.87130  0.48187  1.0000
  H   H85       1.0  0.28002  0.67598  0.42077  1.0000
  H   H86       1.0  0.30272  0.88045  0.43314  1.0000
  H   H87       1.0  0.12865  0.56459  0.23485  1.0000
  C   C84       1.0  0.33406  0.66849  0.32239  1.0000
  C   C85       1.0  0.29523  0.75811  0.44992  1.0000
  C   C86       1.0  0.26991  0.74980  0.42195  1.0000
  C   C87       1.0  0.22844  0.71817  0.42387  1.0000
  C   C88       1.0  0.21216  0.69602  0.45372  1.0000
  H   H88       1.0  0.42082  0.69078  0.35030  1.0000
  H   H89       1.0  0.32734  0.78148  0.44862  1.0000
  H   H90       1.0  0.20855  0.71116  0.40234  1.0000
  H   H91       1.0  0.17996  0.67229  0.45502  1.0000
  C   C89       1.0  0.45896  0.75390  0.33389  1.0000
  H   H92       1.0  0.36822  0.73539  0.36660  1.0000
  C   C90       1.0  0.34438  0.58491  0.05893  1.0000
  C   C91       1.0  0.30461  0.58369  0.32996  1.0000
  C   C92       1.0  0.33632  0.71940  0.37653  1.0000
  H   H93       1.0  0.33730  0.73713  0.39920  1.0000
  C   C93       1.0  0.49099  0.76088  0.27977  1.0000
  C   C94       1.0  0.46471  0.96004  0.21930  1.0000
  H   H94       1.0  0.42689  0.99672  0.08049  1.0000
  H   H95       1.0  0.33412  0.68459  0.03118  1.0000
  C   C95       1.0  0.31850  0.66661  0.16483  1.0000
  C   C96       1.0  0.26825  0.54308  0.16819  1.0000
  C   C97       1.0  0.21058  0.54221  0.13881  1.0000
  C   C98       1.0  0.47124  0.71755  0.27598  1.0000
  C   C99       1.0  0.21727  0.52359  0.11102  1.0000
  C   C100      1.0  0.31766  0.60197  0.29882  1.0000
  S   S22       1.0  0.18551  0.51069  0.07502  1.0000
  C   C101      1.0  0.40070  0.65596  0.09394  1.0000
  S   S23       1.0  0.45382  0.77593  0.37162  1.0000
  N   N5        1.0  0.32193  0.67528  0.38414  1.0000
  C   C102      1.0  0.35049  0.67457  0.40944  1.0000
  H   H96       1.0  0.14303  0.50908  0.24728  1.0000
  C   C103      1.0  0.28019  0.65746  0.39897  1.0000
  C   C104      1.0  0.32061  0.65072  0.35454  1.0000
  H   H97       1.0  0.38232  0.68809  0.39929  1.0000
  H   H98       1.0  0.35257  0.69314  0.43194  1.0000
  H   H99       1.0  0.34071  0.64269  0.41814  1.0000
  H   H100      1.0  0.02740  0.57894  0.19959  1.0000
  H   H101      1.0  0.32396  0.74392  0.00715  1.0000
  H   H102      1.0  0.25762  0.65681  0.38051  1.0000
  H   H103      1.0  0.31555  0.72258  0.35839  1.0000
  C   C105      1.0  0.40659  0.62194  0.09206  1.0000
  N   N6        1.0  0.09777  0.50423  0.21100  1.0000
  C   C106      1.0  0.00568  0.56872  0.05522  1.0000
  H   H104      1.0  0.02017  0.54226  0.37400  1.0000
  H   H105      1.0  0.35630  0.89849  0.43686  1.0000
  C   C107      1.0  0.37690  0.73751  0.20127  1.0000
  S   S24       1.0  0.16051  0.57051  0.49260  1.0000
  N   N7        1.0  0.40756  0.77374  0.22083  1.0000
  C   C108      1.0  0.34884  0.66499  0.18369  1.0000
  C   C109      1.0  0.31677  0.70310  0.16386  1.0000
  H   H106      1.0  0.40022  0.69649  0.21625  1.0000
  C   C110      1.0  0.27677  0.62461  0.06864  1.0000
  C   C111      1.0  0.48050  0.53726  0.09726  1.0000
  H   H107      1.0  0.29589  0.59198  0.38113  1.0000
  H   H108      1.0  0.14203  0.56466  0.19200  1.0000
  H   H109      1.0  0.45968  0.50199  0.17247  1.0000
  C   C112      1.0  0.25005  0.51540  0.11179  1.0000
  H   H110      1.0  0.32360  0.55619  0.04640  1.0000
  C   C113      1.0  0.32544  0.87351  0.44498  1.0000
  C   C114      1.0  0.32878  0.91204  0.49390  1.0000
  N   N8        1.0  0.30232  0.61912  0.04322  1.0000
  C   C115      1.0  0.33785  0.61942  0.05977  1.0000
  Fe  Fe12      1.0  0.10001  0.56825  0.01844  1.0000
  H   H111      1.0  0.44380  0.51531  0.05247  1.0000
  H   H112      1.0  0.15558  0.50499  0.20530  1.0000
  H   H113      1.0  0.45489  0.79161  0.18375  1.0000
  S   S25       1.0  0.44122  0.94899  0.44265  1.0000
  H   H114      1.0  0.29285  0.70412  0.14930  1.0000
  H   H115      1.0  0.29349  0.55080  0.33276  1.0000
  C   C116      1.0  0.44524  0.69243  0.30137  1.0000
  C   C117      1.0  0.43976  0.71056  0.33041  1.0000
  C   C118      1.0  0.34540  0.73814  0.18181  1.0000
  S   S26       1.0  0.07460  0.58847  0.14035  1.0000
  H   H116      1.0  0.34204  0.76523  0.18018  1.0000
  S   S27       1.0  0.44424  0.54765  0.11741  1.0000
  H   H117      1.0  0.02871  0.57883  0.03481  1.0000
  H   H118      1.0  0.11483  0.50166  0.15986  1.0000
  H   H119      1.0  0.43288  0.62275  0.10423  1.0000
  H   H120      1.0  0.43009  0.65906  0.29901  1.0000
  H   H121      1.0  0.26815  0.62540  0.40827  1.0000
  H   H122      1.0  0.29610  0.63931  0.15123  1.0000
  S   S28       1.0  0.08604  0.52745  0.06376  1.0000
  H   H123      1.0  0.29268  0.65604  0.08010  1.0000
  H   H124      1.0  0.18550  0.54860  0.13867  1.0000
  C   C119      1.0  0.37112  0.91807  0.00718  1.0000
  C   C120      1.0  0.33249  0.64426  0.29507  1.0000
  Fe  Fe13      1.0  0.09321  0.54751  0.48286  1.0000
  H   H125      1.0  0.22975  0.56515  0.18892  1.0000
  H   H126      1.0  0.25549  0.50094  0.09049  1.0000
  C   C121      1.0  0.23565  0.55147  0.16733  1.0000
  S   S29       1.0  0.29725  0.55318  0.20544  1.0000
  C   C122      1.0  0.11624  0.54995  0.21019  1.0000
  S   S30       1.0  0.38127  0.51309  0.19766  1.0000
  C   C123      1.0  0.44228  0.98145  0.26804  1.0000
  H   H127      1.0  0.49259  0.50001  0.02231  1.0000
  H   H128      1.0  0.34313  0.65825  0.27081  1.0000
  H   H129      1.0  0.00760  0.56949  0.45712  1.0000
  H   H130      1.0  0.24774  0.62065  0.05765  1.0000
  H   H131      1.0  0.00503  0.50892  0.02258  1.0000
  H   H132      1.0  0.32138  0.84415  0.43428  1.0000
  H   H133      1.0  0.37052  0.75450  0.26517  1.0000
  H   H134      1.0  0.31648  0.58334  0.27752  1.0000
  C   C124      1.0  0.27869  0.73703  0.48006  1.0000
  H   H135      1.0  0.09288  0.55860  0.20272  1.0000
  H   H136      1.0  0.45659  0.75914  0.21575  1.0000
  C   C125      1.0  0.38612  0.90698  0.03558  1.0000
  C   C126      1.0  0.37755  0.69969  0.20175  1.0000
  S   S31       1.0  0.16558  0.58161  0.01477  1.0000
  H   H137      1.0  0.34636  0.70111  0.31775  1.0000
  C   C127      1.0  0.47765  0.98237  0.47294  1.0000
  C   C128      1.0  0.41073  0.97458  0.06061  1.0000
  H   H138      1.0  0.38283  0.55979  0.07421  1.0000
  H   H139      1.0  0.37422  0.80701  0.22579  1.0000
  C   C129      1.0  0.40214  0.76331  0.25677  1.0000
  H   H140      1.0  0.02060  0.56451  0.07774  1.0000
  S   S32       1.0  0.06668  0.54325  0.43088  1.0000
  H   H141      1.0  0.24861  0.58056  0.01286  1.0000
  H   H142      1.0  0.34991  0.63646  0.18455  1.0000
  C   C130      1.0  0.01105  0.55048  0.18533  1.0000
  C   C131      1.0  0.36686  0.65484  0.07809  1.0000
  H   H143      1.0  0.30409  0.91798  0.48488  1.0000
  S   S33       1.0  0.47620  0.58735  0.21642  1.0000
  C   C132      1.0  0.39533  0.98604  0.03361  1.0000
  H   H144      1.0  0.40819  0.82153  0.18999  1.0000
  H   H145      1.0  0.26811  0.60156  0.08895  1.0000
  C   C133      1.0  0.37834  0.58642  0.07488  1.0000
  C   C134      1.0  0.37584  0.95842  0.00717  1.0000
  H   H146      1.0  0.30078  0.51892  0.14045  1.0000
  H   H147      1.0  0.42434  0.79007  0.27243  1.0000
  C   C135      1.0  0.47199  0.52106  0.06461  1.0000
  C   C136      1.0  0.00697  0.51056  0.38241  1.0000
  C   C137      1.0  0.27583  0.52564  0.14006  1.0000
  C   C138      1.0  0.28098  0.83800  0.49358  1.0000
  H   H148      1.0  0.36340  0.68186  0.08039  1.0000
  C   C139      1.0  0.00619  0.50958  0.13693  1.0000
  H   H149      1.0  0.42245  0.68321  0.10792  1.0000
  H   H150      1.0  0.00021  0.59507  0.05964  1.0000
  H   H151      1.0  0.29223  0.57457  0.00452  1.0000
  H   H152      1.0  0.29147  0.86346  0.00320  1.0000
  C   C140      1.0  0.31706  0.65366  0.01899  1.0000
  H   H153      1.0  0.46629  0.50268  0.21650  1.0000
  H   H154      1.0  0.31684  0.83427  0.01129  1.0000
  C   C141      1.0  0.44991  0.78455  0.21082  1.0000
  S   S34       1.0  0.47926  0.69652  0.23884  1.0000
  C   C142      1.0  0.24792  0.81284  0.47150  1.0000
  H   H155      1.0  0.42841  0.83833  0.23093  1.0000
  H   H156      1.0  0.18624  0.76094  0.46615  1.0000
  C   C143      1.0  0.48436  0.77897  0.30825  1.0000
  H   H157      1.0  0.25052  0.81619  0.44475  1.0000
  H   H158      1.0  0.09754  0.51675  0.27865  1.0000
  H   H159      1.0  0.34867  0.83277  0.48946  1.0000
  H   H160      1.0  0.29087  0.65341  0.00548  1.0000
  H   H161      1.0  0.33778  0.65175  0.00011  1.0000
  C   C144      1.0  0.21046  0.78078  0.48348  1.0000
  H   H162      1.0  0.43003  0.50134  0.49068  1.0000
  H   H163      1.0  0.44921  0.49970  0.43648  1.0000
  C   C145      1.0  0.47698  0.49949  0.44609  1.0000
  H   H164      1.0  0.43292  0.99342  0.49759  1.0000
  H   H165      1.0  0.49310  0.57486  0.42447  1.0000
  C   C146      1.0  0.49340  0.55430  0.48851  1.0000
  H   H166      1.0  0.06602  0.49783  0.16458  1.0000
  Fe  Fe14      1.0  0.34190  0.53320  0.69108  1.0000
  S   S35       1.0  0.39569  0.57623  0.65968  1.0000
  S   S36       1.0  0.28108  0.53271  0.68600  1.0000
  H   H167      1.0  0.32941  0.91405  0.52155  1.0000
  S   S37       1.0  0.45498  0.55649  0.70798  1.0000
  H   H168      1.0  0.47553  0.64717  0.88398  1.0000
  Fe  Fe15      1.0  0.42966  0.60046  0.70821  1.0000
  H   H169      1.0  0.08619  0.57724  0.78465  1.0000
  Fe  Fe16      1.0  0.41476  0.52766  0.66238  1.0000
  H   H170      1.0  0.32656  0.88244  0.92974  1.0000
  S   S38       1.0  0.37513  0.55996  0.73945  1.0000
  C   C147      1.0  0.46119  0.75370  0.78281  1.0000
  H   H171      1.0  0.36896  0.93259  0.94006  1.0000
  C   C148      1.0  0.49089  0.66876  0.86397  1.0000
  H   H172      1.0  0.46631  0.56690  0.78508  1.0000
  Fe  Fe17      1.0  0.14029  0.53245  0.53943  1.0000
  S   S39       1.0  0.14205  0.58241  0.57189  1.0000
  C   C149      1.0  0.30090  0.74192  0.98983  1.0000
  Fe  Fe18      1.0  0.07557  0.55616  0.55624  1.0000
  S   S40       1.0  0.06002  0.56549  0.97440  1.0000
  Fe  Fe19      1.0  0.15937  0.61940  0.52415  1.0000
  H   H173      1.0  0.44616  0.98929  0.80183  1.0000
  H   H174      1.0  0.35858  0.86887  0.52265  1.0000
  H   H175      1.0  0.34205  0.61436  0.63449  1.0000
  Fe  Fe20      1.0  0.43023  0.80863  0.85524  1.0000
  S   S41       1.0  0.37973  0.81374  0.82986  1.0000
  H   H176      1.0  0.19706  0.69831  0.98158  1.0000
  Fe  Fe21      1.0  0.45371  0.88666  0.89851  1.0000
  S   S42       1.0  0.40446  0.89633  0.87535  1.0000
  H   H177      1.0  0.31781  0.91528  0.95666  1.0000
  Fe  Fe22      1.0  0.36434  0.82684  0.88105  1.0000
  S   S43       1.0  0.29885  0.79491  0.90148  1.0000
  Fe  Fe23      1.0  0.42570  0.88242  0.82669  1.0000
  H   H178      1.0  0.36506  0.85249  0.94513  1.0000
  S   S44       1.0  0.41250  0.81834  0.90666  1.0000
  C   C150      1.0  0.03175  0.53732  0.65104  1.0000
  C   C151      1.0  0.46016  0.96380  0.75906  1.0000
  C   C152      1.0  0.12753  0.60644  0.87952  1.0000
  H   H179      1.0  0.29700  0.84787  0.54648  1.0000
  H   H180      1.0  0.43089  0.58583  0.86295  1.0000
  C   C153      1.0  0.01995  0.52890  0.68476  1.0000
  C   C154      1.0  0.01810  0.55734  0.81928  1.0000
  H   H181      1.0  0.23163  0.79049  0.56622  1.0000
  H   H182      1.0  0.03821  0.59117  0.81530  1.0000
  S   S45       1.0  0.07270  0.50361  0.52623  1.0000
  H   H183      1.0  0.45887  0.58900  0.56883  1.0000
  C   C155      1.0  0.10058  0.59186  0.85225  1.0000
  C   C156      1.0  0.31335  0.76328  0.95937  1.0000
  C   C157      1.0  0.28406  0.76272  0.93732  1.0000
  C   C158      1.0  0.24206  0.73882  0.94549  1.0000
  C   C159      1.0  0.22948  0.71617  0.97546  1.0000
  H   H184      1.0  0.40897  0.89801  0.96136  1.0000
  H   H185      1.0  0.34569  0.78099  0.95347  1.0000
  H   H186      1.0  0.21912  0.73827  0.92875  1.0000
  H   H187      1.0  0.04491  0.53158  0.76662  1.0000
  H   H188      1.0  0.29710  0.59165  0.58566  1.0000
  S   S46       1.0  0.01503  0.53766  0.58331  1.0000
  H   H189      1.0  0.29815  0.74496  0.50194  1.0000
  C   C160      1.0  0.45111  0.69195  0.75265  1.0000
  H   H190      1.0  0.49152  0.56207  0.84066  1.0000
  H   H191      1.0  0.15011  0.63918  0.88184  1.0000
  C   C161      1.0  0.43798  0.72909  0.80958  1.0000
  C   C162      1.0  0.34070  0.90563  0.95038  1.0000
  C   C163      1.0  0.09611  0.53710  0.90149  1.0000
  H   H192      1.0  0.41212  0.63419  0.77721  1.0000
  H   H193      1.0  0.47562  0.78710  0.78459  1.0000
  C   C164      1.0  0.25362  0.52521  0.64821  1.0000
  C   C165      1.0  0.22590  0.54012  0.64568  1.0000
  C   C166      1.0  0.20217  0.53334  0.61663  1.0000
  S   S47       1.0  0.43590  0.75098  0.84833  1.0000
  H   H194      1.0  0.22302  0.55732  0.66626  1.0000
  C   C167      1.0  0.02084  0.52465  0.95045  1.0000
  S   S48       1.0  0.21631  0.68352  0.52153  1.0000
  H   H195      1.0  0.18138  0.54542  0.61511  1.0000
  H   H196      1.0  0.47875  0.50477  0.76839  1.0000
  H   H197      1.0  0.09943  0.50868  0.63841  1.0000
  C   C168      1.0  0.07004  0.54931  0.84903  1.0000
  S   S49       1.0  0.47726  0.87628  0.84984  1.0000
  C   C169      1.0  0.46817  0.58011  0.54611  1.0000
  H   H198      1.0  0.45284  0.97116  0.93015  1.0000
  H   H199      1.0  0.06397  0.55233  0.64434  1.0000
  H   H200      1.0  0.48771  0.75463  0.73481  1.0000
  H   H201      1.0  0.08485  0.52859  0.78916  1.0000
  C   C170      1.0  0.42586  0.66735  0.77851  1.0000
  C   C171      1.0  0.20475  0.51015  0.59020  1.0000
  S   S50       1.0  0.42258  0.50026  0.61367  1.0000
  C   C172      1.0  0.47576  0.97212  0.72637  1.0000
  C   C173      1.0  0.43513  0.58604  0.83559  1.0000
  C   C174      1.0  0.45960  0.99559  0.77728  1.0000
  H   H202      1.0  0.36341  0.73690  0.68571  1.0000
  H   H203      1.0  0.25568  0.62434  0.57128  1.0000
  C   C175      1.0  0.00191  0.52728  0.62623  1.0000
  C   C176      1.0  0.47003  0.98156  0.95320  1.0000
  C   C177      1.0  0.42003  0.68583  0.80705  1.0000
  H   H204      1.0  0.48748  0.96516  0.87996  1.0000
  S   S51       1.0  0.09340  0.59911  0.51213  1.0000
  C   C178      1.0  0.06867  0.52220  0.87453  1.0000
  H   H205      1.0  0.14530  0.59062  0.92577  1.0000
  H   H206      1.0  0.25939  0.68047  0.60649  1.0000
  C   C179      1.0  0.12515  0.57912  0.90417  1.0000
  H   H207      1.0  0.04339  0.53709  0.70365  1.0000
  S   S52       1.0  0.44054  0.91287  0.77524  1.0000
  Fe  Fe24      1.0  0.39770  0.51434  0.73707  1.0000
  H   H208      1.0  0.30329  0.70442  0.65570  1.0000
  H   H209      1.0  0.40225  0.66658  0.82768  1.0000
  S   S53       1.0  0.46401  0.66992  0.71864  1.0000
  N   N9        1.0  0.35565  0.67573  0.67955  1.0000
  C   C180      1.0  0.34554  0.64005  0.70171  1.0000
  C   C181      1.0  0.39873  0.69339  0.66786  1.0000
  C   C182      1.0  0.35359  0.70792  0.70007  1.0000
  C   C183      1.0  0.32753  0.66177  0.65032  1.0000
  C   C184      1.0  0.30325  0.67988  0.64133  1.0000
  C   C185      1.0  0.32482  0.62985  0.62917  1.0000
  C   C186      1.0  0.27780  0.66645  0.61303  1.0000
  C   C187      1.0  0.29934  0.61676  0.60097  1.0000
  C   C188      1.0  0.27580  0.63493  0.59296  1.0000
  H   H210      1.0  0.35148  0.61665  0.68982  1.0000
  H   H211      1.0  0.36450  0.64978  0.72490  1.0000
  H   H212      1.0  0.31241  0.62366  0.70894  1.0000
  H   H213      1.0  0.40437  0.66954  0.65619  1.0000
  H   H214      1.0  0.42125  0.70706  0.68875  1.0000
  H   H215      1.0  0.40667  0.71833  0.64923  1.0000
  H   H216      1.0  0.32196  0.69643  0.70997  1.0000
  H   H217      1.0  0.37458  0.71705  0.72216  1.0000
  H   H218      1.0  0.99505  0.54606  0.79862  1.0000
  H   H219      1.0  0.09383  0.51617  0.92118  1.0000
  H   H220      1.0  0.29370  0.83053  0.97159  1.0000
  N   N10       1.0  0.04151  0.53490  0.82011  1.0000
  H   H221      1.0  0.00110  0.55308  0.84299  1.0000
  N   N11       1.0  0.47912  0.61027  0.82548  1.0000
  H   H222      1.0  0.00817  0.56648  0.92265  1.0000
  C   C189      1.0  0.25896  0.71830  0.99807  1.0000
  H   H223      1.0  0.46503  0.61252  0.77367  1.0000
  H   H224      1.0  0.48864  0.96313  0.83516  1.0000
  H   H225      1.0  0.42073  0.55280  0.82817  1.0000
  C   C190      1.0  0.48123  0.60083  0.78977  1.0000
  C   C191      1.0  0.37781  0.87212  0.96780  1.0000
  H   H226      1.0  0.41670  0.59851  0.82384  1.0000
  H   H227      1.0  0.10357  0.61430  0.83385  1.0000
  C   C192      1.0  0.46812  0.73520  0.75465  1.0000
  H   H228      1.0  0.38188  0.85248  0.98641  1.0000
  C   C193      1.0  0.06550  0.54352  0.78886  1.0000
  H   H229      1.0  0.47596  0.94767  0.71190  1.0000
  C   C194      1.0  0.25734  0.50330  0.62135  1.0000
  C   C195      1.0  0.00012  0.53450  0.92609  1.0000
  H   H230      1.0  0.00925  0.57878  0.50128  1.0000
  N   N12       1.0  0.35068  0.88791  0.97969  1.0000
  H   H231      1.0  0.36555  0.96985  0.98681  1.0000
  C   C196      1.0  0.27359  0.82975  0.52818  1.0000
  C   C197      1.0  0.23614  0.79727  0.53981  1.0000
  C   C198      1.0  0.31159  0.85258  0.99204  1.0000
  H   H232      1.0  0.11132  0.49855  0.59732  1.0000
  C   C199      1.0  0.20476  0.77267  0.51748  1.0000
  C   C200      1.0  0.44059  0.54349  0.52982  1.0000
  H   H233      1.0  0.41005  0.52418  0.54019  1.0000
  H   H234      1.0  0.17633  0.74656  0.52644  1.0000
  C   C201      1.0  0.45277  0.53056  0.50143  1.0000
  C   C202      1.0  0.49342  0.96407  0.96410  1.0000
  C   C203      1.0  0.46458  0.49845  0.59496  1.0000
  Fe  Fe25      1.0  0.87570  0.40547  0.31419  1.0000
  S   S54       1.0  0.91238  0.39661  0.35541  1.0000
  Fe  Fe26      1.0  0.79561  0.35537  0.27241  1.0000
  S   S55       1.0  0.80622  0.41261  0.24598  1.0000
  S   S56       1.0  0.73331  0.29622  0.26563  1.0000
  Fe  Fe27      1.0  0.87269  0.42900  0.24231  1.0000
  H   H235      1.0  0.95952  0.39703  0.41200  1.0000
  Fe  Fe28      1.0  0.82286  0.44325  0.29644  1.0000
  H   H236      1.0  0.98309  0.49698  0.47041  1.0000
  S   S57       1.0  0.86094  0.36928  0.26605  1.0000
  S   S58       1.0  0.80907  0.38529  0.32326  1.0000
  Fe  Fe29      1.0  0.55731  0.45647  0.42029  1.0000
  C   C204      1.0  0.97789  0.49747  0.03929  1.0000
  Fe  Fe30      1.0  0.53393  0.37608  0.45819  1.0000
  Fe  Fe31      1.0  0.51719  0.10059  0.07345  1.0000
  C   C205      1.0  0.52390  0.30072  0.06601  1.0000
  C   C206      1.0  0.49552  0.23468  0.03758  1.0000
  S   S59       1.0  0.89100  0.46607  0.29021  1.0000
  Fe  Fe32      1.0  0.62378  0.43933  0.44836  1.0000
  S   S60       1.0  0.68358  0.43795  0.44402  1.0000
  S   S61       1.0  0.57177  0.40509  0.41212  1.0000
  H   H237      1.0  0.96842  0.43988  0.29580  1.0000
  H   H238      1.0  0.69969  0.28916  0.05494  1.0000
  Fe  Fe33      1.0  0.58812  0.15569  0.12146  1.0000
  S   S62       1.0  0.54684  0.16775  0.15349  1.0000
  S   S63       1.0  0.65685  0.19069  0.13304  1.0000
  H   H239      1.0  0.75319  0.21304  0.26240  1.0000
  H   H240      1.0  0.95158  0.44907  0.13414  1.0000
  Fe  Fe34      1.0  0.52124  0.17703  0.10577  1.0000
  H   H241      1.0  0.57957  0.32394  0.41973  1.0000
  S   S64       1.0  0.54475  0.08627  0.11826  1.0000
  S   S65       1.0  0.56517  0.16848  0.07369  1.0000
  C   C207      1.0  0.70733  0.47063  0.38050  1.0000
  H   H242      1.0  0.59679  0.26041  0.04582  1.0000
  H   H243      1.0  0.65377  0.34652  0.42252  1.0000
  C   C208      1.0  0.96830  0.47727  0.14865  1.0000
  C   C209      1.0  0.89095  0.47735  0.40300  1.0000
  H   H244      1.0  0.72655  0.35166  0.09233  1.0000
  H   H245      1.0  0.51707  0.08120  0.45153  1.0000
  H   H246      1.0  0.64925  0.24600  0.06283  1.0000
  C   C210      1.0  0.76196  0.46806  0.34905  1.0000
  C   C211      1.0  0.76700  0.44640  0.37536  1.0000
  C   C212      1.0  0.74305  0.43784  0.40436  1.0000
  C   C213      1.0  0.71289  0.44958  0.40699  1.0000
  C   C214      1.0  0.62502  0.34996  0.00514  1.0000
  H   H247      1.0  0.64247  0.28745  0.29431  1.0000
  C   C215      1.0  0.63854  0.34071  0.39845  1.0000
  N   N13       1.0  0.66300  0.30292  0.08813  1.0000
  C   C216      1.0  0.67736  0.22395  0.16826  1.0000
  C   C217      1.0  0.65222  0.22168  0.19480  1.0000
  C   C218      1.0  0.66975  0.24478  0.22410  1.0000
  C   C219      1.0  0.71252  0.27158  0.22683  1.0000
  C   C220      1.0  0.73758  0.27567  0.19961  1.0000
  C   C221      1.0  0.72007  0.25156  0.17060  1.0000
  H   H248      1.0  0.61947  0.20073  0.19340  1.0000
  H   H249      1.0  0.65014  0.24105  0.24508  1.0000
  H   H250      1.0  0.77062  0.29595  0.20148  1.0000
  H   H251      1.0  0.73990  0.25351  0.15028  1.0000
  H   H252      1.0  0.88378  0.45070  0.38738  1.0000
  H   H253      1.0  0.68741  0.39802  0.26700  1.0000
  Fe  Fe35      1.0  0.56912  0.45756  0.49586  1.0000
  H   H254      1.0  0.78954  0.43649  0.37354  1.0000
  C   C222      1.0  0.95553  0.43765  0.37593  1.0000
  H   H255      1.0  0.69074  0.35792  0.11884  1.0000
  H   H256      1.0  0.93635  0.46715  0.49426  1.0000
  C   C223      1.0  0.95158  0.48129  0.17881  1.0000
  H   H257      1.0  0.53268  0.02096  0.03580  1.0000
  H   H258      1.0  0.70650  0.32113  0.12893  1.0000
  C   C224      1.0  0.91492  0.48506  0.43180  1.0000
  H   H259      1.0  0.61521  0.30986  0.27414  1.0000
  C   C225      1.0  0.61512  0.29317  0.04049  1.0000
  N   N14       1.0  0.66635  0.35190  0.30582  1.0000
  C   C226      1.0  0.66835  0.38880  0.29004  1.0000
  C   C227      1.0  0.70931  0.36082  0.31061  1.0000
  C   C228      1.0  0.64604  0.31610  0.28252  1.0000
  C   C229      1.0  0.64277  0.34273  0.33729  1.0000
  C   C230      1.0  0.60024  0.33045  0.33667  1.0000
  C   C231      1.0  0.66129  0.34761  0.36920  1.0000
  H   H260      1.0  0.68268  0.41598  0.30729  1.0000
  H   H261      1.0  0.84044  0.43220  0.09132  1.0000
  S   S66       1.0  0.79140  0.47934  0.31201  1.0000
  H   H262      1.0  0.72772  0.38915  0.32579  1.0000
  H   H263      1.0  0.72603  0.36693  0.28653  1.0000
  H   H264      1.0  0.71030  0.33435  0.32247  1.0000
  H   H265      1.0  0.66463  0.32132  0.25950  1.0000
  C   C232      1.0  0.97263  0.42879  0.40377  1.0000
  H   H266      1.0  0.69361  0.35786  0.37239  1.0000
  C   C233      1.0  0.51849  0.18667  0.47353  1.0000
  H   H267      1.0  0.95995  0.48610  0.34409  1.0000
  N   N15       1.0  0.59271  0.10423  0.23647  1.0000
  C   C234      1.0  0.56819  0.12315  0.24811  1.0000
  C   C235      1.0  0.58328  0.09429  0.20052  1.0000
  C   C236      1.0  0.57860  0.06466  0.25443  1.0000
  C   C237      1.0  0.63711  0.13265  0.24331  1.0000
  C   C238      1.0  0.65076  0.14849  0.27597  1.0000
  C   C239      1.0  0.66792  0.14541  0.21826  1.0000
  C   C240      1.0  0.69218  0.17708  0.28267  1.0000
  C   C241      1.0  0.70931  0.17364  0.22537  1.0000
  C   C242      1.0  0.72133  0.18987  0.25736  1.0000
  H   H268      1.0  0.57871  0.15368  0.23608  1.0000
  H   H269      1.0  0.53486  0.10318  0.24216  1.0000
  H   H270      1.0  0.56967  0.12777  0.27549  1.0000
  H   H271      1.0  0.59356  0.12292  0.18552  1.0000
  H   H272      1.0  0.54959  0.07430  0.19594  1.0000
  H   H273      1.0  0.59794  0.07697  0.19039  1.0000
  H   H274      1.0  0.54539  0.04213  0.24935  1.0000
  H   H275      1.0  0.59662  0.04966  0.24675  1.0000
  H   H276      1.0  0.58184  0.06915  0.28189  1.0000
  H   H277      1.0  0.62943  0.13935  0.29650  1.0000
  H   H278      1.0  0.66085  0.13525  0.19263  1.0000
  H   H279      1.0  0.70179  0.19008  0.30747  1.0000
  C   C243      1.0  0.97285  0.47875  0.36536  1.0000
  H   H280      1.0  0.53072  0.19375  0.44768  1.0000
  H   H281      1.0  0.50613  0.37511  0.13311  1.0000
  C   C244      1.0  0.69827  0.33507  0.10778  1.0000
  H   H282      1.0  0.53712  0.31945  0.08814  1.0000
  C   C245      1.0  0.57767  0.32312  0.36610  1.0000
  C   C246      1.0  0.87520  0.48403  0.12394  1.0000
  S   S67       1.0  0.52000  0.23740  0.10344  1.0000
  C   C247      1.0  0.65938  0.37711  0.02395  1.0000
  C   C248      1.0  0.67556  0.27393  0.07437  1.0000
  C   C249      1.0  0.64990  0.31992  0.06034  1.0000
  H   H283      1.0  0.95640  0.42333  0.23573  1.0000
  S   S68       1.0  0.51359  0.42382  0.46279  1.0000
  S   S69       1.0  0.90242  0.44077  0.19100  1.0000
  C   C250      1.0  0.59681  0.32832  0.39693  1.0000
  H   H284      1.0  0.63737  0.38356  0.28317  1.0000
  H   H285      1.0  0.73201  0.18417  0.20560  1.0000
  H   H286      1.0  0.61568  0.29969  0.12063  1.0000
  H   H287      1.0  0.54541  0.31453  0.36514  1.0000
  H   H288      1.0  0.63766  0.26841  0.13368  1.0000
  C   C251      1.0  0.89767  0.47761  0.06887  1.0000
  H   H289      1.0  0.68820  0.26234  0.09404  1.0000
  C   C252      1.0  0.51507  0.01001  0.01294  1.0000
  C   C253      1.0  0.54687  0.02057  0.49658  1.0000
  C   C254      1.0  0.62834  0.28000  0.11165  1.0000
  C   C255      1.0  0.51525  0.49523  0.35307  1.0000
  H   H290      1.0  0.58434  0.32739  0.31345  1.0000
  N   N16       1.0  0.50945  0.14463  0.48382  1.0000
  H   H291      1.0  0.74765  0.42169  0.42480  1.0000
  H   H292      1.0  0.60228  0.25207  0.10017  1.0000
  H   H293      1.0  0.52645  0.35106  0.03759  1.0000
  H   H294      1.0  0.92549  0.46347  0.43690  1.0000
  H   H295      1.0  0.56598  0.15180  0.46358  1.0000
  H   H296      1.0  0.89117  0.45923  0.04642  1.0000
  C   C256      1.0  0.50014  0.29472  0.00870  1.0000
  C   C257      1.0  0.60304  0.30810  0.01334  1.0000
  S   S70       1.0  0.58626  0.40773  0.49393  1.0000
  C   C258      1.0  0.54964  0.14615  0.48779  1.0000
  H   H297      1.0  0.98553  0.48670  0.06260  1.0000
  H   H298      1.0  0.54573  0.11700  0.49879  1.0000
  H   H299      1.0  0.69881  0.38527  0.06453  1.0000
  H   H300      1.0  0.85324  0.47117  0.14420  1.0000
  C   C259      1.0  0.67186  0.36255  0.05119  1.0000
  C   C260      1.0  0.98759  0.44330  0.24484  1.0000
  H   H301      1.0  0.95262  0.46985  0.02658  1.0000
  C   C261      1.0  0.86827  0.46201  0.09426  1.0000
  H   H302      1.0  0.67643  0.40961  0.01708  1.0000
  H   H303      1.0  0.57881  0.02831  0.49604  1.0000
  C   C262      1.0  0.51278  0.25867  0.06632  1.0000
  H   H304      1.0  0.54161  0.21129  0.49027  1.0000
  H   H305      1.0  0.49720  0.44543  0.22529  1.0000
  C   C263      1.0  0.51800  0.31876  0.03730  1.0000
  Fe  Fe36      1.0  0.50177  0.09950  0.14831  1.0000
  C   C264      1.0  0.73227  0.48043  0.35191  1.0000
  H   H306      1.0  0.72826  0.49738  0.33178  1.0000
  S   S71       1.0  0.61243  0.49279  0.45405  1.0000
  H   H307      1.0  0.68442  0.48012  0.38234  1.0000
  Fe  Fe37      1.0  0.89067  0.43082  0.83813  1.0000
  S   S72       1.0  0.92218  0.42216  0.88366  1.0000
  Fe  Fe38      1.0  0.82875  0.38026  0.78178  1.0000
  S   S73       1.0  0.83747  0.43771  0.75636  1.0000
  S   S74       1.0  0.78041  0.31385  0.76839  1.0000
  Fe  Fe39      1.0  0.90548  0.46459  0.76692  1.0000
  H   H308      1.0  0.94089  0.42030  0.65810  1.0000
  Fe  Fe40      1.0  0.83295  0.45837  0.80858  1.0000
  C   C265      1.0  0.54086  0.09446  0.91714  1.0000
  S   S75       1.0  0.89678  0.40521  0.78899  1.0000
  S   S76       1.0  0.82171  0.39990  0.83324  1.0000
  Fe  Fe41      1.0  0.54738  0.45704  0.91877  1.0000
  C   C266      1.0  0.54040  0.37695  0.58156  1.0000
  Fe  Fe42      1.0  0.52954  0.38610  0.96638  1.0000
  C   C267      1.0  0.73860  0.16506  0.56993  1.0000
  H   H309      1.0  0.50758  0.38369  0.85651  1.0000
  N   N17       1.0  0.54177  0.01463  0.85811  1.0000
  C   C268      1.0  0.62523  0.27382  0.72006  1.0000
  Fe  Fe43      1.0  0.61891  0.45113  0.95089  1.0000
  S   S77       1.0  0.68165  0.45515  0.94931  1.0000
  S   S78       1.0  0.56565  0.40789  0.91895  1.0000
  Fe  Fe44      1.0  0.55875  0.11171  0.58996  1.0000
  S   S79       1.0  0.57058  0.07561  0.54938  1.0000
  Fe  Fe45      1.0  0.60999  0.19156  0.63094  1.0000
  S   S80       1.0  0.55387  0.18648  0.65518  1.0000
  S   S81       1.0  0.67409  0.24829  0.63508  1.0000
  C   C269      1.0  0.73675  0.18546  0.69338  1.0000
  H   H310      1.0  0.56555  0.11011  0.96690  1.0000
  Fe  Fe46      1.0  0.52483  0.16954  0.60435  1.0000
  H   H311      1.0  0.64095  0.10161  0.59655  1.0000
  S   S82       1.0  0.59154  0.12491  0.63983  1.0000
  S   S83       1.0  0.58220  0.17913  0.57944  1.0000
  H   H312      1.0  0.58359  0.01899  0.91800  1.0000
  C   C270      1.0  0.55058  0.04213  0.88745  1.0000
  H   H313      1.0  0.55182  0.36098  0.56479  1.0000
  H   H314      1.0  0.55822  0.41047  0.57485  1.0000
  C   C271      1.0  0.50378  0.41336  0.62162  1.0000
  C   C272      1.0  0.50460  0.49273  0.81236  1.0000
  H   H315      1.0  0.75751  0.23042  0.61757  1.0000
  H   H316      1.0  0.54852  0.37302  0.60745  1.0000
  C   C273      1.0  0.75700  0.47169  0.85391  1.0000
  C   C274      1.0  0.76525  0.45697  0.88328  1.0000
  H   H317      1.0  0.74886  0.44103  0.93489  1.0000
  C   C275      1.0  0.70875  0.45969  0.91177  1.0000
  S   S84       1.0  0.53827  0.47581  0.86663  1.0000
  C   C276      1.0  0.52706  0.25874  0.54003  1.0000
  H   H318      1.0  0.97183  0.42017  0.93739  1.0000
  C   C277      1.0  0.52849  0.28496  0.51382  1.0000
  C   C278      1.0  0.70206  0.26681  0.67285  1.0000
  C   C279      1.0  0.69034  0.24274  0.70174  1.0000
  C   C280      1.0  0.71445  0.25783  0.73089  1.0000
  C   C281      1.0  0.75016  0.29721  0.73158  1.0000
  C   C282      1.0  0.76151  0.32156  0.70284  1.0000
  C   C283      1.0  0.73768  0.30626  0.67356  1.0000
  H   H319      1.0  0.66309  0.21225  0.70149  1.0000
  H   H320      1.0  0.70546  0.23879  0.75302  1.0000
  H   H321      1.0  0.78910  0.35180  0.70296  1.0000
  H   H322      1.0  0.74702  0.32502  0.65128  1.0000
  H   H323      1.0  0.70644  0.21437  0.57876  1.0000
  C   C284      1.0  0.53384  0.03880  0.52091  1.0000
  C   C285      1.0  0.71322  0.16478  0.62558  1.0000
  C   C286      1.0  0.68392  0.18052  0.57786  1.0000
  C   C287      1.0  0.95917  0.46206  0.90968  1.0000
  C   C288      1.0  0.74157  0.45152  0.91212  1.0000
  H   H324      1.0  0.57062  0.23756  0.79140  1.0000
  H   H325      1.0  0.55489  0.26572  0.55346  1.0000
  C   C289      1.0  0.75515  0.21550  0.66881  1.0000
  H   H326      1.0  0.59771  0.01160  0.86065  1.0000
  H   H327      1.0  0.73062  0.15654  0.54321  1.0000
  H   H328      1.0  0.50232  0.39959  0.53654  1.0000
  H   H329      1.0  0.58643  0.06410  0.82750  1.0000
  H   H330      1.0  0.62470  0.26478  0.69423  1.0000
  H   H331      1.0  0.99078  0.48126  0.84293  1.0000
  H   H332      1.0  0.52779  0.11465  0.91813  1.0000
  H   H333      1.0  0.79047  0.45067  0.88402  1.0000
  C   C290      1.0  0.57801  0.06525  0.94402  1.0000
  S   S85       1.0  0.50656  0.43181  0.96420  1.0000
  H   H334      1.0  0.67245  0.17261  0.55175  1.0000
  C   C291      1.0  0.55354  0.03905  0.82679  1.0000
  H   H335      1.0  0.75394  0.14806  0.57938  1.0000
  C   C292      1.0  0.56233  0.09214  0.94461  1.0000
  N   N18       1.0  0.70157  0.15512  0.58999  1.0000
  C   C293      1.0  0.57216  0.04036  0.91605  1.0000
  H   H336      1.0  0.57066  0.17137  0.50512  1.0000
  H   H337      1.0  0.53686  0.42704  0.62270  1.0000
  C   C294      1.0  0.49806  0.47863  0.84550  1.0000
  Fe  Fe47      1.0  0.53302  0.11842  0.66123  1.0000
  H   H338      1.0  0.56954  0.21751  0.73243  1.0000
  H   H339      1.0  0.98993  0.47997  0.79870  1.0000
  C   C295      1.0  0.67058  0.11084  0.58365  1.0000
  H   H340      1.0  0.53444  0.05357  0.82172  1.0000
  H   H341      1.0  0.67096  0.10328  0.64652  1.0000
  H   H342      1.0  0.50664  0.45759  0.65787  1.0000
  C   C296      1.0  0.74347  0.20554  0.63545  1.0000
  H   H343      1.0  0.91622  0.48606  0.67622  1.0000
  C   C297      1.0  0.70662  0.14526  0.68468  1.0000
  H   H344      1.0  0.76180  0.19871  0.57041  1.0000
  H   H345      1.0  0.74513  0.19374  0.71931  1.0000
  C   C298      1.0  0.69492  0.13482  0.65133  1.0000
  S   S86       1.0  0.90198  0.49127  0.81685  1.0000
  H   H346      1.0  0.65753  0.17560  0.59359  1.0000
  S   S87       1.0  0.78725  0.48115  0.81736  1.0000
  H   H347      1.0  0.66242  0.10449  0.55671  1.0000
  H   H348      1.0  0.77746  0.24714  0.67588  1.0000
  S   S88       1.0  0.50883  0.09394  0.71355  1.0000
  N   N19       1.0  0.69282  0.36421  0.77871  1.0000
  C   C299      1.0  0.67511  0.39008  0.78961  1.0000
  C   C300      1.0  0.71309  0.35712  0.80773  1.0000
  C   C301      1.0  0.72552  0.38853  0.75394  1.0000
  C   C302      1.0  0.65951  0.32407  0.76554  1.0000
  C   C303      1.0  0.65769  0.31158  0.73174  1.0000
  C   C304      1.0  0.62687  0.29646  0.78662  1.0000
  H   H349      1.0  0.59338  0.06247  0.96597  1.0000
  C   C305      1.0  0.59490  0.25848  0.77476  1.0000
  C   C306      1.0  0.59414  0.24715  0.74155  1.0000
  H   H350      1.0  0.65352  0.37612  0.81085  1.0000
  H   H351      1.0  0.69961  0.42133  0.79821  1.0000
  H   H352      1.0  0.65815  0.39479  0.76887  1.0000
  H   H353      1.0  0.69197  0.34270  0.82910  1.0000
  H   H354      1.0  0.73915  0.38680  0.81742  1.0000
  H   H355      1.0  0.72569  0.33661  0.80085  1.0000
  H   H356      1.0  0.75011  0.41839  0.76470  1.0000
  H   H357      1.0  0.74102  0.37126  0.74546  1.0000
  H   H358      1.0  0.71315  0.39690  0.73194  1.0000
  H   H359      1.0  0.68123  0.32999  0.71380  1.0000
  H   H360      1.0  0.62595  0.30402  0.81249  1.0000
  H   H361      1.0  0.68201  0.08981  0.59164  1.0000
  C   C307      1.0  0.96887  0.42029  0.66506  1.0000
  H   H362      1.0  0.54901  0.01917  0.80453  1.0000
  H   H363      1.0  0.50257  0.01745  0.68686  1.0000
  H   H364      1.0  0.50013  0.33889  0.87839  1.0000
  H   H365      1.0  0.69175  0.12221  0.70401  1.0000
  C   C308      1.0  0.97426  0.41175  0.69782  1.0000
  H   H366      1.0  0.51693  0.07185  0.86876  1.0000
  H   H367      1.0  0.50962  0.15691  0.53625  1.0000
  C   C309      1.0  0.97954  0.45212  0.93432  1.0000
  C   C310      1.0  0.72418  0.47988  0.85357  1.0000
  H   H368      1.0  0.71770  0.49160  0.83110  1.0000
  C   C311      1.0  0.69983  0.47341  0.88215  1.0000
  C   C312      1.0  0.53494  0.06986  0.88896  1.0000
  C   C313      1.0  0.52922  0.49286  0.56327  1.0000
  H   H369      1.0  0.67499  0.48029  0.88157  1.0000
  Fe  Fe48      1.0  0.56412  0.47373  0.99371  1.0000
  H   H370      1.0  0.95049  0.40512  0.71615  1.0000
  S   S89       1.0  0.57036  0.48893  0.54512  1.0000
  H   H371      1.0  0.61539  0.36141  0.98413  1.0000
  S   S90       1.0  0.49885  0.10072  0.61195  1.0000
  H   H372      1.0  0.50044  0.35212  0.52497  1.0000
  H   H373      1.0  0.55756  0.31159  0.50678  1.0000
  N   N20       1.0  0.49528  0.35999  0.57766  1.0000
  H   H374      1.0  0.57612  0.28710  0.99877  1.0000
  S   S91       1.0  0.58387  0.42597  0.99857  1.0000
  H   H375      1.0  0.76369  0.58478  0.02565  1.0000
  C   C314      1.0  0.51895  0.99235  0.47282  1.0000
  H   H376      1.0  0.55347  0.55765  0.33518  1.0000
  H   H377      1.0  0.57161  0.56847  0.47658  1.0000
  H   H378      1.0  0.91692  0.53843  0.15171  1.0000
  H   H379      1.0  0.53006  0.56128  0.40953  1.0000
  H   H380      1.0  0.57340  0.54238  0.10725  1.0000
  H   H381      1.0  0.73336  0.59454  0.05458  1.0000
  H   H382      1.0  0.50020  0.81237  0.31095  1.0000
  H   H383      1.0  0.85881  0.49834  0.37118  1.0000
  C   C315      1.0  0.96356  0.49855  0.49053  1.0000
  H   H384      1.0  0.91619  0.57343  0.45702  1.0000
  H   H385      1.0  0.52950  0.97871  0.45423  1.0000
  C   C316      1.0  0.87677  0.50405  0.39384  1.0000
  H   H386      1.0  0.52449  0.55752  0.13748  1.0000
  H   H387      1.0  0.51189  0.78064  0.26068  1.0000
  N   N21       1.0  0.50815  0.54075  0.45948  1.0000
  N   N22       1.0  0.96703  0.53001  0.04631  1.0000
  C   C317      1.0  0.88584  0.53826  0.41375  1.0000
  C   C318      1.0  0.97341  0.51787  0.19738  1.0000
  H   H388      1.0  0.87437  0.55872  0.40658  1.0000
  H   H389      1.0  0.54553  0.60231  0.43910  1.0000
  H   H390      1.0  0.67235  0.52176  0.04304  1.0000
  C   C319      1.0  0.94104  0.53774  0.10311  1.0000
  H   H391      1.0  0.70635  0.51467  0.01601  1.0000
  S   S92       1.0  0.57316  0.51111  0.04151  1.0000
  N   N23       1.0  0.70390  0.57087  0.00697  1.0000
  C   C320      1.0  0.95063  0.53816  0.01534  1.0000
  H   H392      1.0  0.96889  0.56651  0.10879  1.0000
  C   C321      1.0  0.49959  0.51225  0.04744  1.0000
  C   C322      1.0  0.54496  0.53614  0.09528  1.0000
  C   C323      1.0  0.74121  0.59586  0.02767  1.0000
  H   H393      1.0  0.55613  0.52670  0.44822  1.0000
  S   S93       1.0  0.55373  0.49939  0.38134  1.0000
  H   H394      1.0  0.53402  0.96505  0.00268  1.0000
  C   C324      1.0  0.98927  0.57027  0.47872  1.0000
  C   C325      1.0  0.91121  0.52202  0.12816  1.0000
  H   H395      1.0  0.65842  0.50672  0.00053  1.0000
  C   C326      1.0  0.51717  0.54463  0.11258  1.0000
  H   H396      1.0  0.68708  0.61857  0.00906  1.0000
  N   N24       1.0  0.95102  0.52970  0.48290  1.0000
  C   C327      1.0  0.52375  0.52963  0.33313  1.0000
  C   C328      1.0  0.90968  0.54625  0.44264  1.0000
  C   C329      1.0  0.93536  0.51558  0.07276  1.0000
  H   H397      1.0  0.66508  0.58076  0.04139  1.0000
  C   C330      1.0  0.54499  0.53807  0.46916  1.0000
  H   H398      1.0  0.96088  0.52134  0.22065  1.0000
  C   C331      1.0  0.68466  0.52678  0.01717  1.0000
  C   C332      1.0  0.92513  0.51997  0.45254  1.0000
  C   C333      1.0  0.53638  0.51988  0.06263  1.0000
  H   H399      1.0  0.94114  0.56171  0.01971  1.0000
  C   C334      1.0  0.51969  0.57119  0.43207  1.0000
  H   H400      1.0  0.75732  0.62901  0.01997  1.0000
  H   H401      1.0  0.53811  0.51661  0.49050  1.0000
  H   H402      1.0  0.92350  0.50974  0.00526  1.0000
  C   C335      1.0  0.67411  0.58507  0.01460  1.0000
  C   C336      1.0  0.49428  0.52813  0.31041  1.0000
  H   H403      1.0  0.98300  0.59603  0.47444  1.0000
  H   H404      1.0  0.50139  0.55483  0.29521  1.0000
  H   H405      1.0  0.50509  0.50416  0.18931  1.0000
  H   H406      1.0  0.64475  0.56683  0.00048  1.0000
  H   H407      1.0  0.55145  0.61204  0.49658  1.0000
  C   C337      1.0  0.74312  0.56166  0.96003  1.0000
  H   H408      1.0  0.89825  0.50286  0.51519  1.0000
  S   S94       1.0  0.60366  0.50227  0.94814  1.0000
  C   C338      1.0  0.56376  0.99068  0.85883  1.0000
  C   C339      1.0  0.53199  0.72804  0.81472  1.0000
  C   C340      1.0  0.96021  0.50873  0.63565  1.0000
  C   C341      1.0  0.52028  0.59215  0.50514  1.0000
  H   H409      1.0  0.53440  0.77238  0.85045  1.0000
  H   H410      1.0  0.51357  0.61437  0.78101  1.0000
  H   H411      1.0  0.55333  0.96839  0.88002  1.0000
  H   H412      1.0  0.67915  0.60220  0.95298  1.0000
  C   C342      1.0  0.50471  0.52043  0.60772  1.0000
  C   C343      1.0  0.70036  0.59154  0.94696  1.0000
  S   S95       1.0  0.96555  0.50076  0.73726  1.0000
  C   C344      1.0  0.71566  0.57491  0.97134  1.0000
  H   H413      1.0  0.51097  0.53947  0.62977  1.0000
  H   H414      1.0  0.50111  0.59983  0.87223  1.0000
  C   C345      1.0  0.49579  0.65504  0.83214  1.0000
  H   H415      1.0  0.75540  0.54791  0.97685  1.0000
  C   C346      1.0  0.73786  0.57984  0.90314  1.0000
  H   H416      1.0  0.53622  0.61292  0.83803  1.0000
  C   C347      1.0  0.71126  0.59365  0.91338  1.0000
  H   H417      1.0  0.52299  0.67904  0.78286  1.0000
  S   S96       1.0  0.49719  0.92588  0.94028  1.0000
  C   C348      1.0  0.51577  0.97834  0.99409  1.0000
  H   H418      1.0  0.54693  0.75103  0.79536  1.0000
  H   H419      1.0  0.69841  0.60539  0.89504  1.0000
  C   C349      1.0  0.92830  0.53210  0.51231  1.0000
  C   C350      1.0  0.97824  0.51024  0.69421  1.0000
  C   C351      1.0  0.75397  0.56415  0.92645  1.0000
  H   H420      1.0  0.74553  0.58063  0.87701  1.0000
  C   C352      1.0  0.53680  0.51745  0.59199  1.0000
  H   H421      1.0  0.77384  0.55244  0.91824  1.0000
  H   H422      1.0  0.56769  0.53424  0.60221  1.0000
  C   C353      1.0  0.50488  0.71065  0.87041  1.0000
  C   C354      1.0  0.52513  0.74018  0.84577  1.0000
  C   C355      1.0  0.51772  0.68618  0.80784  1.0000
  C   C356      1.0  0.94837  0.50015  0.66940  1.0000
  H   H423      1.0  0.94621  0.53727  0.53587  1.0000
  H   H424      1.0  0.92186  0.55807  0.51061  1.0000
  H   H425      1.0  0.97418  0.55001  0.99514  1.0000
  H   H426      1.0  0.95343  0.51133  0.88741  1.0000
  C   C357      1.0  0.50301  0.59568  0.84497  1.0000
  H   H427      1.0  0.55747  0.97135  0.83594  1.0000
  C   C358      1.0  0.96931  0.50339  0.90591  1.0000
  H   H428      1.0  0.53395  0.50200  0.80066  1.0000
  C   C359      1.0  0.49706  0.98440  0.85705  1.0000
  H   H429      1.0  0.49893  0.72030  0.89429  1.0000
  H   H430      1.0  0.52923  0.63303  0.54648  1.0000
  C   C360      1.0  0.50782  0.60461  0.53363  1.0000
  H   H431      1.0  0.93685  0.50107  0.61674  1.0000
  H   H432      1.0  0.98256  0.50661  0.51371  1.0000
