data_image0
_chemical_formula_structural       C2HS2Fe3S2FeSHCHC6H3CHSHC2H2S2HCHC4NHC2H4NHCFeH2NHSC2H2CH5CSH2FeSHCHSNFe2CHSFeSCH2SH6C3H5SHSHCHCHC2NHCH2CH3C2HCSH2C2HCH2CFeSFeSH2CH2CHNHC3NCFeHCHFeC2H2FeS2FeSHFeSFeHS3H2SC2FeS2HSC3H2SHC6H4C6H4CH6SH2CH4CHFeH2NH3CHCHCHCH2C3H2CHCHSFeSCSFeSFeS2C6H4CH2CHC2HSHNSHC2HCH6C4HCHC2HSCHCHC2FeH2CH2CHCH6C3HCH3CHSFeSHC3HCHCHCHC2SCH4CHCHNC3H2CH2CSHFeH3C2HFeCSHSC2H2C2HCSHNCHC4FeH3CH2NH2SFeHSHSHC4H3CHC2HCHC2HSHC4H2CHCH3CH2FeHSCH2C2SCHC3HCH3SH2CH2C2H2NCH7SCH2CH3CSHCNC3HCHCHCHC2HCHSC2HC2H2CHFeCSHCSHCSHCHC6H4CFeS2C2HCSC2HCH3CHC2NH2CSHFeH3CSH2C2H2CHFeHCH3CH2FeH2C2HC2SCH2C2SCSFeHC2HFeC7NH3CH3NC9H12SH4CH3C2HCH2C3HC2H2Fe2S2FeSCFeSFeS3HSC7H5CFeC2H5C3H2C2HSCH4CH2CHCH4CHNC4HC2SHN2CHC2H5C2H2C2H2C3H3CH3CH2CH4C2HSHSFeS2FeS2FeSFeHS2CHFeC2NC3H3C6H3C2HFeHCH6C2H3NH2CHCH2SCSH3C4HC2H2C3H2C6HSHCHC3HC2NCHC4H3C2H3C2H2C3H4NCH2C3HC3H4C2H6SHSH2CH4CS
_chemical_formula_sum              "C360 H432 S96 Fe48 N24"
_cell_length_a       34.5221
_cell_length_b       34.0406
_cell_length_c       39.3844
_cell_angle_alpha    90.7663
_cell_angle_beta     89.4031
_cell_angle_gamma    119.431

_space_group_name_H-M_alt    "P 1"
_space_group_IT_number       1

loop_
  _space_group_symop_operation_xyz
  'x, y, z'

loop_
  _atom_site_type_symbol
  _atom_site_label
  _atom_site_symmetry_multiplicity
  _atom_site_fract_x
  _atom_site_fract_y
  _atom_site_fract_z
  _atom_site_occupancy
  C   C1        1.0  0.26896  0.09049  0.29841  1.0000
  C   C2        1.0  0.04852  0.30148  0.03814  1.0000
  H   H1        1.0  0.33786  0.07072  0.28816  1.0000
  S   S1        1.0  0.26692  0.37136  0.35237  1.0000
  S   S2        1.0  0.37720  0.38037  0.31647  1.0000
  Fe  Fe1       1.0  0.43004  0.45346  0.31892  1.0000
  Fe  Fe2       1.0  0.45977  0.05472  0.22661  1.0000
  Fe  Fe3       1.0  0.42263  0.10728  0.26741  1.0000
  S   S3        1.0  0.41209  0.06602  0.31423  1.0000
  S   S4        1.0  0.39811  0.15806  0.26129  1.0000
  Fe  Fe4       1.0  0.47935  0.07401  0.30211  1.0000
  S   S5        1.0  0.39126  0.04644  0.23267  1.0000
  H   H2        1.0  0.19537  0.45676  0.34262  1.0000
  C   C3        1.0  0.19567  0.48434  0.32744  1.0000
  H   H3        1.0  0.46742  0.37418  0.30077  1.0000
  C   C4        1.0  0.42332  0.27292  0.33656  1.0000
  C   C5        1.0  0.44095  0.24424  0.34278  1.0000
  C   C6        1.0  0.43372  0.20910  0.31992  1.0000
  C   C7        1.0  0.40877  0.20232  0.29051  1.0000
  C   C8        1.0  0.39100  0.23093  0.28432  1.0000
  C   C9        1.0  0.39808  0.26598  0.30727  1.0000
  H   H4        1.0  0.44753  0.18731  0.32504  1.0000
  H   H5        1.0  0.37116  0.22555  0.26185  1.0000
  H   H6        1.0  0.38356  0.28719  0.30254  1.0000
  C   C10       1.0  0.23470  0.13868  0.30529  1.0000
  H   H7        1.0  0.30692  0.08894  0.23946  1.0000
  S   S6        1.0  0.02658  0.46135  0.04254  1.0000
  H   H8        1.0  0.43503  0.39820  0.23963  1.0000
  C   C11       1.0  0.44216  0.36960  0.23826  1.0000
  C   C12       1.0  0.11906  0.43439  0.31398  1.0000
  H   H9        1.0  0.08435  0.42873  0.31377  1.0000
  H   H10       1.0  0.43485  0.35483  0.21220  1.0000
  S   S7        1.0  0.45254  0.48656  0.26753  1.0000
  S   S8        1.0  0.49182  0.11928  0.25703  1.0000
  H   H11       1.0  0.11857  0.40803  0.33078  1.0000
  C   C13       1.0  0.23448  0.10052  0.29138  1.0000
  H   H12       1.0  0.41773  0.34307  0.25543  1.0000
  C   C14       1.0  0.27502  0.05769  0.24526  1.0000
  C   C15       1.0  0.09458  0.32876  0.03738  1.0000
  C   C16       1.0  0.30391  0.12144  0.31985  1.0000
  C   C17       1.0  0.51099  0.43681  0.19728  1.0000
  N   N1        1.0  0.48878  0.38440  0.24826  1.0000
  H   H13       1.0  0.47702  0.42450  0.18959  1.0000
  C   C18       1.0  0.26931  0.16811  0.32633  1.0000
  C   C19       1.0  0.49375  0.39992  0.28415  1.0000
  H   H14       1.0  0.03007  0.29916  0.06115  1.0000
  H   H15       1.0  0.20751  0.07936  0.27455  1.0000
  H   H16       1.0  0.27609  0.02904  0.23219  1.0000
  H   H17       1.0  0.12795  0.42780  0.28811  1.0000
  N   N2        1.0  0.26873  0.05070  0.28243  1.0000
  H   H18       1.0  0.33250  0.11784  0.32574  1.0000
  C   C20       1.0  0.30377  0.15946  0.33361  1.0000
  Fe  Fe5       1.0  0.41434  0.37118  0.35911  1.0000
  H   H19       1.0  0.26981  0.19805  0.33669  1.0000
  H   H20       1.0  0.10339  0.47426  0.26647  1.0000
  N   N3        1.0  0.15103  0.48061  0.32621  1.0000
  H   H21       1.0  0.33126  0.18303  0.34934  1.0000
  S   S9        1.0  0.47494  0.03772  0.17388  1.0000
  C   C21       1.0  0.03428  0.50482  0.32203  1.0000
  C   C22       1.0  0.30452  0.04262  0.29512  1.0000
  H   H22       1.0  0.11181  0.34781  0.05988  1.0000
  H   H23       1.0  0.20782  0.48253  0.30149  1.0000
  C   C23       1.0  0.12653  0.50801  0.27500  1.0000
  H   H24       1.0  0.20819  0.14585  0.29940  1.0000
  H   H25       1.0  0.47033  0.31608  0.26174  1.0000
  H   H26       1.0  0.49159  0.43141  0.28629  1.0000
  H   H27       1.0  0.30266  0.03835  0.32317  1.0000
  H   H28       1.0  0.24785  0.06123  0.23340  1.0000
  C   C24       1.0  0.49538  0.34454  0.24622  1.0000
  S   S10       1.0  0.39193  0.47275  0.35591  1.0000
  H   H29       1.0  0.17434  0.34557  0.35419  1.0000
  H   H30       1.0  0.49257  0.33216  0.21956  1.0000
  Fe  Fe6       1.0  0.34169  0.39907  0.35656  1.0000
  S   S11       1.0  0.47006  0.44339  0.35915  1.0000
  H   H31       1.0  0.50331  0.01416  0.11205  1.0000
  C   C25       1.0  0.43338  0.38549  0.48426  1.0000
  H   H32       1.0  0.50585  0.46977  0.68212  1.0000
  S   S12       1.0  0.04202  0.37658  0.38915  1.0000
  N   N4        1.0  0.11472  0.47474  0.55605  1.0000
  Fe  Fe7       1.0  0.42729  0.45600  0.39618  1.0000
  Fe  Fe8       1.0  0.01923  0.42808  0.38850  1.0000
  C   C26       1.0  0.25804  0.42539  0.40196  1.0000
  H   H33       1.0  0.07204  0.40729  0.53685  1.0000
  S   S13       1.0  0.37427  0.38318  0.39918  1.0000
  Fe  Fe9       1.0  0.08357  0.41620  0.43354  1.0000
  S   S14       1.0  0.15654  0.43935  0.44298  1.0000
  C   C27       1.0  0.23704  0.39126  0.37753  1.0000
  H   H34       1.0  0.45266  0.42276  0.48722  1.0000
  H   H35       1.0  0.15313  0.45254  0.58507  1.0000
  S   S15       1.0  0.06455  0.47069  0.43066  1.0000
  H   H36       1.0  0.11655  0.46791  0.50138  1.0000
  H   H37       1.0  0.44755  0.30227  0.44841  1.0000
  H   H38       1.0  0.24956  0.46601  0.44073  1.0000
  H   H39       1.0  0.41180  0.29812  0.48403  1.0000
  H   H40       1.0  0.45433  0.04279  0.51499  1.0000
  H   H41       1.0  0.47163  0.04943  0.57090  1.0000
  C   C28       1.0  0.16586  0.38655  0.39269  1.0000
  C   C29       1.0  0.18681  0.42040  0.41733  1.0000
  C   C30       1.0  0.23300  0.43981  0.42177  1.0000
  H   H42       1.0  0.40418  0.31513  0.44286  1.0000
  H   H43       1.0  0.41900  0.37114  0.50950  1.0000
  H   H44       1.0  0.29353  0.44043  0.40576  1.0000
  H   H45       1.0  0.07190  0.41168  0.58171  1.0000
  H   H46       1.0  0.18537  0.50180  0.55984  1.0000
  S   S16       1.0  0.03037  0.37510  0.47156  1.0000
  H   H47       1.0  0.04350  0.43348  0.55702  1.0000
  S   S17       1.0  0.44671  0.49478  0.44606  1.0000
  H   H48       1.0  0.13383  0.45737  0.37768  1.0000
  C   C31       1.0  0.49496  0.37214  0.49562  1.0000
  H   H49       1.0  0.08795  0.49665  0.51593  1.0000
  C   C32       1.0  0.46013  0.01523  0.57899  1.0000
  H   H50       1.0  0.13030  0.37096  0.38922  1.0000
  C   C33       1.0  0.15407  0.46872  0.56053  1.0000
  C   C34       1.0  0.07389  0.42998  0.55811  1.0000
  N   N5        1.0  0.46070  0.36608  0.47058  1.0000
  H   H51       1.0  0.44468  0.03009  0.62911  1.0000
  C   C35       1.0  0.11403  0.50505  0.58316  1.0000
  H   H52       1.0  0.40543  0.37906  0.46711  1.0000
  H   H53       1.0  0.10407  0.45921  0.62485  1.0000
  C   C36       1.0  0.42981  0.31819  0.46137  1.0000
  H   H54       1.0  0.15642  0.44706  0.53997  1.0000
  H   H55       1.0  0.46042  0.24923  0.36540  1.0000
  H   H56       1.0  0.46135  0.01915  0.47645  1.0000
  C   C37       1.0  0.11697  0.49190  0.52116  1.0000
  C   C38       1.0  0.10799  0.49147  0.61768  1.0000
  H   H57       1.0  0.45849  0.38684  0.41960  1.0000
  C   C39       1.0  0.19088  0.37212  0.37291  1.0000
  S   S18       1.0  0.43335  0.31653  0.36624  1.0000
  H   H58       1.0  0.48015  0.30164  0.49833  1.0000
  H   H59       1.0  0.10482  0.48458  0.36097  1.0000
  C   C40       1.0  0.50076  0.33591  0.50708  1.0000
  C   C41       1.0  0.48299  0.38981  0.43893  1.0000
  H   H60       1.0  0.50310  0.37558  0.42741  1.0000
  C   C42       1.0  0.13737  0.48521  0.36118  1.0000
  H   H61       1.0  0.10048  0.50764  0.66978  1.0000
  H   H62       1.0  0.50558  0.42632  0.44326  1.0000
  C   C43       1.0  0.51367  0.01971  0.37361  1.0000
  Fe  Fe10      1.0  0.12170  0.45034  0.94385  1.0000
  S   S19       1.0  0.07584  0.42594  0.89873  1.0000
  Fe  Fe11      1.0  0.05071  0.45230  0.99074  1.0000
  S   S20       1.0  0.07126  0.40019  0.98016  1.0000
  H   H63       1.0  0.29343  0.02618  0.83569  1.0000
  H   H64       1.0  0.11939  0.37326  0.92998  1.0000
  C   C44       1.0  0.31656  0.06913  0.77868  1.0000
  H   H65       1.0  0.11213  0.24680  0.94924  1.0000
  H   H66       1.0  0.33104  0.08418  0.84685  1.0000
  C   C45       1.0  0.02611  0.27806  0.00903  1.0000
  H   H67       1.0  0.35256  0.09022  0.78463  1.0000
  N   N6        1.0  0.28851  0.07546  0.80462  1.0000
  H   H68       1.0  0.15392  0.35537  0.00860  1.0000
  C   C46       1.0  0.09665  0.30909  0.97732  1.0000
  C   C47       1.0  0.04962  0.28199  0.97898  1.0000
  C   C48       1.0  0.11851  0.33270  0.00752  1.0000
  N   N7        1.0  0.12061  0.31350  0.94490  1.0000
  C   C49       1.0  0.10879  0.33855  0.92043  1.0000
  Fe  Fe12      1.0  0.02421  0.37882  0.93627  1.0000
  H   H69       1.0  0.47973  0.37915  0.91267  1.0000
  C   C50       1.0  0.29686  0.06048  0.83765  1.0000
  H   H70       1.0  0.07233  0.32196  0.91587  1.0000
  Fe  Fe13      1.0  0.05532  0.47677  0.91585  1.0000
  C   C51       1.0  0.10764  0.26825  0.93033  1.0000
  C   C52       1.0  0.24138  0.04551  0.79515  1.0000
  H   H71       1.0  0.31418  0.46661  0.79227  1.0000
  H   H72       1.0  0.23359  0.05597  0.77063  1.0000
  Fe  Fe14      1.0  0.42442  0.36126  0.86097  1.0000
  S   S21       1.0  0.38691  0.37075  0.81885  1.0000
  S   S22       1.0  0.41343  0.29247  0.87741  1.0000
  Fe  Fe15      1.0  0.47327  0.46161  0.87880  1.0000
  S   S23       1.0  0.43914  0.47869  0.83768  1.0000
  H   H73       1.0  0.07244  0.25009  0.92182  1.0000
  Fe  Fe16      1.0  0.37644  0.41699  0.85457  1.0000
  S   S24       1.0  0.30737  0.40969  0.84817  1.0000
  Fe  Fe17      1.0  0.45168  0.43170  0.80493  1.0000
  H   H74       1.0  0.21797  0.04572  0.81462  1.0000
  S   S25       1.0  0.40954  0.40326  0.89845  1.0000
  S   S26       1.0  0.49027  0.41871  0.84440  1.0000
  S   S27       1.0  0.19311  0.46328  0.94777  1.0000
  H   H75       1.0  0.31054  0.07745  0.75275  1.0000
  H   H76       1.0  0.30943  0.03348  0.77736  1.0000
  S   S28       1.0  0.39316  0.03219  0.75201  1.0000
  C   C53       1.0  0.28532  0.17964  0.83740  1.0000
  C   C54       1.0  0.32806  0.15771  0.78606  1.0000
  Fe  Fe18      1.0  0.43068  0.08607  0.79186  1.0000
  S   S29       1.0  0.38913  0.04372  0.83519  1.0000
  S   S30       1.0  0.44548  0.15803  0.78148  1.0000
  H   H77       1.0  0.18096  0.32098  0.96685  1.0000
  S   S31       1.0  0.48450  0.06701  0.79819  1.0000
  C   C55       1.0  0.27583  0.13492  0.83302  1.0000
  C   C56       1.0  0.31585  0.21320  0.81619  1.0000
  C   C57       1.0  0.16981  0.33794  0.94853  1.0000
  H   H78       1.0  0.44948  0.30136  0.80857  1.0000
  H   H79       1.0  0.36082  0.22850  0.77413  1.0000
  S   S32       1.0  0.46891  0.44196  0.74884  1.0000
  H   H80       1.0  0.47391  0.33590  0.94052  1.0000
  C   C58       1.0  0.27669  0.42580  0.87604  1.0000
  C   C59       1.0  0.23468  0.41847  0.86575  1.0000
  C   C60       1.0  0.20897  0.43052  0.88702  1.0000
  C   C61       1.0  0.22499  0.44991  0.91895  1.0000
  C   C62       1.0  0.26701  0.45729  0.92919  1.0000
  C   C63       1.0  0.29277  0.44536  0.90789  1.0000
  H   H81       1.0  0.22198  0.40346  0.84111  1.0000
  H   H82       1.0  0.17692  0.42501  0.87867  1.0000
  H   H83       1.0  0.27967  0.47220  0.95387  1.0000
  H   H84       1.0  0.32499  0.45122  0.91616  1.0000
  C   C64       1.0  0.42240  0.25544  0.85038  1.0000
  C   C65       1.0  0.41153  0.21231  0.86210  1.0000
  C   C66       1.0  0.41868  0.18218  0.84152  1.0000
  C   C67       1.0  0.43677  0.19489  0.80892  1.0000
  C   C68       1.0  0.44784  0.23810  0.79731  1.0000
  C   C69       1.0  0.44070  0.26822  0.81787  1.0000
  H   H85       1.0  0.39753  0.20218  0.88726  1.0000
  H   H86       1.0  0.41039  0.14926  0.85091  1.0000
  H   H87       1.0  0.46188  0.24830  0.77215  1.0000
  H   H88       1.0  0.12785  0.27053  0.90743  1.0000
  C   C70       1.0  0.33658  0.20211  0.79027  1.0000
  H   H89       1.0  0.32419  0.24808  0.82024  1.0000
  H   H90       1.0  0.03034  0.26469  0.95677  1.0000
  H   H91       1.0  0.50335  0.06747  0.69874  1.0000
  H   H92       1.0  0.18244  0.37340  0.95714  1.0000
  H   H93       1.0  0.34692  0.15217  0.76636  1.0000
  H   H94       1.0  0.48579  0.46679  0.96575  1.0000
  S   S33       1.0  0.10487  0.50466  0.95849  1.0000
  H   H95       1.0  0.18706  0.34048  0.92389  1.0000
  H   H96       1.0  0.51181  0.25359  0.87101  1.0000
  C   C71       1.0  0.29760  0.12269  0.80763  1.0000
  H   H97       1.0  0.27315  0.05820  0.85779  1.0000
  H   H98       1.0  0.25189  0.11011  0.85009  1.0000
  H   H99       1.0  0.26954  0.18858  0.85769  1.0000
  H   H100      1.0  0.49034  0.39119  0.95718  1.0000
  C   C72       1.0  0.33469  0.48381  0.72767  1.0000
  H   H101      1.0  0.12525  0.34190  0.89535  1.0000
  Fe  Fe19      1.0  0.43997  0.02083  0.83893  1.0000
  H   H102      1.0  0.37734  0.43601  0.73146  1.0000
  H   H103      1.0  0.50705  0.29463  0.92060  1.0000
  N   N8        1.0  0.36651  0.48807  0.75446  1.0000
  H   H104      1.0  0.34243  0.47371  0.70269  1.0000
  H   H105      1.0  0.30005  0.45752  0.73403  1.0000
  H   H106      1.0  0.33497  0.41638  0.76386  1.0000
  C   C73       1.0  0.36765  0.44517  0.75608  1.0000
  H   H107      1.0  0.39254  0.44773  0.77486  1.0000
  C   C74       1.0  0.49456  0.37256  0.93529  1.0000
  H   H108      1.0  0.36856  0.49383  0.80923  1.0000
  C   C75       1.0  0.34867  0.49437  0.78737  1.0000
  H   H109      1.0  0.07895  0.49910  0.83316  1.0000
  C   C76       1.0  0.51343  0.02504  0.90466  1.0000
  H   H110      1.0  0.50694  0.47847  0.02678  1.0000
  H   H111      1.0  0.41550  0.49911  0.69623  1.0000
  C   C77       1.0  0.49585  0.58717  0.13111  1.0000
  C   C78       1.0  0.18210  0.59772  0.29449  1.0000
  C   C79       1.0  0.50632  0.59747  0.09678  1.0000
  H   H112      1.0  0.11103  0.54274  0.03067  1.0000
  H   H113      1.0  0.09872  0.61376  0.34806  1.0000
  C   C80       1.0  0.03115  0.52384  0.08954  1.0000
  H   H114      1.0  0.20989  0.79627  0.16975  1.0000
  C   C81       1.0  0.27981  0.84417  0.17321  1.0000
  H   H115      1.0  0.48762  0.00269  0.35501  1.0000
  S   S34       1.0  0.32484  0.93849  0.28961  1.0000
  Fe  Fe20      1.0  0.07784  0.67108  0.23392  1.0000
  S   S35       1.0  0.13536  0.71199  0.19909  1.0000
  C   C82       1.0  0.06131  0.54126  0.34316  1.0000
  S   S36       1.0  0.06399  0.72489  0.15166  1.0000
  Fe  Fe21      1.0  0.08749  0.67408  0.15692  1.0000
  S   S37       1.0  0.11696  0.65594  0.11163  1.0000
  Fe  Fe22      1.0  0.10874  0.76000  0.19637  1.0000
  S   S38       1.0  0.15361  0.83635  0.19569  1.0000
  S   S39       1.0  0.05449  0.72215  0.23434  1.0000
  C   C83       1.0  0.27713  0.91105  0.26347  1.0000
  C   C84       1.0  0.24594  0.86569  0.26968  1.0000
  C   C85       1.0  0.20800  0.84237  0.24912  1.0000
  C   C86       1.0  0.20045  0.86452  0.22251  1.0000
  C   C87       1.0  0.23142  0.91010  0.21651  1.0000
  C   C88       1.0  0.26989  0.93310  0.23660  1.0000
  H   H116      1.0  0.25128  0.84829  0.29036  1.0000
  H   H117      1.0  0.18446  0.80729  0.25398  1.0000
  H   H118      1.0  0.22598  0.92730  0.19574  1.0000
  H   H119      1.0  0.29401  0.96768  0.23112  1.0000
  C   C89       1.0  0.40516  0.91022  0.15978  1.0000
  H   H120      1.0  0.40640  0.91701  0.13209  1.0000
  H   H121      1.0  0.03628  0.56311  0.25143  1.0000
  C   C90       1.0  0.24291  0.80597  0.16005  1.0000
  H   H122      1.0  0.35958  0.84034  0.12321  1.0000
  C   C91       1.0  0.09187  0.60104  0.09384  1.0000
  C   C92       1.0  0.11342  0.59211  0.06687  1.0000
  H   H123      1.0  0.50075  0.61336  0.18186  1.0000
  S   S40       1.0  0.03181  0.62890  0.19202  1.0000
  H   H124      1.0  0.43309  0.94116  0.17131  1.0000
  N   N9        1.0  0.36162  0.89990  0.17496  1.0000
  S   S41       1.0  0.08952  0.65013  0.28562  1.0000
  H   H125      1.0  0.33489  0.89137  0.22609  1.0000
  C   C93       1.0  0.32342  0.85861  0.16082  1.0000
  C   C94       1.0  0.36457  0.89503  0.21211  1.0000
  H   H126      1.0  0.39352  0.92517  0.22350  1.0000
  C   C95       1.0  0.29065  0.79346  0.12168  1.0000
  H   H127      1.0  0.29456  0.77350  0.10165  1.0000
  H   H128      1.0  0.32483  0.93585  0.18164  1.0000
  H   H129      1.0  0.47923  0.55232  0.13922  1.0000
  H   H130      1.0  0.35225  0.94385  0.14134  1.0000
  H   H131      1.0  0.14541  0.61844  0.05808  1.0000
  H   H132      1.0  0.38348  0.97111  0.17889  1.0000
  C   C96       1.0  0.15606  0.58791  0.26552  1.0000
  C   C97       1.0  0.24826  0.78046  0.13444  1.0000
  C   C98       1.0  0.32786  0.83205  0.13445  1.0000
  C   C99       1.0  0.07836  0.58562  0.33145  1.0000
  H   H133      1.0  0.27382  0.86251  0.19317  1.0000
  C   C100      1.0  0.35516  0.93924  0.16894  1.0000
  H   H134      1.0  0.21940  0.75062  0.12448  1.0000
  C   C101      1.0  0.06876  0.59381  0.29858  1.0000
  C   C102      1.0  0.04275  0.55730  0.27715  1.0000
  H   H135      1.0  0.36780  0.86487  0.21789  1.0000
  S   S42       1.0  0.45231  0.01036  0.27074  1.0000
  C   C103      1.0  0.09393  0.54929  0.05123  1.0000
  H   H136      1.0  0.48895  0.53326  0.20581  1.0000
  C   C104      1.0  0.15268  0.51685  0.30476  1.0000
  H   H137      1.0  0.41268  0.88239  0.16391  1.0000
  C   C105      1.0  0.18081  0.56286  0.31373  1.0000
  C   C106      1.0  0.05063  0.56674  0.10519  1.0000
  Fe  Fe23      1.0  0.38565  0.00615  0.27849  1.0000
  H   H138      1.0  0.22599  0.97833  0.27908  1.0000
  H   H139      1.0  0.15625  0.61499  0.25115  1.0000
  C   C107      1.0  0.12865  0.54321  0.25566  1.0000
  H   H140      1.0  0.04676  0.66601  0.08102  1.0000
  H   H141      1.0  0.47901  0.60367  0.02940  1.0000
  C   C108      1.0  0.05263  0.51506  0.06241  1.0000
  H   H142      1.0  0.20150  0.57220  0.33606  1.0000
  C   C109      1.0  0.02533  0.51298  0.28896  1.0000
  H   H143      1.0  0.22090  0.51639  0.33948  1.0000
  H   H144      1.0  0.10776  0.53582  0.23347  1.0000
  H   H145      1.0  0.20279  0.63259  0.30232  1.0000
  H   H146      1.0  0.03364  0.57335  0.12581  1.0000
  H   H147      1.0  0.50257  0.68792  0.04596  1.0000
  H   H148      1.0  0.49762  0.56924  0.07979  1.0000
  C   C110      1.0  0.02213  0.64301  0.06310  1.0000
  C   C111      1.0  0.50826  0.52224  0.25504  1.0000
  C   C112      1.0  0.03560  0.62807  0.03440  1.0000
  H   H149      1.0  0.07092  0.64055  0.03185  1.0000
  C   C113      1.0  0.50804  0.62151  0.15519  1.0000
  H   H150      1.0  0.30268  0.01158  0.28391  1.0000
  H   H151      1.0  0.21864  0.00441  0.31672  1.0000
  H   H152      1.0  0.19724  0.00938  0.27648  1.0000
  C   C114      1.0  0.22578  0.00912  0.28898  1.0000
  H   H153      1.0  0.50348  0.95808  0.39666  1.0000
  S   S43       1.0  0.04408  0.71187  0.64636  1.0000
  Fe  Fe24      1.0  0.05496  0.65394  0.63189  1.0000
  S   S44       1.0  0.06352  0.64243  0.57609  1.0000
  H   H154      1.0  0.10987  0.58236  0.65642  1.0000
  C   C115      1.0  0.04170  0.58738  0.55916  1.0000
  C   C116      1.0  0.05122  0.58161  0.52529  1.0000
  C   C117      1.0  0.12002  0.54868  0.57654  1.0000
  H   H155      1.0  0.07139  0.61091  0.50993  1.0000
  C   C118      1.0  0.44868  0.93963  0.57060  1.0000
  H   H156      1.0  0.42435  0.89656  0.61443  1.0000
  C   C119      1.0  0.11925  0.57634  0.60287  1.0000
  H   H157      1.0  0.24474  0.87567  0.68553  1.0000
  C   C120      1.0  0.49814  0.51407  0.46662  1.0000
  H   H158      1.0  0.12453  0.56207  0.55122  1.0000
  C   C121      1.0  0.03477  0.53813  0.51119  1.0000
  C   C122      1.0  0.43367  0.92945  0.60418  1.0000
  S   S45       1.0  0.10997  0.67367  0.66923  1.0000
  C   C123      1.0  0.46195  0.98290  0.55684  1.0000
  H   H159      1.0  0.42081  0.95406  0.65122  1.0000
  H   H160      1.0  0.48681  0.96683  0.47437  1.0000
  H   H161      1.0  0.12331  0.60929  0.59721  1.0000
  H   H162      1.0  0.44158  0.92789  0.50001  1.0000
  C   C124      1.0  0.44484  0.00457  0.61242  1.0000
  H   H163      1.0  0.16186  0.51690  0.37402  1.0000
  C   C125      1.0  0.45096  0.01126  0.50354  1.0000
  H   H164      1.0  0.45020  0.91326  0.55616  1.0000
  N   N10       1.0  0.47802  0.99507  0.52143  1.0000
  C   C126      1.0  0.43152  0.96175  0.62497  1.0000
  C   C127      1.0  0.11178  0.56133  0.63625  1.0000
  C   C128      1.0  0.50212  0.52834  0.50062  1.0000
  H   H165      1.0  0.47402  0.52790  0.51344  1.0000
  H   H166      1.0  0.49881  0.94559  0.51136  1.0000
  C   C129      1.0  0.47599  0.95696  0.50114  1.0000
  H   H167      1.0  0.49598  0.57001  0.39833  1.0000
  H   H168      1.0  0.04185  0.53399  0.48498  1.0000
  C   C130      1.0  0.50572  0.00598  0.69100  1.0000
  S   S46       1.0  0.15937  0.79680  0.68882  1.0000
  H   H169      1.0  0.48839  0.56168  0.68133  1.0000
  Fe  Fe25      1.0  0.09584  0.72830  0.68695  1.0000
  H   H170      1.0  0.06836  0.53537  0.36867  1.0000
  H   H171      1.0  0.14816  0.52423  0.51677  1.0000
  H   H172      1.0  0.41505  0.98537  0.50405  1.0000
  C   C131      1.0  0.10635  0.51906  0.64368  1.0000
  C   C132      1.0  0.01567  0.54943  0.57891  1.0000
  H   H173      1.0  0.01436  0.59684  0.39603  1.0000
  Fe  Fe26      1.0  0.05725  0.62901  0.70626  1.0000
  C   C133      1.0  0.04538  0.58445  0.79802  1.0000
  S   S47       1.0  0.07539  0.58141  0.73295  1.0000
  H   H174      1.0  0.23376  0.00972  0.79218  1.0000
  S   S48       1.0  0.04563  0.68468  0.72651  1.0000
  C   C134      1.0  0.17797  0.83256  0.75468  1.0000
  C   C135      1.0  0.19204  0.83615  0.72085  1.0000
  H   H175      1.0  0.19394  0.86254  0.80491  1.0000
  H   H176      1.0  0.14588  0.80510  0.76206  1.0000
  C   C136      1.0  0.06426  0.56575  0.77612  1.0000
  C   C137      1.0  0.05046  0.54133  0.84540  1.0000
  H   H177      1.0  0.09136  0.52070  0.77232  1.0000
  C   C138      1.0  0.43161  0.52636  0.71441  1.0000
  S   S49       1.0  0.04116  0.52728  0.88898  1.0000
  H   H178      1.0  0.22486  0.74507  0.83439  1.0000
  N   N11       1.0  0.01689  0.58088  0.97994  1.0000
  C   C139      1.0  0.19623  0.68045  0.74393  1.0000
  H   H179      1.0  0.15828  0.68548  0.82263  1.0000
  C   C140      1.0  0.41160  0.52540  0.74631  1.0000
  C   C141      1.0  0.14760  0.70894  0.76174  1.0000
  C   C142      1.0  0.49719  0.59688  0.72865  1.0000
  C   C143      1.0  0.23996  0.76502  0.81209  1.0000
  Fe  Fe27      1.0  0.35496  0.98845  0.79602  1.0000
  H   H180      1.0  0.23433  0.77048  0.72574  1.0000
  H   H181      1.0  0.16918  0.64493  0.74034  1.0000
  H   H182      1.0  0.15460  0.72891  0.73806  1.0000
  C   C144      1.0  0.17205  0.67340  0.80188  1.0000
  H   H183      1.0  0.14497  0.63879  0.79544  1.0000
  H   H184      1.0  0.13905  0.72688  0.78173  1.0000
  N   N12       1.0  0.18586  0.70359  0.77195  1.0000
  H   H185      1.0  0.22755  0.67981  0.74904  1.0000
  H   H186      1.0  0.42563  0.56253  0.79485  1.0000
  S   S50       1.0  0.45855  0.00451  0.88989  1.0000
  Fe  Fe28      1.0  0.44343  0.00987  0.76209  1.0000
  H   H187      1.0  0.11757  0.67563  0.75699  1.0000
  S   S51       1.0  0.40232  0.96235  0.80348  1.0000
  H   H188      1.0  0.19955  0.69658  0.71892  1.0000
  S   S52       1.0  0.27990  0.94243  0.80070  1.0000
  H   H189      1.0  0.28630  0.82082  0.84327  1.0000
  C   C145      1.0  0.24703  0.90140  0.76967  1.0000
  C   C146      1.0  0.20523  0.86528  0.77889  1.0000
  C   C147      1.0  0.24601  0.77910  0.75160  1.0000
  C   C148      1.0  0.26113  0.90479  0.73590  1.0000
  H   H190      1.0  0.20021  0.66982  0.81182  1.0000
  H   H191      1.0  0.08308  0.63745  0.97378  1.0000
  H   H192      1.0  0.29780  0.84481  0.73635  1.0000
  C   C149      1.0  0.03859  0.57230  0.83252  1.0000
  H   H193      1.0  0.08013  0.59076  0.99731  1.0000
  C   C150      1.0  0.22439  0.74880  0.77870  1.0000
  C   C151      1.0  0.29644  0.83699  0.79037  1.0000
  H   H194      1.0  0.32310  0.87110  0.79481  1.0000
  C   C152      1.0  0.47347  0.56191  0.70566  1.0000
  H   H195      1.0  0.29302  0.93251  0.72836  1.0000
  C   C153      1.0  0.27542  0.80858  0.81764  1.0000
  C   C154      1.0  0.28205  0.82212  0.75742  1.0000
  H   H196      1.0  0.48419  0.95927  0.79262  1.0000
  S   S53       1.0  0.47017  0.97695  0.72527  1.0000
  H   H197      1.0  0.49160  0.98598  0.95050  1.0000
  C   C155      1.0  0.23364  0.87250  0.71165  1.0000
  C   C156      1.0  0.47926  0.59631  0.76060  1.0000
  C   C157      1.0  0.43712  0.56119  0.76950  1.0000
  C   C158      1.0  0.07651  0.53514  0.78906  1.0000
  H   H198      1.0  0.07413  0.58693  0.95241  1.0000
  H   H199      1.0  0.03594  0.60815  0.78840  1.0000
  C   C159      1.0  0.06572  0.60007  0.97582  1.0000
  H   H200      1.0  0.34754  0.52647  0.78812  1.0000
  C   C160      1.0  0.06957  0.52286  0.82353  1.0000
  H   H201      1.0  0.49850  0.62293  0.77877  1.0000
  H   H202      1.0  0.50329  0.98212  0.83393  1.0000
  H   H203      1.0  0.49203  0.92564  0.82299  1.0000
  C   C161      1.0  0.50620  0.96070  0.81355  1.0000
  H   H204      1.0  0.02378  0.58675  0.84926  1.0000
  H   H205      1.0  0.33490  0.51634  0.72429  1.0000
  Fe  Fe29      1.0  0.68227  0.05904  0.06957  1.0000
  H   H206      1.0  0.75902  0.13118  0.12911  1.0000
  S   S54       1.0  0.74777  0.05957  0.06900  1.0000
  C   C162      1.0  0.90455  0.28863  0.10048  1.0000
  H   H207      1.0  0.99918  0.49751  0.09832  1.0000
  H   H208      1.0  0.76624  0.19673  0.07112  1.0000
  C   C163      1.0  0.61223  0.06588  0.13529  1.0000
  C   C164      1.0  0.70249  0.07897  0.32886  1.0000
  S   S55       1.0  0.70423  0.11246  0.02989  1.0000
  C   C165      1.0  0.86609  0.24752  0.10676  1.0000
  H   H209      1.0  0.56362  0.08833  0.20354  1.0000
  C   C166      1.0  0.57431  0.04131  0.11543  1.0000
  C   C167      1.0  0.52237  0.42079  0.22666  1.0000
  C   C168      1.0  0.58844  0.48997  0.18586  1.0000
  H   H210      1.0  0.73413  0.17054  0.16261  1.0000
  C   C169      1.0  0.56641  0.07517  0.17903  1.0000
  H   H211      1.0  0.71522  0.09257  0.35476  1.0000
  H   H212      1.0  0.57114  0.04226  0.30180  1.0000
  H   H213      1.0  0.72051  0.16440  0.09936  1.0000
  S   S56       1.0  0.66506  0.07454  0.12233  1.0000
  H   H214      1.0  0.70655  0.04867  0.32538  1.0000
  H   H215      1.0  0.61838  0.10334  0.33203  1.0000
  C   C170      1.0  0.60818  0.08313  0.16695  1.0000
  H   H216      1.0  0.78845  0.21124  0.17804  1.0000
  H   H217      1.0  0.86839  0.21744  0.10180  1.0000
  C   C171      1.0  0.79048  0.16273  0.12325  1.0000
  C   C172      1.0  0.66147  0.04262  0.26467  1.0000
  H   H218      1.0  0.69562  0.05074  0.26786  1.0000
  H   H219      1.0  0.79728  0.28940  0.12880  1.0000
  N   N13       1.0  0.65533  0.06758  0.32496  1.0000
  C   C173      1.0  0.60071  0.47518  0.21446  1.0000
  H   H220      1.0  0.74333  0.22415  0.09699  1.0000
  H   H221      1.0  0.86530  0.36046  0.11811  1.0000
  H   H222      1.0  0.93453  0.28900  0.09149  1.0000
  H   H223      1.0  0.52587  0.40687  0.29538  1.0000
  H   H224      1.0  0.81554  0.16599  0.14222  1.0000
  H   H225      1.0  0.75263  0.22882  0.15845  1.0000
  H   H226      1.0  0.63736  0.10219  0.18247  1.0000
  S   S57       1.0  0.53428  0.09965  0.34138  1.0000
  C   C174      1.0  0.82601  0.24590  0.11796  1.0000
  H   H227      1.0  0.80081  0.15674  0.09777  1.0000
  H   H228      1.0  0.52855  0.35212  0.25578  1.0000
  C   C175      1.0  0.56835  0.44080  0.23441  1.0000
  H   H229      1.0  0.88978  0.27513  0.02888  1.0000
  H   H230      1.0  0.00483  0.48486  0.27239  1.0000
  H   H231      1.0  0.67168  0.13549  0.31262  1.0000
  C   C176      1.0  0.62901  0.03354  0.35102  1.0000
  S   S58       1.0  0.82834  0.18066  0.03048  1.0000
  H   H232      1.0  0.53450  0.48318  0.15526  1.0000
  C   C177      1.0  0.54376  0.47067  0.17717  1.0000
  N   N14       1.0  0.78422  0.20295  0.12370  1.0000
  C   C178      1.0  0.65300  0.10931  0.33204  1.0000
  C   C179      1.0  0.76423  0.20367  0.15714  1.0000
  C   C180      1.0  0.75218  0.19688  0.09666  1.0000
  H   H233      1.0  0.72456  0.10539  0.31059  1.0000
  C   C181      1.0  0.86546  0.32879  0.11524  1.0000
  H   H234      1.0  0.93408  0.36092  0.09931  1.0000
  C   C182      1.0  0.90427  0.32917  0.10470  1.0000
  H   H235      1.0  0.57965  0.43038  0.25620  1.0000
  C   C183      1.0  0.82679  0.28788  0.12161  1.0000
  H   H236      1.0  0.57704  0.02795  0.09099  1.0000
  C   C184      1.0  0.63669  0.04952  0.29091  1.0000
  C   C185      1.0  0.52837  0.04995  0.15942  1.0000
  H   H237      1.0  0.92371  0.47177  0.34803  1.0000
  C   C186      1.0  0.53255  0.03340  0.12749  1.0000
  H   H238      1.0  0.66666  0.12390  0.35752  1.0000
  S   S59       1.0  0.01044  0.44858  0.33587  1.0000
  C   C187      1.0  0.93961  0.50832  0.34895  1.0000
  C   C188      1.0  0.59207  0.03769  0.28330  1.0000
  H   H239      1.0  0.63552  0.49124  0.22148  1.0000
  C   C189      1.0  0.57339  0.01975  0.25162  1.0000
  C   C190      1.0  0.64238  0.02471  0.23302  1.0000
  H   H240      1.0  0.59369  0.02523  0.35127  1.0000
  H   H241      1.0  0.66177  0.02006  0.21311  1.0000
  C   C191      1.0  0.59839  0.01298  0.22665  1.0000
  H   H242      1.0  0.91021  0.51196  0.30288  1.0000
  Fe  Fe30      1.0  0.70845  0.09531  0.51566  1.0000
  C   C192      1.0  0.54266  0.07122  0.65453  1.0000
  S   S60       1.0  0.76657  0.16681  0.51246  1.0000
  H   H243      1.0  0.64175  0.04553  0.37718  1.0000
  C   C193      1.0  0.57340  0.08838  0.39754  1.0000
  S   S61       1.0  0.63908  0.08416  0.51106  1.0000
  H   H244      1.0  0.86111  0.18503  0.56271  1.0000
  C   C194      1.0  0.99904  0.50603  0.56478  1.0000
  S   S62       1.0  0.94264  0.26392  0.42279  1.0000
  H   H245      1.0  0.59351  0.12478  0.39751  1.0000
  C   C195      1.0  0.58234  0.06330  0.42114  1.0000
  H   H246      1.0  0.60934  0.08041  0.43895  1.0000
  C   C196      1.0  0.81335  0.19295  0.48512  1.0000
  C   C197      1.0  0.84240  0.23946  0.48916  1.0000
  C   C198      1.0  0.88137  0.26176  0.46948  1.0000
  C   C199      1.0  0.89194  0.23757  0.44576  1.0000
  C   C200      1.0  0.86260  0.19113  0.44126  1.0000
  C   C201      1.0  0.82321  0.16889  0.46067  1.0000
  H   H247      1.0  0.83494  0.25835  0.50792  1.0000
  H   H248      1.0  0.90368  0.29748  0.47319  1.0000
  H   H249      1.0  0.87064  0.17228  0.42291  1.0000
  H   H250      1.0  0.80086  0.13327  0.45689  1.0000
  C   C202      1.0  0.87211  0.13600  0.53317  1.0000
  Fe  Fe31      1.0  0.62533  0.05058  0.56185  1.0000
  S   S63       1.0  0.58976  0.07602  0.59702  1.0000
  S   S64       1.0  0.69589  0.06649  0.56806  1.0000
  C   C203      1.0  0.55896  0.04870  0.63370  1.0000
  C   C204      1.0  0.52472  0.41578  0.50865  1.0000
  H   H251      1.0  0.53220  0.50492  0.42377  1.0000
  C   C205      1.0  0.55760  0.01623  0.42065  1.0000
  S   S65       1.0  0.69228  0.02966  0.48968  1.0000
  C   C206      1.0  0.91737  0.21862  0.53091  1.0000
  C   C207      1.0  0.90007  0.13391  0.50731  1.0000
  H   H252      1.0  0.55017  0.10510  0.64827  1.0000
  C   C208      1.0  0.53410  0.34330  0.53038  1.0000
  H   H253      1.0  0.83266  0.11894  0.59658  1.0000
  H   H254      1.0  0.88226  0.49444  0.57946  1.0000
  H   H255      1.0  0.52277  0.44502  0.50083  1.0000
  C   C209      1.0  0.53958  0.06674  0.37334  1.0000
  H   H256      1.0  0.93098  0.49350  0.48007  1.0000
  C   C210      1.0  0.88165  0.17974  0.54442  1.0000
  C   C211      1.0  0.80134  0.07186  0.51836  1.0000
  N   N15       1.0  0.83380  0.09406  0.54610  1.0000
  H   H257      1.0  0.81587  0.06330  0.49611  1.0000
  H   H258      1.0  0.95549  0.17087  0.47326  1.0000
  C   C212      1.0  0.93548  0.17305  0.49382  1.0000
  S   S66       1.0  0.98506  0.44503  0.51404  1.0000
  H   H259      1.0  0.89394  0.10203  0.49656  1.0000
  Fe  Fe32      1.0  0.98657  0.33994  0.42691  1.0000
  H   H260      1.0  0.97051  0.24558  0.49415  1.0000
  H   H261      1.0  0.78211  0.06950  0.58446  1.0000
  H   H262      1.0  0.82052  0.03146  0.56933  1.0000
  C   C213      1.0  0.84866  0.06244  0.55808  1.0000
  S   S67       1.0  0.96057  0.38846  0.42298  1.0000
  H   H263      1.0  0.53927  0.04035  0.49567  1.0000
  H   H264      1.0  0.54578  0.02147  0.53655  1.0000
  C   C214      1.0  0.90407  0.48987  0.53006  1.0000
  C   C215      1.0  0.94417  0.21530  0.50567  1.0000
  H   H265      1.0  0.87492  0.07869  0.57775  1.0000
  H   H266      1.0  0.92306  0.25164  0.53890  1.0000
  C   C216      1.0  0.55799  0.42283  0.53177  1.0000
  H   H267      1.0  0.97860  0.47680  0.58013  1.0000
  Fe  Fe33      1.0  0.62136  0.01621  0.48977  1.0000
  H   H268      1.0  0.79474  0.12248  0.56694  1.0000
  C   C217      1.0  0.81005  0.10183  0.57483  1.0000
  H   H269      1.0  0.89365  0.45431  0.53260  1.0000
  H   H270      1.0  0.77221  0.03983  0.52691  1.0000
  H   H271      1.0  0.78855  0.09415  0.50933  1.0000
  C   C218      1.0  0.52495  0.03165  0.52177  1.0000
  H   H272      1.0  0.53806  0.31528  0.53883  1.0000
  H   H273      1.0  0.52926  0.06326  0.53384  1.0000
  Fe  Fe34      1.0  0.00809  0.42652  0.46537  1.0000
  H   H274      1.0  0.86197  0.05021  0.53719  1.0000
  H   H275      1.0  0.58048  0.45675  0.54104  1.0000
  C   C219      1.0  0.56262  0.38663  0.54269  1.0000
  C   C220      1.0  0.51622  0.05002  0.68316  1.0000
  H   H276      1.0  0.58853  0.39228  0.56061  1.0000
  C   C221      1.0  0.00841  0.50022  0.53091  1.0000
  C   C222      1.0  0.92521  0.51196  0.50032  1.0000
  S   S68       1.0  0.65514  0.06988  0.94119  1.0000
  C   C223      1.0  0.55966  0.37494  0.95931  1.0000
  H   H277      1.0  0.55966  0.39467  0.98214  1.0000
  H   H278      1.0  0.78489  0.28358  0.83816  1.0000
  C   C224      1.0  0.54921  0.31281  0.84102  1.0000
  C   C225      1.0  0.60020  0.05349  0.92862  1.0000
  S   S69       1.0  0.99984  0.42720  0.94923  1.0000
  C   C226      1.0  0.59359  0.06943  0.89767  1.0000
  S   S70       1.0  0.97940  0.30409  0.92471  1.0000
  Fe  Fe35      1.0  0.67737  0.05592  0.99167  1.0000
  H   H279      1.0  0.54948  0.29385  0.81874  1.0000
  C   C227      1.0  0.56828  0.02532  0.78908  1.0000
  C   C228      1.0  0.89636  0.26023  0.00671  1.0000
  H   H280      1.0  0.58182  0.41999  0.86514  1.0000
  Fe  Fe36      1.0  0.76785  0.10998  0.02683  1.0000
  C   C229      1.0  0.52523  0.49738  0.69944  1.0000
  C   C230      1.0  0.87085  0.21351  0.00089  1.0000
  C   C231      1.0  0.56849  0.35957  0.83978  1.0000
  C   C232      1.0  0.92988  0.28819  0.98374  1.0000
  C   C233      1.0  0.93831  0.26966  0.95460  1.0000
  C   C234      1.0  0.91315  0.22284  0.94887  1.0000
  C   C235      1.0  0.87961  0.19481  0.97195  1.0000
  N   N16       1.0  0.54193  0.38626  0.92903  1.0000
  H   H281      1.0  0.94904  0.32416  0.98850  1.0000
  H   H282      1.0  0.91951  0.20819  0.92641  1.0000
  H   H283      1.0  0.86060  0.15881  0.96734  1.0000
  C   C236      1.0  0.55038  0.05551  0.88582  1.0000
  H   H284      1.0  0.59446  0.38226  0.95479  1.0000
  H   H285      1.0  0.62200  0.09226  0.88261  1.0000
  H   H286      1.0  0.57065  0.04849  0.81014  1.0000
  N   N17       1.0  0.75696  0.20433  0.94069  1.0000
  C   C237      1.0  0.76829  0.22611  0.97481  1.0000
  C   C238      1.0  0.70881  0.18773  0.93518  1.0000
  C   C239      1.0  0.76373  0.16459  0.94069  1.0000
  C   C240      1.0  0.78614  0.23640  0.91455  1.0000
  C   C241      1.0  0.76942  0.24619  0.88486  1.0000
  C   C242      1.0  0.83308  0.25811  0.91796  1.0000
  C   C243      1.0  0.79823  0.27648  0.86062  1.0000
  C   C244      1.0  0.86155  0.28821  0.89362  1.0000
  C   C245      1.0  0.84416  0.29750  0.86504  1.0000
  H   H287      1.0  0.76686  0.25806  0.97517  1.0000
  H   H288      1.0  0.74526  0.20366  0.99476  1.0000
  H   H289      1.0  0.80202  0.23408  0.98321  1.0000
  H   H290      1.0  0.70132  0.21596  0.93436  1.0000
  H   H291      1.0  0.68799  0.16483  0.95591  1.0000
  H   H292      1.0  0.69669  0.16713  0.91146  1.0000
  H   H293      1.0  0.75461  0.14649  0.91579  1.0000
  H   H294      1.0  0.79866  0.17385  0.94607  1.0000
  H   H295      1.0  0.74297  0.13993  0.96038  1.0000
  H   H296      1.0  0.73428  0.23075  0.87967  1.0000
  H   H297      1.0  0.84826  0.25168  0.93942  1.0000
  H   H298      1.0  0.89737  0.30421  0.89692  1.0000
  S   S71       1.0  0.74242  0.05605  0.98663  1.0000
  H   H299      1.0  0.86641  0.32086  0.84620  1.0000
  H   H300      1.0  0.58394  0.37695  0.81640  1.0000
  H   H301      1.0  0.60276  0.44887  0.92054  1.0000
  H   H302      1.0  0.54556  0.06821  0.86217  1.0000
  C   C246      1.0  0.56692  0.38396  0.86815  1.0000
  H   H303      1.0  0.55305  0.44768  0.90493  1.0000
  H   H304      1.0  0.54508  0.02578  0.76981  1.0000
  H   H305      1.0  0.60133  0.04000  0.77648  1.0000
  C   C247      1.0  0.56680  0.43615  0.92557  1.0000
  C   C248      1.0  0.56329  0.02376  0.94781  1.0000
  H   H306      1.0  0.56466  0.45362  0.94904  1.0000
  C   C249      1.0  0.54540  0.36181  0.89874  1.0000
  H   H307      1.0  0.99015  0.25757  0.00943  1.0000
  H   H308      1.0  0.69359  0.01304  0.84058  1.0000
  C   C250      1.0  0.51622  0.49621  0.97373  1.0000
  C   C251      1.0  0.52574  0.31407  0.89893  1.0000
  C   C252      1.0  0.52809  0.29015  0.87059  1.0000
  H   H309      1.0  0.53954  0.33885  0.96631  1.0000
  C   C253      1.0  0.52830  0.50292  0.00825  1.0000
  C   C254      1.0  0.51469  0.49254  0.73426  1.0000
  H   H310      1.0  0.96658  0.67034  0.27607  1.0000
  H   H311      1.0  0.94261  0.55476  0.25638  1.0000
  Fe  Fe37      1.0  0.01154  0.68279  0.19007  1.0000
  Fe  Fe38      1.0  0.73675  0.66720  0.10780  1.0000
  S   S72       1.0  0.72124  0.70286  0.14971  1.0000
  S   S73       1.0  0.80858  0.68770  0.09411  1.0000
  Fe  Fe39      1.0  0.63870  0.60887  0.08846  1.0000
  S   S74       1.0  0.61729  0.64106  0.12916  1.0000
  C   C255      1.0  0.86324  0.76762  0.19646  1.0000
  Fe  Fe40      1.0  0.67463  0.70722  0.11229  1.0000
  S   S75       1.0  0.66137  0.76688  0.11217  1.0000
  Fe  Fe41      1.0  0.66513  0.63408  0.16276  1.0000
  S   S76       1.0  0.65169  0.61022  0.21737  1.0000
  S   S77       1.0  0.69314  0.67561  0.06906  1.0000
  S   S78       1.0  0.68381  0.59791  0.12338  1.0000
  H   H312      1.0  0.87284  0.75206  0.21608  1.0000
  S   S79       1.0  0.93807  0.66278  0.19574  1.0000
  C   C256      1.0  0.97724  0.62792  0.06924  1.0000
  C   C257      1.0  0.84398  0.67958  0.12221  1.0000
  C   C258      1.0  0.82956  0.66122  0.15448  1.0000
  C   C259      1.0  0.85883  0.65632  0.17650  1.0000
  C   C260      1.0  0.90287  0.66975  0.16664  1.0000
  C   C261      1.0  0.91737  0.68815  0.13435  1.0000
  C   C262      1.0  0.88800  0.69293  0.11225  1.0000
  H   H313      1.0  0.79589  0.65100  0.16256  1.0000
  H   H314      1.0  0.84722  0.64209  0.20138  1.0000
  H   H315      1.0  0.95118  0.69881  0.12647  1.0000
  H   H316      1.0  0.89952  0.70726  0.08738  1.0000
  H   H317      1.0  0.87824  0.55376  0.28647  1.0000
  C   C263      1.0  0.70987  0.89573  0.04820  1.0000
  Fe  Fe42      1.0  0.71653  0.00506  0.02909  1.0000
  C   C264      1.0  0.70722  0.82323  0.05791  1.0000
  C   C265      1.0  0.68036  0.81578  0.08662  1.0000
  H   H318      1.0  0.56200  0.71241  0.10492  1.0000
  H   H319      1.0  0.77696  0.84861  0.10385  1.0000
  H   H320      1.0  0.71661  0.79842  0.05031  1.0000
  H   H321      1.0  0.87503  0.89161  0.12586  1.0000
  H   H322      1.0  0.58387  0.99939  0.20199  1.0000
  C   C266      1.0  0.59625  0.57738  0.23178  1.0000
  C   C267      1.0  0.58799  0.55932  0.26466  1.0000
  C   C268      1.0  0.56031  0.56819  0.21078  1.0000
  H   H323      1.0  0.88800  0.80038  0.11490  1.0000
  H   H324      1.0  0.89314  0.60883  0.27220  1.0000
  C   C269      1.0  0.66807  0.84829  0.09578  1.0000
  C   C270      1.0  0.78605  0.83373  0.12528  1.0000
  H   H325      1.0  0.91117  0.76913  0.16065  1.0000
  S   S80       1.0  0.64934  0.00139  0.03160  1.0000
  C   C271      1.0  0.97282  0.65353  0.29784  1.0000
  H   H326      1.0  0.88752  0.59717  0.31706  1.0000
  H   H327      1.0  0.61113  0.69678  0.06186  1.0000
  H   H328      1.0  0.61568  0.56633  0.28101  1.0000
  H   H329      1.0  0.56623  0.58166  0.18543  1.0000
  C   C272      1.0  0.96076  0.59152  0.26187  1.0000
  H   H330      1.0  0.61356  0.51742  0.17096  1.0000
  H   H331      1.0  0.52254  0.58875  0.02827  1.0000
  C   C273      1.0  0.86084  0.86713  0.10436  1.0000
  H   H332      1.0  0.56137  0.72602  0.05119  1.0000
  C   C274      1.0  0.95479  0.57965  0.32263  1.0000
  H   H333      1.0  0.77888  0.75853  0.09478  1.0000
  H   H334      1.0  0.59471  0.63906  0.05249  1.0000
  H   H335      1.0  0.67301  0.91268  0.08418  1.0000
  H   H336      1.0  0.78780  0.80124  0.18252  1.0000
  C   C275      1.0  0.89946  0.59017  0.29257  1.0000
  H   H337      1.0  0.95471  0.60813  0.24000  1.0000
  N   N18       1.0  0.54189  0.65484  0.04946  1.0000
  C   C276      1.0  0.88487  0.77732  0.16517  1.0000
  C   C277      1.0  0.81536  0.79576  0.17650  1.0000
  C   C278      1.0  0.54411  0.53180  0.27631  1.0000
  C   C279      1.0  0.83625  0.80532  0.14398  1.0000
  H   H338      1.0  0.99683  0.60258  0.26199  1.0000
  C   C280      1.0  0.87142  0.79546  0.13917  1.0000
  C   C281      1.0  0.98438  0.60255  0.34993  1.0000
  S   S81       1.0  0.58039  0.54865  0.06281  1.0000
  H   H339      1.0  0.53944  0.01148  0.24623  1.0000
  N   N19       1.0  0.94729  0.60358  0.29446  1.0000
  N   N20       1.0  0.82242  0.82415  0.11584  1.0000
  C   C282      1.0  0.54186  0.67709  0.11089  1.0000
  H   H340      1.0  0.83296  0.78525  0.07637  1.0000
  C   C283      1.0  0.58924  0.66748  0.04537  1.0000
  C   C284      1.0  0.51655  0.54069  0.22237  1.0000
  H   H341      1.0  0.81130  0.76844  0.22635  1.0000
  H   H342      1.0  0.91053  0.58616  0.05155  1.0000
  H   H343      1.0  0.75499  0.80240  0.13228  1.0000
  H   H344      1.0  0.79571  0.85830  0.14673  1.0000
  H   H345      1.0  0.00397  0.63885  0.35136  1.0000
  C   C285      1.0  0.68268  0.88799  0.07673  1.0000
  C   C286      1.0  0.82861  0.77685  0.20214  1.0000
  H   H346      1.0  0.79441  0.80393  0.06556  1.0000
  H   H347      1.0  0.88798  0.86222  0.09342  1.0000
  C   C287      1.0  0.80662  0.79181  0.08686  1.0000
  C   C288      1.0  0.94547  0.59789  0.04657  1.0000
  H   H348      1.0  0.64722  0.84287  0.11788  1.0000
  H   H349      1.0  0.85113  0.88324  0.08417  1.0000
  C   C289      1.0  0.72200  0.86307  0.03894  1.0000
  C   C290      1.0  0.53637  0.69371  0.03921  1.0000
  C   C291      1.0  0.53119  0.66638  0.14512  1.0000
  H   H350      1.0  0.53809  0.51789  0.30156  1.0000
  H   H351      1.0  0.96710  0.63932  0.09176  1.0000
  H   H352      1.0  0.54231  0.69311  0.16407  1.0000
  C   C292      1.0  0.52889  0.64294  0.08547  1.0000
  H   H353      1.0  0.62559  0.64423  0.35365  1.0000
  H   H354      1.0  0.96360  0.66546  0.32137  1.0000
  H   H355      1.0  0.00939  0.66613  0.29790  1.0000
  C   C293      1.0  0.93252  0.53174  0.32304  1.0000
  H   H356      1.0  0.54684  0.58473  0.34953  1.0000
  H   H357      1.0  0.62933  0.00137  0.34642  1.0000
  C   C294      1.0  0.52261  0.98367  0.67053  1.0000
  H   H358      1.0  0.54452  0.55298  0.54473  1.0000
  H   H359      1.0  0.61824  0.63406  0.48940  1.0000
  H   H360      1.0  0.74438  0.90844  0.59156  1.0000
  H   H361      1.0  0.96858  0.65005  0.57223  1.0000
  C   C295      1.0  0.84301  0.75564  0.68543  1.0000
  C   C296      1.0  0.57826  0.54273  0.50218  1.0000
  H   H362      1.0  0.88420  0.58142  0.63445  1.0000
  S   S82       1.0  0.60346  0.98120  0.54045  1.0000
  H   H363      1.0  0.00845  0.55345  0.60507  1.0000
  S   S83       1.0  0.71040  0.96321  0.56397  1.0000
  Fe  Fe43      1.0  0.73715  0.68212  0.59913  1.0000
  S   S84       1.0  0.70257  0.71287  0.62925  1.0000
  S   S85       1.0  0.81255  0.71114  0.59895  1.0000
  Fe  Fe44      1.0  0.65053  0.61224  0.56569  1.0000
  S   S86       1.0  0.60910  0.63622  0.59395  1.0000
  S   S87       1.0  0.62815  0.55881  0.52412  1.0000
  Fe  Fe45      1.0  0.66405  0.70649  0.58178  1.0000
  S   S88       1.0  0.63906  0.75083  0.55800  1.0000
  Fe  Fe46      1.0  0.65030  0.64073  0.63922  1.0000
  H   H364      1.0  0.66118  0.74366  0.44452  1.0000
  S   S89       1.0  0.70284  0.68176  0.55062  1.0000
  S   S90       1.0  0.68753  0.61065  0.61209  1.0000
  C   C297      1.0  0.91326  0.56069  0.55471  1.0000
  H   H365      1.0  0.56443  0.62813  0.49839  1.0000
  Fe  Fe47      1.0  0.99491  0.66388  0.68409  1.0000
  C   C298      1.0  0.84254  0.69083  0.62253  1.0000
  C   C299      1.0  0.82104  0.65329  0.64355  1.0000
  N   N21       1.0  0.90804  0.58723  0.58274  1.0000
  C   C300      1.0  0.89285  0.66402  0.66300  1.0000
  C   C301      1.0  0.91439  0.70049  0.64094  1.0000
  C   C302      1.0  0.88932  0.71391  0.62093  1.0000
  H   H366      1.0  0.78516  0.63488  0.64440  1.0000
  H   H367      1.0  0.95035  0.71925  0.64003  1.0000
  H   H368      1.0  0.90626  0.74297  0.60468  1.0000
  C   C303      1.0  0.68977  0.90399  0.56245  1.0000
  C   C304      1.0  0.71390  0.88605  0.57840  1.0000
  C   C305      1.0  0.69884  0.83926  0.57756  1.0000
  C   C306      1.0  0.65949  0.80994  0.56060  1.0000
  C   C307      1.0  0.63544  0.82792  0.54458  1.0000
  C   C308      1.0  0.65040  0.87464  0.54554  1.0000
  H   H369      1.0  0.71770  0.82593  0.58994  1.0000
  H   H370      1.0  0.60491  0.80557  0.53147  1.0000
  H   H371      1.0  0.63149  0.88792  0.53318  1.0000
  C   C309      1.0  0.94033  0.55795  0.49721  1.0000
  C   C310      1.0  0.59093  0.65660  0.43339  1.0000
  H   H372      1.0  0.65411  0.68924  0.40506  1.0000
  Fe  Fe48      1.0  0.67583  0.99978  0.54222  1.0000
  H   H373      1.0  0.54417  0.68215  0.47658  1.0000
  C   C311      1.0  0.87991  0.60628  0.57135  1.0000
  H   H374      1.0  0.58226  0.72811  0.45040  1.0000
  H   H375      1.0  0.90754  0.54628  0.62428  1.0000
  H   H376      1.0  0.95762  0.57521  0.47431  1.0000
  H   H377      1.0  0.52246  0.61369  0.45071  1.0000
  H   H378      1.0  0.82910  0.61187  0.68079  1.0000
  H   H379      1.0  0.66424  0.73785  0.48922  1.0000
  C   C312      1.0  0.53044  0.59651  0.40010  1.0000
  C   C313      1.0  0.99076  0.57873  0.37596  1.0000
  H   H380      1.0  0.97521  0.61186  0.59891  1.0000
  H   H381      1.0  0.77256  0.72285  0.68392  1.0000
  H   H382      1.0  0.56775  0.54157  0.65990  1.0000
  N   N22       1.0  0.60630  0.68335  0.46529  1.0000
  H   H383      1.0  0.59173  0.72822  0.49521  1.0000
  H   H384      1.0  0.61232  0.67189  0.51829  1.0000
  C   C314      1.0  0.59996  0.65298  0.49396  1.0000
  H   H385      1.0  0.84690  0.57919  0.56243  1.0000
  C   C315      1.0  0.57993  0.70636  0.47205  1.0000
  H   H386      1.0  0.94711  0.61773  0.52043  1.0000
  H   H387      1.0  0.67598  0.70331  0.46140  1.0000
  S   S91       1.0  0.57128  0.98352  0.44724  1.0000
  C   C316      1.0  0.88716  0.56040  0.61375  1.0000
  S   S92       1.0  0.00303  0.60476  0.66722  1.0000
  H   H388      1.0  0.72342  0.64395  0.68221  1.0000
  H   H389      1.0  0.84657  0.77796  0.66474  1.0000
  H   H390      1.0  0.87386  0.62509  0.59218  1.0000
  C   C317      1.0  0.65403  0.71851  0.46477  1.0000
  C   C318      1.0  0.84607  0.64025  0.66394  1.0000
  C   C319      1.0  0.54200  0.54258  0.51838  1.0000
  C   C320      1.0  0.95228  0.62483  0.59263  1.0000
  H   H391      1.0  0.89551  0.63058  0.55026  1.0000
  C   C321      1.0  0.61938  0.66394  0.40493  1.0000
  C   C322      1.0  0.54600  0.62190  0.43004  1.0000
  H   H392      1.0  0.60254  0.52909  0.45535  1.0000
  H   H393      1.0  0.95022  0.64373  0.61523  1.0000
  C   C323      1.0  0.55907  0.60461  0.37268  1.0000
  C   C324      1.0  0.89809  0.51363  0.55699  1.0000
  C   C325      1.0  0.52274  0.99454  0.39721  1.0000
  H   H394      1.0  0.56146  0.98730  0.62597  1.0000
  H   H395      1.0  0.85285  0.53255  0.60872  1.0000
  C   C326      1.0  0.93435  0.58202  0.52389  1.0000
  C   C327      1.0  0.57447  0.52886  0.46804  1.0000
  C   C328      1.0  0.54919  0.00495  0.64193  1.0000
  C   C329      1.0  0.56031  0.53796  0.68681  1.0000
  C   C330      1.0  0.96852  0.53175  0.37542  1.0000
  C   C331      1.0  0.60344  0.63819  0.37510  1.0000
  H   H396      1.0  0.97482  0.51339  0.39490  1.0000
  S   S93       1.0  0.92270  0.64771  0.69062  1.0000
  H   H397      1.0  0.91333  0.78050  0.68947  1.0000
  C   C332      1.0  0.53465  0.51496  0.45019  1.0000
  H   H398      1.0  0.51443  0.94949  0.67638  1.0000
  C   C333      1.0  0.58276  0.56612  0.96048  1.0000
  C   C334      1.0  0.88060  0.75696  0.69919  1.0000
  C   C335      1.0  0.72287  0.68087  0.74268  1.0000
  H   H399      1.0  0.76565  0.65384  0.78516  1.0000
  C   C336      1.0  0.83368  0.69466  0.73589  1.0000
  C   C337      1.0  0.56888  0.96616  0.86253  1.0000
  N   N23       1.0  0.74918  0.65848  0.73328  1.0000
  C   C338      1.0  0.56762  0.54121  0.01902  1.0000
  H   H400      1.0  0.00722  0.51762  0.95941  1.0000
  C   C339      1.0  0.62909  0.99720  0.82146  1.0000
  C   C340      1.0  0.95853  0.58278  0.01773  1.0000
  C   C341      1.0  0.65863  0.99964  0.84652  1.0000
  C   C342      1.0  0.58328  0.98058  0.82871  1.0000
  H   H401      1.0  0.90530  0.72639  0.73384  1.0000
  H   H402      1.0  0.83268  0.67144  0.75470  1.0000
  H   H403      1.0  0.00721  0.52100  0.00492  1.0000
  C   C343      1.0  0.64345  0.98542  0.87940  1.0000
  C   C344      1.0  0.52007  0.00947  0.93575  1.0000
  H   H404      1.0  0.68936  0.65640  0.75279  1.0000
  H   H405      1.0  0.96354  0.57536  0.94816  1.0000
  H   H406      1.0  0.58570  0.96415  0.76043  1.0000
  C   C345      1.0  0.00407  0.59747  0.01068  1.0000
  C   C346      1.0  0.54358  0.52775  0.94968  1.0000
  H   H407      1.0  0.52897  0.94722  0.75290  1.0000
  H   H408      1.0  0.54289  0.91566  0.78183  1.0000
  C   C347      1.0  0.59867  0.96840  0.88727  1.0000
  C   C348      1.0  0.59475  0.57292  0.99500  1.0000
  C   C349      1.0  0.99685  0.53115  0.98147  1.0000
  H   H409      1.0  0.74028  0.70769  0.76220  1.0000
  H   H410      1.0  0.53020  0.62370  0.72200  1.0000
  H   H411      1.0  0.54122  0.69987  0.01139  1.0000
  H   H412      1.0  0.95996  0.51344  0.98134  1.0000
  N   N24       1.0  0.55292  0.97911  0.80181  1.0000
  C   C350      1.0  0.58501  0.57401  0.70899  1.0000
  H   H413      1.0  0.71603  0.69644  0.72053  1.0000
  H   H414      1.0  0.76430  0.61069  0.75683  1.0000
  C   C351      1.0  0.79457  0.69255  0.72247  1.0000
  C   C352      1.0  0.55274  0.95031  0.77310  1.0000
  C   C353      1.0  0.87596  0.72647  0.72428  1.0000
  H   H415      1.0  0.59392  0.59661  0.76119  1.0000
  C   C354      1.0  0.74849  0.63164  0.76296  1.0000
  C   C355      1.0  0.72680  0.62661  0.70479  1.0000
  C   C356      1.0  0.00041  0.59252  0.94912  1.0000
  H   H416      1.0  0.69247  0.60014  0.71176  1.0000
  H   H417      1.0  0.71381  0.60756  0.77113  1.0000
  H   H418      1.0  0.62508  0.60248  0.00296  1.0000
  H   H419      1.0  0.60411  0.59063  0.94198  1.0000
  C   C357      1.0  0.54000  0.52830  0.75650  1.0000
  C   C358      1.0  0.57507  0.56884  0.74388  1.0000
  H   H420      1.0  0.60090  0.67660  0.01870  1.0000
  H   H421      1.0  0.52329  0.62725  0.99851  1.0000
  H   H422      1.0  0.53211  0.52496  0.78333  1.0000
  H   H423      1.0  0.58729  0.95843  0.91315  1.0000
  H   H424      1.0  0.53502  0.95412  0.87091  1.0000
  H   H425      1.0  0.74564  0.60932  0.69673  1.0000
  S   S94       1.0  0.53097  0.52047  0.90585  1.0000
  H   H426      1.0  0.66650  0.98834  0.89909  1.0000
  S   S95       1.0  0.72986  0.94552  0.02347  1.0000
  H   H427      1.0  0.93265  0.55920  0.00108  1.0000
  H   H428      1.0  0.74284  0.86862  0.01681  1.0000
  C   C359      1.0  0.80061  0.72377  0.69662  1.0000
  H   H429      1.0  0.56797  0.01117  0.97161  1.0000
  H   H430      1.0  0.01113  0.58211  0.92545  1.0000
  H   H431      1.0  0.64246  0.00887  0.79638  1.0000
  H   H432      1.0  0.01320  0.62953  0.94785  1.0000
  C   C360      1.0  0.51531  0.61697  0.02554  1.0000
  S   S96       1.0  0.62744  0.62665  0.69425  1.0000
