data_image0
_chemical_formula_structural       SCH3C2HCH3CHCHFeSH3FeSH2CHSH3FeC3FeHC6H4C4HC2H2SHSCHC2H3C3H7CH2C2SHC2NHSFeC2H4SCHC2NSHFeCH2CSHCH2SC2FeHCHCH4NHCH3NH2C2HCSHCHCHCSCHSCHC2SC2HCHC2HCH2C4HFe2S2FeS2FeSFeHS2FeS4H3C2H2C2HCHCHNFeCH2SHNH2SH2CH3CHC3H2C6H4NC9H12CHCHCHCHCHFeH4CHCH3C2H4CSHC2H2FeS2HSFeSFeS2H3NCHCNHSH5C3HCHC7H4C6H4CHCH2CHCHFeHSCNCH2SHFeC3HS2CHCHSHCH2CHCNC8H13CH2CH3CH3CH2C2FeH2C3NCH3CHC2H5CH2SHCH3NHFeS2FeS2CFeSCSFeS3HSH2FeCSHC6H4C6H6SH2CH2FeCHC2SC3H2C2NC9H11CHCH2CH5C5H4CHCNCHSH3CH4SH2C2H2SH2C4FeH3CH3CSHCH2C2H5SHCH2C4HNHNHCH3CH4CH2SCH4CSCHC2H2CH4CSCSHFeS2FeS2FeSFeS3FeS3HS2HSC3FeSHSHCHCFeHC2HC7H4C6H4C6H5C5H3C7H4C2H2CHCNCHNC9H11S3C6SCH3NC6H13CHC2H4FeNCHC2HC3SHCH3CNCFeC3HCHSFeHFeHFeH3CFeSHCS2HSCH4SHC3H2CNHC2H8C2SHC2H2FeHCH2CHCHFeHCH2CH4C2HSFeC2SH3SH2FeC4HC2H4FeCSH2CH4SCH2CNHC2FeCH2C3H2CSHCH2FeCNS2NCFeHCHC2H2C2H2C2SHC2HNC2H2C3HC2HC2HCSHCH4CH2NC3H2NH4C2H3CHC2H4CH3CHCH2CSFeCHCSCFeSH2SHFeSFeCHFeCFeCS3FeS2FeS2FeSFeS3NSFeCSHFeCS2FeC3H3SH2C7H4C5H3C6H2CH6FeHC7H7CH6C2H2CFeCHCH2S2CHC2HNCH3CH2C2HFeSCNHCHCFeC2HCNC3NHSHCFeHCFeSHSC5H7SCNCHC6HSH7NC9H12SFeH6NC9H11FeSCSCS2CSH3C2H3CH2CSH3CHC2H3CH3C3HCHSHC2H3CHCH3SH3C2HFeC5HCHSC4H5CHCHC2H2S2H2FeH2SCH3C2H2C2SFeCHFeS2FeS2FeS2FeS2FeSFeS3NHNC2H3C4H3C3FeHC6H4C2FeC3H2SH3C6H6C2H2CSFeSH2C2H4C3H4C4HNH2CH6CHC2H2CSNC9H13CSH2CHCH4CNH3C2H2CSCH3C2HC3H2CSCHC4HC2HCHCH2FeCH4SHFeSC2NCH8C2SH2S2NHFeC2SC4FeSH4CS2C2HSC4FeCFeHSCFeHSH2CH8CHCHCSH5FeCH2C4HCH3CHCFeSCH4CH2CFeC3HCHC2HC2S2CH2C2HCHCSC2H2CSC3HCSNC2H2C6HNHCSH6NC2H3FeCH2CH4CHS2CH3C2H4CFeSH2CSCHCHSCSFeSH2S2CSFeS2FeS2FeSFeS3H2FeS2FeCSH3C6H4CSC2HC6H5C3H2C4H3C6H4C3H3C3HC2H2SHC3HCHCHCH6CHSHC6SH6CHNCFeC7HSHCH8CS2HCHFeC4H5C2HCH2C2HC2HC2H3NCHCNHSFeHNH3CH3CH5CFeC2HFeCH8NHFeC2HCH2C2H2SHC2HCFeSH2NCSH2CH3SHC3HFeSHCH3SH3CHCHFeC2H3FeSC3SCHC4HCH2SCH2CHCHC2HNH2C2H3CHSHNSHCHCH3C3HCH3CHCHFeHC2H2SC2HCFeH7FeS2FeHFeSCHSC2SFeSNCSCHCFeCHCSH3CH2C6H4C6H4C2HCH2CHCH2SHCH2NC2H2CHCH2CHSH4NC9H14SH2C3HCNHFeHC2HCHCHC2HCFeC2HCH4CH2CH2SFeH3C2HC3NHCSHCH2CH4CHCH2CH2SCSCSH2C4FeH4CH2FeS2HC2HFeS2FeSFe2S2FeHCHCHCSH2NHSC2SC4HCH2C6H4C2HCH4C6H4NHC3H3C3H2SC3H4CH3S2CH2C2H3CHC6H3NH3CHS2HCHSHSHC2H3C3NHCHC2HCHCHCSH2C2HC2H2C2HCSH3C2H2C2HCH3CHC2HFeH9S2H3C4H2C2HCHCH2CNHC5HCFeCFeS2HSFeSCSHSCFeS2FeSFeS3H2C5H3C6H5CH2C3H3C2HCNCH4CHC2H2CH3CHC2HCHNCHCNHCFeHC2HC2H2C2H2FeNHCH3C3H3C2HC2H3CH2C3HCHCHC2HC4H3CH2CHSH3FeS2FeSCFeSFeS3C2HFeS2CHFeHCSH3CH4C7H4C3H3CH2CHC7FeCHCH2CHC3H3C2SH6CHNHCH3C4HC2H3CH2SNC3H2CHCNH
_chemical_formula_sum              "S288 C1080 H1296 Fe144 N72"
_cell_length_a       42.2033
_cell_length_b       39.3762
_cell_length_c       86.0326
_cell_angle_alpha    87.8142
_cell_angle_beta     84.0629
_cell_angle_gamma    112.926

_space_group_name_H-M_alt    "P 1"
_space_group_IT_number       1

loop_
  _space_group_symop_operation_xyz
  'x, y, z'

loop_
  _atom_site_type_symbol
  _atom_site_label
  _atom_site_symmetry_multiplicity
  _atom_site_fract_x
  _atom_site_fract_y
  _atom_site_fract_z
  _atom_site_occupancy
  S   S1        1.0  0.08465  0.00885  0.19821  1.0000
  C   C1        1.0  0.41056  0.28024  0.07690  1.0000
  H   H1        1.0  0.48589  0.25289  0.17393  1.0000
  H   H2        1.0  0.26974  0.18792  0.21575  1.0000
  H   H3        1.0  0.32008  0.17918  0.20794  1.0000
  C   C2        1.0  0.49108  0.22781  0.03802  1.0000
  C   C3        1.0  0.03511  0.09552  0.13975  1.0000
  H   H4        1.0  0.46182  0.13948  0.12291  1.0000
  C   C4        1.0  0.41020  0.12951  0.07061  1.0000
  H   H5        1.0  0.35304  0.19093  0.19148  1.0000
  H   H6        1.0  0.42071  0.24571  0.10371  1.0000
  H   H7        1.0  0.37248  0.01611  0.08461  1.0000
  C   C5        1.0  0.41793  0.02144  0.10607  1.0000
  H   H8        1.0  0.39334  0.13463  0.06302  1.0000
  C   C6        1.0  0.25364  0.17611  0.20676  1.0000
  H   H9        1.0  0.37421  0.22133  0.06133  1.0000
  Fe  Fe1       1.0  0.04468  0.03321  0.19827  1.0000
  S   S2        1.0  0.05372  0.04902  0.17246  1.0000
  H   H10       1.0  0.19228  0.12959  0.17627  1.0000
  H   H11       1.0  0.34610  0.21330  0.16635  1.0000
  H   H12       1.0  0.39146  0.20022  0.10055  1.0000
  Fe  Fe2       1.0  0.09061  0.02059  0.17196  1.0000
  S   S3        1.0  0.13608  0.04545  0.15314  1.0000
  H   H13       1.0  0.36455  0.18719  0.07725  1.0000
  H   H14       1.0  0.41836  0.36124  0.09311  1.0000
  C   C7        1.0  0.24516  0.16093  0.18007  1.0000
  H   H15       1.0  0.45004  0.33065  0.13889  1.0000
  S   S4        1.0  0.28562  0.09064  0.17337  1.0000
  H   H16       1.0  0.20709  0.15642  0.22348  1.0000
  H   H17       1.0  0.30437  0.25112  0.18488  1.0000
  H   H18       1.0  0.30533  0.21275  0.16220  1.0000
  Fe  Fe3       1.0  0.36366  0.13006  0.12062  1.0000
  C   C8        1.0  0.31748  0.19835  0.16944  1.0000
  C   C9        1.0  0.43881  0.27530  0.14860  1.0000
  C   C10       1.0  0.26844  0.17826  0.19096  1.0000
  Fe  Fe4       1.0  0.38350  0.19297  0.14158  1.0000
  H   H19       1.0  0.48990  0.35241  0.09621  1.0000
  C   C11       1.0  0.17739  0.05711  0.15891  1.0000
  C   C12       1.0  0.20664  0.07369  0.14767  1.0000
  C   C13       1.0  0.24002  0.08369  0.15199  1.0000
  C   C14       1.0  0.24417  0.07722  0.16758  1.0000
  C   C15       1.0  0.21491  0.06064  0.17883  1.0000
  C   C16       1.0  0.18150  0.05054  0.17450  1.0000
  H   H20       1.0  0.20352  0.07865  0.13558  1.0000
  H   H21       1.0  0.26248  0.09616  0.14325  1.0000
  H   H22       1.0  0.21813  0.05574  0.19091  1.0000
  H   H23       1.0  0.15904  0.03776  0.18321  1.0000
  C   C17       1.0  0.39978  0.12198  0.08679  1.0000
  C   C18       1.0  0.10085  0.08445  0.22558  1.0000
  C   C19       1.0  0.19580  0.14175  0.20031  1.0000
  C   C20       1.0  0.41122  0.30540  0.08845  1.0000
  H   H24       1.0  0.10725  0.07355  0.21495  1.0000
  C   C21       1.0  0.43234  0.23191  0.07401  1.0000
  C   C22       1.0  0.31851  0.23637  0.19055  1.0000
  H   H25       1.0  0.41788  0.03363  0.13037  1.0000
  H   H26       1.0  0.42992  0.38439  0.06502  1.0000
  S   S5        1.0  0.03658  0.07000  0.21612  1.0000
  H   H27       1.0  0.16812  0.12755  0.20386  1.0000
  S   S6        1.0  0.45106  0.99120  0.01976  1.0000
  C   C23       1.0  0.06156  0.02495  0.12906  1.0000
  H   H28       1.0  0.05363  0.04568  0.10052  1.0000
  C   C24       1.0  0.43362  0.03490  0.11937  1.0000
  C   C25       1.0  0.03566  0.06994  0.12857  1.0000
  H   H29       1.0  0.01419  0.45390  0.00378  1.0000
  H   H30       1.0  0.34858  0.22325  0.07904  1.0000
  H   H31       1.0  0.42980  0.34221  0.04454  1.0000
  C   C26       1.0  0.46472  0.12446  0.07405  1.0000
  C   C27       1.0  0.46960  0.05068  0.11856  1.0000
  C   C28       1.0  0.39441  0.02518  0.07499  1.0000
  H   H32       1.0  0.39815  0.45590  0.02220  1.0000
  H   H33       1.0  0.05510  0.02050  0.14201  1.0000
  H   H34       1.0  0.49022  0.29668  0.01333  1.0000
  H   H35       1.0  0.03968  0.00360  0.12420  1.0000
  H   H36       1.0  0.05769  0.11161  0.14510  1.0000
  H   H37       1.0  0.47429  0.24644  0.12385  1.0000
  H   H38       1.0  0.45950  0.04958  0.06027  1.0000
  C   C29       1.0  0.42432  0.33176  0.05682  1.0000
  H   H39       1.0  0.38993  0.00918  0.10739  1.0000
  H   H40       1.0  0.43517  0.22391  0.15987  1.0000
  C   C30       1.0  0.48677  0.24357  0.00652  1.0000
  C   C31       1.0  0.44512  0.01910  0.06264  1.0000
  S   S7        1.0  0.40149  0.25480  0.13936  1.0000
  H   H41       1.0  0.40628  0.05587  0.07409  1.0000
  C   C32       1.0  0.41749  0.29468  0.06097  1.0000
  C   C33       1.0  0.42161  0.11532  0.09650  1.0000
  N   N1        1.0  0.40299  0.24068  0.08090  1.0000
  H   H42       1.0  0.31082  0.16988  0.16575  1.0000
  S   S8        1.0  0.33271  0.15678  0.13415  1.0000
  Fe  Fe5       1.0  0.33028  0.11714  0.15421  1.0000
  C   C34       1.0  0.21784  0.15811  0.21132  1.0000
  C   C35       1.0  0.37123  0.21721  0.07433  1.0000
  H   H43       1.0  0.10458  0.11833  0.12553  1.0000
  H   H44       1.0  0.42966  0.20371  0.07821  1.0000
  H   H45       1.0  0.14958  0.09353  0.23424  1.0000
  H   H46       1.0  0.43455  0.23266  0.06100  1.0000
  S   S9        1.0  0.35669  0.08675  0.13993  1.0000
  C   C36       1.0  0.43797  0.02423  0.09137  1.0000
  H   H47       1.0  0.47062  0.11140  0.09769  1.0000
  C   C37       1.0  0.39733  0.23014  0.09804  1.0000
  C   C38       1.0  0.20943  0.14316  0.18474  1.0000
  N   N2        1.0  0.30646  0.19743  0.18647  1.0000
  S   S10       1.0  0.37880  0.15569  0.16280  1.0000
  H   H48       1.0  0.34678  0.25198  0.18659  1.0000
  Fe  Fe6       1.0  0.48328  0.05245  0.01840  1.0000
  C   C39       1.0  0.00458  0.10029  0.14473  1.0000
  H   H49       1.0  0.49294  0.22153  0.05016  1.0000
  H   H50       1.0  0.31479  0.23848  0.20339  1.0000
  C   C40       1.0  0.42453  0.35561  0.06837  1.0000
  S   S11       1.0  0.36008  0.12185  0.09510  1.0000
  H   H51       1.0  0.48796  0.17485  0.03113  1.0000
  C   C41       1.0  0.06866  0.08706  0.22858  1.0000
  H   H52       1.0  0.25386  0.15984  0.16791  1.0000
  H   H53       1.0  0.07972  0.00533  0.23446  1.0000
  S   S12       1.0  0.41468  0.16979  0.12648  1.0000
  C   C42       1.0  0.12494  0.09611  0.23642  1.0000
  C   C43       1.0  0.45410  0.11704  0.09015  1.0000
  Fe  Fe7       1.0  0.40569  0.12870  0.14691  1.0000
  H   H54       1.0  0.31518  0.14862  0.19266  1.0000
  C   C44       1.0  0.44272  0.13074  0.06424  1.0000
  H   H55       1.0  0.45740  0.25209  0.07701  1.0000
  C   C45       1.0  0.32444  0.17834  0.19504  1.0000
  H   H56       1.0  0.40648  0.29713  0.10089  1.0000
  H   H57       1.0  0.07624  0.09474  0.10123  1.0000
  H   H58       1.0  0.49367  0.34197  0.07612  1.0000
  H   H59       1.0  0.09883  0.06430  0.10182  1.0000
  N   N3        1.0  0.42073  0.00980  0.07743  1.0000
  H   H60       1.0  0.48546  0.24992  0.99431  1.0000
  C   C46       1.0  0.43523  0.43675  0.01075  1.0000
  H   H61       1.0  0.00449  0.11922  0.15354  1.0000
  H   H62       1.0  0.08513  0.01901  0.12607  1.0000
  H   H63       1.0  0.37478  0.23465  0.10401  1.0000
  N   N4        1.0  0.06714  0.06315  0.12339  1.0000
  H   H64       1.0  0.41819  0.27745  0.05154  1.0000
  H   H65       1.0  0.41318  0.10802  0.10891  1.0000
  C   C47       1.0  0.07417  0.06716  0.10600  1.0000
  C   C48       1.0  0.44776  0.42743  0.99656  1.0000
  H   H66       1.0  0.09670  0.08567  0.14234  1.0000
  C   C49       1.0  0.45810  0.31360  0.14636  1.0000
  S   S13       1.0  0.44731  0.11290  0.15536  1.0000
  H   H67       1.0  0.45064  0.13669  0.05180  1.0000
  C   C50       1.0  0.47832  0.26987  0.16616  1.0000
  H   H68       1.0  0.38271  0.01681  0.06399  1.0000
  C   C51       1.0  0.44942  0.25345  0.15826  1.0000
  H   H69       1.0  0.12221  0.08355  0.12509  1.0000
  C   C52       1.0  0.47470  0.04030  0.09100  1.0000
  S   S14       1.0  0.46201  0.09261  0.02793  1.0000
  C   C53       1.0  0.41809  0.34251  0.08415  1.0000
  H   H70       1.0  0.37455  0.46412  0.99785  1.0000
  S   S15       1.0  0.45493  0.43676  0.02775  1.0000
  C   C54       1.0  0.09889  0.08900  0.12933  1.0000
  H   H71       1.0  0.48264  0.20179  0.10611  1.0000
  C   C55       1.0  0.00388  0.04967  0.12281  1.0000
  C   C56       1.0  0.49241  0.26262  0.03302  1.0000
  S   S16       1.0  0.48765  0.17775  0.99758  1.0000
  C   C57       1.0  0.48977  0.27024  0.01729  1.0000
  C   C58       1.0  0.48986  0.25630  0.11248  1.0000
  H   H72       1.0  0.00179  0.02846  0.11490  1.0000
  C   C59       1.0  0.40833  0.44926  0.01120  1.0000
  H   H73       1.0  0.48165  0.06152  0.12884  1.0000
  C   C60       1.0  0.48771  0.32998  0.15394  1.0000
  C   C61       1.0  0.48835  0.20131  0.02723  1.0000
  H   H74       1.0  0.46854  0.41777  0.99612  1.0000
  C   C62       1.0  0.48662  0.20921  0.01142  1.0000
  H   H75       1.0  0.46410  0.00595  0.06291  1.0000
  H   H76       1.0  0.43140  0.00925  0.05224  1.0000
  C   C63       1.0  0.39517  0.45427  0.99740  1.0000
  C   C64       1.0  0.48576  0.14200  0.12694  1.0000
  C   C65       1.0  0.48580  0.12927  0.14227  1.0000
  C   C66       1.0  0.49009  0.05332  0.10443  1.0000
  H   H77       1.0  0.49221  0.04432  0.08038  1.0000
  Fe  Fe8       1.0  0.01369  0.99246  0.17055  1.0000
  Fe  Fe9       1.0  0.07646  0.06829  0.31781  1.0000
  S   S17       1.0  0.06252  0.06587  0.29339  1.0000
  S   S18       1.0  0.06921  0.01660  0.33234  1.0000
  Fe  Fe10      1.0  0.09918  0.15112  0.31696  1.0000
  S   S19       1.0  0.08698  0.15664  0.29247  1.0000
  S   S20       1.0  0.12590  0.19814  0.33131  1.0000
  Fe  Fe11      1.0  0.03864  0.10569  0.30004  1.0000
  S   S21       1.0  0.32209  0.45771  0.31753  1.0000
  Fe  Fe12      1.0  0.11155  0.11639  0.28747  1.0000
  H   H78       1.0  0.01456  0.01377  0.26973  1.0000
  S   S22       1.0  0.04819  0.10403  0.32528  1.0000
  S   S23       1.0  0.12817  0.11499  0.31127  1.0000
  Fe  Fe13      1.0  0.19319  0.40916  0.31467  1.0000
  S   S24       1.0  0.22456  0.40701  0.33394  1.0000
  S   S25       1.0  0.15344  0.36048  0.30497  1.0000
  S   S26       1.0  0.23754  0.45308  0.29912  1.0000
  S   S27       1.0  0.18741  0.44787  0.36920  1.0000
  H   H79       1.0  0.36887  0.46330  0.36755  1.0000
  H   H80       1.0  0.07790  0.12379  0.26371  1.0000
  H   H81       1.0  0.04039  0.01059  0.24105  1.0000
  C   C67       1.0  0.22590  0.33891  0.28823  1.0000
  C   C68       1.0  0.06673  0.46918  0.46360  1.0000
  H   H82       1.0  0.44829  0.38543  0.46002  1.0000
  H   H83       1.0  0.16911  0.18055  0.28836  1.0000
  C   C69       1.0  0.21649  0.22900  0.26602  1.0000
  C   C70       1.0  0.20272  0.48239  0.39617  1.0000
  H   H84       1.0  0.00633  0.01441  0.35736  1.0000
  C   C71       1.0  0.10068  0.99806  0.30646  1.0000
  H   H85       1.0  0.06219  0.45049  0.45440  1.0000
  C   C72       1.0  0.20564  0.30462  0.28324  1.0000
  H   H86       1.0  0.14498  0.24035  0.28220  1.0000
  N   N5        1.0  0.19523  0.23751  0.27889  1.0000
  Fe  Fe14      1.0  0.20913  0.45110  0.34383  1.0000
  C   C73       1.0  0.11659  0.11001  0.25030  1.0000
  H   H87       1.0  0.48500  0.43051  0.43823  1.0000
  H   H88       1.0  0.07313  0.21444  0.35529  1.0000
  S   S28       1.0  0.17397  0.44925  0.32583  1.0000
  H   H89       1.0  0.07526  0.00377  0.27776  1.0000
  N   N6        1.0  0.49072  0.43652  0.46280  1.0000
  H   H90       1.0  0.27153  0.37035  0.29865  1.0000
  H   H91       1.0  0.20158  0.20198  0.26141  1.0000
  S   S29       1.0  0.14482  0.12159  0.26465  1.0000
  H   H92       1.0  0.18203  0.30281  0.27883  1.0000
  H   H93       1.0  0.25609  0.25828  0.29198  1.0000
  C   C74       1.0  0.18533  0.20821  0.29198  1.0000
  H   H94       1.0  0.10548  0.02046  0.26014  1.0000
  H   H95       1.0  0.17881  0.46085  0.40179  1.0000
  H   H96       1.0  0.20802  0.20526  0.29636  1.0000
  C   C75       1.0  0.16276  0.23538  0.27291  1.0000
  H   H97       1.0  0.23994  0.22677  0.26993  1.0000
  C   C76       1.0  0.08462  0.11301  0.25311  1.0000
  C   C77       1.0  0.24683  0.28012  0.29077  1.0000
  C   C78       1.0  0.25623  0.34378  0.29460  1.0000
  H   H98       1.0  0.11283  0.02737  0.30283  1.0000
  H   H99       1.0  0.01222  0.45209  0.47185  1.0000
  C   C79       1.0  0.13472  0.24290  0.32314  1.0000
  C   C80       1.0  0.11478  0.24891  0.31220  1.0000
  C   C81       1.0  0.12103  0.28516  0.30655  1.0000
  C   C82       1.0  0.14759  0.31539  0.31161  1.0000
  C   C83       1.0  0.16863  0.30916  0.32195  1.0000
  C   C84       1.0  0.16182  0.27303  0.32790  1.0000
  H   H100      1.0  0.09364  0.22578  0.30858  1.0000
  H   H101      1.0  0.10479  0.28983  0.29850  1.0000
  H   H102      1.0  0.19003  0.33212  0.32543  1.0000
  H   H103      1.0  0.17766  0.26837  0.33617  1.0000
  N   N7        1.0  0.10701  0.34205  0.35736  1.0000
  C   C85       1.0  0.09856  0.33934  0.37467  1.0000
  C   C86       1.0  0.14447  0.35067  0.35351  1.0000
  C   C87       1.0  0.10068  0.37397  0.35079  1.0000
  C   C88       1.0  0.08675  0.30649  0.35114  1.0000
  C   C89       1.0  0.06560  0.30384  0.33901  1.0000
  C   C90       1.0  0.08867  0.27315  0.35692  1.0000
  C   C91       1.0  0.04719  0.26978  0.33332  1.0000
  C   C92       1.0  0.07028  0.23933  0.35109  1.0000
  C   C93       1.0  0.04948  0.23761  0.33936  1.0000
  H   H104      1.0  0.10668  0.31922  0.38073  1.0000
  H   H105      1.0  0.11219  0.36636  0.37955  1.0000
  H   H106      1.0  0.07018  0.33069  0.37811  1.0000
  H   H107      1.0  0.15189  0.32825  0.35790  1.0000
  H   H108      1.0  0.16068  0.37628  0.35862  1.0000
  H   H109      1.0  0.15198  0.35510  0.34061  1.0000
  H   H110      1.0  0.07293  0.36962  0.35336  1.0000
  H   H111      1.0  0.11629  0.40018  0.35579  1.0000
  H   H112      1.0  0.10857  0.37911  0.33785  1.0000
  H   H113      1.0  0.06336  0.32772  0.33347  1.0000
  H   H114      1.0  0.10514  0.27305  0.36572  1.0000
  H   H115      1.0  0.29029  0.31837  0.30088  1.0000
  C   C94       1.0  0.06098  0.10209  0.24220  1.0000
  H   H116      1.0  0.22524  0.25088  0.25609  1.0000
  C   C95       1.0  0.33163  0.47888  0.48318  1.0000
  H   H117      1.0  0.07099  0.03501  0.26313  1.0000
  C   C96       1.0  0.03838  0.47003  0.47348  1.0000
  H   H118      1.0  0.16815  0.25566  0.26261  1.0000
  C   C97       1.0  0.21557  0.27406  0.28433  1.0000
  H   H119      1.0  0.17021  0.21409  0.30210  1.0000
  C   C98       1.0  0.26669  0.31444  0.29586  1.0000
  H   H120      1.0  0.49114  0.45720  0.48579  1.0000
  Fe  Fe15      1.0  0.26746  0.45394  0.31929  1.0000
  H   H121      1.0  0.03601  0.21144  0.33461  1.0000
  H   H122      1.0  0.14806  0.20751  0.26898  1.0000
  H   H123      1.0  0.47503  0.46690  0.44584  1.0000
  H   H124      1.0  0.21761  0.36172  0.28745  1.0000
  C   C99       1.0  0.49290  0.45236  0.44656  1.0000
  H   H125      1.0  0.43543  0.42183  0.46629  1.0000
  C   C100      1.0  0.07754  0.01054  0.26493  1.0000
  H   H126      1.0  0.36785  0.45263  0.48340  1.0000
  H   H127      1.0  0.31020  0.46351  0.36412  1.0000
  H   H128      1.0  0.03174  0.26843  0.32386  1.0000
  C   C101      1.0  0.45469  0.40916  0.46745  1.0000
  C   C102      1.0  0.21293  0.48287  0.38013  1.0000
  H   H129      1.0  0.45039  0.39774  0.47987  1.0000
  H   H130      1.0  0.38055  0.48562  0.34800  1.0000
  H   H131      1.0  0.03654  0.10505  0.24448  1.0000
  H   H132      1.0  0.48159  0.48334  0.47133  1.0000
  C   C103      1.0  0.36189  0.47397  0.47769  1.0000
  S   S30       1.0  0.13565  0.48993  0.45297  1.0000
  H   H133      1.0  0.29749  0.48715  0.38710  1.0000
  C   C104      1.0  0.05334  0.99083  0.24111  1.0000
  C   C105      1.0  0.02924  0.30993  0.60252  1.0000
  H   H134      1.0  0.29083  0.09256  0.67849  1.0000
  H   H135      1.0  0.07903  0.26424  0.62727  1.0000
  Fe  Fe16      1.0  0.26102  0.09305  0.65254  1.0000
  S   S31       1.0  0.25168  0.13602  0.66629  1.0000
  S   S32       1.0  0.31345  0.09198  0.64520  1.0000
  H   H136      1.0  0.09181  0.19335  0.68562  1.0000
  S   S33       1.0  0.16790  0.08815  0.66575  1.0000
  Fe  Fe17      1.0  0.21203  0.13201  0.65024  1.0000
  S   S34       1.0  0.21482  0.18608  0.63950  1.0000
  Fe  Fe18      1.0  0.20888  0.08815  0.68042  1.0000
  S   S35       1.0  0.20285  0.08825  0.70667  1.0000
  S   S36       1.0  0.22462  0.09251  0.63522  1.0000
  H   H137      1.0  0.03936  0.25265  0.71212  1.0000
  H   H138      1.0  0.34770  0.12431  0.70938  1.0000
  H   H139      1.0  0.28625  0.02979  0.67590  1.0000
  N   N8        1.0  0.31409  0.07904  0.69762  1.0000
  C   C106      1.0  0.02114  0.22185  0.73475  1.0000
  H   H140      1.0  0.12856  0.09480  0.71768  1.0000
  C   C107      1.0  0.08009  0.17076  0.71624  1.0000
  N   N9        1.0  0.08432  0.05275  0.70945  1.0000
  H   H141      1.0  0.02604  0.21143  0.63125  1.0000
  S   S37       1.0  0.45193  0.23010  0.65177  1.0000
  H   H142      1.0  0.02559  0.34580  0.58380  1.0000
  H   H143      1.0  0.07104  0.27059  0.60768  1.0000
  H   H144      1.0  0.33862  0.07331  0.67493  1.0000
  H   H145      1.0  0.43709  0.21043  0.58342  1.0000
  H   H146      1.0  0.36559  0.10919  0.68512  1.0000
  C   C108      1.0  0.27175  0.02411  0.71596  1.0000
  C   C109      1.0  0.01173  0.28447  0.61585  1.0000
  C   C110      1.0  0.18511  0.04328  0.71596  1.0000
  H   H147      1.0  0.08124  0.30843  0.62032  1.0000
  C   C111      1.0  0.15750  0.19585  0.68933  1.0000
  H   H148      1.0  0.04011  0.26387  0.64926  1.0000
  C   C112      1.0  0.43628  0.23671  0.60473  1.0000
  C   C113      1.0  0.17781  0.19599  0.64378  1.0000
  C   C114      1.0  0.18140  0.23283  0.64203  1.0000
  C   C115      1.0  0.15265  0.24191  0.64559  1.0000
  C   C116      1.0  0.11998  0.21413  0.65067  1.0000
  C   C117      1.0  0.11613  0.17711  0.65230  1.0000
  C   C118      1.0  0.14513  0.16807  0.64897  1.0000
  H   H149      1.0  0.20659  0.25449  0.63805  1.0000
  H   H150      1.0  0.15580  0.27053  0.64436  1.0000
  H   H151      1.0  0.09092  0.15542  0.65617  1.0000
  H   H152      1.0  0.14207  0.13950  0.65016  1.0000
  C   C119      1.0  0.35167  0.13046  0.64727  1.0000
  C   C120      1.0  0.35082  0.15993  0.65562  1.0000
  C   C121      1.0  0.38180  0.19010  0.65712  1.0000
  C   C122      1.0  0.41376  0.19119  0.65012  1.0000
  C   C123      1.0  0.41457  0.16167  0.64180  1.0000
  C   C124      1.0  0.38362  0.13133  0.64045  1.0000
  H   H153      1.0  0.32641  0.15970  0.66088  1.0000
  H   H154      1.0  0.38105  0.21293  0.66354  1.0000
  H   H155      1.0  0.43903  0.16203  0.63650  1.0000
  H   H156      1.0  0.38452  0.10854  0.63403  1.0000
  C   C125      1.0  0.11763  0.08552  0.70662  1.0000
  H   H157      1.0  0.19187  0.16093  0.72404  1.0000
  C   C126      1.0  0.18596  0.18603  0.68662  1.0000
  H   H158      1.0  0.04768  0.01106  0.61058  1.0000
  H   H159      1.0  0.07328  0.06190  0.68600  1.0000
  C   C127      1.0  0.18205  0.03785  0.73231  1.0000
  H   H160      1.0  0.46434  0.24980  0.60395  1.0000
  C   C128      1.0  0.11887  0.23381  0.71858  1.0000
  H   H161      1.0  0.42789  0.25903  0.62639  1.0000
  Fe  Fe19      1.0  0.00268  0.09346  0.66372  1.0000
  H   H162      1.0  0.10152  0.03161  0.72923  1.0000
  S   S38       1.0  0.08460  0.22652  0.65535  1.0000
  C   C129      1.0  0.15382  0.18052  0.71715  1.0000
  N   N10       1.0  0.11013  0.20314  0.70818  1.0000
  C   C130      1.0  0.05810  0.06298  0.71856  1.0000
  H   H163      1.0  0.13766  0.07943  0.69923  1.0000
  H   H164      1.0  0.19864  0.18827  0.67476  1.0000
  S   S39       1.0  0.01729  0.13528  0.64309  1.0000
  H   H165      1.0  0.14969  0.20574  0.67914  1.0000
  Fe  Fe20      1.0  0.18357  0.04850  0.65201  1.0000
  C   C131      1.0  0.29825  0.10189  0.69010  1.0000
  C   C132      1.0  0.19833  0.17360  0.69908  1.0000
  C   C133      1.0  0.01181  0.32647  0.59393  1.0000
  H   H166      1.0  0.22043  0.16608  0.69693  1.0000
  S   S40       1.0  0.01997  0.04660  0.66499  1.0000
  S   S41       1.0  0.02449  0.13503  0.68085  1.0000
  C   C134      1.0  0.07470  0.03968  0.69395  1.0000
  H   H167      1.0  0.27768  0.03873  0.72633  1.0000
  C   C135      1.0  0.18229  0.17082  0.71433  1.0000
  H   H168      1.0  0.14247  0.17829  0.72916  1.0000
  S   S42       1.0  0.22127  0.04512  0.66788  1.0000
  H   H169      1.0  0.07571  0.22177  0.69673  1.0000
  C   C136      1.0  0.14036  0.19312  0.70475  1.0000
  H   H170      1.0  0.30580  0.09960  0.71995  1.0000
  H   H171      1.0  0.14293  0.25768  0.71350  1.0000
  C   C137      1.0  0.02595  0.27555  0.64189  1.0000
  H   H172      1.0  0.03663  0.30602  0.64268  1.0000
  C   C138      1.0  0.08975  0.02277  0.71832  1.0000
  N   N11       1.0  0.32461  0.18121  0.60836  1.0000
  C   C139      1.0  0.31517  0.14100  0.60710  1.0000
  C   C140      1.0  0.30569  0.18526  0.62327  1.0000
  C   C141      1.0  0.31206  0.19610  0.59533  1.0000
  C   C142      1.0  0.36283  0.20068  0.60730  1.0000
  C   C143      1.0  0.38464  0.19683  0.59435  1.0000
  C   C144      1.0  0.37950  0.22403  0.61877  1.0000
  C   C145      1.0  0.42081  0.21437  0.59320  1.0000
  C   C146      1.0  0.41567  0.24187  0.61736  1.0000
  H   H173      1.0  0.32781  0.12984  0.61550  1.0000
  H   H174      1.0  0.28669  0.12466  0.60971  1.0000
  H   H175      1.0  0.32305  0.13466  0.59522  1.0000
  H   H176      1.0  0.31330  0.17373  0.63357  1.0000
  H   H177      1.0  0.27706  0.17023  0.62376  1.0000
  H   H178      1.0  0.31002  0.21463  0.62476  1.0000
  H   H179      1.0  0.32331  0.19196  0.58365  1.0000
  H   H180      1.0  0.28328  0.18242  0.59586  1.0000
  H   H181      1.0  0.31903  0.22636  0.59581  1.0000
  H   H182      1.0  0.37389  0.17988  0.58508  1.0000
  H   H183      1.0  0.36536  0.22846  0.62914  1.0000
  H   H184      1.0  0.33771  0.07915  0.71867  1.0000
  H   H185      1.0  0.02412  0.05876  0.70028  1.0000
  C   C147      1.0  0.09898  0.21530  0.69392  1.0000
  H   H186      1.0  0.05661  0.17708  0.71868  1.0000
  H   H187      1.0  0.09777  0.24408  0.72043  1.0000
  C   C148      1.0  0.01067  0.08648  0.73609  1.0000
  H   H188      1.0  0.01226  0.21773  0.61265  1.0000
  H   H189      1.0  0.11469  0.10922  0.70041  1.0000
  H   H190      1.0  0.31636  0.13153  0.68811  1.0000
  C   C149      1.0  0.00604  0.07714  0.72080  1.0000
  H   H191      1.0  0.04944  0.01537  0.69518  1.0000
  H   H192      1.0  0.07325  0.14680  0.70895  1.0000
  H   H193      1.0  0.19019  0.06142  0.73923  1.0000
  C   C150      1.0  0.32681  0.09607  0.71209  1.0000
  H   H194      1.0  0.35601  0.06170  0.69159  1.0000
  H   H195      1.0  0.12286  0.22531  0.73046  1.0000
  C   C151      1.0  0.02123  0.22720  0.71858  1.0000
  C   C152      1.0  0.02920  0.06535  0.71211  1.0000
  Fe  Fe21      1.0  0.03472  0.17679  0.66069  1.0000
  H   H196      1.0  0.08509  0.16169  0.72780  1.0000
  H   H197      1.0  0.11960  0.24082  0.68763  1.0000
  C   C153      1.0  0.06673  0.27816  0.61982  1.0000
  C   C154      1.0  0.06209  0.07296  0.73416  1.0000
  C   C155      1.0  0.27639  0.01874  0.68794  1.0000
  N   N12       1.0  0.02918  0.26652  0.62535  1.0000
  C   C156      1.0  0.34479  0.08072  0.68692  1.0000
  H   H198      1.0  0.06495  0.99829  0.72152  1.0000
  H   H199      1.0  0.05637  0.31756  0.59847  1.0000
  H   H200      1.0  0.27427  0.10024  0.69744  1.0000
  C   C157      1.0  0.28796  0.04045  0.70063  1.0000
  H   H201      1.0  0.99919  0.20314  0.69813  1.0000
  C   C158      1.0  0.01246  0.22580  0.62491  1.0000
  C   C159      1.0  0.99858  0.19919  0.71067  1.0000
  H   H202      1.0  0.04694  0.00163  0.64064  1.0000
  H   H203      1.0  0.17550  0.01658  0.69461  1.0000
  H   H204      1.0  0.09426  0.03100  0.68758  1.0000
  H   H205      1.0  0.31440  0.46127  0.49310  1.0000
  H   H206      1.0  0.10808  0.01340  0.71135  1.0000
  C   C160      1.0  0.17425  0.01273  0.70711  1.0000
  H   H207      1.0  0.13420  0.00201  0.67680  1.0000
  H   H208      1.0  0.99857  0.26402  0.64756  1.0000
  S   S43       1.0  0.14495  0.99740  0.64336  1.0000
  H   H209      1.0  0.08396  0.07296  0.73971  1.0000
  C   C161      1.0  0.16941  0.00185  0.73970  1.0000
  H   H210      1.0  0.99729  0.99627  0.62935  1.0000
  H   H211      1.0  0.07341  0.30072  0.77263  1.0000
  H   H212      1.0  0.12824  0.39278  0.82513  1.0000
  N   N13       1.0  0.35644  0.43540  0.92119  1.0000
  H   H213      1.0  0.44409  0.42502  0.97175  1.0000
  Fe  Fe22      1.0  0.06461  0.22653  0.76424  1.0000
  S   S44       1.0  0.04151  0.22171  0.78926  1.0000
  S   S45       1.0  0.25169  0.46927  0.88147  1.0000
  Fe  Fe23      1.0  0.10856  0.18471  0.77126  1.0000
  S   S46       1.0  0.09081  0.17777  0.79708  1.0000
  S   S47       1.0  0.13978  0.15488  0.76020  1.0000
  C   C162      1.0  0.11958  0.37812  0.81455  1.0000
  Fe  Fe24      1.0  0.09621  0.23654  0.79439  1.0000
  S   S48       1.0  0.11106  0.27370  0.81399  1.0000
  C   C163      1.0  0.17604  0.48772  0.96555  1.0000
  S   S49       1.0  0.11981  0.24555  0.76911  1.0000
  Fe  Fe25      1.0  0.27239  0.43107  0.82750  1.0000
  S   S50       1.0  0.22824  0.44102  0.84034  1.0000
  S   S51       1.0  0.26751  0.37792  0.81708  1.0000
  S   S52       1.0  0.05238  0.25505  0.74418  1.0000
  H   H214      1.0  0.39684  0.42376  0.86984  1.0000
  S   S53       1.0  0.05545  0.16666  0.76416  1.0000
  H   H215      1.0  0.02608  0.02241  0.76911  1.0000
  H   H216      1.0  0.11306  0.43288  0.79634  1.0000
  Fe  Fe26      1.0  0.26753  0.47400  0.85548  1.0000
  C   C164      1.0  0.43404  0.43173  0.98277  1.0000
  S   S54       1.0  0.31038  0.45955  0.84403  1.0000
  H   H217      1.0  0.99686  0.18517  0.75568  1.0000
  C   C165      1.0  0.22445  0.34697  0.81666  1.0000
  C   C166      1.0  0.19849  0.34516  0.82853  1.0000
  C   C167      1.0  0.16393  0.32156  0.82780  1.0000
  C   C168      1.0  0.15505  0.30013  0.81506  1.0000
  C   C169      1.0  0.18105  0.30117  0.80334  1.0000
  C   C170      1.0  0.21582  0.32437  0.80423  1.0000
  H   H218      1.0  0.20509  0.36157  0.83840  1.0000
  H   H219      1.0  0.14396  0.32026  0.83705  1.0000
  H   H220      1.0  0.17436  0.28445  0.79355  1.0000
  H   H221      1.0  0.23594  0.32551  0.79509  1.0000
  C   C171      1.0  0.12059  0.10867  0.76812  1.0000
  C   C172      1.0  0.09024  0.09714  0.77869  1.0000
  C   C173      1.0  0.07804  0.06293  0.78738  1.0000
  C   C174      1.0  0.09537  0.03934  0.78517  1.0000
  C   C175      1.0  0.12407  0.04923  0.77361  1.0000
  C   C176      1.0  0.13693  0.08423  0.76515  1.0000
  H   H222      1.0  0.07677  0.11510  0.78074  1.0000
  H   H223      1.0  0.05580  0.05538  0.79629  1.0000
  H   H224      1.0  0.13756  0.03099  0.77188  1.0000
  H   H225      1.0  0.16038  0.09300  0.75692  1.0000
  H   H226      1.0  0.40433  0.43388  0.89728  1.0000
  H   H227      1.0  0.10533  0.33178  0.74704  1.0000
  S   S55       1.0  0.13844  0.47454  0.95624  1.0000
  H   H228      1.0  0.34144  0.41544  0.86018  1.0000
  H   H229      1.0  0.12074  0.35058  0.81640  1.0000
  C   C177      1.0  0.37945  0.42983  0.89366  1.0000
  H   H230      1.0  0.23166  0.23534  0.82506  1.0000
  H   H231      1.0  0.18888  0.26129  0.83383  1.0000
  Fe  Fe27      1.0  0.03804  0.16345  0.78981  1.0000
  C   C178      1.0  0.31731  0.42177  0.88255  1.0000
  H   H232      1.0  0.39755  0.41554  0.92251  1.0000
  C   C179      1.0  0.44895  0.99070  0.98778  1.0000
  C   C180      1.0  0.03842  0.08405  0.74281  1.0000
  S   S56       1.0  0.39317  0.45401  0.96567  1.0000
  C   C181      1.0  0.37032  0.40906  0.92752  1.0000
  C   C182      1.0  0.09456  0.32771  0.77214  1.0000
  C   C183      1.0  0.13129  0.37996  0.78559  1.0000
  H   H233      1.0  0.09198  0.37389  0.81433  1.0000
  H   H234      1.0  0.38541  0.47891  0.93492  1.0000
  C   C184      1.0  0.35189  0.43039  0.90448  1.0000
  C   C185      1.0  0.32362  0.42918  0.93134  1.0000
  N   N14       1.0  0.14606  0.11891  0.81978  1.0000
  C   C186      1.0  0.16022  0.09815  0.82980  1.0000
  C   C187      1.0  0.10778  0.09826  0.82158  1.0000
  C   C188      1.0  0.15947  0.11893  0.80315  1.0000
  C   C189      1.0  0.15715  0.15757  0.82408  1.0000
  C   C190      1.0  0.19300  0.18089  0.82281  1.0000
  C   C191      1.0  0.13327  0.17345  0.82927  1.0000
  C   C192      1.0  0.20419  0.21780  0.82635  1.0000
  C   C193      1.0  0.14479  0.21044  0.83274  1.0000
  C   C194      1.0  0.18013  0.23252  0.83129  1.0000
  H   H235      1.0  0.15166  0.09860  0.84245  1.0000
  H   H236      1.0  0.15142  0.06858  0.82715  1.0000
  H   H237      1.0  0.18903  0.10963  0.82807  1.0000
  H   H238      1.0  0.09538  0.11126  0.81378  1.0000
  H   H239      1.0  0.09585  0.09634  0.83391  1.0000
  H   H240      1.0  0.10038  0.06923  0.81833  1.0000
  H   H241      1.0  0.18823  0.13053  0.80096  1.0000
  H   H242      1.0  0.15053  0.09041  0.79927  1.0000
  H   H243      1.0  0.15061  0.13568  0.79529  1.0000
  H   H244      1.0  0.21268  0.17088  0.81887  1.0000
  H   H245      1.0  0.10551  0.15821  0.83047  1.0000
  C   C195      1.0  0.13930  0.43560  0.79877  1.0000
  H   H246      1.0  0.12616  0.22235  0.83627  1.0000
  C   C196      1.0  0.17797  0.40452  0.80148  1.0000
  H   H247      1.0  0.08892  0.32885  0.79674  1.0000
  H   H248      1.0  0.20294  0.46520  0.94902  1.0000
  C   C197      1.0  0.34440  0.41989  0.87240  1.0000
  H   H249      1.0  0.35416  0.38011  0.92529  1.0000
  H   H250      1.0  0.15868  0.45517  0.78942  1.0000
  H   H251      1.0  0.17082  0.42357  0.76948  1.0000
  H   H252      1.0  0.18611  0.41639  0.81267  1.0000
  H   H253      1.0  0.31348  0.45059  0.92849  1.0000
  C   C198      1.0  0.10371  0.34451  0.78595  1.0000
  C   C199      1.0  0.32089  0.42718  0.89835  1.0000
  C   C200      1.0  0.13999  0.37973  0.75690  1.0000
  C   C201      1.0  0.37555  0.42434  0.87789  1.0000
  C   C202      1.0  0.20453  0.48035  0.95934  1.0000
  H   H254      1.0  0.18129  0.37786  0.80120  1.0000
  H   H255      1.0  0.37092  0.40975  0.94043  1.0000
  H   H256      1.0  0.30330  0.40132  0.93026  1.0000
  H   H257      1.0  0.14453  0.44951  0.80983  1.0000
  C   C203      1.0  0.40824  0.44590  0.98313  1.0000
  H   H258      1.0  0.19689  0.42388  0.79195  1.0000
  C   C204      1.0  0.14927  0.39692  0.77063  1.0000
  N   N15       1.0  0.14163  0.39896  0.79991  1.0000
  C   C205      1.0  0.11261  0.34522  0.75766  1.0000
  H   H259      1.0  0.04201  0.09144  0.75471  1.0000
  S   S57       1.0  0.28895  0.48133  0.81061  1.0000
  H   H260      1.0  0.32741  0.43072  0.94397  1.0000
  H   H261      1.0  0.17067  0.48137  0.92105  1.0000
  H   H262      1.0  0.29339  0.41937  0.87814  1.0000
  C   C206      1.0  0.38132  0.47372  0.92251  1.0000
  H   H263      1.0  0.40723  0.47975  0.91590  1.0000
  H   H264      1.0  0.25448  0.48072  0.91416  1.0000
  H   H265      1.0  0.29903  0.42900  0.90543  1.0000
  H   H266      1.0  0.15413  0.39312  0.74560  1.0000
  S   S58       1.0  0.99611  0.11395  0.80352  1.0000
  H   H267      1.0  0.46004  0.02060  0.98726  1.0000
  H   H268      1.0  0.25735  0.48787  0.96144  1.0000
  C   C207      1.0  0.99970  0.00696  0.77557  1.0000
  C   C208      1.0  0.99741  0.18910  0.74312  1.0000
  H   H269      1.0  0.00130  0.01100  0.78827  1.0000
  H   H270      1.0  0.16801  0.99777  0.75228  1.0000
  S   S59       1.0  0.08267  0.00014  0.79835  1.0000
  H   H271      1.0  0.99445  0.40395  0.98611  1.0000
  H   H272      1.0  0.20041  0.48951  0.86848  1.0000
  C   C209      1.0  0.40314  0.96896  0.07993  1.0000
  C   C210      1.0  0.02919  0.77782  0.20321  1.0000
  C   C211      1.0  0.05465  0.82849  0.21908  1.0000
  C   C212      1.0  0.42331  0.67441  0.00322  1.0000
  Fe  Fe28      1.0  0.04046  0.95597  0.19459  1.0000
  H   H273      1.0  0.24346  0.57630  0.01988  1.0000
  H   H274      1.0  0.20970  0.53406  0.99647  1.0000
  H   H275      1.0  0.09501  0.78700  0.19504  1.0000
  C   C213      1.0  0.06970  0.83996  0.19115  1.0000
  H   H276      1.0  0.42200  0.95640  0.08204  1.0000
  H   H277      1.0  0.28019  0.60195  0.02967  1.0000
  H   H278      1.0  0.38263  0.95995  0.09022  1.0000
  C   C214      1.0  0.01849  0.74706  0.21455  1.0000
  S   S60       1.0  0.02272  0.90190  0.20932  1.0000
  H   H279      1.0  0.08792  0.78332  0.21608  1.0000
  C   C215      1.0  0.42618  0.93113  0.00282  1.0000
  H   H280      1.0  0.02942  0.83169  0.21994  1.0000
  H   H281      1.0  0.42006  0.91489  0.01398  1.0000
  C   C216      1.0  0.26178  0.65229  0.01685  1.0000
  C   C217      1.0  0.31552  0.64913  0.00353  1.0000
  H   H282      1.0  0.03224  0.74798  0.22456  1.0000
  H   H283      1.0  0.11515  0.82658  0.20582  1.0000
  H   H284      1.0  0.20917  0.60931  0.02023  1.0000
  H   H285      1.0  0.45442  0.51085  0.02196  1.0000
  H   H286      1.0  0.05386  0.81143  0.22981  1.0000
  S   S61       1.0  0.37711  0.74685  0.00008  1.0000
  H   H287      1.0  0.01788  0.89120  0.17673  1.0000
  C   C218      1.0  0.28108  0.68963  0.01975  1.0000
  H   H288      1.0  0.28022  0.73903  0.02934  1.0000
  H   H289      1.0  0.48854  0.59447  0.99547  1.0000
  C   C219      1.0  0.22951  0.69483  0.03261  1.0000
  C   C220      1.0  0.09091  0.80162  0.20539  1.0000
  C   C221      1.0  0.26502  0.71042  0.02751  1.0000
  C   C222      1.0  0.46451  0.54045  0.01748  1.0000
  H   H290      1.0  0.04931  0.85102  0.19063  1.0000
  N   N16       1.0  0.27748  0.62977  0.00815  1.0000
  H   H291      1.0  0.07533  0.85637  0.21971  1.0000
  N   N17       1.0  0.06053  0.81149  0.20456  1.0000
  H   H292      1.0  0.43332  0.66297  0.01222  1.0000
  C   C223      1.0  0.20991  0.65825  0.03006  1.0000
  H   H293      1.0  0.40829  0.70913  0.01859  1.0000
  H   H294      1.0  0.32194  0.67432  0.99543  1.0000
  H   H295      1.0  0.30856  0.70370  0.01596  1.0000
  C   C224      1.0  0.22572  0.63717  0.02237  1.0000
  H   H296      1.0  0.21707  0.71127  0.03835  1.0000
  H   H297      1.0  0.09392  0.86442  0.19224  1.0000
  H   H298      1.0  0.07376  0.82873  0.17979  1.0000
  H   H299      1.0  0.32959  0.65744  0.01392  1.0000
  C   C225      1.0  0.99612  0.86936  0.18346  1.0000
  H   H300      1.0  0.03893  0.96724  0.23443  1.0000
  H   H301      1.0  0.39051  0.95685  0.06954  1.0000
  S   S62       1.0  0.05096  0.96499  0.16837  1.0000
  C   C226      1.0  0.27129  0.59546  0.01799  1.0000
  H   H302      1.0  0.18212  0.64638  0.03364  1.0000
  H   H303      1.0  0.46534  0.55737  0.02761  1.0000
  H   H304      1.0  0.32670  0.63132  0.99720  1.0000
  H   H305      1.0  0.28540  0.57938  0.01246  1.0000
  C   C227      1.0  0.44112  0.96988  0.00225  1.0000
  S   S63       1.0  0.00007  0.97960  0.19646  1.0000
  C   C228      1.0  0.40916  0.70050  0.00682  1.0000
  H   H306      1.0  0.44481  0.54313  0.01037  1.0000
  C   C229      1.0  0.39635  0.71559  0.99521  1.0000
  C   C230      1.0  0.26135  0.61967  0.99357  1.0000
  H   H307      1.0  0.23288  0.60324  0.99591  1.0000
  H   H308      1.0  0.23049  0.68490  0.99684  1.0000
  C   C231      1.0  0.00776  0.77496  0.19117  1.0000
  H   H309      1.0  0.01301  0.79722  0.18229  1.0000
  H   H310      1.0  0.49255  0.52131  0.03911  1.0000
  H   H311      1.0  0.49147  0.50002  0.99904  1.0000
  H   H312      1.0  0.14056  0.59390  0.38437  1.0000
  C   C232      1.0  0.10858  0.93690  0.36331  1.0000
  S   S64       1.0  0.22109  0.54651  0.30215  1.0000
  C   C233      1.0  0.29161  0.62654  0.34760  1.0000
  S   S65       1.0  0.28577  0.51208  0.48359  1.0000
  H   H313      1.0  0.33559  0.59181  0.47828  1.0000
  Fe  Fe29      1.0  0.22456  0.69549  0.35445  1.0000
  S   S66       1.0  0.24592  0.73089  0.33176  1.0000
  S   S67       1.0  0.19009  0.63478  0.35734  1.0000
  Fe  Fe30      1.0  0.26038  0.75834  0.37380  1.0000
  S   S68       1.0  0.28507  0.79948  0.35283  1.0000
  S   S69       1.0  0.26660  0.77090  0.39881  1.0000
  Fe  Fe31      1.0  0.23312  0.77362  0.34430  1.0000
  S   S70       1.0  0.21203  0.80890  0.33108  1.0000
  Fe  Fe32      1.0  0.29583  0.75339  0.34217  1.0000
  S   S71       1.0  0.34461  0.76250  0.32623  1.0000
  S   S72       1.0  0.20723  0.73623  0.36625  1.0000
  S   S73       1.0  0.27558  0.71421  0.36391  1.0000
  Fe  Fe33      1.0  0.05590  0.84576  0.29394  1.0000
  S   S74       1.0  0.09766  0.90311  0.28915  1.0000
  S   S75       1.0  0.05583  0.72895  0.31943  1.0000
  S   S76       1.0  0.06393  0.79868  0.28287  1.0000
  H   H314      1.0  0.16019  0.53561  0.42277  1.0000
  S   S77       1.0  0.44336  0.63575  0.33811  1.0000
  S   S78       1.0  0.42552  0.62218  0.29562  1.0000
  H   H315      1.0  0.20933  0.57606  0.40191  1.0000
  S   S79       1.0  0.46091  0.72658  0.35492  1.0000
  C   C234      1.0  0.06392  0.94774  0.32550  1.0000
  C   C235      1.0  0.32332  0.50608  0.47581  1.0000
  C   C236      1.0  0.31991  0.50483  0.40772  1.0000
  Fe  Fe34      1.0  0.43377  0.86628  0.43224  1.0000
  S   S80       1.0  0.42181  0.86772  0.40740  1.0000
  H   H316      1.0  0.38103  0.60382  0.47795  1.0000
  S   S81       1.0  0.43534  0.81335  0.44160  1.0000
  H   H317      1.0  0.18699  0.91220  0.30285  1.0000
  C   C237      1.0  0.12916  0.86450  0.32026  1.0000
  H   H318      1.0  0.34808  0.52464  0.42717  1.0000
  C   C238      1.0  0.25486  0.53711  0.39795  1.0000
  Fe  Fe35      1.0  0.25916  0.56180  0.43413  1.0000
  H   H319      1.0  0.10651  0.56953  0.39998  1.0000
  C   C239      1.0  0.46084  0.65326  0.38790  1.0000
  C   C240      1.0  0.48373  0.74040  0.40967  1.0000
  H   H320      1.0  0.12268  0.98626  0.34794  1.0000
  C   C241      1.0  0.13063  0.56972  0.39329  1.0000
  C   C242      1.0  0.30914  0.80077  0.40088  1.0000
  C   C243      1.0  0.31732  0.81354  0.41553  1.0000
  C   C244      1.0  0.35196  0.83407  0.41770  1.0000
  C   C245      1.0  0.37817  0.84329  0.40501  1.0000
  C   C246      1.0  0.36969  0.83217  0.39019  1.0000
  C   C247      1.0  0.33537  0.81024  0.38820  1.0000
  H   H321      1.0  0.29701  0.80657  0.42534  1.0000
  H   H322      1.0  0.35830  0.84300  0.42913  1.0000
  H   H323      1.0  0.38964  0.84023  0.38024  1.0000
  H   H324      1.0  0.32928  0.80063  0.37686  1.0000
  C   C248      1.0  0.42773  0.73489  0.34694  1.0000
  C   C249      1.0  0.39948  0.73551  0.35683  1.0000
  C   C250      1.0  0.37362  0.74375  0.35060  1.0000
  C   C251      1.0  0.37607  0.75146  0.33442  1.0000
  C   C252      1.0  0.40416  0.75049  0.32452  1.0000
  C   C253      1.0  0.42980  0.74189  0.33075  1.0000
  H   H325      1.0  0.39736  0.72934  0.36928  1.0000
  H   H326      1.0  0.35207  0.74458  0.35829  1.0000
  H   H327      1.0  0.40608  0.75644  0.31199  1.0000
  H   H328      1.0  0.45154  0.74152  0.32303  1.0000
  C   C254      1.0  0.16865  0.78623  0.32799  1.0000
  C   C255      1.0  0.14439  0.76047  0.33944  1.0000
  C   C256      1.0  0.10961  0.74308  0.33681  1.0000
  C   C257      1.0  0.09903  0.75175  0.32283  1.0000
  C   C258      1.0  0.12329  0.77764  0.31143  1.0000
  C   C259      1.0  0.15806  0.79485  0.31402  1.0000
  H   H329      1.0  0.15238  0.75421  0.35036  1.0000
  H   H330      1.0  0.09081  0.72322  0.34570  1.0000
  H   H331      1.0  0.11537  0.78402  0.30052  1.0000
  H   H332      1.0  0.17685  0.81465  0.30511  1.0000
  H   H333      1.0  0.14322  0.57884  0.43626  1.0000
  C   C260      1.0  0.34031  0.52629  0.30218  1.0000
  C   C261      1.0  0.36368  0.56252  0.29702  1.0000
  C   C262      1.0  0.39749  0.57587  0.30101  1.0000
  C   C263      1.0  0.40826  0.55251  0.30970  1.0000
  C   C264      1.0  0.38544  0.51572  0.31417  1.0000
  H   H334      1.0  0.31403  0.51633  0.29929  1.0000
  H   H335      1.0  0.35545  0.58033  0.29008  1.0000
  H   H336      1.0  0.43446  0.56252  0.31266  1.0000
  C   C265      1.0  0.35365  0.64611  0.34726  1.0000
  C   C266      1.0  0.21153  0.57060  0.31742  1.0000
  C   C267      1.0  0.21984  0.60851  0.31480  1.0000
  C   C268      1.0  0.21347  0.62840  0.32704  1.0000
  C   C269      1.0  0.19839  0.61036  0.34191  1.0000
  C   C270      1.0  0.18989  0.57238  0.34452  1.0000
  C   C271      1.0  0.19690  0.55263  0.33235  1.0000
  H   H337      1.0  0.23144  0.62258  0.30331  1.0000
  H   H338      1.0  0.22003  0.65756  0.32483  1.0000
  H   H339      1.0  0.17844  0.55824  0.35602  1.0000
  H   H340      1.0  0.19082  0.52347  0.33455  1.0000
  C   C272      1.0  0.07264  0.95181  0.25624  1.0000
  C   C273      1.0  0.18826  0.57185  0.39446  1.0000
  H   H341      1.0  0.16182  0.57312  0.29164  1.0000
  H   H342      1.0  0.05671  0.89301  0.31940  1.0000
  C   C274      1.0  0.46963  0.76620  0.41349  1.0000
  H   H343      1.0  0.46235  0.54299  0.39229  1.0000
  C   C275      1.0  0.07812  0.51699  0.48746  1.0000
  N   N18       1.0  0.35755  0.51177  0.36468  1.0000
  C   C276      1.0  0.35432  0.51510  0.38181  1.0000
  H   H344      1.0  0.13269  0.53397  0.47921  1.0000
  N   N19       1.0  0.12387  0.64930  0.32268  1.0000
  C   C277      1.0  0.10795  0.61728  0.33471  1.0000
  C   C278      1.0  0.14910  0.68007  0.33007  1.0000
  C   C279      1.0  0.09586  0.66038  0.31839  1.0000
  C   C280      1.0  0.14167  0.64134  0.30840  1.0000
  C   C281      1.0  0.14296  0.60617  0.30638  1.0000
  C   C282      1.0  0.15862  0.66944  0.29595  1.0000
  C   C283      1.0  0.16028  0.59986  0.29275  1.0000
  C   C284      1.0  0.17603  0.66286  0.28242  1.0000
  C   C285      1.0  0.17691  0.62815  0.28085  1.0000
  H   H345      1.0  0.12793  0.60842  0.33886  1.0000
  H   H346      1.0  0.09496  0.62430  0.34530  1.0000
  H   H347      1.0  0.08780  0.59336  0.33013  1.0000
  H   H348      1.0  0.17146  0.67358  0.33268  1.0000
  H   H349      1.0  0.13725  0.68547  0.34137  1.0000
  H   H350      1.0  0.15966  0.70658  0.32253  1.0000
  H   H351      1.0  0.07716  0.63874  0.31212  1.0000
  H   H352      1.0  0.08089  0.66532  0.32887  1.0000
  H   H353      1.0  0.10598  0.68660  0.31065  1.0000
  H   H354      1.0  0.13158  0.58324  0.31528  1.0000
  H   H355      1.0  0.15876  0.69687  0.29667  1.0000
  S   S82       1.0  0.25508  0.49791  0.33085  1.0000
  S   S83       1.0  0.47280  0.57143  0.36007  1.0000
  S   S84       1.0  0.48836  0.90145  0.43610  1.0000
  C   C286      1.0  0.16507  0.60521  0.41236  1.0000
  C   C287      1.0  0.15670  0.60439  0.42886  1.0000
  C   C288      1.0  0.18223  0.64069  0.40400  1.0000
  C   C289      1.0  0.16682  0.63702  0.43650  1.0000
  C   C290      1.0  0.19175  0.67313  0.41173  1.0000
  C   C291      1.0  0.18440  0.67127  0.42797  1.0000
  S   S85       1.0  0.48018  0.95846  0.47308  1.0000
  C   C292      1.0  0.37421  0.54917  0.35619  1.0000
  H   H356      1.0  0.16131  0.63567  0.44918  1.0000
  H   H357      1.0  0.20498  0.69993  0.40509  1.0000
  H   H358      1.0  0.19228  0.69645  0.43396  1.0000
  N   N20       1.0  0.31238  0.69973  0.42104  1.0000
  C   C293      1.0  0.27977  0.66596  0.42423  1.0000
  C   C294      1.0  0.30618  0.72955  0.42917  1.0000
  C   C295      1.0  0.31930  0.71103  0.40399  1.0000
  C   C296      1.0  0.34176  0.69231  0.42615  1.0000
  C   C297      1.0  0.36513  0.71562  0.43580  1.0000
  C   C298      1.0  0.39181  0.70704  0.44085  1.0000
  H   H359      1.0  0.27558  0.65474  0.43668  1.0000
  H   H360      1.0  0.25659  0.67163  0.42219  1.0000
  H   H361      1.0  0.27950  0.64365  0.41667  1.0000
  H   H362      1.0  0.30087  0.72292  0.44203  1.0000
  H   H363      1.0  0.28338  0.73394  0.42552  1.0000
  H   H364      1.0  0.32869  0.75648  0.42660  1.0000
  H   H365      1.0  0.32445  0.69020  0.39702  1.0000
  H   H366      1.0  0.29679  0.71489  0.39968  1.0000
  H   H367      1.0  0.34192  0.73799  0.40125  1.0000
  H   H368      1.0  0.36300  0.74028  0.43996  1.0000
  H   H369      1.0  0.40891  0.72502  0.44840  1.0000
  H   H370      1.0  0.37560  0.62801  0.31834  1.0000
  H   H371      1.0  0.42029  0.68689  0.38879  1.0000
  C   C299      1.0  0.00077  0.92235  0.26875  1.0000
  H   H372      1.0  0.39446  0.54285  0.44815  1.0000
  C   C300      1.0  0.48755  0.56561  0.38996  1.0000
  C   C301      1.0  0.43484  0.70819  0.39585  1.0000
  H   H373      1.0  0.26206  0.61799  0.37039  1.0000
  H   H374      1.0  0.11819  0.84013  0.32910  1.0000
  H   H375      1.0  0.37605  0.54778  0.34322  1.0000
  H   H376      1.0  0.38082  0.67579  0.31596  1.0000
  Fe  Fe36      1.0  0.48128  0.69374  0.33895  1.0000
  N   N21       1.0  0.15651  0.57123  0.40393  1.0000
  C   C302      1.0  0.01966  0.96133  0.26600  1.0000
  H   H377      1.0  0.11682  0.53260  0.42144  1.0000
  C   C303      1.0  0.28245  0.69134  0.47089  1.0000
  C   C304      1.0  0.07876  0.98554  0.32065  1.0000
  H   H378      1.0  0.12350  0.54453  0.38670  1.0000
  C   C305      1.0  0.12394  0.95929  0.34943  1.0000
  C   C306      1.0  0.24364  0.51106  0.37303  1.0000
  C   C307      1.0  0.43838  0.76317  0.40853  1.0000
  S   S86       1.0  0.38303  0.77889  0.48283  1.0000
  H   H379      1.0  0.32934  0.69090  0.31754  1.0000
  C   C308      1.0  0.36404  0.64693  0.31394  1.0000
  H   H380      1.0  0.25136  0.51223  0.36072  1.0000
  H   H381      1.0  0.36561  0.64564  0.30097  1.0000
  H   H382      1.0  0.37992  0.65500  0.34155  1.0000
  C   C309      1.0  0.34532  0.74655  0.47678  1.0000
  N   N22       1.0  0.32783  0.63611  0.32143  1.0000
  C   C310      1.0  0.18290  0.88382  0.33157  1.0000
  Fe  Fe37      1.0  0.46401  0.64272  0.31272  1.0000
  C   C311      1.0  0.34787  0.66099  0.42142  1.0000
  C   C312      1.0  0.14129  0.91122  0.33867  1.0000
  C   C313      1.0  0.12506  0.88901  0.35292  1.0000
  H   H383      1.0  0.36527  0.63935  0.47436  1.0000
  C   C314      1.0  0.22353  0.50964  0.40505  1.0000
  H   H384      1.0  0.33177  0.64249  0.41381  1.0000
  S   S87       1.0  0.24287  0.65761  0.46705  1.0000
  Fe  Fe38      1.0  0.03726  0.76618  0.30586  1.0000
  H   H385      1.0  0.42502  0.81258  0.36478  1.0000
  Fe  Fe39      1.0  0.01007  0.78356  0.27657  1.0000
  H   H386      1.0  0.37746  0.62746  0.42343  1.0000
  Fe  Fe40      1.0  0.48576  0.62510  0.46381  1.0000
  H   H387      1.0  0.10028  0.96554  0.25096  1.0000
  H   H388      1.0  0.28911  0.55850  0.37637  1.0000
  H   H389      1.0  0.40989  0.54388  0.38255  1.0000
  C   C315      1.0  0.39614  0.67527  0.43653  1.0000
  Fe  Fe41      1.0  0.41577  0.82578  0.46488  1.0000
  S   S88       1.0  0.28957  0.59074  0.45301  1.0000
  H   H390      1.0  0.13860  0.85520  0.30935  1.0000
  C   C316      1.0  0.37429  0.65235  0.42675  1.0000
  S   S89       1.0  0.03316  0.81458  0.31751  1.0000
  S   S90       1.0  0.00449  0.83365  0.28563  1.0000
  H   H391      1.0  0.07235  0.93925  0.26808  1.0000
  S   S91       1.0  0.28173  0.57103  0.40882  1.0000
  C   C317      1.0  0.26478  0.53777  0.38191  1.0000
  H   H392      1.0  0.15644  0.93258  0.30643  1.0000
  H   H393      1.0  0.09686  0.88429  0.37583  1.0000
  H   H394      1.0  0.20288  0.90630  0.33694  1.0000
  H   H395      1.0  0.49202  0.87609  0.39468  1.0000
  S   S92       1.0  0.21541  0.57874  0.44065  1.0000
  H   H396      1.0  0.41644  0.66851  0.44084  1.0000
  C   C318      1.0  0.06901  0.92219  0.31573  1.0000
  C   C319      1.0  0.17487  0.92391  0.31215  1.0000
  C   C320      1.0  0.34578  0.52885  0.46298  1.0000
  H   H397      1.0  0.28686  0.65530  0.31899  1.0000
  H   H398      1.0  0.19084  0.62319  0.27046  1.0000
  C   C321      1.0  0.10651  0.51615  0.47756  1.0000
  N   N23       1.0  0.15693  0.89643  0.32583  1.0000
  H   H399      1.0  0.19589  0.94885  0.31561  1.0000
  C   C322      1.0  0.38439  0.53274  0.38925  1.0000
  C   C323      1.0  0.37689  0.52491  0.45788  1.0000
  H   H400      1.0  0.39426  0.49741  0.32042  1.0000
  H   H401      1.0  0.46837  0.78805  0.46415  1.0000
  H   H402      1.0  0.26843  0.61892  0.34194  1.0000
  H   H403      1.0  0.17111  0.85959  0.34043  1.0000
  H   H404      1.0  0.47199  0.84053  0.34204  1.0000
  H   H405      1.0  0.40668  0.50566  0.36284  1.0000
  H   H406      1.0  0.27944  0.58846  0.32166  1.0000
  H   H407      1.0  0.01122  0.90284  0.26457  1.0000
  C   C324      1.0  0.09058  0.93460  0.30145  1.0000
  C   C325      1.0  0.30737  0.59830  0.31716  1.0000
  S   S93       1.0  0.99795  0.77279  0.25203  1.0000
  H   H408      1.0  0.19663  0.87459  0.32194  1.0000
  C   C326      1.0  0.42092  0.73406  0.39987  1.0000
  C   C327      1.0  0.47582  0.87938  0.36589  1.0000
  H   H409      1.0  0.19836  0.59407  0.38470  1.0000
  H   H410      1.0  0.18914  0.68491  0.27317  1.0000
  Fe  Fe42      1.0  0.19125  0.52553  0.45585  1.0000
  H   H411      1.0  0.13664  0.51145  0.40785  1.0000
  C   C328      1.0  0.34993  0.52214  0.41463  1.0000
  H   H412      1.0  0.04841  0.93828  0.33681  1.0000
  H   H413      1.0  0.31080  0.65632  0.46877  1.0000
  C   C329      1.0  0.28445  0.72691  0.47365  1.0000
  H   H414      1.0  0.40554  0.54896  0.41089  1.0000
  C   C330      1.0  0.14003  0.94681  0.33723  1.0000
  H   H415      1.0  0.39647  0.73168  0.39622  1.0000
  Fe  Fe43      1.0  0.24288  0.60258  0.46100  1.0000
  H   H416      1.0  0.43494  0.63685  0.39462  1.0000
  C   C331      1.0  0.35125  0.50278  0.31068  1.0000
  H   H417      1.0  0.44646  0.78633  0.37337  1.0000
  H   H418      1.0  0.31639  0.66263  0.30159  1.0000
  C   C332      1.0  0.31445  0.66223  0.31461  1.0000
  H   H419      1.0  0.10734  0.87185  0.31755  1.0000
  H   H420      1.0  0.12415  0.86128  0.35467  1.0000
  H   H421      1.0  0.31318  0.63328  0.38463  1.0000
  H   H422      1.0  0.18838  0.64366  0.39137  1.0000
  C   C333      1.0  0.34339  0.71107  0.47397  1.0000
  C   C334      1.0  0.32467  0.63650  0.33872  1.0000
  H   H423      1.0  0.12443  0.98234  0.28612  1.0000
  S   S94       1.0  0.21534  0.55055  0.47696  1.0000
  Fe  Fe44      1.0  0.46850  0.54613  0.45770  1.0000
  C   C335      1.0  0.31591  0.75457  0.47646  1.0000
  C   C336      1.0  0.38217  0.53598  0.40543  1.0000
  S   S95       1.0  0.42342  0.49156  0.45899  1.0000
  H   H424      1.0  0.33952  0.54987  0.45721  1.0000
  H   H425      1.0  0.06034  0.92918  0.24868  1.0000
  H   H426      1.0  0.44004  0.72320  0.47474  1.0000
  S   S96       1.0  0.23366  0.50647  0.44782  1.0000
  H   H427      1.0  0.31715  0.78179  0.47891  1.0000
  H   H428      1.0  0.26160  0.73307  0.47365  1.0000
  Fe  Fe45      1.0  0.46386  0.90734  0.45976  1.0000
  C   C337      1.0  0.34942  0.64494  0.36364  1.0000
  C   C338      1.0  0.44491  0.81387  0.37257  1.0000
  C   C339      1.0  0.28771  0.62596  0.36393  1.0000
  C   C340      1.0  0.14190  0.53642  0.41448  1.0000
  H   H429      1.0  0.40123  0.56420  0.35873  1.0000
  C   C341      1.0  0.10913  0.90182  0.36506  1.0000
  C   C342      1.0  0.46379  0.73211  0.46669  1.0000
  H   H430      1.0  0.43547  0.81859  0.38453  1.0000
  H   H431      1.0  0.35934  0.56638  0.35938  1.0000
  H   H432      1.0  0.46203  0.88370  0.37688  1.0000
  H   H433      1.0  0.45742  0.66406  0.37630  1.0000
  Fe  Fe46      1.0  0.26025  0.53667  0.46742  1.0000
  C   C343      1.0  0.35974  0.61311  0.48155  1.0000
  S   S97       1.0  0.40870  0.87594  0.45516  1.0000
  H   H434      1.0  0.42759  0.78336  0.41143  1.0000
  H   H435      1.0  0.21515  0.50927  0.41736  1.0000
  C   C344      1.0  0.38480  0.49721  0.46517  1.0000
  H   H436      1.0  0.31695  0.57789  0.32191  1.0000
  H   H437      1.0  0.18343  0.54555  0.38884  1.0000
  H   H438      1.0  0.45996  0.88168  0.35664  1.0000
  H   H439      1.0  0.30862  0.59690  0.30421  1.0000
  S   S98       1.0  0.46870  0.85802  0.47124  1.0000
  C   C345      1.0  0.31213  0.68364  0.47079  1.0000
  H   H440      1.0  0.36592  0.70464  0.47459  1.0000
  H   H441      1.0  0.37190  0.65219  0.36985  1.0000
  C   C346      1.0  0.31653  0.63488  0.37195  1.0000
  N   N24       1.0  0.47914  0.84310  0.36664  1.0000
  H   H442      1.0  0.46286  0.65366  0.41955  1.0000
  C   C347      1.0  0.00244  0.98394  0.27168  1.0000
  C   C348      1.0  0.46678  0.71055  0.40071  1.0000
  Fe  Fe47      1.0  0.48791  0.84903  0.44724  1.0000
  C   C349      1.0  0.47976  0.76899  0.46054  1.0000
  H   H443      1.0  0.48308  0.78874  0.42034  1.0000
  H   H444      1.0  0.00195  0.96006  0.34427  1.0000
  C   C350      1.0  0.32187  0.50104  0.39159  1.0000
  C   C351      1.0  0.48909  0.83633  0.35030  1.0000
  C   C352      1.0  0.47853  0.70706  0.46258  1.0000
  H   H445      1.0  0.30654  0.50752  0.36085  1.0000
  H   H446      1.0  0.47326  0.63349  0.38526  1.0000
  C   C353      1.0  0.04397  0.49390  0.48548  1.0000
  S   S99       1.0  0.45780  0.66123  0.47072  1.0000
  H   H447      1.0  0.15054  0.96530  0.32667  1.0000
  C   C354      1.0  0.10717  0.97260  0.29702  1.0000
  H   H448      1.0  0.48609  0.80722  0.34923  1.0000
  H   H449      1.0  0.09589  0.94667  0.37265  1.0000
  Fe  Fe48      1.0  0.48728  0.61971  0.34211  1.0000
  C   C355      1.0  0.48756  0.66647  0.41146  1.0000
  N   N25       1.0  0.05517  0.97810  0.25727  1.0000
  S   S100      1.0  0.47180  0.59488  0.44242  1.0000
  S   S101      1.0  0.47863  0.57537  0.47963  1.0000
  N   N26       1.0  0.48237  0.68365  0.39680  1.0000
  C   C356      1.0  0.10087  0.49210  0.46563  1.0000
  Fe  Fe49      1.0  0.22103  0.49307  0.31214  1.0000
  H   H450      1.0  0.29480  0.49454  0.41490  1.0000
  C   C357      1.0  0.37934  0.49072  0.36065  1.0000
  H   H451      1.0  0.32716  0.49067  0.34584  1.0000
  C   C358      1.0  0.32379  0.49248  0.35874  1.0000
  C   C359      1.0  0.39149  0.64376  0.50201  1.0000
  H   H452      1.0  0.04755  0.88233  0.66389  1.0000
  H   H453      1.0  0.01398  0.97554  0.67682  1.0000
  C   C360      1.0  0.34810  0.58221  0.50754  1.0000
  C   C361      1.0  0.29431  0.61025  0.50042  1.0000
  H   H454      1.0  0.36856  0.57124  0.50485  1.0000
  H   H455      1.0  0.25522  0.66847  0.51075  1.0000
  C   C362      1.0  0.06626  0.90847  0.66675  1.0000
  C   C363      1.0  0.23589  0.96742  0.70562  1.0000
  S   S102      1.0  0.00894  0.49526  0.49825  1.0000
  H   H456      1.0  0.02892  0.97069  0.60003  1.0000
  C   C364      1.0  0.00123  0.93764  0.73152  1.0000
  C   C365      1.0  0.11580  0.96634  0.65855  1.0000
  H   H457      1.0  0.15425  0.95333  0.70746  1.0000
  N   N27       1.0  0.02355  0.95938  0.62502  1.0000
  C   C366      1.0  0.33590  0.66750  0.50812  1.0000
  C   C367      1.0  0.27548  0.65805  0.50891  1.0000
  H   H458      1.0  0.01010  0.50485  0.55000  1.0000
  H   H459      1.0  0.36163  0.68671  0.50963  1.0000
  C   C368      1.0  0.32916  0.63206  0.50256  1.0000
  C   C369      1.0  0.11545  0.97589  0.67402  1.0000
  C   C370      1.0  0.09181  0.93214  0.65503  1.0000
  H   H460      1.0  0.31529  0.70784  0.51480  1.0000
  C   C371      1.0  0.06556  0.91834  0.68217  1.0000
  C   C372      1.0  0.30932  0.68011  0.51122  1.0000
  H   H461      1.0  0.24175  0.60654  0.50140  1.0000
  C   C373      1.0  0.16187  0.97684  0.71445  1.0000
  C   C374      1.0  0.04475  0.90850  0.62090  1.0000
  H   H462      1.0  0.09058  0.95879  0.69785  1.0000
  C   C375      1.0  0.04452  0.97327  0.63801  1.0000
  S   S103      1.0  0.03377  0.88950  0.69705  1.0000
  H   H463      1.0  0.28723  0.58334  0.49592  1.0000
  C   C376      1.0  0.09064  0.95165  0.68586  1.0000
  H   H464      1.0  0.00124  0.81482  0.62299  1.0000
  H   H465      1.0  0.40103  0.67060  0.49469  1.0000
  H   H466      1.0  0.34479  0.58469  0.52039  1.0000
  H   H467      1.0  0.06926  0.98052  0.60773  1.0000
  C   C377      1.0  0.02256  0.77654  0.72046  1.0000
  H   H468      1.0  0.09292  0.92404  0.64322  1.0000
  H   H469      1.0  0.06107  0.86314  0.61874  1.0000
  N   N28       1.0  0.05714  0.83336  0.73396  1.0000
  C   C378      1.0  0.04903  0.86592  0.73763  1.0000
  C   C379      1.0  0.03919  0.87112  0.62055  1.0000
  C   C380      1.0  0.26798  0.62316  0.50358  1.0000
  H   H470      1.0  0.39119  0.64910  0.51461  1.0000
  H   H471      1.0  0.03202  0.87008  0.72938  1.0000
  N   N29       1.0  0.35680  0.61830  0.49855  1.0000
  H   H472      1.0  0.24190  0.96704  0.68054  1.0000
  H   H473      1.0  0.10505  0.87069  0.72030  1.0000
  H   H474      1.0  0.47517  0.80177  0.50991  1.0000
  H   H475      1.0  0.09353  0.82347  0.71699  1.0000
  C   C381      1.0  0.04316  0.98129  0.61018  1.0000
  C   C382      1.0  0.08240  0.84436  0.71942  1.0000
  H   H476      1.0  0.08265  0.53557  0.49670  1.0000
  H   H477      1.0  0.01315  0.92092  0.72558  1.0000
  H   H478      1.0  0.07020  0.84893  0.70911  1.0000
  C   C383      1.0  0.16014  0.97140  0.73071  1.0000
  H   H479      1.0  0.07287  0.89190  0.73679  1.0000
  C   C384      1.0  0.00407  0.52378  0.54204  1.0000
  C   C385      1.0  0.24628  0.98805  0.71833  1.0000
  H   H480      1.0  0.41141  0.63206  0.49930  1.0000
  H   H481      1.0  0.01598  0.52253  0.52998  1.0000
  H   H482      1.0  0.21546  0.93985  0.70757  1.0000
  H   H483      1.0  0.04384  0.78109  0.71142  1.0000
  C   C386      1.0  0.25079  0.98277  0.69045  1.0000
  H   H484      1.0  0.32375  0.56042  0.50471  1.0000
  H   H485      1.0  0.07149  0.97513  0.63530  1.0000
  H   H486      1.0  0.23368  0.97627  0.73008  1.0000
  C   C387      1.0  0.02497  0.80070  0.73258  1.0000
  H   H487      1.0  0.07129  0.92859  0.61923  1.0000
  C   C388      1.0  0.00559  0.84390  0.62285  1.0000
  H   H488      1.0  0.01740  0.55242  0.54544  1.0000
  H   H489      1.0  0.03276  0.95481  0.64903  1.0000
  C   C389      1.0  0.01671  0.91973  0.62383  1.0000
  S   S104      1.0  0.14831  0.92659  0.73942  1.0000
  Fe  Fe50      1.0  0.05497  0.53699  0.97383  1.0000
  C   C390      1.0  0.33859  0.54265  0.90752  1.0000
  H   H490      1.0  0.48832  0.76595  0.88079  1.0000
  C   C391      1.0  0.30628  0.52035  0.91581  1.0000
  S   S105      1.0  0.14949  0.57245  0.95393  1.0000
  C   C392      1.0  0.42520  0.88423  0.89804  1.0000
  Fe  Fe51      1.0  0.10439  0.57924  0.94492  1.0000
  S   S106      1.0  0.10819  0.61037  0.92173  1.0000
  H   H491      1.0  0.15975  0.55486  0.85862  1.0000
  H   H492      1.0  0.30163  0.62798  0.78119  1.0000
  S   S107      1.0  0.08729  0.59763  0.96746  1.0000
  H   H493      1.0  0.35184  0.66764  0.76681  1.0000
  Fe  Fe52      1.0  0.38744  0.78090  0.94362  1.0000
  S   S108      1.0  0.41884  0.81016  0.96210  1.0000
  Fe  Fe53      1.0  0.32225  0.78893  0.95733  1.0000
  C   C393      1.0  0.00880  0.95143  0.78009  1.0000
  H   H494      1.0  0.23602  0.54318  0.93317  1.0000
  Fe  Fe54      1.0  0.39275  0.84984  0.95976  1.0000
  C   C394      1.0  0.21317  0.70426  0.95480  1.0000
  Fe  Fe55      1.0  0.37091  0.77650  0.97854  1.0000
  C   C395      1.0  0.13045  0.53262  0.90629  1.0000
  S   S109      1.0  0.36634  0.82371  0.93933  1.0000
  S   S110      1.0  0.34157  0.74411  0.96016  1.0000
  S   S111      1.0  0.35789  0.59031  0.96149  1.0000
  Fe  Fe56      1.0  0.24870  0.69719  0.85580  1.0000
  S   S112      1.0  0.20949  0.67915  0.83896  1.0000
  S   S113      1.0  0.24924  0.66161  0.87660  1.0000
  Fe  Fe57      1.0  0.28748  0.77299  0.83887  1.0000
  S   S114      1.0  0.25161  0.76222  0.82044  1.0000
  S   S115      1.0  0.33129  0.82843  0.83876  1.0000
  Fe  Fe58      1.0  0.20920  0.73586  0.84040  1.0000
  S   S116      1.0  0.15845  0.74250  0.84228  1.0000
  Fe  Fe59      1.0  0.25516  0.70690  0.82059  1.0000
  S   S117      1.0  0.26027  0.68080  0.79829  1.0000
  S   S118      1.0  0.24470  0.75163  0.85898  1.0000
  S   S119      1.0  0.29482  0.71986  0.83732  1.0000
  N   N30       1.0  0.33657  0.60197  0.78604  1.0000
  S   S120      1.0  0.07835  0.92469  0.77081  1.0000
  Fe  Fe60      1.0  0.13536  0.90450  0.79889  1.0000
  C   C396      1.0  0.27806  0.58918  0.95089  1.0000
  S   S121      1.0  0.17470  0.89992  0.81376  1.0000
  H   H495      1.0  0.48914  0.63381  0.91059  1.0000
  Fe  Fe61      1.0  0.06523  0.87388  0.78675  1.0000
  C   C397      1.0  0.24823  0.72226  0.97601  1.0000
  S   S122      1.0  0.15360  0.95830  0.78380  1.0000
  S   S123      1.0  0.08334  0.90464  0.80772  1.0000
  Fe  Fe62      1.0  0.40121  0.58340  0.97231  1.0000
  C   C398      1.0  0.44015  0.77618  0.91281  1.0000
  C   C399      1.0  0.42759  0.61596  0.82524  1.0000
  C   C400      1.0  0.44144  0.64654  0.83399  1.0000
  H   H496      1.0  0.44204  0.61426  0.81437  1.0000
  H   H497      1.0  0.24516  0.54247  0.87730  1.0000
  H   H498      1.0  0.31416  0.60580  0.76494  1.0000
  S   S124      1.0  0.09637  0.52696  0.98534  1.0000
  H   H499      1.0  0.16901  0.65205  0.95907  1.0000
  H   H500      1.0  0.44224  0.68313  0.89286  1.0000
  C   C401      1.0  0.41400  0.76715  0.79474  1.0000
  C   C402      1.0  0.43880  0.83491  0.82019  1.0000
  C   C403      1.0  0.41569  0.80371  0.82978  1.0000
  C   C404      1.0  0.38235  0.80121  0.83545  1.0000
  C   C405      1.0  0.37249  0.83035  0.83182  1.0000
  C   C406      1.0  0.39575  0.86169  0.82244  1.0000
  C   C407      1.0  0.42867  0.86376  0.81649  1.0000
  H   H501      1.0  0.42312  0.78102  0.83248  1.0000
  H   H502      1.0  0.36450  0.77693  0.84271  1.0000
  H   H503      1.0  0.38815  0.88423  0.81959  1.0000
  H   H504      1.0  0.44645  0.88792  0.80909  1.0000
  C   C408      1.0  0.24502  0.63298  0.80258  1.0000
  C   C409      1.0  0.25119  0.61856  0.81652  1.0000
  C   C410      1.0  0.24089  0.58024  0.81941  1.0000
  C   C411      1.0  0.22332  0.55633  0.80866  1.0000
  C   C412      1.0  0.22763  0.60910  0.79179  1.0000
  H   H505      1.0  0.26462  0.63700  0.82489  1.0000
  H   H506      1.0  0.24634  0.56924  0.83000  1.0000
  H   H507      1.0  0.22258  0.62027  0.78107  1.0000
  C   C413      1.0  0.16291  0.78596  0.83404  1.0000
  C   C414      1.0  0.13415  0.79077  0.82912  1.0000
  C   C415      1.0  0.13759  0.82548  0.82253  1.0000
  C   C416      1.0  0.16962  0.85563  0.82123  1.0000
  C   C417      1.0  0.19820  0.85085  0.82637  1.0000
  C   C418      1.0  0.19498  0.81602  0.83259  1.0000
  H   H508      1.0  0.10929  0.76757  0.83022  1.0000
  H   H509      1.0  0.11541  0.82906  0.81866  1.0000
  C   C419      1.0  0.23533  0.49325  0.96633  1.0000
  H   H510      1.0  0.24508  0.82271  0.92851  1.0000
  H   H511      1.0  0.43173  0.73389  0.89684  1.0000
  H   H512      1.0  0.41024  0.89750  0.92110  1.0000
  H   H513      1.0  0.40682  0.64215  0.92581  1.0000
  H   H514      1.0  0.36341  0.74914  0.76581  1.0000
  H   H515      1.0  0.46645  0.66831  0.82987  1.0000
  Fe  Fe63      1.0  0.12990  0.92204  0.76508  1.0000
  H   H516      1.0  0.22297  0.87414  0.82541  1.0000
  C   C420      1.0  0.46544  0.91751  0.91569  1.0000
  C   C421      1.0  0.14754  0.62393  0.90927  1.0000
  C   C422      1.0  0.14915  0.63657  0.89366  1.0000
  C   C423      1.0  0.18039  0.64829  0.88356  1.0000
  C   C424      1.0  0.20993  0.64670  0.88896  1.0000
  C   C425      1.0  0.20821  0.63328  0.90440  1.0000
  C   C426      1.0  0.17722  0.62250  0.91461  1.0000
  H   H517      1.0  0.12619  0.63736  0.88938  1.0000
  H   H518      1.0  0.18144  0.65836  0.87159  1.0000
  H   H519      1.0  0.23105  0.63187  0.90847  1.0000
  H   H520      1.0  0.17647  0.61348  0.92660  1.0000
  H   H521      1.0  0.26530  0.64483  0.98594  1.0000
  H   H522      1.0  0.47620  0.72812  0.93222  1.0000
  H   H523      1.0  0.34239  0.79103  0.80892  1.0000
  C   C427      1.0  0.23718  0.51257  0.97978  1.0000
  H   H524      1.0  0.46190  0.65078  0.88985  1.0000
  H   H525      1.0  0.12786  0.68887  0.90901  1.0000
  H   H526      1.0  0.40850  0.88325  0.98955  1.0000
  H   H527      1.0  0.32008  0.62306  0.80665  1.0000
  H   H528      1.0  0.20416  0.49945  0.89493  1.0000
  H   H529      1.0  0.03595  0.86318  0.74978  1.0000
  C   C428      1.0  0.27949  0.49796  0.90775  1.0000
  C   C429      1.0  0.17830  0.50744  0.97884  1.0000
  H   H530      1.0  0.39859  0.87987  0.86986  1.0000
  H   H531      1.0  0.45957  0.71848  0.77141  1.0000
  C   C430      1.0  0.40978  0.71556  0.81230  1.0000
  Fe  Fe64      1.0  0.48515  0.73609  0.84784  1.0000
  C   C431      1.0  0.43076  0.66779  0.92529  1.0000
  H   H532      1.0  0.24699  0.84136  0.90042  1.0000
  C   C432      1.0  0.42977  0.74805  0.80293  1.0000
  H   H533      1.0  0.45777  0.75936  0.80232  1.0000
  H   H534      1.0  0.25977  0.57752  0.96184  1.0000
  S   S125      1.0  0.42211  0.91188  0.95694  1.0000
  S   S126      1.0  0.21097  0.50849  0.81189  1.0000
  C   C433      1.0  0.49312  0.92029  0.90467  1.0000
  H   H535      1.0  0.15654  0.51312  0.98376  1.0000
  C   C434      1.0  0.44520  0.65888  0.89846  1.0000
  C   C435      1.0  0.40556  0.69543  0.76811  1.0000
  H   H536      1.0  0.14211  0.56123  0.88386  1.0000
  N   N31       1.0  0.44534  0.87017  0.87140  1.0000
  C   C436      1.0  0.48090  0.77923  0.89039  1.0000
  H   H537      1.0  0.32932  0.76605  0.76813  1.0000
  H   H538      1.0  0.40332  0.81100  0.77115  1.0000
  H   H539      1.0  0.20242  0.55232  0.78667  1.0000
  C   C437      1.0  0.34102  0.56769  0.78187  1.0000
  H   H540      1.0  0.28343  0.57894  0.78119  1.0000
  H   H541      1.0  0.32018  0.79562  0.79282  1.0000
  C   C438      1.0  0.39756  0.70426  0.98000  1.0000
  C   C439      1.0  0.16504  0.49900  0.91270  1.0000
  H   H542      1.0  0.43820  0.91731  0.86156  1.0000
  Fe  Fe65      1.0  0.11306  0.51430  0.96141  1.0000
  S   S127      1.0  0.01263  0.83202  0.78339  1.0000
  C   C440      1.0  0.28511  0.49765  0.89142  1.0000
  N   N32       1.0  0.45918  0.66722  0.91369  1.0000
  H   H543      1.0  0.32185  0.51965  0.87058  1.0000
  C   C441      1.0  0.45281  0.88662  0.88650  1.0000
  H   H544      1.0  0.03624  0.96511  0.77464  1.0000
  C   C442      1.0  0.19108  0.50868  0.86246  1.0000
  Fe  Fe66      1.0  0.37758  0.50242  0.96620  1.0000
  C   C443      1.0  0.33208  0.77813  0.79828  1.0000
  C   C444      1.0  0.46882  0.63677  0.91907  1.0000
  H   H545      1.0  0.10958  0.54149  0.90972  1.0000
  C   C445      1.0  0.37730  0.75401  0.79566  1.0000
  N   N33       1.0  0.35970  0.77395  0.78737  1.0000
  C   C446      1.0  0.48711  0.90504  0.89029  1.0000
  C   C447      1.0  0.49038  0.70239  0.91183  1.0000
  C   C448      1.0  0.42790  0.93389  0.97450  1.0000
  N   N34       1.0  0.19695  0.54258  0.87074  1.0000
  H   H546      1.0  0.32430  0.72424  0.77887  1.0000
  S   S128      1.0  0.26900  0.77093  0.94991  1.0000
  H   H547      1.0  0.42356  0.69130  0.92225  1.0000
  C   C449      1.0  0.00222  0.94132  0.74761  1.0000
  Fe  Fe67      1.0  0.32488  0.53548  0.97463  1.0000
  H   H548      1.0  0.43134  0.79282  0.78824  1.0000
  C   C450      1.0  0.30788  0.60398  0.77791  1.0000
  Fe  Fe68      1.0  0.12988  0.58593  0.97688  1.0000
  S   S129      1.0  0.47757  0.78829  0.85182  1.0000
  H   H549      1.0  0.42000  0.81605  0.86332  1.0000
  S   S130      1.0  0.48008  0.83830  0.81234  1.0000
  C   C451      1.0  0.18732  0.56785  0.86078  1.0000
  C   C452      1.0  0.23449  0.56141  0.87211  1.0000
  C   C453      1.0  0.17683  0.53229  0.88659  1.0000
  C   C454      1.0  0.32547  0.59875  0.80314  1.0000
  C   C455      1.0  0.43200  0.66539  0.78431  1.0000
  H   H550      1.0  0.39934  0.61286  0.79586  1.0000
  H   H551      1.0  0.20307  0.57551  0.84904  1.0000
  H   H552      1.0  0.19184  0.59429  0.86616  1.0000
  H   H553      1.0  0.25026  0.57279  0.86050  1.0000
  H   H554      1.0  0.23934  0.58496  0.87957  1.0000
  H   H555      1.0  0.30159  0.57337  0.80681  1.0000
  H   H556      1.0  0.35193  0.57007  0.76934  1.0000
  S   S131      1.0  0.43976  0.68606  0.85950  1.0000
  C   C456      1.0  0.19744  0.66428  0.97899  1.0000
  N   N35       1.0  0.26110  0.60009  0.93851  1.0000
  C   C457      1.0  0.34396  0.54271  0.89118  1.0000
  H   H557      1.0  0.45465  0.66544  0.78927  1.0000
  C   C458      1.0  0.28626  0.61441  0.92406  1.0000
  C   C459      1.0  0.28196  0.59620  0.90997  1.0000
  C   C460      1.0  0.31718  0.64659  0.92405  1.0000
  C   C461      1.0  0.30723  0.60945  0.89682  1.0000
  C   C462      1.0  0.34220  0.65951  0.91082  1.0000
  C   C463      1.0  0.33729  0.64096  0.89726  1.0000
  H   H558      1.0  0.42012  0.87623  0.85155  1.0000
  S   S132      1.0  0.43993  0.62849  0.98387  1.0000
  H   H559      1.0  0.30054  0.61295  0.95409  1.0000
  H   H560      1.0  0.28755  0.56768  0.94710  1.0000
  H   H561      1.0  0.25969  0.57123  0.90886  1.0000
  H   H562      1.0  0.32273  0.66157  0.93439  1.0000
  H   H563      1.0  0.30398  0.59468  0.88633  1.0000
  H   H564      1.0  0.36587  0.68371  0.91115  1.0000
  H   H565      1.0  0.35709  0.65072  0.88714  1.0000
  N   N36       1.0  0.30499  0.75827  0.90047  1.0000
  C   C464      1.0  0.32462  0.75312  0.91310  1.0000
  C   C465      1.0  0.26740  0.73804  0.90572  1.0000
  C   C466      1.0  0.31457  0.74110  0.88664  1.0000
  C   C467      1.0  0.31238  0.79802  0.89711  1.0000
  C   C468      1.0  0.31807  0.81491  0.88160  1.0000
  C   C469      1.0  0.31243  0.82077  0.90951  1.0000
  C   C470      1.0  0.32453  0.85243  0.87884  1.0000
  C   C471      1.0  0.31969  0.85840  0.90665  1.0000
  C   C472      1.0  0.32576  0.87424  0.89131  1.0000
  H   H566      1.0  0.31436  0.75798  0.92485  1.0000
  H   H567      1.0  0.32335  0.72440  0.91449  1.0000
  H   H568      1.0  0.35250  0.77206  0.91064  1.0000
  H   H569      1.0  0.25162  0.74093  0.89655  1.0000
  H   H570      1.0  0.25894  0.74847  0.91657  1.0000
  H   H571      1.0  0.26057  0.70792  0.90834  1.0000
  H   H572      1.0  0.34222  0.75648  0.88167  1.0000
  H   H573      1.0  0.31089  0.71190  0.88968  1.0000
  H   H574      1.0  0.29787  0.73939  0.87727  1.0000
  H   H575      1.0  0.31728  0.79967  0.87139  1.0000
  H   H576      1.0  0.30648  0.80958  0.92159  1.0000
  H   H577      1.0  0.32006  0.87516  0.91642  1.0000
  S   S133      1.0  0.33142  0.50164  0.95517  1.0000
  Fe  Fe69      1.0  0.10003  0.95541  0.79106  1.0000
  H   H578      1.0  0.38816  0.71598  0.97091  1.0000
  H   H579      1.0  0.43962  0.81663  0.88090  1.0000
  H   H580      1.0  0.43791  0.66968  0.93742  1.0000
  H   H581      1.0  0.44608  0.60969  0.92050  1.0000
  H   H582      1.0  0.01520  0.92675  0.75352  1.0000
  H   H583      1.0  0.35860  0.56107  0.78907  1.0000
  N   N37       1.0  0.14417  0.74118  0.89520  1.0000
  C   C473      1.0  0.16075  0.72846  0.88193  1.0000
  C   C474      1.0  0.11679  0.70790  0.90421  1.0000
  C   C475      1.0  0.12689  0.76402  0.88877  1.0000
  C   C476      1.0  0.17113  0.76350  0.90465  1.0000
  C   C477      1.0  0.17091  0.75366  0.92077  1.0000
  C   C478      1.0  0.19941  0.79577  0.89758  1.0000
  C   C479      1.0  0.19732  0.77508  0.92918  1.0000
  C   C480      1.0  0.22573  0.81684  0.90609  1.0000
  C   C481      1.0  0.22468  0.80649  0.92187  1.0000
  H   H584      1.0  0.17732  0.71490  0.88610  1.0000
  H   H585      1.0  0.14132  0.70855  0.87529  1.0000
  H   H586      1.0  0.17744  0.75165  0.87317  1.0000
  H   H587      1.0  0.09724  0.69134  0.89673  1.0000
  H   H588      1.0  0.10233  0.71549  0.91408  1.0000
  H   H589      1.0  0.14510  0.78780  0.88060  1.0000
  H   H590      1.0  0.10610  0.74769  0.88178  1.0000
  H   H591      1.0  0.11503  0.77530  0.89832  1.0000
  H   H592      1.0  0.15074  0.72947  0.92720  1.0000
  H   H593      1.0  0.20142  0.80484  0.88535  1.0000
  H   H594      1.0  0.19676  0.76725  0.94148  1.0000
  Fe  Fe70      1.0  0.36819  0.55605  0.94302  1.0000
  S   S134      1.0  0.34660  0.81830  0.97772  1.0000
  C   C482      1.0  0.42516  0.82968  0.87443  1.0000
  S   S135      1.0  0.41514  0.55458  0.95249  1.0000
  C   C483      1.0  0.44926  0.76051  0.89976  1.0000
  S   S136      1.0  0.28329  0.52790  0.84096  1.0000
  S   S137      1.0  0.37279  0.57051  0.91723  1.0000
  C   C484      1.0  0.14944  0.54367  0.89136  1.0000
  S   S138      1.0  0.40074  0.75081  0.92434  1.0000
  H   H595      1.0  0.47056  0.86376  0.84910  1.0000
  H   H596      1.0  0.42222  0.70153  0.81899  1.0000
  H   H597      1.0  0.32836  0.86460  0.86689  1.0000
  C   C485      1.0  0.43477  0.69525  0.77427  1.0000
  C   C486      1.0  0.34357  0.75243  0.77446  1.0000
  H   H598      1.0  0.21724  0.81261  0.83642  1.0000
  H   H599      1.0  0.23790  0.63944  0.93511  1.0000
  H   H600      1.0  0.27101  0.65337  0.94781  1.0000
  C   C487      1.0  0.47698  0.87607  0.86042  1.0000
  H   H601      1.0  0.21500  0.57320  0.92738  1.0000
  H   H602      1.0  0.47901  0.64165  0.93058  1.0000
  C   C488      1.0  0.22959  0.56709  0.93640  1.0000
  S   S139      1.0  0.11558  0.86842  0.77947  1.0000
  H   H603      1.0  0.36933  0.82678  0.77512  1.0000
  H   H604      1.0  0.00886  0.95564  0.79284  1.0000
  H   H605      1.0  0.34540  0.59696  0.81021  1.0000
  C   C489      1.0  0.24955  0.62910  0.94422  1.0000
  H   H606      1.0  0.47013  0.92894  0.92692  1.0000
  C   C490      1.0  0.41065  0.67728  0.97653  1.0000
  C   C491      1.0  0.42464  0.88663  0.86331  1.0000
  H   H607      1.0  0.41120  0.66844  0.96481  1.0000
  H   H608      1.0  0.45544  0.82331  0.92656  1.0000
  H   H609      1.0  0.35256  0.56738  0.84915  1.0000
  C   C492      1.0  0.21617  0.57074  0.79498  1.0000
  H   H610      1.0  0.41935  0.63547  0.89975  1.0000
  H   H611      1.0  0.40795  0.71885  0.76035  1.0000
  H   H612      1.0  0.33086  0.90332  0.88909  1.0000
  C   C493      1.0  0.37714  0.58944  0.84483  1.0000
  C   C494      1.0  0.39530  0.58752  0.83059  1.0000
  C   C495      1.0  0.07419  0.82469  0.74684  1.0000
  H   H613      1.0  0.09893  0.84829  0.74809  1.0000
  C   C496      1.0  0.35774  0.71986  0.80473  1.0000
  H   H614      1.0  0.44876  0.98885  0.96272  1.0000
  S   S140      1.0  0.37759  0.55038  0.81911  1.0000
  H   H615      1.0  0.22953  0.61844  0.95475  1.0000
  C   C497      1.0  0.42318  0.64841  0.84823  1.0000
  C   C498      1.0  0.39115  0.61973  0.85368  1.0000
  H   H616      1.0  0.30179  0.52066  0.92839  1.0000
  H   H617      1.0  0.37716  0.62087  0.86477  1.0000
  H   H618      1.0  0.32981  0.70744  0.80560  1.0000
  C   C499      1.0  0.36985  0.63443  0.78194  1.0000
  H   H619      1.0  0.31027  0.75136  0.80218  1.0000
  C   C500      1.0  0.38349  0.81172  0.78057  1.0000
  H   H620      1.0  0.39699  0.82882  0.78980  1.0000
  H   H621      1.0  0.36893  0.55992  0.88472  1.0000
  H   H622      1.0  0.21125  0.55710  0.94745  1.0000
  S   S141      1.0  0.36755  0.53112  0.98699  1.0000
  H   H623      1.0  0.35838  0.67616  0.82051  1.0000
  H   H624      1.0  0.31601  0.54297  0.78385  1.0000
  H   H625      1.0  0.20816  0.70970  0.94309  1.0000
  C   C501      1.0  0.41957  0.91317  0.98900  1.0000
  C   C502      1.0  0.40013  0.63541  0.78807  1.0000
  H   H626      1.0  0.27004  0.74196  0.98087  1.0000
  Fe  Fe71      1.0  0.32318  0.51091  0.82822  1.0000
  C   C503      1.0  0.46248  0.81110  0.91642  1.0000
  C   C504      1.0  0.37381  0.70136  0.81313  1.0000
  C   C505      1.0  0.24161  0.72975  0.96097  1.0000
  C   C506      1.0  0.19114  0.67145  0.96380  1.0000
  C   C507      1.0  0.22588  0.68986  0.98506  1.0000
  H   H627      1.0  0.39963  0.82274  0.88154  1.0000
  C   C508      1.0  0.37341  0.66564  0.77191  1.0000
  H   H628      1.0  0.39844  0.87019  0.89613  1.0000
  S   S142      1.0  0.06875  0.51929  0.95040  1.0000
  C   C509      1.0  0.42369  0.66243  0.98811  1.0000
  C   C510      1.0  0.31732  0.52005  0.88315  1.0000
  C   C511      1.0  0.43157  0.89960  0.91237  1.0000
  C   C512      1.0  0.44244  0.97270  0.97392  1.0000
  H   H629      1.0  0.05742  0.81857  0.75834  1.0000
  H   H630      1.0  0.00663  0.86929  0.81104  1.0000
  H   H631      1.0  0.48099  0.89855  0.97498  1.0000
  H   H632      1.0  0.99950  0.92096  0.77945  1.0000
  H   H633      1.0  0.27252  0.60263  0.98676  1.0000
  C   C513      1.0  0.20852  0.51931  0.98606  1.0000
  H   H634      1.0  0.47328  0.52681  0.98851  1.0000
  C   C514      1.0  0.13824  0.51041  0.91692  1.0000
  H   H635      1.0  0.08026  0.80005  0.74474  1.0000
  C   C515      1.0  0.18405  0.50961  0.89775  1.0000
  C   C516      1.0  0.99529  0.79122  0.74393  1.0000
  H   H636      1.0  0.20483  0.51523  0.85027  1.0000
  H   H637      1.0  0.12322  0.50180  0.92841  1.0000
  S   S143      1.0  0.27536  0.53094  0.98854  1.0000
  S   S144      1.0  0.00184  0.52137  0.98747  1.0000
  H   H638      1.0  0.49327  0.90601  0.85742  1.0000
  H   H639      1.0  0.49307  0.86278  0.86539  1.0000
  Fe  Fe72      1.0  0.24783  0.49355  0.82474  1.0000
  H   H640      1.0  0.16297  0.49302  0.86176  1.0000
  H   H641      1.0  0.37187  0.49433  0.91783  1.0000
  S   S145      1.0  0.17055  0.62330  0.99042  1.0000
  C   C517      1.0  0.49403  0.83036  0.90674  1.0000
  H   H642      1.0  0.99542  0.80721  0.75384  1.0000
  H   H643      1.0  0.58482  0.35099  0.07383  1.0000
  H   H644      1.0  0.97663  0.45268  0.02793  1.0000
  C   C518      1.0  0.69680  0.01040  0.13739  1.0000
  C   C519      1.0  0.94364  0.01433  0.17055  1.0000
  H   H645      1.0  0.65811  0.15086  0.03630  1.0000
  H   H646      1.0  0.78432  0.26662  0.15156  1.0000
  C   C520      1.0  0.92288  0.37215  0.01418  1.0000
  C   C521      1.0  0.56234  0.35870  0.07289  1.0000
  S   S146      1.0  0.54389  0.15375  0.02326  1.0000
  Fe  Fe73      1.0  0.76092  0.39903  0.99602  1.0000
  C   C522      1.0  0.50841  0.35796  0.08532  1.0000
  H   H647      1.0  0.53596  0.23301  0.13182  1.0000
  Fe  Fe74      1.0  0.63627  0.41616  0.14013  1.0000
  S   S147      1.0  0.62662  0.40275  0.16615  1.0000
  S   S148      1.0  0.67140  0.40107  0.12290  1.0000
  Fe  Fe75      1.0  0.57046  0.38328  0.16300  1.0000
  S   S149      1.0  0.53350  0.32778  0.17411  1.0000
  S   S150      1.0  0.58026  0.39220  0.13691  1.0000
  Fe  Fe76      1.0  0.70208  0.18278  0.10361  1.0000
  S   S151      1.0  0.72264  0.18582  0.12687  1.0000
  S   S152      1.0  0.72767  0.18120  0.07951  1.0000
  Fe  Fe77      1.0  0.63311  0.18082  0.11759  1.0000
  S   S153      1.0  0.64638  0.18409  0.14209  1.0000
  S   S154      1.0  0.58564  0.18131  0.10862  1.0000
  Fe  Fe78      1.0  0.69801  0.22636  0.13156  1.0000
  S   S155      1.0  0.71958  0.27615  0.14505  1.0000
  Fe  Fe79      1.0  0.66951  0.14328  0.13583  1.0000
  S   S156      1.0  0.66042  0.09820  0.15458  1.0000
  S   S157      1.0  0.68238  0.22738  0.10756  1.0000
  S   S158      1.0  0.65126  0.13591  0.11215  1.0000
  N   N38       1.0  0.53802  0.34790  0.08773  1.0000
  H   H648      1.0  0.68589  0.16568  0.00868  1.0000
  N   N39       1.0  0.60273  0.29499  0.00559  1.0000
  C   C523      1.0  0.60258  0.47515  0.10057  1.0000
  C   C524      1.0  0.94530  0.37378  0.00036  1.0000
  H   H649      1.0  0.51731  0.38794  0.08161  1.0000
  H   H650      1.0  0.63242  0.45374  0.00544  1.0000
  H   H651      1.0  0.56901  0.22835  0.05521  1.0000
  C   C525      1.0  0.58329  0.25962  0.99895  1.0000
  C   C526      1.0  0.68576  0.00987  0.15331  1.0000
  C   C527      1.0  0.64807  0.44185  0.99873  1.0000
  C   C528      1.0  0.97807  0.40264  0.99690  1.0000
  H   H652      1.0  0.64308  0.11481  0.05178  1.0000
  H   H653      1.0  0.86041  0.29879  0.03681  1.0000
  H   H654      1.0  0.78330  0.43588  0.14317  1.0000
  C   C529      1.0  0.54632  0.23601  0.14330  1.0000
  C   C530      1.0  0.73909  0.47500  0.19189  1.0000
  C   C531      1.0  0.49473  0.23114  0.10257  1.0000
  Fe  Fe80      1.0  0.55877  0.40622  0.00707  1.0000
  H   H655      1.0  0.73828  0.41919  0.14088  1.0000
  C   C532      1.0  0.74408  0.22529  0.06929  1.0000
  C   C533      1.0  0.74716  0.22909  0.05286  1.0000
  C   C534      1.0  0.75838  0.26434  0.04480  1.0000
  C   C535      1.0  0.76713  0.29578  0.05321  1.0000
  C   C536      1.0  0.76509  0.29197  0.06956  1.0000
  C   C537      1.0  0.75341  0.25683  0.07759  1.0000
  H   H656      1.0  0.74020  0.20478  0.04638  1.0000
  H   H657      1.0  0.55751  0.03983  0.00492  1.0000
  H   H658      1.0  0.77204  0.31625  0.07609  1.0000
  H   H659      1.0  0.75195  0.25420  0.09022  1.0000
  C   C538      1.0  0.67078  0.06218  0.14764  1.0000
  C   C539      1.0  0.67231  0.03548  0.15841  1.0000
  Fe  Fe81      1.0  0.49989  0.13298  0.00895  1.0000
  C   C540      1.0  0.49745  0.30810  0.16405  1.0000
  C   C541      1.0  0.69358  0.03582  0.12651  1.0000
  C   C542      1.0  0.68081  0.06195  0.13165  1.0000
  H   H660      1.0  0.66424  0.03546  0.17077  1.0000
  H   H661      1.0  0.54588  0.20863  0.14713  1.0000
  S   S159      1.0  0.55369  0.47098  0.12492  1.0000
  H   H662      1.0  0.67980  0.08261  0.12331  1.0000
  H   H663      1.0  0.88942  0.34049  0.04336  1.0000
  H   H664      1.0  0.69383  0.47087  0.00963  1.0000
  C   C543      1.0  0.68276  0.36490  0.12921  1.0000
  C   C544      1.0  0.69703  0.34801  0.11811  1.0000
  C   C545      1.0  0.70778  0.32022  0.12293  1.0000
  C   C546      1.0  0.70509  0.30991  0.13890  1.0000
  C   C547      1.0  0.69098  0.32690  0.15002  1.0000
  C   C548      1.0  0.67935  0.35397  0.14517  1.0000
  H   H665      1.0  0.69996  0.35654  0.10575  1.0000
  H   H666      1.0  0.71907  0.30750  0.11429  1.0000
  H   H667      1.0  0.68874  0.31882  0.16238  1.0000
  H   H668      1.0  0.66863  0.36692  0.15383  1.0000
  H   H669      1.0  0.65428  0.33849  0.00007  1.0000
  H   H670      1.0  0.91733  0.04284  0.18410  1.0000
  C   C549      1.0  0.71581  0.45029  0.18318  1.0000
  C   C550      1.0  0.62390  0.31845  0.04684  1.0000
  H   H671      1.0  0.62985  0.26893  0.19809  1.0000
  H   H672      1.0  0.57006  0.39999  0.09582  1.0000
  C   C551      1.0  0.67796  0.26632  0.06130  1.0000
  S   S160      1.0  0.50474  0.12374  0.06657  1.0000
  Fe  Fe82      1.0  0.56598  0.43330  0.03937  1.0000
  S   S161      1.0  0.51730  0.09107  0.99785  1.0000
  H   H673      1.0  0.91802  0.02048  0.22064  1.0000
  H   H674      1.0  0.81973  0.48584  0.99674  1.0000
  C   C552      1.0  0.67320  0.17951  0.00211  1.0000
  C   C553      1.0  0.58420  0.25444  0.04834  1.0000
  H   H675      1.0  0.53942  0.36908  0.11069  1.0000
  H   H676      1.0  0.61749  0.21383  0.18300  1.0000
  H   H677      1.0  0.93790  0.35368  0.99181  1.0000
  H   H678      1.0  0.63987  0.34217  0.05251  1.0000
  C   C554      1.0  0.61415  0.47469  0.08474  1.0000
  C   C555      1.0  0.54771  0.14446  0.13662  1.0000
  C   C556      1.0  0.54756  0.15883  0.12150  1.0000
  H   H679      1.0  0.51782  0.22371  0.08023  1.0000
  H   H680      1.0  0.70972  0.46349  0.13797  1.0000
  H   H681      1.0  0.70214  0.03622  0.11418  1.0000
  H   H682      1.0  0.57161  0.14526  0.14037  1.0000
  C   C557      1.0  0.97395  0.08014  0.13871  1.0000
  C   C558      1.0  0.65489  0.21890  0.03787  1.0000
  C   C559      1.0  0.58672  0.32121  0.00183  1.0000
  C   C560      1.0  0.68436  0.28059  0.04571  1.0000
  H   H683      1.0  0.94950  0.03855  0.12345  1.0000
  N   N40       1.0  0.58154  0.26580  0.14216  1.0000
  H   H684      1.0  0.55997  0.31199  0.00808  1.0000
  H   H685      1.0  0.68773  0.28474  0.07034  1.0000
  C   C561      1.0  0.59788  0.14778  0.05136  1.0000
  H   H686      1.0  0.88034  0.43587  0.99700  1.0000
  H   H687      1.0  0.60028  0.15067  0.03837  1.0000
  H   H688      1.0  0.59451  0.21164  0.15807  1.0000
  H   H689      1.0  0.69893  0.30999  0.04272  1.0000
  H   H690      1.0  0.54264  0.28905  0.07125  1.0000
  H   H691      1.0  0.60628  0.28208  0.06810  1.0000
  C   C562      1.0  0.62279  0.32170  0.03068  1.0000
  H   H692      1.0  0.73216  0.47493  0.20438  1.0000
  C   C563      1.0  0.98932  0.43083  0.00686  1.0000
  C   C564      1.0  0.52897  0.28142  0.08300  1.0000
  H   H693      1.0  0.54928  0.34597  0.06274  1.0000
  H   H694      1.0  0.76954  0.44207  0.12447  1.0000
  C   C565      1.0  0.60276  0.29107  0.02278  1.0000
  S   S162      1.0  0.72597  0.34601  0.00974  1.0000
  N   N41       1.0  0.77217  0.12490  0.15884  1.0000
  C   C566      1.0  0.80498  0.12212  0.16218  1.0000
  C   C567      1.0  0.74456  0.10137  0.17142  1.0000
  C   C568      1.0  0.76329  0.10940  0.14369  1.0000
  C   C569      1.0  0.77600  0.16400  0.15767  1.0000
  C   C570      1.0  0.75071  0.17570  0.16514  1.0000
  C   C571      1.0  0.80424  0.19119  0.14776  1.0000
  C   C572      1.0  0.75414  0.21244  0.16305  1.0000
  C   C573      1.0  0.80742  0.22786  0.14579  1.0000
  C   C574      1.0  0.78244  0.23845  0.15344  1.0000
  H   H695      1.0  0.82624  0.13429  0.15232  1.0000
  H   H696      1.0  0.81401  0.13624  0.17283  1.0000
  H   H697      1.0  0.80178  0.09273  0.16421  1.0000
  H   H698      1.0  0.74922  0.11241  0.18306  1.0000
  H   H699      1.0  0.74275  0.07234  0.17236  1.0000
  H   H700      1.0  0.71850  0.09916  0.16904  1.0000
  H   H701      1.0  0.75746  0.07920  0.14418  1.0000
  H   H702      1.0  0.74004  0.11328  0.14036  1.0000
  H   H703      1.0  0.78453  0.12322  0.13392  1.0000
  H   H704      1.0  0.72738  0.15687  0.17226  1.0000
  H   H705      1.0  0.82348  0.18408  0.14103  1.0000
  H   H706      1.0  0.73407  0.22063  0.16844  1.0000
  H   H707      1.0  0.82884  0.24803  0.13797  1.0000
  C   C575      1.0  0.87853  0.31432  0.00650  1.0000
  S   S163      1.0  0.78635  0.31419  0.99905  1.0000
  H   H708      1.0  0.61399  0.12013  0.07652  1.0000
  H   H709      1.0  0.59673  0.25769  0.11825  1.0000
  C   C576      1.0  0.70312  0.43581  0.99267  1.0000
  H   H710      1.0  0.96621  0.02393  0.17670  1.0000
  C   C577      1.0  0.93388  0.47345  0.99258  1.0000
  H   H711      1.0  0.86218  0.37330  0.00837  1.0000
  H   H712      1.0  0.65157  0.15977  0.07915  1.0000
  H   H713      1.0  0.64653  0.20167  0.02841  1.0000
  H   H714      1.0  0.87819  0.32737  0.99481  1.0000
  C   C578      1.0  0.63883  0.30968  0.99751  1.0000
  N   N42       1.0  0.63218  0.16258  0.05715  1.0000
  H   H715      1.0  0.60925  0.16200  0.08070  1.0000
  H   H716      1.0  0.63211  0.27893  0.12948  1.0000
  H   H717      1.0  0.56991  0.29886  0.12481  1.0000
  C   C579      1.0  0.61305  0.23742  0.17843  1.0000
  C   C580      1.0  0.88666  0.01222  0.16687  1.0000
  H   H718      1.0  0.60497  0.32443  0.13532  1.0000
  H   H719      1.0  0.60577  0.23045  0.13260  1.0000
  C   C581      1.0  0.60503  0.25795  0.13013  1.0000
  S   S164      1.0  0.78054  0.34031  0.04378  1.0000
  C   C582      1.0  0.57919  0.30076  0.13652  1.0000
  H   H720      1.0  0.63771  0.34850  0.02437  1.0000
  H   H721      1.0  0.51644  0.16669  0.10471  1.0000
  H   H722      1.0  0.56042  0.30743  0.14458  1.0000
  C   C583      1.0  0.69191  0.21615  0.99560  1.0000
  C   C584      1.0  0.68283  0.45155  0.00109  1.0000
  H   H723      1.0  0.55526  0.24845  0.00343  1.0000
  C   C585      1.0  0.67258  0.25695  0.03402  1.0000
  C   C586      1.0  0.58285  0.25746  0.03219  1.0000
  C   C587      1.0  0.62657  0.15076  0.07414  1.0000
  H   H724      1.0  0.59781  0.32242  0.16275  1.0000
  H   H725      1.0  0.53960  0.46109  0.06928  1.0000
  C   C588      1.0  0.59460  0.26718  0.15756  1.0000
  S   S165      1.0  0.52519  0.06709  0.03404  1.0000
  C   C589      1.0  0.54856  0.01185  0.00046  1.0000
  H   H726      1.0  0.51941  0.46337  0.09727  1.0000
  C   C590      1.0  0.60178  0.29818  0.16658  1.0000
  C   C591      1.0  0.60017  0.23657  0.16406  1.0000
  C   C592      1.0  0.59138  0.46919  0.07346  1.0000
  C   C593      1.0  0.60493  0.28476  0.05562  1.0000
  H   H727      1.0  0.85200  0.29240  0.00985  1.0000
  C   C594      1.0  0.61420  0.29861  0.18104  1.0000
  C   C595      1.0  0.56845  0.47116  0.10510  1.0000
  H   H728      1.0  0.57310  0.38916  0.06970  1.0000
  C   C596      1.0  0.55690  0.37012  0.09994  1.0000
  H   H729      1.0  0.61908  0.32252  0.18774  1.0000
  C   C597      1.0  0.50431  0.29410  0.10770  1.0000
  H   H730      1.0  0.75984  0.26713  0.03217  1.0000
  H   H731      1.0  0.94208  0.06600  0.22635  1.0000
  Fe  Fe83      1.0  0.58216  0.44885  0.14036  1.0000
  C   C598      1.0  0.65446  0.14542  0.04926  1.0000
  H   H732      1.0  0.68064  0.15629  0.05325  1.0000
  H   H733      1.0  0.58334  0.11773  0.05493  1.0000
  H   H734      1.0  0.83481  0.33608  0.02256  1.0000
  H   H735      1.0  0.89672  0.30010  0.00521  1.0000
  S   S166      1.0  0.50176  0.37092  0.01284  1.0000
  H   H736      1.0  0.58138  0.16225  0.05607  1.0000
  Fe  Fe84      1.0  0.77425  0.34586  0.01834  1.0000
  S   S167      1.0  0.85126  0.02333  0.17288  1.0000
  C   C599      1.0  0.86138  0.35800  0.01961  1.0000
  C   C600      1.0  0.55716  0.46499  0.07797  1.0000
  N   N43       1.0  0.88799  0.34210  0.01828  1.0000
  C   C601      1.0  0.88613  0.32225  0.03358  1.0000
  H   H737      1.0  0.86453  0.37728  0.02898  1.0000
  H   H738      1.0  0.90657  0.31094  0.03328  1.0000
  H   H739      1.0  0.96411  0.03747  0.22029  1.0000
  H   H740      1.0  0.70515  0.43145  0.16075  1.0000
  H   H741      1.0  0.67774  0.26794  0.02186  1.0000
  H   H742      1.0  0.51678  0.11926  0.15885  1.0000
  H   H743      1.0  0.65665  0.21909  0.07752  1.0000
  H   H744      1.0  0.51975  0.00127  0.00173  1.0000
  C   C602      1.0  0.64881  0.20326  0.05358  1.0000
  C   C603      1.0  0.66032  0.22827  0.06526  1.0000
  S   S168      1.0  0.51037  0.39970  0.04829  1.0000
  H   H745      1.0  0.62018  0.47885  0.10923  1.0000
  H   H746      1.0  0.51810  0.06674  0.10377  1.0000
  S   S169      1.0  0.55542  0.45657  0.01724  1.0000
  S   S170      1.0  0.56725  0.43792  0.16642  1.0000
  N   N44       1.0  0.76334  0.47843  0.14166  1.0000
  H   H747      1.0  0.95013  0.08315  0.14291  1.0000
  Fe  Fe85      1.0  0.55777  0.10831  0.01428  1.0000
  C   C604      1.0  0.91613  0.02515  0.17467  1.0000
  C   C605      1.0  0.54582  0.46641  0.09377  1.0000
  S   S171      1.0  0.57367  0.38586  0.02862  1.0000
  C   C606      1.0  0.93536  0.40118  0.02414  1.0000
  C   C607      1.0  0.72412  0.45113  0.16698  1.0000
  C   C608      1.0  0.96799  0.43014  0.02044  1.0000
  C   C609      1.0  0.75585  0.47737  0.15893  1.0000
  Fe  Fe86      1.0  0.51673  0.35424  0.03521  1.0000
  S   S172      1.0  0.60628  0.46709  0.05389  1.0000
  H   H748      1.0  0.91971  0.40205  0.03476  1.0000
  H   H749      1.0  0.57727  0.36091  0.10328  1.0000
  H   H750      1.0  0.55548  0.99373  0.00849  1.0000
  H   H751      1.0  0.74003  0.48463  0.12106  1.0000
  C   C610      1.0  0.76374  0.44245  0.13737  1.0000
  S   S173      1.0  0.80807  0.40182  0.00649  1.0000
  S   S174      1.0  0.74662  0.44823  0.99577  1.0000
  C   C611      1.0  0.63797  0.16126  0.00042  1.0000
  C   C612      1.0  0.51449  0.24363  0.08794  1.0000
  H   H752      1.0  0.56582  0.23315  0.02736  1.0000
  S   S175      1.0  0.61371  0.11662  0.00953  1.0000
  C   C613      1.0  0.52446  0.30791  0.09281  1.0000
  C   C614      1.0  0.62007  0.26841  0.18691  1.0000
  C   C615      1.0  0.51655  0.15689  0.11661  1.0000
  C   C616      1.0  0.51672  0.12973  0.14705  1.0000
  Fe  Fe87      1.0  0.50725  0.11102  0.04152  1.0000
  C   C617      1.0  0.97366  0.05505  0.12770  1.0000
  Fe  Fe88      1.0  0.49975  0.41914  0.02533  1.0000
  H   H753      1.0  0.52781  0.24149  0.15200  1.0000
  S   S176      1.0  0.49783  0.29620  0.04656  1.0000
  C   C618      1.0  0.93995  0.03686  0.22700  1.0000
  Fe  Fe89      1.0  0.62473  0.45871  0.16726  1.0000
  H   H754      1.0  0.71895  0.23045  0.99708  1.0000
  S   S177      1.0  0.63951  0.47430  0.14131  1.0000
  H   H755      1.0  0.69078  0.43101  0.18896  1.0000
  H   H756      1.0  0.59358  0.23833  0.00169  1.0000
  C   C619      1.0  0.73599  0.48500  0.13405  1.0000
  H   H757      1.0  0.98428  0.99718  0.23102  1.0000
  H   H758      1.0  0.86222  0.48558  0.99656  1.0000
  H   H759      1.0  0.60176  0.34932  0.00523  1.0000
  H   H760      1.0  0.93190  0.48978  0.00218  1.0000
  H   H761      1.0  0.64064  0.47795  0.08127  1.0000
  H   H762      1.0  0.50233  0.35962  0.15235  1.0000
  H   H763      1.0  0.65258  0.29214  0.00098  1.0000
  H   H764      1.0  0.49886  0.31232  0.11565  1.0000
  C   C620      1.0  0.94195  0.99139  0.15837  1.0000
  H   H765      1.0  0.61372  0.01991  0.99116  1.0000
  C   C621      1.0  0.62183  0.17914  0.99178  1.0000
  H   H766      1.0  0.53390  0.42053  0.43942  1.0000
  C   C622      1.0  0.72454  0.38549  0.46046  1.0000
  S   S178      1.0  0.74810  0.23049  0.45997  1.0000
  H   H767      1.0  0.50135  0.07718  0.46823  1.0000
  H   H768      1.0  0.70725  0.35914  0.46650  1.0000
  H   H769      1.0  0.73061  0.31804  0.45798  1.0000
  H   H770      1.0  0.58374  0.12332  0.48565  1.0000
  H   H771      1.0  0.57794  0.36789  0.46975  1.0000
  Fe  Fe90      1.0  0.66078  0.10504  0.48042  1.0000
  C   C623      1.0  0.49768  0.46721  0.47318  1.0000
  H   H772      1.0  0.61271  0.26878  0.45127  1.0000
  H   H773      1.0  0.71986  0.46520  0.44657  1.0000
  C   C624      1.0  0.53512  0.41200  0.45134  1.0000
  C   C625      1.0  0.64669  0.27371  0.48171  1.0000
  C   C626      1.0  0.76841  0.35884  0.47855  1.0000
  C   C627      1.0  0.59918  0.17767  0.45137  1.0000
  H   H774      1.0  0.50056  0.11966  0.47405  1.0000
  C   C628      1.0  0.81822  0.26558  0.45419  1.0000
  H   H775      1.0  0.68258  0.40354  0.45992  1.0000
  H   H776      1.0  0.88024  0.01023  0.24538  1.0000
  H   H777      1.0  0.78251  0.48151  0.43909  1.0000
  C   C629      1.0  0.64155  0.24002  0.48975  1.0000
  H   H778      1.0  0.86349  0.25216  0.48908  1.0000
  C   C630      1.0  0.58234  0.00616  0.45646  1.0000
  Fe  Fe91      1.0  0.88960  0.45591  0.48010  1.0000
  S   S179      1.0  0.65665  0.15868  0.47398  1.0000
  C   C631      1.0  0.76621  0.45443  0.44489  1.0000
  H   H779      1.0  0.81555  0.25380  0.44299  1.0000
  H   H780      1.0  0.66659  0.28483  0.47173  1.0000
  H   H781      1.0  0.74685  0.01167  0.25840  1.0000
  H   H782      1.0  0.89733  0.01273  0.26392  1.0000
  C   C632      1.0  0.93464  0.00398  0.31915  1.0000
  H   H783      1.0  0.54313  0.08392  0.48784  1.0000
  H   H784      1.0  0.82045  0.38640  0.44376  1.0000
  C   C633      1.0  0.85099  0.28896  0.45757  1.0000
  Fe  Fe92      1.0  0.71245  0.18511  0.47781  1.0000
  C   C634      1.0  0.71007  0.41073  0.45671  1.0000
  C   C635      1.0  0.73093  0.44528  0.44907  1.0000
  C   C636      1.0  0.77817  0.47572  0.48768  1.0000
  H   H785      1.0  0.56567  0.10450  0.44485  1.0000
  C   C637      1.0  0.79247  0.27271  0.47968  1.0000
  H   H786      1.0  0.65785  0.22574  0.48602  1.0000
  C   C638      1.0  0.96144  0.03588  0.31163  1.0000
  C   C639      1.0  0.59631  0.02970  0.46801  1.0000
  H   H787      1.0  0.96712  0.07350  0.25149  1.0000
  C   C640      1.0  0.78104  0.42954  0.44869  1.0000
  C   C641      1.0  0.85456  0.30543  0.47173  1.0000
  S   S180      1.0  0.64086  0.05731  0.46546  1.0000
  S   S181      1.0  0.89637  0.33271  0.47590  1.0000
  C   C642      1.0  0.92289  0.04184  0.29377  1.0000
  H   H788      1.0  0.96149  0.03363  0.26390  1.0000
  H   H789      1.0  0.80877  0.43909  0.44552  1.0000
  C   C643      1.0  0.81340  0.38085  0.45670  1.0000
  C   C644      1.0  0.55748  0.39407  0.45332  1.0000
  H   H790      1.0  0.91814  0.05711  0.28421  1.0000
  C   C645      1.0  0.95550  0.05522  0.29910  1.0000
  H   H791      1.0  0.61174  0.16141  0.44566  1.0000
  C   C646      1.0  0.78899  0.25699  0.46528  1.0000
  S   S182      1.0  0.63001  0.33259  0.47522  1.0000
  C   C647      1.0  0.55597  0.11394  0.48391  1.0000
  C   C648      1.0  0.53885  0.00895  0.48270  1.0000
  H   H792      1.0  0.82764  0.40664  0.46224  1.0000
  H   H793      1.0  0.59395  0.10469  0.45938  1.0000
  C   C649      1.0  0.56934  0.16169  0.46279  1.0000
  S   S183      1.0  0.71791  0.13122  0.48211  1.0000
  C   C650      1.0  0.60048  0.23911  0.45427  1.0000
  C   C651      1.0  0.57461  0.03088  0.48123  1.0000
  C   C652      1.0  0.56057  0.38180  0.46826  1.0000
  H   H794      1.0  0.87361  0.29466  0.44908  1.0000
  C   C653      1.0  0.96451  0.04422  0.25144  1.0000
  S   S184      1.0  0.93373  0.44013  0.47159  1.0000
  N   N45       1.0  0.55217  0.12137  0.46732  1.0000
  C   C654      1.0  0.54142  0.38751  0.48131  1.0000
  C   C655      1.0  0.76057  0.39427  0.45674  1.0000
  H   H795      1.0  0.74026  0.34469  0.48283  1.0000
  H   H796      1.0  0.76982  0.26643  0.48821  1.0000
  C   C656      1.0  0.57177  0.22447  0.46573  1.0000
  C   C657      1.0  0.51519  0.41833  0.46444  1.0000
  C   C658      1.0  0.80961  0.47175  0.48344  1.0000
  C   C659      1.0  0.51462  0.10785  0.46573  1.0000
  C   C660      1.0  0.62553  0.29236  0.48628  1.0000
  C   C661      1.0  0.61438  0.21583  0.44723  1.0000
  H   H797      1.0  0.98655  0.04578  0.31575  1.0000
  N   N46       1.0  0.77529  0.36736  0.46127  1.0000
  H   H798      1.0  0.51950  0.47309  0.44231  1.0000
  C   C662      1.0  0.55657  0.18643  0.47007  1.0000
  S   S185      1.0  0.63762  0.43207  0.48478  1.0000
  H   H799      1.0  0.57251  0.38952  0.44321  1.0000
  H   H800      1.0  0.90633  0.05383  0.25166  1.0000
  H   H801      1.0  0.98964  0.04523  0.24567  1.0000
  H   H802      1.0  0.56200  0.24297  0.47162  1.0000
  H   H803      1.0  0.81543  0.45107  0.48974  1.0000
  H   H804      1.0  0.87097  0.99906  0.29704  1.0000
  N   N47       1.0  0.93479  0.02120  0.24348  1.0000
  C   C663      1.0  0.56666  0.09917  0.45754  1.0000
  C   C664      1.0  0.51897  0.40534  0.47948  1.0000
  H   H805      1.0  0.77060  0.31262  0.45596  1.0000
  H   H806      1.0  0.81691  0.19833  0.48136  1.0000
  H   H807      1.0  0.63749  0.22750  0.43872  1.0000
  Fe  Fe93      1.0  0.90145  0.38622  0.48568  1.0000
  C   C665      1.0  0.90328  0.02445  0.25147  1.0000
  H   H808      1.0  0.82379  0.36019  0.46043  1.0000
  H   H809      1.0  0.53510  0.17665  0.47939  1.0000
  C   C666      1.0  0.75869  0.33270  0.45366  1.0000
  H   H810      1.0  0.78066  0.34014  0.48251  1.0000
  H   H811      1.0  0.59909  0.00532  0.44619  1.0000
  H   H812      1.0  0.51062  0.11487  0.45362  1.0000
  H   H813      1.0  0.95363  0.02223  0.36900  1.0000
  C   C667      1.0  0.95123  0.99730  0.36339  1.0000
  H   H814      1.0  0.55175  0.06893  0.46043  1.0000
  S   S186      1.0  0.87031  0.48692  0.46367  1.0000
  S   S187      1.0  0.98887  0.09582  0.29002  1.0000
  C   C668      1.0  0.89625  0.00913  0.30104  1.0000
  H   H815      1.0  0.52546  0.48672  0.47115  1.0000
  H   H816      1.0  0.77884  0.38462  0.48465  1.0000
  H   H817      1.0  0.76138  0.33827  0.44071  1.0000
  C   C669      1.0  0.82521  0.29759  0.48278  1.0000
  C   C670      1.0  0.98084  0.99288  0.35686  1.0000
  H   H818      1.0  0.50470  0.40889  0.49004  1.0000
  H   H819      1.0  0.58536  0.04871  0.49026  1.0000
  H   H820      1.0  0.58780  0.40607  0.54161  1.0000
  H   H821      1.0  0.98512  0.21417  0.63054  1.0000
  C   C671      1.0  0.60979  0.45900  0.58206  1.0000
  Fe  Fe94      1.0  0.88234  0.42286  0.51303  1.0000
  S   S188      1.0  0.85331  0.41170  0.53728  1.0000
  H   H822      1.0  0.96043  0.46969  0.56943  1.0000
  H   H823      1.0  0.74689  0.06458  0.64812  1.0000
  C   C672      1.0  0.78246  0.33198  0.66093  1.0000
  S   S189      1.0  0.67610  0.38134  0.54534  1.0000
  C   C673      1.0  0.95886  0.29345  0.61126  1.0000
  H   H824      1.0  0.70784  0.44370  0.56548  1.0000
  C   C674      1.0  0.58799  0.19615  0.55905  1.0000
  H   H825      1.0  0.95866  0.47304  0.52570  1.0000
  S   S190      1.0  0.64445  0.10470  0.50608  1.0000
  C   C675      1.0  0.53899  0.40718  0.56278  1.0000
  S   S191      1.0  0.60639  0.18071  0.51126  1.0000
  Fe  Fe95      1.0  0.70130  0.13548  0.50730  1.0000
  S   S192      1.0  0.72331  0.11917  0.52756  1.0000
  H   H826      1.0  0.78521  0.27887  0.66377  1.0000
  H   H827      1.0  0.77570  0.48502  0.53156  1.0000
  S   S193      1.0  0.62077  0.33244  0.64142  1.0000
  S   S194      1.0  0.59115  0.25229  0.61337  1.0000
  C   C676      1.0  0.58774  0.39289  0.55326  1.0000
  S   S195      1.0  0.83447  0.47386  0.63346  1.0000
  Fe  Fe96      1.0  0.75382  0.19773  0.61095  1.0000
  S   S196      1.0  0.75104  0.23638  0.59209  1.0000
  S   S197      1.0  0.71098  0.14284  0.61867  1.0000
  Fe  Fe97      1.0  0.82434  0.24944  0.61770  1.0000
  S   S198      1.0  0.82829  0.29411  0.59957  1.0000
  S   S199      1.0  0.86271  0.25402  0.63470  1.0000
  Fe  Fe98      1.0  0.77250  0.28003  0.60844  1.0000
  S   S200      1.0  0.74618  0.31938  0.61015  1.0000
  Fe  Fe99      1.0  0.80665  0.24727  0.58456  1.0000
  S   S201      1.0  0.82350  0.25583  0.55869  1.0000
  S   S202      1.0  0.77034  0.24024  0.62817  1.0000
  S   S203      1.0  0.80749  0.20349  0.60182  1.0000
  H   H828      1.0  0.77551  0.12311  0.61958  1.0000
  H   H829      1.0  0.51296  0.46729  0.51220  1.0000
  Fe  Fe100     1.0  0.96497  0.13673  0.64983  1.0000
  S   S204      1.0  0.94837  0.09028  0.66886  1.0000
  S   S205      1.0  0.93337  0.13878  0.63054  1.0000
  Fe  Fe101     1.0  0.97155  0.13559  0.68438  1.0000
  C   C677      1.0  0.97392  0.16161  0.73529  1.0000
  S   S206      1.0  0.92537  0.40350  0.50768  1.0000
  H   H830      1.0  0.85467  0.47887  0.52165  1.0000
  H   H831      1.0  0.71166  0.45660  0.62974  1.0000
  H   H832      1.0  0.54137  0.42328  0.55147  1.0000
  C   C678      1.0  0.88162  0.22138  0.63356  1.0000
  C   C679      1.0  0.89495  0.21247  0.64664  1.0000
  C   C680      1.0  0.91057  0.18684  0.64589  1.0000
  C   C681      1.0  0.91307  0.17018  0.63200  1.0000
  C   C682      1.0  0.89952  0.17890  0.61896  1.0000
  C   C683      1.0  0.88392  0.20453  0.61971  1.0000
  H   H833      1.0  0.89306  0.22527  0.65742  1.0000
  H   H834      1.0  0.92010  0.17959  0.65613  1.0000
  H   H835      1.0  0.90156  0.16624  0.60816  1.0000
  H   H836      1.0  0.87454  0.21194  0.60944  1.0000
  C   C684      1.0  0.67100  0.28143  0.63812  1.0000
  S   S207      1.0  0.53309  0.28861  0.62207  1.0000
  C   C685      1.0  0.85033  0.19284  0.52136  1.0000
  C   C686      1.0  0.59672  0.44664  0.56780  1.0000
  H   H837      1.0  0.91812  0.05322  0.70718  1.0000
  C   C687      1.0  0.80951  0.42964  0.62822  1.0000
  C   C688      1.0  0.77605  0.42201  0.62454  1.0000
  C   C689      1.0  0.75670  0.38795  0.61911  1.0000
  C   C690      1.0  0.77068  0.36124  0.61743  1.0000
  C   C691      1.0  0.80380  0.36831  0.62152  1.0000
  C   C692      1.0  0.82322  0.40255  0.62698  1.0000
  H   H838      1.0  0.76506  0.44253  0.62578  1.0000
  H   H839      1.0  0.73096  0.38248  0.61611  1.0000
  H   H840      1.0  0.81450  0.34754  0.62044  1.0000
  H   H841      1.0  0.84908  0.40834  0.62984  1.0000
  H   H842      1.0  0.72979  0.09669  0.64099  1.0000
  C   C693      1.0  0.63521  0.18260  0.62416  1.0000
  C   C694      1.0  0.66791  0.18073  0.62112  1.0000
  C   C695      1.0  0.67079  0.14645  0.62261  1.0000
  H   H843      1.0  0.63291  0.20890  0.62289  1.0000
  H   H844      1.0  0.69076  0.20570  0.61756  1.0000
  C   C696      1.0  0.64423  0.37330  0.62916  1.0000
  C   C697      1.0  0.63522  0.37856  0.61433  1.0000
  C   C698      1.0  0.65377  0.41215  0.60509  1.0000
  C   C699      1.0  0.67217  0.40135  0.63456  1.0000
  H   H845      1.0  0.61374  0.35698  0.61013  1.0000
  H   H846      1.0  0.64709  0.41615  0.59358  1.0000
  H   H847      1.0  0.67930  0.39739  0.64600  1.0000
  C   C700      1.0  0.75087  0.15748  0.53613  1.0000
  C   C701      1.0  0.76539  0.19256  0.52795  1.0000
  C   C702      1.0  0.78775  0.22285  0.53487  1.0000
  C   C703      1.0  0.79544  0.21812  0.55003  1.0000
  C   C704      1.0  0.78063  0.18317  0.55829  1.0000
  C   C705      1.0  0.75878  0.15276  0.55125  1.0000
  H   H848      1.0  0.76043  0.19621  0.51609  1.0000
  H   H849      1.0  0.79859  0.24988  0.52850  1.0000
  H   H850      1.0  0.78649  0.17937  0.57000  1.0000
  H   H851      1.0  0.74793  0.12560  0.55755  1.0000
  C   C706      1.0  0.64069  0.34339  0.55488  1.0000
  C   C707      1.0  0.63330  0.34067  0.57120  1.0000
  C   C708      1.0  0.60205  0.31375  0.57869  1.0000
  H   H852      1.0  0.65100  0.36027  0.57801  1.0000
  H   H853      1.0  0.59585  0.31243  0.59124  1.0000
  H   H854      1.0  0.57401  0.23219  0.51693  1.0000
  C   C709      1.0  0.85203  0.45235  0.54440  1.0000
  C   C710      1.0  0.60874  0.11628  0.63043  1.0000
  C   C711      1.0  0.57836  0.28951  0.56986  1.0000
  H   H855      1.0  0.77385  0.16229  0.65708  1.0000
  C   C712      1.0  0.97672  0.31828  0.59831  1.0000
  C   C713      1.0  0.85664  0.09810  0.65881  1.0000
  H   H856      1.0  0.96325  0.33114  0.59166  1.0000
  H   H857      1.0  0.60286  0.44104  0.59276  1.0000
  S   S208      1.0  0.56319  0.43614  0.51581  1.0000
  H   H858      1.0  0.71332  0.20787  0.54683  1.0000
  C   C714      1.0  0.68606  0.23671  0.53616  1.0000
  C   C715      1.0  0.83494  0.10375  0.64866  1.0000
  C   C716      1.0  0.80773  0.11475  0.65423  1.0000
  H   H859      1.0  0.77375  0.30785  0.57361  1.0000
  C   C717      1.0  0.58644  0.29128  0.55361  1.0000
  H   H860      1.0  0.62418  0.31897  0.53359  1.0000
  C   C718      1.0  0.81228  0.16379  0.50215  1.0000
  H   H861      1.0  0.59824  0.46622  0.54349  1.0000
  C   C719      1.0  0.75016  0.46853  0.53864  1.0000
  H   H862      1.0  0.68441  0.11210  0.56065  1.0000
  H   H863      1.0  0.96086  0.25737  0.62976  1.0000
  H   H864      1.0  0.64103  0.22825  0.58697  1.0000
  H   H865      1.0  0.91632  0.01299  0.68568  1.0000
  H   H866      1.0  0.85795  0.28282  0.52705  1.0000
  H   H867      1.0  0.62454  0.26958  0.66392  1.0000
  C   C720      1.0  0.85036  0.45593  0.56052  1.0000
  H   H868      1.0  0.79184  0.08943  0.62490  1.0000
  S   S209      1.0  0.54740  0.23582  0.64879  1.0000
  H   H869      1.0  0.68530  0.45636  0.55113  1.0000
  C   C721      1.0  0.65245  0.28423  0.66539  1.0000
  C   C722      1.0  0.71184  0.29225  0.65695  1.0000
  C   C723      1.0  0.72698  0.33154  0.65592  1.0000
  C   C724      1.0  0.73376  0.27367  0.66004  1.0000
  C   C725      1.0  0.70591  0.46752  0.55883  1.0000
  C   C726      1.0  0.76861  0.29345  0.66189  1.0000
  S   S210      1.0  0.69177  0.40165  0.49984  1.0000
  H   H870      1.0  0.65802  0.31414  0.66332  1.0000
  H   H871      1.0  0.65554  0.27894  0.67781  1.0000
  H   H872      1.0  0.86975  0.09997  0.68235  1.0000
  H   H873      1.0  0.71242  0.34769  0.65295  1.0000
  H   H874      1.0  0.72487  0.24393  0.66073  1.0000
  H   H875      1.0  0.57234  0.21270  0.56205  1.0000
  C   C727      1.0  0.85439  0.48182  0.53409  1.0000
  H   H876      1.0  0.73815  0.09582  0.66088  1.0000
  N   N48       1.0  0.60630  0.19143  0.57231  1.0000
  C   C728      1.0  0.62896  0.22891  0.57613  1.0000
  Fe  Fe102     1.0  0.95417  0.45901  0.49419  1.0000
  C   C729      1.0  0.57965  0.17303  0.58601  1.0000
  C   C730      1.0  0.62736  0.16942  0.56885  1.0000
  C   C731      1.0  0.62903  0.15349  0.55436  1.0000
  C   C732      1.0  0.64713  0.16336  0.58021  1.0000
  C   C733      1.0  0.64962  0.13329  0.55152  1.0000
  C   C734      1.0  0.66753  0.14303  0.57727  1.0000
  C   C735      1.0  0.66870  0.12797  0.56295  1.0000
  H   H877      1.0  0.98454  0.07951  0.71559  1.0000
  S   S211      1.0  0.70114  0.19197  0.50318  1.0000
  H   H878      1.0  0.65023  0.24318  0.56643  1.0000
  C   C736      1.0  0.98570  0.00333  0.66608  1.0000
  H   H879      1.0  0.56946  0.16906  0.55590  1.0000
  H   H880      1.0  0.59122  0.17153  0.59693  1.0000
  H   H881      1.0  0.56242  0.18811  0.58864  1.0000
  H   H882      1.0  0.56294  0.14416  0.58393  1.0000
  H   H883      1.0  0.61497  0.15644  0.54494  1.0000
  H   H884      1.0  0.64684  0.17419  0.59152  1.0000
  H   H885      1.0  0.65104  0.12171  0.54035  1.0000
  H   H886      1.0  0.84896  0.43339  0.56855  1.0000
  C   C737      1.0  0.68119  0.44051  0.61067  1.0000
  S   S212      1.0  0.66093  0.45507  0.51959  1.0000
  S   S213      1.0  0.91281  0.47993  0.50143  1.0000
  H   H887      1.0  0.58351  0.29227  0.50284  1.0000
  C   C738      1.0  0.97486  0.16643  0.71903  1.0000
  H   H888      1.0  0.54949  0.35360  0.57900  1.0000
  Fe  Fe103     1.0  0.55550  0.20299  0.62921  1.0000
  C   C739      1.0  0.90715  0.02343  0.70966  1.0000
  C   C740      1.0  0.80355  0.11924  0.67052  1.0000
  C   C741      1.0  0.56651  0.38274  0.58066  1.0000
  C   C742      1.0  0.61488  0.22459  0.50224  1.0000
  H   H889      1.0  0.93153  0.28715  0.61467  1.0000
  H   H890      1.0  0.73045  0.45592  0.53062  1.0000
  H   H891      1.0  0.68245  0.13886  0.58617  1.0000
  H   H892      1.0  0.75298  0.44495  0.54504  1.0000
  H   H893      1.0  0.52734  0.41915  0.57213  1.0000
  C   C743      1.0  0.59446  0.24387  0.50719  1.0000
  C   C744      1.0  0.53815  0.48745  0.50713  1.0000
  H   H894      1.0  0.66962  0.21280  0.53078  1.0000
  C   C745      1.0  0.97596  0.27664  0.61988  1.0000
  H   H895      1.0  0.82246  0.11827  0.69285  1.0000
  H   H896      1.0  0.61414  0.24662  0.57822  1.0000
  C   C746      1.0  0.61781  0.31798  0.54614  1.0000
  C   C747      1.0  0.82573  0.11401  0.68050  1.0000
  H   H897      1.0  0.67686  0.22028  0.64868  1.0000
  C   C748      1.0  0.85311  0.22748  0.49704  1.0000
  C   C749      1.0  0.82431  0.16183  0.51650  1.0000
  H   H898      1.0  0.81215  0.13654  0.52422  1.0000
  C   C750      1.0  0.69064  0.43485  0.62533  1.0000
  C   C751      1.0  0.56758  0.47940  0.50760  1.0000
  H   H899      1.0  0.78319  0.12707  0.67565  1.0000
  H   H900      1.0  0.85724  0.18970  0.53289  1.0000
  H   H901      1.0  0.81133  0.17998  0.64259  1.0000
  N   N49       1.0  0.78411  0.12090  0.64390  1.0000
  C   C752      1.0  0.74823  0.09330  0.64871  1.0000
  H   H902      1.0  0.74426  0.36208  0.57756  1.0000
  C   C753      1.0  0.78450  0.15852  0.64524  1.0000
  N   N50       1.0  0.57290  0.40796  0.56631  1.0000
  H   H903      1.0  0.93322  0.25049  0.50216  1.0000
  S   S214      1.0  0.50735  0.19873  0.61906  1.0000
  Fe  Fe104     1.0  0.66121  0.39848  0.52303  1.0000
  H   H904      1.0  0.80963  0.34725  0.66202  1.0000
  N   N51       1.0  0.67512  0.27244  0.65448  1.0000
  H   H905      1.0  0.63452  0.21767  0.65522  1.0000
  H   H906      1.0  0.79861  0.35535  0.56811  1.0000
  H   H907      1.0  0.84061  0.09999  0.63647  1.0000
  C   C754      1.0  0.72907  0.33834  0.57106  1.0000
  H   H908      1.0  0.77917  0.36244  0.53568  1.0000
  H   H909      1.0  0.70704  0.34394  0.56726  1.0000
  H   H910      1.0  0.78222  0.39091  0.55171  1.0000
  C   C755      1.0  0.76160  0.35096  0.65809  1.0000
  H   H911      1.0  0.59116  0.38206  0.58388  1.0000
  H   H912      1.0  0.52200  0.00985  0.49291  1.0000
  H   H913      1.0  0.66309  0.27204  0.52710  1.0000
  H   H914      1.0  0.82009  0.13821  0.62259  1.0000
  H   H915      1.0  0.76854  0.16476  0.63695  1.0000
  C   C756      1.0  0.85231  0.10359  0.67464  1.0000
  Fe  Fe105     1.0  0.57904  0.28544  0.63198  1.0000
  C   C757      1.0  0.94989  0.47519  0.53813  1.0000
  C   C758      1.0  0.76438  0.36641  0.54645  1.0000
  H   H916      1.0  0.71800  0.31348  0.57965  1.0000
  Fe  Fe106     1.0  0.54231  0.25111  0.60485  1.0000
  C   C759      1.0  0.78148  0.32923  0.56357  1.0000
  H   H917      1.0  0.87755  0.09027  0.65424  1.0000
  H   H918      1.0  0.56845  0.27210  0.54677  1.0000
  H   H919      1.0  0.64320  0.08783  0.62838  1.0000
  H   H920      1.0  0.76010  0.45835  0.49737  1.0000
  H   H921      1.0  0.67996  0.31173  0.63510  1.0000
  H   H922      1.0  0.87176  0.29710  0.50666  1.0000
  H   H923      1.0  0.90074  0.31665  0.52060  1.0000
  H   H924      1.0  0.74368  0.37465  0.54292  1.0000
  N   N52       1.0  0.75092  0.33272  0.55761  1.0000
  H   H925      1.0  0.79784  0.32258  0.55415  1.0000
  Fe  Fe107     1.0  0.61161  0.42626  0.50937  1.0000
  C   C760      1.0  0.79347  0.11771  0.62704  1.0000
  C   C761      1.0  0.88034  0.29046  0.51770  1.0000
  H   H926      1.0  0.61499  0.39736  0.55450  1.0000
  C   C762      1.0  0.60562  0.15028  0.62890  1.0000
  H   H927      1.0  0.88270  0.24683  0.54141  1.0000
  H   H928      1.0  0.77266  0.38098  0.65693  1.0000
  C   C763      1.0  0.72953  0.29978  0.55000  1.0000
  C   C764      1.0  0.73228  0.26505  0.55199  1.0000
  H   H929      1.0  0.75110  0.26113  0.55864  1.0000
  H   H930      1.0  0.69900  0.32594  0.53935  1.0000
  S   S215      1.0  0.53903  0.25651  0.57916  1.0000
  H   H931      1.0  0.52025  0.37842  0.56173  1.0000
  C   C765      1.0  0.64116  0.11434  0.62725  1.0000
  C   C766      1.0  0.70349  0.30107  0.54105  1.0000
  H   H932      1.0  0.95630  0.45499  0.54508  1.0000
  C   C767      1.0  0.68242  0.27013  0.53410  1.0000
  Fe  Fe108     1.0  0.64568  0.16099  0.49989  1.0000
  S   S216      1.0  0.70242  0.48335  0.59947  1.0000
  H   H933      1.0  0.94595  0.29719  0.50778  1.0000
  H   H934      1.0  0.68626  0.27130  0.62959  1.0000
  N   N53       1.0  0.89310  0.26039  0.51637  1.0000
  C   C768      1.0  0.92407  0.27306  0.50431  1.0000
  S   S217      1.0  0.60929  0.36937  0.51495  1.0000
  H   H935      1.0  0.58591  0.09123  0.63404  1.0000
  H   H936      1.0  0.91498  0.23267  0.53145  1.0000
  C   C769      1.0  0.71069  0.23407  0.54519  1.0000
  H   H937      1.0  0.95170  0.02284  0.65499  1.0000
  H   H938      1.0  0.55334  0.39090  0.59083  1.0000
  H   H939      1.0  0.60653  0.21092  0.54844  1.0000
  S   S218      1.0  0.94721  0.13098  0.70913  1.0000
  H   H940      1.0  0.66428  0.22267  0.66925  1.0000
  C   C770      1.0  0.90447  0.25457  0.53166  1.0000
  C   C771      1.0  0.66232  0.23151  0.65708  1.0000
  C   C772      1.0  0.90610  0.00070  0.69756  1.0000
  H   H941      1.0  0.64342  0.26887  0.63601  1.0000
  Fe  Fe109     1.0  0.50197  0.23586  0.63733  1.0000
  S   S219      1.0  0.56418  0.15077  0.63303  1.0000
  H   H942      1.0  0.92516  0.28026  0.53479  1.0000
  C   C773      1.0  0.86559  0.22679  0.51170  1.0000
  H   H943      1.0  0.57281  0.36264  0.55276  1.0000
  H   H944      1.0  0.89430  0.02555  0.73431  1.0000
  H   H945      1.0  0.93481  0.47208  0.59594  1.0000
  S   S220      1.0  0.98379  0.18210  0.66585  1.0000
  H   H946      1.0  0.79110  0.14012  0.49878  1.0000
  H   H947      1.0  0.92122  0.46560  0.53947  1.0000
  H   H948      1.0  0.54460  0.12861  0.49209  1.0000
  C   C774      1.0  0.60759  0.47334  0.55466  1.0000
  H   H949      1.0  0.69663  0.48259  0.56761  1.0000
  C   C775      1.0  0.59995  0.27793  0.49927  1.0000
  H   H950      1.0  0.82783  0.30994  0.49384  1.0000
  Fe  Fe110     1.0  0.68720  0.45583  0.49549  1.0000
  C   C776      1.0  0.95476  0.99909  0.66023  1.0000
  C   C777      1.0  0.89367  0.00776  0.72491  1.0000
  H   H951      1.0  0.77291  0.48207  0.56521  1.0000
  H   H952      1.0  0.91884  0.28256  0.49287  1.0000
  H   H953      1.0  0.54415  0.37827  0.49295  1.0000
  Fe  Fe111     1.0  0.63985  0.37760  0.49133  1.0000
  S   S221      1.0  0.85562  0.40029  0.49229  1.0000
  C   C778      1.0  0.82665  0.19659  0.49243  1.0000
  C   C779      1.0  0.85201  0.48928  0.56630  1.0000
  C   C780      1.0  0.78861  0.03436  0.81087  1.0000
  S   S222      1.0  0.77277  0.37277  0.97483  1.0000
  C   C781      1.0  0.91811  0.02910  0.77695  1.0000
  H   H954      1.0  0.88854  0.12998  0.77441  1.0000
  C   C782      1.0  0.93885  0.43106  0.96791  1.0000
  C   C783      1.0  0.90683  0.42179  0.97723  1.0000
  C   C784      1.0  0.94669  0.04626  0.80019  1.0000
  C   C785      1.0  0.93879  0.06426  0.76952  1.0000
  H   H955      1.0  0.94953  0.03927  0.81211  1.0000
  C   C786      1.0  0.87761  0.07396  0.81410  1.0000
  H   H956      1.0  0.55981  0.06387  0.97641  1.0000
  H   H957      1.0  0.97903  0.11773  0.77175  1.0000
  S   S223      1.0  0.87020  0.38371  0.97307  1.0000
  C   C787      1.0  0.68866  0.41062  0.98174  1.0000
  H   H958      1.0  0.82109  0.02010  0.83340  1.0000
  H   H959      1.0  0.94084  0.41472  0.95832  1.0000
  C   C788      1.0  0.90686  0.10671  0.80972  1.0000
  H   H960      1.0  0.98269  0.02053  0.77200  1.0000
  C   C789      1.0  0.92233  0.02010  0.79224  1.0000
  H   H961      1.0  0.78467  0.04802  0.80012  1.0000
  C   C790      1.0  0.96364  0.09036  0.77739  1.0000
  C   C791      1.0  0.96735  0.08142  0.79281  1.0000
  H   H962      1.0  0.92736  0.11603  0.81717  1.0000
  N   N54       1.0  0.56420  0.01317  0.98405  1.0000
  H   H963      1.0  0.56070  0.03426  0.96113  1.0000
  H   H964      1.0  0.61570  0.03808  0.97117  1.0000
  C   C792      1.0  0.64098  0.21490  0.98460  1.0000
  C   C793      1.0  0.65426  0.40202  0.97894  1.0000
  H   H965      1.0  0.62870  0.22818  0.97747  1.0000
  H   H966      1.0  0.70421  0.39838  0.97519  1.0000
  H   H967      1.0  0.93528  0.07143  0.75775  1.0000
  C   C794      1.0  0.63387  0.41750  0.98749  1.0000
  H   H968      1.0  0.84445  0.44606  0.97347  1.0000
  S   S224      1.0  0.69847  0.27855  0.97759  1.0000
  H   H969      1.0  0.87683  0.05955  0.82514  1.0000
  N   N55       1.0  0.81982  0.02567  0.80839  1.0000
  S   S225      1.0  0.59022  0.40487  0.98461  1.0000
  H   H970      1.0  0.83370  0.46581  0.95647  1.0000
  C   C795      1.0  0.96835  0.46150  0.97092  1.0000
  H   H971      1.0  0.83644  0.07368  0.78187  1.0000
  C   C796      1.0  0.83334  0.46576  0.96942  1.0000
  H   H972      1.0  0.80545  0.45423  0.97438  1.0000
  H   H973      1.0  0.89052  0.47553  0.95332  1.0000
  H   H974      1.0  0.76461  0.00877  0.81422  1.0000
  C   C797      1.0  0.85108  0.06039  0.80422  1.0000
  C   C798      1.0  0.91077  0.12676  0.79546  1.0000
  C   C799      1.0  0.88516  0.11447  0.78559  1.0000
  H   H975      1.0  0.79068  0.05325  0.82037  1.0000
  C   C800      1.0  0.85558  0.08198  0.78992  1.0000
  H   H976      1.0  0.64331  0.38299  0.97031  1.0000
  H   H977      1.0  0.93411  0.15146  0.79196  1.0000
  H   H978      1.0  0.52235  0.02294  0.97485  1.0000
  C   C801      1.0  0.55119  0.03443  0.97367  1.0000
  H   H979      1.0  0.63980  0.31055  0.98450  1.0000
  C   C802      1.0  0.96584  0.48285  0.98325  1.0000
  H   H980      1.0  0.80998  0.01219  0.78461  1.0000
  Fe  Fe112     1.0  0.81724  0.37064  0.98653  1.0000
  H   H981      1.0  0.95541  0.13643  0.74180  1.0000
  C   C803      1.0  0.67581  0.23369  0.98670  1.0000
  C   C804      1.0  0.60229  0.03400  0.98336  1.0000
  H   H982      1.0  0.58483  0.26313  0.98594  1.0000
  H   H983      1.0  0.58525  0.32440  0.98903  1.0000
  S   S226      1.0  0.88804  0.99649  0.76670  1.0000
  C   C805      1.0  0.82088  0.00450  0.82287  1.0000
  C   C806      1.0  0.81587  0.00099  0.79546  1.0000
  H   H984      1.0  0.60881  0.06231  0.98733  1.0000
  C   C807      1.0  0.90456  0.44296  0.98963  1.0000
  Fe  Fe113     1.0  0.74087  0.31928  0.98925  1.0000
  H   H985      1.0  0.99292  0.46848  0.96370  1.0000
  H   H986      1.0  0.84397  0.99725  0.82179  1.0000
  H   H987      1.0  0.84007  0.99653  0.79234  1.0000
  H   H988      1.0  0.99297  0.09616  0.74266  1.0000
  H   H989      1.0  0.95597  0.99571  0.75194  1.0000
  H   H990      1.0  0.90715  0.99299  0.79799  1.0000
  H   H991      1.0  0.59474  0.16514  0.99032  1.0000
  Fe  Fe114     1.0  0.81625  0.65754  0.18747  1.0000
  S   S227      1.0  0.78336  0.66060  0.20918  1.0000
  S   S228      1.0  0.80217  0.61076  0.17182  1.0000
  Fe  Fe115     1.0  0.83426  0.69023  0.21821  1.0000
  H   H992      1.0  0.82972  0.82278  0.18102  1.0000
  Fe  Fe116     1.0  0.79196  0.71661  0.19846  1.0000
  S   S229      1.0  0.74810  0.73566  0.20011  1.0000
  C   C808      1.0  0.96484  0.83772  0.20844  1.0000
  H   H993      1.0  0.63279  0.79438  0.17236  1.0000
  S   S230      1.0  0.82106  0.71162  0.17605  1.0000
  C   C809      1.0  0.77923  0.50197  0.16821  1.0000
  C   C810      1.0  0.90539  0.87046  0.15729  1.0000
  S   S231      1.0  0.71341  0.90313  0.16134  1.0000
  Fe  Fe117     1.0  0.76631  0.90351  0.15561  1.0000
  S   S232      1.0  0.77214  0.85527  0.14469  1.0000
  N   N56       1.0  0.49919  0.55230  0.00808  1.0000
  C   C811      1.0  0.67170  0.84998  0.13124  1.0000
  S   S233      1.0  0.78364  0.92219  0.17866  1.0000
  C   C812      1.0  0.94261  0.75043  0.23553  1.0000
  H   H994      1.0  0.74052  0.87968  0.11956  1.0000
  C   C813      1.0  0.87999  0.93996  0.19628  1.0000
  Fe  Fe118     1.0  0.86850  0.73668  0.18798  1.0000
  C   C814      1.0  0.90810  0.72958  0.23344  1.0000
  H   H995      1.0  0.96198  0.83573  0.22113  1.0000
  C   C815      1.0  0.68699  0.84631  0.10356  1.0000
  S   S234      1.0  0.83987  0.74692  0.20947  1.0000
  H   H996      1.0  0.65992  0.82635  0.10298  1.0000
  H   H997      1.0  0.96138  0.74183  0.18149  1.0000
  H   H998      1.0  0.86407  0.90484  0.15186  1.0000
  C   C816      1.0  0.68481  0.82490  0.13749  1.0000
  H   H999      1.0  0.91475  0.86350  0.18954  1.0000
  H   H1000     1.0  0.90969  0.95145  0.21563  1.0000
  C   C817      1.0  0.76168  0.81957  0.15948  1.0000
  C   C818      1.0  0.77261  0.79074  0.15705  1.0000
  C   C819      1.0  0.76775  0.76433  0.16942  1.0000
  C   C820      1.0  0.75159  0.76645  0.18416  1.0000
  C   C821      1.0  0.73877  0.79398  0.18632  1.0000
  C   C822      1.0  0.74431  0.82093  0.17406  1.0000
  H   H1001     1.0  0.78581  0.78948  0.14574  1.0000
  H   H1002     1.0  0.77652  0.74242  0.16747  1.0000
  H   H1003     1.0  0.72539  0.79509  0.19760  1.0000
  H   H1004     1.0  0.73520  0.84278  0.17592  1.0000
  C   C823      1.0  0.75914  0.57855  0.17603  1.0000
  C   C824      1.0  0.74221  0.57059  0.19139  1.0000
  C   C825      1.0  0.70797  0.54424  0.19455  1.0000
  C   C826      1.0  0.69051  0.52604  0.18236  1.0000
  C   C827      1.0  0.70727  0.53448  0.16698  1.0000
  C   C828      1.0  0.74159  0.56063  0.16382  1.0000
  H   H1005     1.0  0.75580  0.58386  0.20089  1.0000
  H   H1006     1.0  0.69508  0.53764  0.20648  1.0000
  H   H1007     1.0  0.69376  0.52091  0.15755  1.0000
  H   H1008     1.0  0.75456  0.56718  0.15192  1.0000
  C   C829      1.0  0.51847  0.53260  0.03284  1.0000
  C   C830      1.0  0.54433  0.52879  0.04081  1.0000
  H   H1009     1.0  0.68202  0.78692  0.15679  1.0000
  C   C831      1.0  0.85437  0.82708  0.17357  1.0000
  H   H1010     1.0  0.92175  0.85938  0.16335  1.0000
  H   H1011     1.0  0.98045  0.69267  0.22287  1.0000
  C   C832      1.0  0.94074  0.81059  0.20059  1.0000
  H   H1012     1.0  0.84382  0.85763  0.14780  1.0000
  C   C833      1.0  0.88247  0.88976  0.18074  1.0000
  H   H1013     1.0  0.93153  0.90201  0.21102  1.0000
  H   H1014     1.0  0.68372  0.91224  0.09953  1.0000
  S   S235      1.0  0.70354  0.90440  0.20733  1.0000
  H   H1015     1.0  0.72658  0.91429  0.12666  1.0000
  C   C834      1.0  0.67079  0.80503  0.15211  1.0000
  H   H1016     1.0  0.82616  0.87334  0.16437  1.0000
  H   H1017     1.0  0.86985  0.81697  0.18074  1.0000
  N   N57       1.0  0.87332  0.86644  0.16747  1.0000
  C   C835      1.0  0.99237  0.86744  0.19983  1.0000
  C   C836      1.0  0.87054  0.91835  0.18368  1.0000
  H   H1018     1.0  0.84785  0.80851  0.16388  1.0000
  H   H1019     1.0  0.97616  0.84363  0.16298  1.0000
  C   C837      1.0  0.73278  0.92146  0.22095  1.0000
  H   H1020     1.0  0.83350  0.83145  0.21729  1.0000
  C   C838      1.0  0.67067  0.89591  0.11092  1.0000
  H   H1021     1.0  0.90007  0.72964  0.22194  1.0000
  H   H1022     1.0  0.77788  0.88338  0.21897  1.0000
  C   C839      1.0  0.64330  0.85349  0.14048  1.0000
  H   H1023     1.0  0.81597  0.88011  0.20943  1.0000
  S   S236      1.0  0.64768  0.49332  0.18669  1.0000
  H   H1024     1.0  0.72437  0.83257  0.22319  1.0000
  H   H1025     1.0  0.85459  0.92530  0.17620  1.0000
  H   H1026     1.0  0.73766  0.91382  0.10609  1.0000
  H   H1027     1.0  0.77021  0.96569  0.20494  1.0000
  N   N58       1.0  0.68883  0.64207  0.17494  1.0000
  C   C840      1.0  0.68363  0.62877  0.19179  1.0000
  C   C841      1.0  0.72635  0.65451  0.16930  1.0000
  C   C842      1.0  0.67911  0.67439  0.17395  1.0000
  C   C843      1.0  0.66817  0.61367  0.16507  1.0000
  C   C844      1.0  0.64455  0.57765  0.17131  1.0000
  C   C845      1.0  0.67080  0.62201  0.14865  1.0000
  C   C846      1.0  0.62475  0.55195  0.16168  1.0000
  C   C847      1.0  0.65091  0.59601  0.13913  1.0000
  C   C848      1.0  0.62781  0.56108  0.14564  1.0000
  H   H1028     1.0  0.65618  0.62031  0.19707  1.0000
  H   H1029     1.0  0.69126  0.60496  0.19341  1.0000
  H   H1030     1.0  0.69977  0.65066  0.19886  1.0000
  H   H1031     1.0  0.73416  0.63062  0.16890  1.0000
  H   H1032     1.0  0.74268  0.67400  0.17712  1.0000
  H   H1033     1.0  0.73363  0.66915  0.15737  1.0000
  H   H1034     1.0  0.65074  0.66581  0.17741  1.0000
  H   H1035     1.0  0.69286  0.69559  0.18183  1.0000
  H   H1036     1.0  0.68577  0.68863  0.16194  1.0000
  H   H1037     1.0  0.64108  0.56819  0.18356  1.0000
  H   H1038     1.0  0.68825  0.64876  0.14306  1.0000
  H   H1039     1.0  0.60713  0.52452  0.16671  1.0000
  H   H1040     1.0  0.65332  0.60286  0.12661  1.0000
  H   H1041     1.0  0.61230  0.54090  0.13827  1.0000
  S   S237      1.0  0.91498  0.78048  0.17375  1.0000
  H   H1042     1.0  0.60821  0.83701  0.16206  1.0000
  H   H1043     1.0  0.69754  0.86171  0.09179  1.0000
  C   C849      1.0  0.94476  0.81277  0.18417  1.0000
  C   C850      1.0  0.85094  0.87612  0.15748  1.0000
  C   C851      1.0  0.56103  0.56129  0.01005  1.0000
  H   H1044     1.0  0.81919  0.50390  0.13969  1.0000
  C   C852      1.0  0.62937  0.83333  0.15507  1.0000
  N   N59       1.0  0.68799  0.87170  0.11599  1.0000
  H   H1045     1.0  0.80177  0.50811  0.12198  1.0000
  Fe  Fe119     1.0  0.73825  0.96160  0.15061  1.0000
  H   H1046     1.0  0.70280  0.83000  0.10554  1.0000
  C   C853      1.0  0.78975  0.86345  0.21577  1.0000
  C   C854      1.0  0.57832  0.54105  0.03349  1.0000
  H   H1047     1.0  0.63182  0.87223  0.13690  1.0000
  C   C855      1.0  0.91383  0.90619  0.20363  1.0000
  H   H1048     1.0  0.79117  0.79517  0.21734  1.0000
  C   C856      1.0  0.64317  0.80929  0.16090  1.0000
  H   H1049     1.0  0.64310  0.87958  0.10943  1.0000
  C   C857      1.0  0.58666  0.55727  0.01814  1.0000
  C   C858      1.0  0.97268  0.84200  0.17567  1.0000
  H   H1050     1.0  0.92161  0.90011  0.15341  1.0000
  C   C859      1.0  0.78827  0.96422  0.22734  1.0000
  Fe  Fe120     1.0  0.73253  0.92710  0.18341  1.0000
  C   C860      1.0  0.72520  0.81766  0.23386  1.0000
  C   C861      1.0  0.50919  0.59120  0.00175  1.0000
  H   H1051     1.0  0.59800  0.53696  0.03960  1.0000
  C   C862      1.0  0.90427  0.88430  0.19117  1.0000
  H   H1052     1.0  0.56858  0.57298  0.99802  1.0000
  H   H1053     1.0  0.61298  0.56585  0.01236  1.0000
  H   H1054     1.0  0.67162  0.91671  0.11947  1.0000
  H   H1055     1.0  0.89958  0.85503  0.14665  1.0000
  C   C863      1.0  0.90172  0.93400  0.20618  1.0000
  H   H1056     1.0  0.79830  0.53591  0.13750  1.0000
  H   H1057     1.0  0.91925  0.78800  0.20722  1.0000
  C   C864      1.0  0.96831  0.71330  0.20179  1.0000
  H   H1058     1.0  0.94462  0.68906  0.20148  1.0000
  H   H1059     1.0  0.96085  0.76683  0.22565  1.0000
  S   S238      1.0  0.86674  0.68207  0.19744  1.0000
  Fe  Fe121     1.0  0.80193  0.97966  0.16711  1.0000
  H   H1060     1.0  0.70680  0.82131  0.13133  1.0000
  H   H1061     1.0  0.77479  0.84546  0.20717  1.0000
  H   H1062     1.0  0.51374  0.61009  0.01134  1.0000
  C   C865      1.0  0.52611  0.54924  0.01717  1.0000
  C   C866      1.0  0.76430  0.95170  0.21658  1.0000
  H   H1063     1.0  0.70092  0.88049  0.23939  1.0000
  C   C867      1.0  0.72473  0.89573  0.11708  1.0000
  C   C868      1.0  0.79719  0.50792  0.13498  1.0000
  C   C869      1.0  0.80794  0.81620  0.22454  1.0000
  N   N60       1.0  0.79132  0.84143  0.22987  1.0000
  H   H1064     1.0  0.87107  0.96213  0.19805  1.0000
  C   C870      1.0  0.97781  0.74309  0.19055  1.0000
  S   S239      1.0  0.79027  0.96045  0.14338  1.0000
  H   H1065     1.0  0.98130  0.93368  0.23143  1.0000
  C   C871      1.0  0.96101  0.97514  0.23682  1.0000
  H   H1066     1.0  0.53785  0.51534  0.05262  1.0000
  H   H1067     1.0  0.73516  0.51206  0.13671  1.0000
  C   C872      1.0  0.77081  0.50057  0.18444  1.0000
  H   H1068     1.0  0.78847  0.52049  0.19120  1.0000
  H   H1069     1.0  0.83915  0.88640  0.23332  1.0000
  H   H1070     1.0  0.80372  0.52341  0.16323  1.0000
  H   H1071     1.0  0.81279  0.80083  0.23452  1.0000
  C   C873      1.0  0.98867  0.71524  0.21374  1.0000
  H   H1072     1.0  0.91215  0.96244  0.14062  1.0000
  C   C874      1.0  0.95969  0.93905  0.23704  1.0000
  H   H1073     1.0  0.85616  0.52817  0.99655  1.0000
  H   H1074     1.0  0.68768  0.98983  0.16170  1.0000
  C   C875      1.0  0.72529  0.90380  0.23607  1.0000
  H   H1075     1.0  0.53304  0.60140  0.99314  1.0000
  H   H1076     1.0  0.86271  0.97993  0.14845  1.0000
  S   S240      1.0  0.75185  0.98619  0.17339  1.0000
  C   C876      1.0  0.91304  0.97953  0.15025  1.0000
  S   S241      1.0  0.71652  0.98091  0.13108  1.0000
  C   C877      1.0  0.75687  0.81944  0.23887  1.0000
  S   S242      1.0  0.97582  0.97748  0.15306  1.0000
  H   H1077     1.0  0.81257  0.98769  0.22390  1.0000
  H   H1078     1.0  0.66940  0.79525  0.23855  1.0000
  C   C878      1.0  0.81384  0.86772  0.23998  1.0000
  C   C879      1.0  0.88520  0.98956  0.15462  1.0000
  C   C880      1.0  0.49563  0.52867  0.99480  1.0000
  C   C881      1.0  0.84750  0.50071  0.99175  1.0000
  Fe  Fe122     1.0  0.80089  0.92527  0.27771  1.0000
  H   H1079     1.0  0.92018  0.87763  0.31812  1.0000
  H   H1080     1.0  0.67198  0.66551  0.42482  1.0000
  H   H1081     1.0  0.50171  0.90273  0.36346  1.0000
  H   H1082     1.0  0.67196  0.62096  0.42103  1.0000
  C   C882      1.0  0.95371  0.74960  0.25025  1.0000
  H   H1083     1.0  0.53189  0.87249  0.41243  1.0000
  H   H1084     1.0  0.61431  0.64266  0.43671  1.0000
  Fe  Fe123     1.0  0.53832  0.68101  0.31870  1.0000
  S   S243      1.0  0.52429  0.67762  0.34486  1.0000
  S   S244      1.0  0.59262  0.70196  0.30573  1.0000
  H   H1085     1.0  0.93133  0.92640  0.31884  1.0000
  C   C883      1.0  0.72759  0.96607  0.27617  1.0000
  C   C884      1.0  0.79957  0.72285  0.26655  1.0000
  H   H1086     1.0  0.93585  0.86672  0.36038  1.0000
  Fe  Fe124     1.0  0.75229  0.87784  0.30547  1.0000
  S   S245      1.0  0.76406  0.86579  0.28071  1.0000
  S   S246      1.0  0.69810  0.86096  0.31786  1.0000
  Fe  Fe125     1.0  0.80781  0.85552  0.28960  1.0000
  S   S247      1.0  0.82827  0.81571  0.27905  1.0000
  Fe  Fe126     1.0  0.82742  0.92160  0.30900  1.0000
  Fe  Fe127     1.0  0.52846  0.60662  0.43779  1.0000
  S   S248      1.0  0.54295  0.64177  0.45778  1.0000
  S   S249      1.0  0.56215  0.62779  0.41483  1.0000
  Fe  Fe128     1.0  0.53470  0.58873  0.47140  1.0000
  H   H1087     1.0  0.89515  0.86278  0.35430  1.0000
  C   C885      1.0  0.65731  0.59125  0.45062  1.0000
  H   H1088     1.0  0.51633  0.85509  0.34590  1.0000
  C   C886      1.0  0.93046  0.90952  0.24434  1.0000
  H   H1089     1.0  0.70407  0.65204  0.43172  1.0000
  C   C887      1.0  0.70226  0.93073  0.28096  1.0000
  S   S250      1.0  0.78597  0.93872  0.30172  1.0000
  H   H1090     1.0  0.64445  0.63969  0.46813  1.0000
  H   H1091     1.0  0.64980  0.82026  0.28083  1.0000
  N   N61       1.0  0.65267  0.62468  0.44476  1.0000
  H   H1092     1.0  0.79090  0.71019  0.25560  1.0000
  S   S251      1.0  0.49849  0.70279  0.31297  1.0000
  C   C888      1.0  0.69568  0.56271  0.45930  1.0000
  C   C889      1.0  0.92205  0.86622  0.34999  1.0000
  S   S252      1.0  0.84152  0.68079  0.24323  1.0000
  C   C890      1.0  0.63481  0.52512  0.45961  1.0000
  C   C891      1.0  0.53953  0.60819  0.39933  1.0000
  C   C892      1.0  0.55272  0.62419  0.38402  1.0000
  C   C893      1.0  0.53289  0.61163  0.37175  1.0000
  H   H1093     1.0  0.98926  0.92341  0.32383  1.0000
  C   C894      1.0  0.67441  0.93306  0.25791  1.0000
  H   H1094     1.0  0.57787  0.64695  0.38170  1.0000
  H   H1095     1.0  0.54311  0.62413  0.35994  1.0000
  C   C895      1.0  0.62159  0.74588  0.30955  1.0000
  C   C896      1.0  0.61087  0.76785  0.31941  1.0000
  C   C897      1.0  0.63470  0.80302  0.32214  1.0000
  C   C898      1.0  0.66929  0.81602  0.31517  1.0000
  C   C899      1.0  0.68001  0.79390  0.30541  1.0000
  C   C900      1.0  0.65606  0.75914  0.30243  1.0000
  H   H1096     1.0  0.58424  0.75775  0.32488  1.0000
  H   H1097     1.0  0.62636  0.82016  0.32968  1.0000
  H   H1098     1.0  0.70663  0.80370  0.30002  1.0000
  H   H1099     1.0  0.66423  0.74248  0.29462  1.0000
  C   C901      1.0  0.90202  0.91580  0.25105  1.0000
  C   C902      1.0  0.61686  0.61717  0.44136  1.0000
  H   H1100     1.0  0.89547  0.97393  0.36710  1.0000
  C   C903      1.0  0.50733  0.86041  0.39137  1.0000
  H   H1101     1.0  0.68158  0.84960  0.26518  1.0000
  H   H1102     1.0  0.70470  0.91715  0.29167  1.0000
  H   H1103     1.0  0.56083  0.80081  0.38331  1.0000
  H   H1104     1.0  0.93804  0.72831  0.27448  1.0000
  C   C904      1.0  0.90373  0.79959  0.30991  1.0000
  C   C905      1.0  0.90806  0.79599  0.29378  1.0000
  C   C906      1.0  0.88453  0.80029  0.28427  1.0000
  C   C907      1.0  0.85709  0.80889  0.29086  1.0000
  C   C908      1.0  0.85231  0.81145  0.30702  1.0000
  C   C909      1.0  0.87526  0.80628  0.31655  1.0000
  H   H1105     1.0  0.92942  0.78971  0.28863  1.0000
  H   H1106     1.0  0.88799  0.79752  0.27180  1.0000
  H   H1107     1.0  0.83059  0.81680  0.31226  1.0000
  H   H1108     1.0  0.87128  0.80820  0.32905  1.0000
  N   N62       1.0  0.64960  0.87468  0.27682  1.0000
  H   H1109     1.0  0.95697  0.98631  0.28480  1.0000
  C   C910      1.0  0.90269  0.95169  0.25055  1.0000
  C   C911      1.0  0.67503  0.91292  0.27189  1.0000
  C   C912      1.0  0.97417  0.89905  0.33240  1.0000
  H   H1110     1.0  0.81999  0.85345  0.24990  1.0000
  H   H1111     1.0  0.66681  0.75972  0.26342  1.0000
  H   H1112     1.0  0.58588  0.93557  0.45986  1.0000
  C   C913      1.0  0.75427  0.79836  0.25307  1.0000
  C   C914      1.0  0.69167  0.77626  0.25663  1.0000
  C   C915      1.0  0.62225  0.86035  0.26635  1.0000
  H   H1113     1.0  0.65029  0.88003  0.30178  1.0000
  H   H1114     1.0  0.92585  0.91847  0.28933  1.0000
  S   S253      1.0  0.98386  0.74618  0.29847  1.0000
  C   C916      1.0  0.96747  0.90724  0.27719  1.0000
  C   C917      1.0  0.50724  0.57841  0.40228  1.0000
  C   C918      1.0  0.69336  0.68961  0.29951  1.0000
  H   H1115     1.0  0.81420  0.66563  0.27719  1.0000
  H   H1116     1.0  0.65518  0.92184  0.25007  1.0000
  H   H1117     1.0  0.71293  0.61968  0.45174  1.0000
  H   H1118     1.0  0.50813  0.74416  0.41377  1.0000
  C   C919      1.0  0.55955  0.83273  0.48071  1.0000
  H   H1119     1.0  0.50695  0.68663  0.41796  1.0000
  H   H1120     1.0  0.69972  0.98271  0.24224  1.0000
  H   H1121     1.0  0.79173  0.69491  0.30502  1.0000
  S   S254      1.0  0.79266  0.86166  0.31479  1.0000
  S   S255      1.0  0.84556  0.91402  0.28471  1.0000
  C   C920      1.0  0.72218  0.77732  0.26183  1.0000
  H   H1122     1.0  0.65622  0.67693  0.45311  1.0000
  H   H1123     1.0  0.89281  0.89353  0.33017  1.0000
  C   C921      1.0  0.78643  0.66172  0.27859  1.0000
  C   C922      1.0  0.95175  0.93028  0.28289  1.0000
  H   H1124     1.0  0.84378  0.53868  0.45312  1.0000
  H   H1125     1.0  0.68840  0.66172  0.45893  1.0000
  H   H1126     1.0  0.60879  0.59688  0.43238  1.0000
  C   C923      1.0  0.66789  0.52853  0.46225  1.0000
  H   H1127     1.0  0.49743  0.64457  0.40906  1.0000
  C   C924      1.0  0.72883  0.69700  0.29751  1.0000
  C   C925      1.0  0.74520  0.69021  0.28335  1.0000
  C   C926      1.0  0.67324  0.67558  0.28757  1.0000
  C   C927      1.0  0.50411  0.84197  0.37736  1.0000
  C   C928      1.0  0.49998  0.58296  0.37477  1.0000
  C   C929      1.0  0.78087  0.94644  0.24246  1.0000
  H   H1128     1.0  0.87695  0.69162  0.27085  1.0000
  H   H1129     1.0  0.95373  0.87741  0.27929  1.0000
  H   H1130     1.0  0.61971  0.89575  0.47844  1.0000
  N   N63       1.0  0.78255  0.69714  0.28081  1.0000
  H   H1131     1.0  0.61220  0.84480  0.29683  1.0000
  H   H1132     1.0  0.53543  0.72411  0.39345  1.0000
  H   H1133     1.0  0.49721  0.56555  0.41406  1.0000
  C   C930      1.0  0.52341  0.81953  0.37498  1.0000
  H   H1134     1.0  0.82831  0.73162  0.26507  1.0000
  S   S256      1.0  0.81177  0.96200  0.25554  1.0000
  S   S257      1.0  0.57838  0.59026  0.48461  1.0000
  H   H1135     1.0  0.74278  0.70795  0.30724  1.0000
  C   C931      1.0  0.66092  0.65199  0.45670  1.0000
  H   H1136     1.0  0.77619  0.64935  0.26781  1.0000
  S   S258      1.0  0.52400  0.55448  0.45084  1.0000
  H   H1137     1.0  0.77268  0.64098  0.28874  1.0000
  S   S259      1.0  0.52968  0.82752  0.44248  1.0000
  H   H1138     1.0  0.64572  0.67001  0.28925  1.0000
  C   C932      1.0  0.67626  0.64149  0.42999  1.0000
  C   C933      1.0  0.69060  0.59368  0.45360  1.0000
  H   H1139     1.0  0.59785  0.60679  0.45213  1.0000
  H   H1140     1.0  0.52073  0.69962  0.44888  1.0000
  H   H1141     1.0  0.60294  0.55161  0.45264  1.0000
  C   C934      1.0  0.66794  0.84933  0.27697  1.0000
  C   C935      1.0  0.54672  0.98405  0.45799  1.0000
  C   C936      1.0  0.62937  0.55595  0.45395  1.0000
  N   N64       1.0  0.94077  0.90011  0.33919  1.0000
  H   H1142     1.0  0.63351  0.85893  0.25421  1.0000
  C   C937      1.0  0.69319  0.79632  0.24266  1.0000
  H   H1143     1.0  0.54948  0.76550  0.43814  1.0000
  C   C938      1.0  0.69997  0.96838  0.25323  1.0000
  C   C939      1.0  0.82566  0.52127  0.46286  1.0000
  H   H1144     1.0  0.87947  0.95454  0.25559  1.0000
  C   C940      1.0  0.72656  0.98475  0.26229  1.0000
  H   H1145     1.0  0.68124  0.69489  0.31040  1.0000
  C   C941      1.0  0.89509  0.70820  0.26099  1.0000
  H   H1146     1.0  0.74320  0.90284  0.25851  1.0000
  C   C942      1.0  0.80157  0.71376  0.29406  1.0000
  S   S260      1.0  0.86887  0.95063  0.32383  1.0000
  H   H1147     1.0  0.62185  0.94091  0.48179  1.0000
  H   H1148     1.0  0.58206  0.83976  0.47206  1.0000
  C   C943      1.0  0.52558  0.75618  0.44610  1.0000
  C   C944      1.0  0.54942  0.83717  0.39880  1.0000
  H   H1149     1.0  0.67270  0.65775  0.26429  1.0000
  C   C945      1.0  0.68849  0.66881  0.27354  1.0000
  C   C946      1.0  0.52995  0.85828  0.40178  1.0000
  H   H1150     1.0  0.61894  0.89279  0.29340  1.0000
  H   H1151     1.0  0.53612  0.96636  0.44892  1.0000
  C   C947      1.0  0.63199  0.87308  0.29285  1.0000
  C   C948      1.0  0.94497  0.93311  0.34781  1.0000
  H   H1152     1.0  0.99014  0.89777  0.34172  1.0000
  C   C949      1.0  0.57063  0.90609  0.46425  1.0000
  S   S261      1.0  0.50475  0.62129  0.31652  1.0000
  H   H1153     1.0  0.62874  0.56071  0.49006  1.0000
  H   H1154     1.0  0.73451  0.66978  0.26041  1.0000
  H   H1155     1.0  0.61312  0.49860  0.46241  1.0000
  C   C950      1.0  0.51064  0.78119  0.45026  1.0000
  C   C951      1.0  0.92041  0.89935  0.32605  1.0000
  H   H1156     1.0  0.60701  0.87787  0.26586  1.0000
  H   H1157     1.0  0.82981  0.71979  0.29157  1.0000
  C   C952      1.0  0.60600  0.91084  0.48502  1.0000
  C   C953      1.0  0.51648  0.70310  0.38709  1.0000
  H   H1158     1.0  0.56651  0.83532  0.40709  1.0000
  C   C954      1.0  0.72389  0.67586  0.27143  1.0000
  H   H1159     1.0  0.78914  0.54660  0.46097  1.0000
  H   H1160     1.0  0.97017  0.87410  0.32588  1.0000
  H   H1161     1.0  0.79976  0.74062  0.29632  1.0000
  C   C955      1.0  0.50935  0.71895  0.45218  1.0000
  H   H1162     1.0  0.79420  0.74822  0.26708  1.0000
  C   C956      1.0  0.74936  0.91618  0.24681  1.0000
  C   C957      1.0  0.92974  0.72905  0.26307  1.0000
  H   H1163     1.0  0.77715  0.79816  0.25754  1.0000
  Fe  Fe129     1.0  0.98210  0.79754  0.30803  1.0000
  H   H1164     1.0  0.72123  0.56512  0.46168  1.0000
  H   H1165     1.0  0.54398  0.89826  0.46103  1.0000
  H   H1166     1.0  0.60340  0.83172  0.27052  1.0000
  H   H1167     1.0  0.58242  0.88950  0.45750  1.0000
  H   H1168     1.0  0.91981  0.84081  0.34416  1.0000
  H   H1169     1.0  0.52853  0.68353  0.38344  1.0000
  H   H1170     1.0  0.52944  0.92049  0.48612  1.0000
  H   H1171     1.0  0.68786  0.85716  0.28512  1.0000
  H   H1172     1.0  0.72102  0.76175  0.27271  1.0000
  S   S262      1.0  0.73061  0.50669  0.48356  1.0000
  S   S263      1.0  0.93419  0.79756  0.32192  1.0000
  H   H1173     1.0  0.87944  0.89265  0.25683  1.0000
  H   H1174     1.0  0.92985  0.88168  0.24475  1.0000
  H   H1175     1.0  0.88942  0.91867  0.35374  1.0000
  C   C958      1.0  0.54606  0.81771  0.38546  1.0000
  C   C959      1.0  0.96922  0.96852  0.28019  1.0000
  C   C960      1.0  0.88438  0.70806  0.24610  1.0000
  C   C961      1.0  0.91535  0.93833  0.35476  1.0000
  H   H1176     1.0  0.51367  0.71746  0.37621  1.0000
  H   H1177     1.0  0.52095  0.80264  0.36522  1.0000
  C   C962      1.0  0.79473  0.52574  0.46729  1.0000
  C   C963      1.0  0.91854  0.97002  0.36239  1.0000
  H   H1178     1.0  0.74866  0.97870  0.28306  1.0000
  C   C964      1.0  0.55596  0.92555  0.48903  1.0000
  H   H1179     1.0  0.54807  0.77443  0.48018  1.0000
  C   C965      1.0  0.97793  0.96126  0.34924  1.0000
  H   H1180     1.0  0.80115  0.88548  0.24510  1.0000
  H   H1181     1.0  0.67204  0.50481  0.46684  1.0000
  C   C966      1.0  0.77049  0.50236  0.47941  1.0000
  N   N65       1.0  0.56987  0.90005  0.48144  1.0000
  H   H1182     1.0  0.57237  0.95502  0.48501  1.0000
  C   C967      1.0  0.52487  0.98555  0.47106  1.0000
  C   C968      1.0  0.83301  0.49404  0.47076  1.0000
  C   C969      1.0  0.93265  0.98268  0.24375  1.0000
  C   C970      1.0  0.54028  0.79518  0.48530  1.0000
  C   C971      1.0  0.54925  0.86049  0.48672  1.0000
  H   H1183     1.0  0.93936  0.98988  0.32902  1.0000
  C   C972      1.0  0.90200  0.99052  0.31394  1.0000
  Fe  Fe130     1.0  0.98534  0.84926  0.68872  1.0000
  C   C973      1.0  0.80988  0.79011  0.73472  1.0000
  Fe  Fe131     1.0  0.81006  0.58443  0.61675  1.0000
  S   S264      1.0  0.78780  0.57312  0.59391  1.0000
  S   S265      1.0  0.81215  0.63406  0.62959  1.0000
  H   H1184     1.0  0.90670  0.61261  0.66825  1.0000
  S   S266      1.0  0.77460  0.52867  0.62873  1.0000
  Fe  Fe132     1.0  0.82917  0.55170  0.58769  1.0000
  S   S267      1.0  0.85684  0.56091  0.56316  1.0000
  C   C974      1.0  0.84232  0.54715  0.67748  1.0000
  S   S268      1.0  0.85455  0.56817  0.60945  1.0000
  H   H1185     1.0  0.84675  0.88878  0.69714  1.0000
  S   S269      1.0  0.96968  0.84964  0.66466  1.0000
  C   C975      1.0  0.72845  0.54976  0.55069  1.0000
  Fe  Fe133     1.0  0.91559  0.79043  0.70248  1.0000
  S   S270      1.0  0.89265  0.78635  0.67989  1.0000
  S   S271      1.0  0.88964  0.75847  0.72560  1.0000
  Fe  Fe134     1.0  0.94400  0.78773  0.66902  1.0000
  S   S272      1.0  0.95043  0.75061  0.65058  1.0000
  Fe  Fe135     1.0  0.91994  0.84828  0.67714  1.0000
  S   S273      1.0  0.89943  0.88858  0.66777  1.0000
  S   S274      1.0  0.96512  0.78738  0.69197  1.0000
  S   S275      1.0  0.93720  0.85215  0.70099  1.0000
  H   H1186     1.0  0.95135  0.83250  0.62738  1.0000
  H   H1187     1.0  0.71959  0.60010  0.55066  1.0000
  C   C976      1.0  0.93642  0.49233  0.58666  1.0000
  C   C977      1.0  0.51853  0.84824  0.49767  1.0000
  C   C978      1.0  0.87919  0.96928  0.72810  1.0000
  C   C979      1.0  0.93232  0.93285  0.66723  1.0000
  C   C980      1.0  0.96320  0.93741  0.67317  1.0000
  H   H1188     1.0  0.87016  0.55198  0.67708  1.0000
  H   H1189     1.0  0.96692  0.91393  0.67813  1.0000
  H   H1190     1.0  0.63885  0.52952  0.54538  1.0000
  C   C981      1.0  0.85145  0.66735  0.63429  1.0000
  C   C982      1.0  0.85026  0.69643  0.64288  1.0000
  C   C983      1.0  0.88059  0.72255  0.64755  1.0000
  C   C984      1.0  0.91238  0.71956  0.64386  1.0000
  C   C985      1.0  0.91381  0.69099  0.63491  1.0000
  C   C986      1.0  0.88345  0.66504  0.63005  1.0000
  H   H1191     1.0  0.82570  0.69868  0.64603  1.0000
  H   H1192     1.0  0.87921  0.74487  0.65403  1.0000
  H   H1193     1.0  0.93840  0.68879  0.63182  1.0000
  H   H1194     1.0  0.88487  0.64330  0.62309  1.0000
  H   H1195     1.0  0.86880  0.95828  0.74007  1.0000
  C   C987      1.0  0.89160  0.96221  0.70063  1.0000
  H   H1196     1.0  0.74476  0.51158  0.51723  1.0000
  H   H1197     1.0  0.62311  0.49986  0.50182  1.0000
  C   C988      1.0  0.85493  0.51903  0.55602  1.0000
  C   C989      1.0  0.90794  0.66272  0.67702  1.0000
  C   C990      1.0  0.89094  0.62748  0.67205  1.0000
  H   H1198     1.0  0.90420  0.96032  0.65613  1.0000
  H   H1199     1.0  0.85807  0.53806  0.53187  1.0000
  H   H1200     1.0  0.85071  0.85293  0.70916  1.0000
  C   C991      1.0  0.92802  0.96376  0.66078  1.0000
  C   C992      1.0  0.63293  0.49551  0.58291  1.0000
  H   H1201     1.0  0.91022  0.90302  0.72570  1.0000
  C   C993      1.0  0.79902  0.56274  0.66674  1.0000
  N   N66       1.0  0.73949  0.49153  0.54962  1.0000
  C   C994      1.0  0.49920  0.81055  0.50200  1.0000
  H   H1202     1.0  0.79331  0.58152  0.65846  1.0000
  H   H1203     1.0  0.79035  0.52672  0.55436  1.0000
  H   H1204     1.0  0.97604  0.95132  0.63934  1.0000
  H   H1205     1.0  0.81121  0.90405  0.72004  1.0000
  C   C995      1.0  0.85607  0.51523  0.53988  1.0000
  H   H1206     1.0  0.93866  0.56421  0.55414  1.0000
  C   C996      1.0  0.85447  0.61209  0.67175  1.0000
  C   C997      1.0  0.64338  0.52083  0.56975  1.0000
  H   H1207     1.0  0.83030  0.76747  0.71561  1.0000
  H   H1208     1.0  0.88893  0.89006  0.70016  1.0000
  C   C998      1.0  0.54117  0.52137  0.49992  1.0000
  H   H1209     1.0  0.82878  0.51827  0.67430  1.0000
  H   H1210     1.0  0.80867  0.62567  0.67644  1.0000
  H   H1211     1.0  0.93594  0.67460  0.67660  1.0000
  C   C999      1.0  0.85188  0.57217  0.65063  1.0000
  H   H1212     1.0  0.66132  0.54906  0.57054  1.0000
  C   C1000     1.0  0.57383  0.54771  0.49368  1.0000
  C   C1001     1.0  0.72465  0.58020  0.54353  1.0000
  H   H1213     1.0  0.78673  0.53439  0.66284  1.0000
  C   C1002     1.0  0.76611  0.50470  0.56045  1.0000
  H   H1214     1.0  0.60647  0.90522  0.49776  1.0000
  N   N67       1.0  0.96622  0.51359  0.54270  1.0000
  C   C1003     1.0  0.99148  0.96641  0.62814  1.0000
  H   H1215     1.0  0.89106  0.94625  0.69070  1.0000
  C   C1004     1.0  0.92384  0.51944  0.59002  1.0000
  N   N68       1.0  0.86249  0.90469  0.71983  1.0000
  H   H1216     1.0  0.75738  0.51616  0.57086  1.0000
  C   C1005     1.0  0.97743  0.85397  0.62532  1.0000
  Fe  Fe136     1.0  0.81744  0.51169  0.61970  1.0000
  H   H1217     1.0  0.83920  0.68605  0.68540  1.0000
  C   C1006     1.0  0.88919  0.68341  0.68206  1.0000
  C   C1007     1.0  0.88268  0.89442  0.73088  1.0000
  H   H1218     1.0  0.84813  0.59197  0.64224  1.0000
  C   C1008     1.0  0.73578  0.52358  0.54169  1.0000
  C   C1009     1.0  0.93926  0.54390  0.56277  1.0000
  H   H1219     1.0  0.72579  0.54686  0.56338  1.0000
  H   H1220     1.0  0.83236  0.54857  0.68984  1.0000
  C   C1010     1.0  0.86217  0.88337  0.70594  1.0000
  C   C1011     1.0  0.95062  0.49093  0.57138  1.0000
  H   H1221     1.0  0.93856  0.71538  0.72941  1.0000
  H   H1222     1.0  0.72488  0.60892  0.52171  1.0000
  Fe  Fe137     1.0  0.75627  0.51589  0.60527  1.0000
  N   N69       1.0  0.83701  0.57432  0.66676  1.0000
  H   H1223     1.0  0.78843  0.79046  0.72893  1.0000
  C   C1012     1.0  0.98499  0.95536  0.72294  1.0000
  H   H1224     1.0  0.81218  0.86235  0.72849  1.0000
  H   H1225     1.0  0.87209  0.86399  0.73388  1.0000
  H   H1226     1.0  0.97479  0.56798  0.53244  1.0000
  C   C1013     1.0  0.83358  0.77725  0.72717  1.0000
  C   C1014     1.0  0.85344  0.66926  0.68190  1.0000
  C   C1015     1.0  0.83619  0.63428  0.67672  1.0000
  H   H1227     1.0  0.64317  0.50408  0.59385  1.0000
  H   H1228     1.0  0.78564  0.56219  0.67864  1.0000
  H   H1229     1.0  0.90256  0.71097  0.68563  1.0000
  C   C1016     1.0  0.87789  0.94530  0.71607  1.0000
  C   C1017     1.0  0.60339  0.54018  0.49471  1.0000
  H   H1230     1.0  0.82418  0.90203  0.73924  1.0000
  C   C1018     1.0  0.95172  0.51614  0.55885  1.0000
  C   C1019     1.0  0.82607  0.89295  0.72722  1.0000
  H   H1231     1.0  0.73746  0.56415  0.50538  1.0000
  H   H1232     1.0  0.88007  0.57847  0.64953  1.0000
  H   H1233     1.0  0.55517  0.92309  0.50200  1.0000
  C   C1020     1.0  0.96915  0.97644  0.73047  1.0000
  H   H1234     1.0  0.85253  0.49237  0.57869  1.0000
  H   H1235     1.0  0.83932  0.54403  0.64657  1.0000
  C   C1021     1.0  0.86091  0.77603  0.73474  1.0000
  C   C1022     1.0  0.72774  0.58528  0.52725  1.0000
  C   C1023     1.0  0.73899  0.52973  0.52510  1.0000
  H   H1236     1.0  0.51838  0.52743  0.49943  1.0000
  C   C1024     1.0  0.73487  0.56010  0.51808  1.0000
  H   H1237     1.0  0.91549  0.56626  0.58076  1.0000
  C   C1025     1.0  0.60022  0.50577  0.50138  1.0000
  H   H1238     1.0  0.99022  0.72825  0.70998  1.0000
  C   C1026     1.0  0.51006  0.78411  0.49584  1.0000
  C   C1027     1.0  0.92576  0.54547  0.57816  1.0000
  H   H1239     1.0  0.50817  0.86707  0.50269  1.0000
  C   C1028     1.0  0.96276  0.73833  0.73049  1.0000
  C   C1029     1.0  0.96076  0.53824  0.53069  1.0000
  C   C1030     1.0  0.98991  0.97249  0.67250  1.0000
  C   C1031     1.0  0.98267  0.89124  0.62590  1.0000
  H   H1240     1.0  0.95956  0.89671  0.62839  1.0000
  H   H1241     1.0  0.93264  0.53216  0.53075  1.0000
  H   H1242     1.0  0.97494  0.95787  0.61856  1.0000
  C   C1032     1.0  0.99184  0.74578  0.71953  1.0000
  H   H1243     1.0  0.97078  0.53466  0.51860  1.0000
  H   H1244     1.0  0.91218  0.52003  0.60181  1.0000
  C   C1033     1.0  0.63073  0.50979  0.55564  1.0000
  H   H1245     1.0  0.98443  0.95237  0.71047  1.0000
  S   S276      1.0  0.79590  0.49382  0.59734  1.0000
  H   H1246     1.0  0.49458  0.75490  0.49892  1.0000
  H   H1247     1.0  0.95635  0.99006  0.72380  1.0000
  H   H1248     1.0  0.94976  0.95067  0.79376  1.0000
  Fe  Fe138     1.0  0.80981  0.86155  0.77589  1.0000
  S   S277      1.0  0.79792  0.84540  0.80174  1.0000
  S   S278      1.0  0.78605  0.82195  0.75827  1.0000
  Fe  Fe139     1.0  0.85535  0.94135  0.77995  1.0000
  S   S279      1.0  0.84673  0.93152  0.80609  1.0000
  C   C1034     1.0  0.49522  0.73051  0.92236  1.0000
  Fe  Fe140     1.0  0.85455  0.87946  0.80190  1.0000
  S   S280      1.0  0.88959  0.86695  0.81687  1.0000
  Fe  Fe141     1.0  0.79126  0.89886  0.80315  1.0000
  S   S281      1.0  0.74864  0.90589  0.81878  1.0000
  S   S282      1.0  0.86708  0.89140  0.77585  1.0000
  S   S283      1.0  0.79902  0.91282  0.77721  1.0000
  C   C1035     1.0  0.51875  0.95140  0.97970  1.0000
  C   C1036     1.0  0.97895  0.84331  0.79218  1.0000
  H   H1249     1.0  0.96433  0.59451  0.97217  1.0000
  Fe  Fe142     1.0  0.55789  0.77827  0.83078  1.0000
  S   S284      1.0  0.53779  0.75615  0.85593  1.0000
  S   S285      1.0  0.60400  0.77236  0.81730  1.0000
  C   C1037     1.0  0.96457  0.76086  0.74271  1.0000
  H   H1250     1.0  0.80704  0.51583  0.97286  1.0000
  Fe  Fe143     1.0  0.53153  0.80977  0.85820  1.0000
  H   H1251     1.0  0.90201  0.56906  0.98097  1.0000
  C   C1038     1.0  0.81432  0.80321  0.74958  1.0000
  S   S286      1.0  0.55594  0.83390  0.83376  1.0000
  H   H1252     1.0  0.79767  0.97785  0.82539  1.0000
  H   H1253     1.0  0.84553  0.81268  0.76853  1.0000
  H   H1254     1.0  0.69698  0.75668  0.78666  1.0000
  C   C1039     1.0  0.50842  0.91590  0.97455  1.0000
  H   H1255     1.0  0.71018  0.68425  0.81156  1.0000
  H   H1256     1.0  0.79426  0.97339  0.79871  1.0000
  H   H1257     1.0  0.51613  0.68872  0.89110  1.0000
  H   H1258     1.0  0.94475  0.81915  0.77500  1.0000
  C   C1040     1.0  0.86496  0.78840  0.74975  1.0000
  C   C1041     1.0  0.70816  0.86946  0.81810  1.0000
  C   C1042     1.0  0.67982  0.86525  0.82918  1.0000
  C   C1043     1.0  0.64760  0.83573  0.82893  1.0000
  C   C1044     1.0  0.64360  0.81046  0.81753  1.0000
  C   C1045     1.0  0.67182  0.81507  0.80630  1.0000
  C   C1046     1.0  0.70407  0.84442  0.80660  1.0000
  H   H1259     1.0  0.68285  0.88455  0.83808  1.0000
  H   H1260     1.0  0.62604  0.83224  0.83770  1.0000
  H   H1261     1.0  0.66853  0.79611  0.79727  1.0000
  H   H1262     1.0  0.72563  0.84795  0.79783  1.0000
  C   C1047     1.0  0.92414  0.85913  0.80678  1.0000
  C   C1048     1.0  0.92061  0.84186  0.79276  1.0000
  C   C1049     1.0  0.94752  0.56901  0.96788  1.0000
  H   H1263     1.0  0.89651  0.83380  0.78776  1.0000
  H   H1264     1.0  0.52712  0.78538  0.92783  1.0000
  H   H1265     1.0  0.70307  0.73321  0.82717  1.0000
  C   C1050     1.0  0.57893  0.96094  0.97312  1.0000
  H   H1266     1.0  0.50980  0.90729  0.88252  1.0000
  H   H1267     1.0  0.68083  0.69266  0.79968  1.0000
  C   C1051     1.0  0.72418  0.76190  0.78846  1.0000
  H   H1268     1.0  0.93291  0.95951  0.77650  1.0000
  C   C1052     1.0  0.83543  0.52746  0.96858  1.0000
  C   C1053     1.0  0.50286  0.81465  0.89351  1.0000
  C   C1054     1.0  0.51753  0.70901  0.89940  1.0000
  C   C1055     1.0  0.55018  0.76981  0.90740  1.0000
  C   C1056     1.0  0.88960  0.51950  0.96823  1.0000
  C   C1057     1.0  0.76251  0.75021  0.80530  1.0000
  C   C1058     1.0  0.95532  0.86924  0.81324  1.0000
  Fe  Fe144     1.0  0.50212  0.80701  0.82723  1.0000
  C   C1059     1.0  0.52466  0.76371  0.92006  1.0000
  H   H1269     1.0  0.82051  0.78243  0.83204  1.0000
  C   C1060     1.0  0.94785  0.83347  0.78558  1.0000
  H   H1270     1.0  0.94181  0.75506  0.75118  1.0000
  H   H1271     1.0  0.60654  0.97683  0.97217  1.0000
  C   C1061     1.0  0.56833  0.92521  0.96808  1.0000
  H   H1272     1.0  0.73580  0.75448  0.77762  1.0000
  C   C1062     1.0  0.90504  0.50198  0.95750  1.0000
  C   C1063     1.0  0.78629  0.74661  0.79318  1.0000
  C   C1064     1.0  0.53315  0.90280  0.96876  1.0000
  H   H1273     1.0  0.94066  0.91802  0.77921  1.0000
  H   H1274     1.0  0.72103  0.69277  0.79065  1.0000
  H   H1275     1.0  0.51915  0.53896  0.98597  1.0000
  C   C1065     1.0  0.54679  0.74238  0.89719  1.0000
  C   C1066     1.0  0.83329  0.76860  0.80905  1.0000
  S   S287      1.0  0.53972  0.83967  0.88013  1.0000
  H   H1276     1.0  0.51131  0.85746  0.90937  1.0000
  H   H1277     1.0  0.95811  0.88252  0.82409  1.0000
  H   H1278     1.0  0.67840  0.74413  0.81371  1.0000
  H   H1279     1.0  0.71731  0.77990  0.81809  1.0000
  H   H1280     1.0  0.77834  0.73720  0.78202  1.0000
  H   H1281     1.0  0.83890  0.75324  0.78558  1.0000
  C   C1067     1.0  0.77559  0.76224  0.81963  1.0000
  H   H1282     1.0  0.75970  0.76587  0.82956  1.0000
  N   N70       1.0  0.72588  0.74108  0.80290  1.0000
  H   H1283     1.0  0.88616  0.78751  0.75561  1.0000
  C   C1068     1.0  0.70874  0.70094  0.80112  1.0000
  H   H1284     1.0  0.73810  0.79225  0.78897  1.0000
  H   H1285     1.0  0.57225  0.79617  0.90529  1.0000
  H   H1286     1.0  0.98967  0.56204  0.95402  1.0000
  C   C1069     1.0  0.70546  0.74996  0.81607  1.0000
  C   C1070     1.0  0.81059  0.77169  0.82130  1.0000
  C   C1071     1.0  0.95093  0.94813  0.78086  1.0000
  C   C1072     1.0  0.98653  0.96291  0.75565  1.0000
  H   H1287     1.0  0.56663  0.74739  0.88729  1.0000
  C   C1073     1.0  0.82110  0.75566  0.79509  1.0000
  C   C1074     1.0  0.84199  0.80258  0.75706  1.0000
  H   H1288     1.0  0.86051  0.77665  0.81036  1.0000
  H   H1289     1.0  0.58748  0.91486  0.96354  1.0000
  H   H1290     1.0  0.88258  0.90735  0.74210  1.0000
  C   C1075     1.0  0.94062  0.51773  0.95224  1.0000
  H   H1291     1.0  0.51945  0.93375  0.90740  1.0000
  H   H1292     1.0  0.95205  0.50334  0.94447  1.0000
  S   S288      1.0  0.50545  0.75285  0.82235  1.0000
  N   N71       1.0  0.98667  0.96717  0.77271  1.0000
  C   C1076     1.0  0.96187  0.55088  0.95757  1.0000
  C   C1077     1.0  0.55426  0.97515  0.97908  1.0000
  C   C1078     1.0  0.98285  0.86186  0.80583  1.0000
  H   H1293     1.0  0.84662  0.55569  0.97262  1.0000
  H   H1294     1.0  0.49861  0.96024  0.98407  1.0000
  C   C1079     1.0  0.91188  0.55389  0.97301  1.0000
  H   H1295     1.0  0.52495  0.87522  0.96477  1.0000
  C   C1080     1.0  0.96947  0.97985  0.74659  1.0000
  N   N72       1.0  0.85217  0.50341  0.97432  1.0000
  H   H1296     1.0  0.83846  0.53039  0.95552  1.0000
