data_image0
_chemical_formula_structural       FeS2FeSFeHS2HFeSFeS2FeS2FeSFeHS2FeS2C2H3C6H4C6H4SH3FeCH2C7H4C2HC4H5C2HSCH2CSH2C2HFeHC2H2CHC2H2C2HCH3C2HNCHCHC2H2CHNC4HCH7CHCHC2H2CSNC9H16NH2SHC2H4C2SH2SHCHCHC2H2C3HCHC2HC2HCHCH2CHCNC2H2C6HSC2SFeS2FeS2FeSFeS3FeS2HNH3FeSFeHSFeHCSHFeHC8H5C10H4C6H5C6H3CHCH4CH3NCHCHNCH2C3H3CHCH2CH3CH2CH4NC3HSHC2H4C2HFeHCNC9H13CH3C4H3CHC3HSH3CHCHCSCH4SHCHC2H3SC2FeS2FeH2FeSFeHS3HFeS2FeS2FeSFeS2H2SHNHFeSHCHC2HC7H2NHNC2H3SCH5C5H3C6H3SNCNC9H6CH4CH2SNC9H14C5H3C2H4C2SCHSCH3CH4CH2C3HFeHSC2HSCHCH5FeH3CHC2SCHCH3C2H2SCH3C2H2CH2CFeSHFeS2FeHFeS3HFeSFeHSFeCSHCSCHCHSCFeSC3H3C6HCH2C3HCH5C2HC6H4C4HCH2CHCHCHNC2HCHCHNCHC2HFeHNH2CH2S2H2CHCNH6SFeH2CH2CHSHC2H4CHCH2CHFeH3CHN2HC9H3C2H5SH2CHCH2CS2C3SC3SHCH7CHCH2FeSHFeSHFeSFeS3HCHSCFeS2FeSFeS3HSCNCH2C7H6CFeHCHCH2CSNC6H4CHCH5C2H2C2HC2HCH6CH5NC4H2CH2CHC2HSCH2CH3SH3CNCSHCH2C3HCNHCH6S2C3H4CH5C3HCH4CHC2H2CHCHC2FeS2FeSHFeSFeS3CHSHC7H4C6HCH2CH2NH2CH2CH3CH2CH2CH2SH6NCHC5H2CSH3CH2C2H3C3H4CHCH5C2HFeH2CFeCSFeS2Fe2HS2CHFeS2FeSFeS3CFeS2C7H4C2HC3H2C3HC7H7SCHC3H3NH2C2H2CHSC2HC2H2CHCHCH2C2H2SH3C2N2H5C2HC2H4CHCHC2HNC3H3SNCH6CH3CH2CH2CH4CH2CH2C2HSHC2HCH4CH2SCFeS2FeS2FeHFeS3H2CHC3H4C6H4C2HCH2NHCHC3H2C4H2CHCH3CH3CH4C3H5C2H4CNHC4HC2FeH3SCHC2H6C2HFeSCFeS2FeSFeCS2HFeSC3HC6H6C6H2CH3CNH3C2H2C3SHNH2CH4CH2C2HCH2CHCH4SHS2CH2C2H3CFeSFeS2FeSFeS3FeHSFeSFeS2HFeSCH3SCHSHC6H4C2FeH4CH2C6H4C2HC3H5C2SH4C2H2CH2CSC2H6C3H4CHCH2C4H2C4HSC3HNC7HNH4C2H6C2HNHNC2H5CH2FeHCHNC2H6CHS2H2CHC4HSH2CFeSFeS2FeSCFeSFeSH2SCH2C2H2C2HCHC7H7CNCHCHCSC2H3CH2SC3NC4HCH2C2H9CH6CH4C2SH2CHCHC3FeS2FeHSFeHFeS2CFeS3CSHFeSFeCSHS2HC2HC7H4C2HC2H4CHC6H4NC3HCHCH2CFeHCH2N2CH2C3HCHC2H4SH4C2H2NFeCHCH2NHCHC2HSCHC3H4CHC3H2CH4CH4C2HCH3CH4C2H3C2H2SC2H2CH4FeSCFeS2FeSFeS3FeS2FeSFeHFeS3FeS2FeHFeSHCHC2SH2CHC2HC2HSC6H5C2H2CHC6H4C2NCH2C3HCHCHC2HSCH2SH2CH2NC7HCH4C2H4CHCHCSFeCH2C2HC2H2CSH2C2HCHCH2NHC2H14C2HC2H2C2NH5CH2CH2C2H2CH4CH2C2H3CHCHC2HC2H2CHC2HNHCNHCH4CNHCH2CHC2NC2HFeS2FeS2FeHFeS3HCFeS2FeSFeSC3SFeS2Fe2CSH3C2SH2C7HCH2C2H2CHC2H4NCHCH2C3HC6H4CHCH2FeCHCH2C3HSC2H2NHCSC2H2CHC2H3CH6CH3NC9H14C2NCSC6H2C3H4CH3CH2CHSC2HCHC2HCH2CFeS2FeSFeCS2FeS2FeS2FeHFeS3HFeSFeSFeHSFeS3C2HC4SH2C6H4C6H4C6H6C4H4CHCHC2HC2H3CH5C2HC8H5NSH5SNHCH2CHCH2NHCSH5SHFeHCH2CH3CH3CSCH2C4H4C2HCHC2HNHNC2HSHCHCHCH2NCH3C2H5CH2C2FeHSFeSCH2SFeS2Fe2S3FeSCFeS2FeSFeS3C2SCHC6H4C6H4C8H5C2H3NC5H2C2H4CHCHCHC6NH7CNSCNC9H14CHSH2CH6C2FeH3C2H2C2HCSHCFeC2H2C2HSCHCHC3HCH5CHC2H6C2H
_chemical_formula_sum              "Fe144 S288 H1296 C1080 N72"
_cell_length_a       48.1917
_cell_length_b       48.0989
_cell_length_c       52.6968
_cell_angle_alpha    92.1287
_cell_angle_beta     88.8889
_cell_angle_gamma    117.865

_space_group_name_H-M_alt    "P 1"
_space_group_IT_number       1

loop_
  _space_group_symop_operation_xyz
  'x, y, z'

loop_
  _atom_site_type_symbol
  _atom_site_label
  _atom_site_symmetry_multiplicity
  _atom_site_fract_x
  _atom_site_fract_y
  _atom_site_fract_z
  _atom_site_occupancy
  Fe  Fe1       1.0  0.17581  0.38793  0.18767  1.0000
  S   S1        1.0  0.18825  0.42621  0.21768  1.0000
  S   S2        1.0  0.21244  0.38203  0.16300  1.0000
  Fe  Fe2       1.0  0.10545  0.35833  0.20191  1.0000
  S   S3        1.0  0.05615  0.32033  0.19246  1.0000
  Fe  Fe3       1.0  0.14552  0.42895  0.20396  1.0000
  H   H1        1.0  0.04597  0.45014  0.18087  1.0000
  S   S4        1.0  0.13499  0.39290  0.17249  1.0000
  S   S5        1.0  0.14491  0.34899  0.21383  1.0000
  H   H2        1.0  0.22772  0.22963  0.99625  1.0000
  Fe  Fe4       1.0  0.39619  0.14175  0.21504  1.0000
  S   S6        1.0  0.39400  0.15520  0.17421  1.0000
  Fe  Fe5       1.0  0.23450  0.18801  0.04297  1.0000
  S   S7        1.0  0.26817  0.19473  0.01094  1.0000
  S   S8        1.0  0.18962  0.19244  0.03855  1.0000
  Fe  Fe6       1.0  0.27677  0.17808  0.08164  1.0000
  S   S9        1.0  0.31344  0.18571  0.05209  1.0000
  S   S10       1.0  0.27966  0.16444  0.12226  1.0000
  Fe  Fe7       1.0  0.30489  0.22530  0.03958  1.0000
  S   S11       1.0  0.33997  0.27401  0.02737  1.0000
  Fe  Fe8       1.0  0.27275  0.15405  0.02670  1.0000
  H   H3        1.0  0.36712  0.99217  0.19364  1.0000
  S   S12       1.0  0.27103  0.22014  0.07101  1.0000
  S   S13       1.0  0.23624  0.14486  0.05692  1.0000
  Fe  Fe9       1.0  0.40802  0.43828  0.09395  1.0000
  S   S14       1.0  0.37808  0.44557  0.06560  1.0000
  S   S15       1.0  0.39468  0.38932  0.10707  1.0000
  C   C1        1.0  0.33249  0.23563  0.16034  1.0000
  C   C2        1.0  0.42339  0.23805  0.19325  1.0000
  H   H4        1.0  0.28487  0.28733  0.07457  1.0000
  H   H5        1.0  0.26769  0.46471  0.07215  1.0000
  H   H6        1.0  0.42101  0.37554  0.00275  1.0000
  C   C3        1.0  0.35474  0.30572  0.04980  1.0000
  C   C4        1.0  0.35284  0.30074  0.07590  1.0000
  C   C5        1.0  0.36509  0.32660  0.09326  1.0000
  C   C6        1.0  0.37904  0.35753  0.08469  1.0000
  C   C7        1.0  0.38039  0.36248  0.05860  1.0000
  C   C8        1.0  0.36844  0.33664  0.04124  1.0000
  H   H7        1.0  0.34235  0.27699  0.08264  1.0000
  H   H8        1.0  0.36380  0.32273  0.11341  1.0000
  H   H9        1.0  0.39107  0.38621  0.05179  1.0000
  H   H10       1.0  0.36964  0.34056  0.02108  1.0000
  C   C9        1.0  0.36158  0.15658  0.15965  1.0000
  C   C10       1.0  0.36609  0.17152  0.13635  1.0000
  C   C11       1.0  0.34122  0.17373  0.12445  1.0000
  C   C12       1.0  0.31147  0.16100  0.13577  1.0000
  C   C13       1.0  0.30692  0.14586  0.15897  1.0000
  C   C14       1.0  0.33173  0.14351  0.17079  1.0000
  H   H11       1.0  0.38906  0.18176  0.12754  1.0000
  H   H12       1.0  0.34524  0.18588  0.10682  1.0000
  H   H13       1.0  0.28402  0.13588  0.16789  1.0000
  H   H14       1.0  0.32772  0.13161  0.18856  1.0000
  S   S16       1.0  0.40622  0.47222  0.12363  1.0000
  H   H15       1.0  0.33506  0.04629  0.21432  1.0000
  H   H16       1.0  0.01943  0.40890  0.17888  1.0000
  H   H17       1.0  0.41537  0.22096  0.17678  1.0000
  Fe  Fe10      1.0  0.37798  0.48101  0.09468  1.0000
  C   C15       1.0  0.02551  0.43091  0.19028  1.0000
  H   H18       1.0  0.99959  0.36461  0.20606  1.0000
  H   H19       1.0  0.27651  0.02629  0.14513  1.0000
  C   C16       1.0  0.29705  0.43756  0.20280  1.0000
  C   C17       1.0  0.24709  0.41160  0.14898  1.0000
  C   C18       1.0  0.25561  0.44363  0.15174  1.0000
  C   C19       1.0  0.28286  0.46617  0.13965  1.0000
  C   C20       1.0  0.30207  0.45703  0.12488  1.0000
  C   C21       1.0  0.29385  0.42504  0.12250  1.0000
  C   C22       1.0  0.26650  0.40251  0.13445  1.0000
  H   H20       1.0  0.24102  0.45096  0.16296  1.0000
  H   H21       1.0  0.31286  0.00152  0.18278  1.0000
  H   H22       1.0  0.30835  0.41762  0.11121  1.0000
  H   H23       1.0  0.26016  0.37780  0.13222  1.0000
  C   C23       1.0  0.02366  0.30883  0.21341  1.0000
  C   C24       1.0  0.07273  0.42447  0.02006  1.0000
  H   H24       1.0  0.00547  0.43626  0.18882  1.0000
  C   C25       1.0  0.34908  0.26223  0.14604  1.0000
  C   C26       1.0  0.99476  0.28346  0.20616  1.0000
  C   C27       1.0  0.10296  0.45642  0.15839  1.0000
  C   C28       1.0  0.08482  0.46156  0.14029  1.0000
  H   H25       1.0  0.09984  0.43292  0.16096  1.0000
  H   H26       1.0  0.06765  0.44182  0.12920  1.0000
  H   H27       1.0  0.29357  0.41900  0.18903  1.0000
  H   H28       1.0  0.27724  0.31777  0.08808  1.0000
  H   H29       1.0  0.12873  0.23796  0.99922  1.0000
  C   C29       1.0  0.30898  0.99714  0.20284  1.0000
  C   C30       1.0  0.18355  0.21517  0.01547  1.0000
  H   H30       1.0  0.08252  0.41202  0.05651  1.0000
  S   S17       1.0  0.45408  0.47451  0.07820  1.0000
  C   C31       1.0  0.28450  0.36603  0.05536  1.0000
  H   H31       1.0  0.04695  0.47895  0.01261  1.0000
  H   H32       1.0  0.34177  0.41848  0.18871  1.0000
  C   C32       1.0  0.98922  0.37269  0.22106  1.0000
  S   S18       1.0  0.40224  0.10034  0.22718  1.0000
  H   H33       1.0  0.11829  0.98939  0.01448  1.0000
  H   H34       1.0  0.31030  0.32701  0.06703  1.0000
  C   C33       1.0  0.22851  0.42439  0.08746  1.0000
  C   C34       1.0  0.32167  0.02248  0.22067  1.0000
  H   H35       1.0  0.37175  0.09885  0.14184  1.0000
  Fe  Fe11      1.0  0.42429  0.48428  0.05151  1.0000
  H   H36       1.0  0.39610  0.02706  0.22475  1.0000
  C   C35       1.0  0.24612  0.45639  0.08309  1.0000
  C   C36       1.0  0.09162  0.11814  0.02273  1.0000
  H   H37       1.0  0.23197  0.26018  0.05937  1.0000
  H   H38       1.0  0.39350  0.30286  0.13996  1.0000
  C   C37       1.0  0.23690  0.47793  0.09369  1.0000
  H   H39       1.0  0.37365  0.44328  0.16904  1.0000
  C   C38       1.0  0.14998  0.23567  0.99823  1.0000
  C   C39       1.0  0.05771  0.46632  0.04779  1.0000
  H   H40       1.0  0.08221  0.10510  0.03986  1.0000
  H   H41       1.0  0.33317  0.20708  0.18951  1.0000
  C   C40       1.0  0.06283  0.44339  0.00658  1.0000
  C   C41       1.0  0.35127  0.44038  0.17773  1.0000
  H   H42       1.0  0.13796  0.20531  0.03028  1.0000
  C   C42       1.0  0.06768  0.44767  0.06039  1.0000
  H   H43       1.0  0.42028  0.29146  0.17380  1.0000
  H   H44       1.0  0.27747  0.27310  0.03023  1.0000
  H   H45       1.0  0.33526  0.43673  0.16159  1.0000
  C   C43       1.0  0.37966  0.24817  0.18531  1.0000
  C   C44       1.0  0.34739  0.22850  0.17967  1.0000
  H   H46       1.0  0.18864  0.38895  0.10667  1.0000
  N   N1        1.0  0.39660  0.24095  0.20506  1.0000
  C   C45       1.0  0.15549  0.21753  0.01598  1.0000
  H   H47       1.0  0.05112  0.39629  0.20626  1.0000
  C   C46       1.0  0.19227  0.43504  0.11325  1.0000
  H   H48       1.0  0.44190  0.26071  0.18617  1.0000
  C   C47       1.0  0.37674  0.21123  0.21816  1.0000
  C   C48       1.0  0.10155  0.25291  0.21461  1.0000
  H   H49       1.0  0.18629  0.46556  0.15701  1.0000
  H   H50       1.0  0.06947  0.44945  0.08092  1.0000
  C   C49       1.0  0.39574  0.27541  0.17063  1.0000
  H   H51       1.0  0.17185  0.42566  0.12543  1.0000
  N   N2        1.0  0.26538  0.30705  0.04836  1.0000
  C   C50       1.0  0.23290  0.28292  0.05428  1.0000
  C   C51       1.0  0.27712  0.29554  0.02627  1.0000
  C   C52       1.0  0.28527  0.31006  0.07053  1.0000
  C   C53       1.0  0.26562  0.33696  0.04214  1.0000
  H   H52       1.0  0.48172  0.47058  0.02209  1.0000
  C   C54       1.0  0.24686  0.33770  0.02196  1.0000
  H   H53       1.0  0.13656  0.11920  0.02640  1.0000
  H   H54       1.0  0.05186  0.48254  0.05864  1.0000
  H   H55       1.0  0.07294  0.27535  0.22064  1.0000
  H   H56       1.0  0.21675  0.27719  0.03793  1.0000
  H   H57       1.0  0.43492  0.22949  0.20681  1.0000
  H   H58       1.0  0.32946  0.05467  0.16404  1.0000
  H   H59       1.0  0.26238  0.29081  0.00911  1.0000
  C   C55       1.0  0.40875  0.26664  0.22478  1.0000
  H   H60       1.0  0.30156  0.31293  0.02121  1.0000
  C   C56       1.0  0.07508  0.42672  0.04658  1.0000
  H   H61       1.0  0.07866  0.40764  0.01060  1.0000
  C   C57       1.0  0.00317  0.40479  0.22935  1.0000
  C   C58       1.0  0.27019  0.43462  0.21565  1.0000
  H   H62       1.0  0.23217  0.31666  0.01080  1.0000
  H   H63       1.0  0.04025  0.16153  0.00506  1.0000
  C   C59       1.0  0.07352  0.12784  0.00869  1.0000
  S   S19       1.0  0.33548  0.48626  0.10924  1.0000
  N   N3        1.0  0.30506  0.09048  0.07468  1.0000
  C   C60       1.0  0.29547  0.06426  0.05553  1.0000
  C   C61       1.0  0.27889  0.09830  0.07846  1.0000
  C   C62       1.0  0.33193  0.11847  0.06390  1.0000
  C   C63       1.0  0.31237  0.08084  0.09901  1.0000
  C   C64       1.0  0.28877  0.05511  0.11212  1.0000
  C   C65       1.0  0.34265  0.09622  0.11032  1.0000
  C   C66       1.0  0.29495  0.04577  0.13527  1.0000
  C   C67       1.0  0.34860  0.08649  0.13336  1.0000
  C   C68       1.0  0.32478  0.06157  0.14592  1.0000
  H   H64       1.0  0.27369  0.04314  0.06109  1.0000
  H   H65       1.0  0.29062  0.07105  0.03676  1.0000
  H   H66       1.0  0.31422  0.05711  0.05265  1.0000
  H   H67       1.0  0.25658  0.07778  0.08393  1.0000
  H   H68       1.0  0.27381  0.10724  0.06089  1.0000
  H   H69       1.0  0.28465  0.11682  0.09362  1.0000
  H   H70       1.0  0.35215  0.11396  0.05944  1.0000
  H   H71       1.0  0.32554  0.12525  0.04575  1.0000
  H   H72       1.0  0.33975  0.13939  0.07707  1.0000
  H   H73       1.0  0.26525  0.04216  0.10465  1.0000
  H   H74       1.0  0.36211  0.11620  0.10207  1.0000
  H   H75       1.0  0.13122  0.23060  0.21344  1.0000
  H   H76       1.0  0.24762  0.41440  0.21154  1.0000
  H   H77       1.0  0.14981  0.45743  0.12278  1.0000
  H   H78       1.0  0.07986  0.43617  0.21071  1.0000
  H   H79       1.0  0.30799  0.21998  0.15604  1.0000
  N   N4        1.0  0.03228  0.42823  0.21714  1.0000
  H   H80       1.0  0.33744  0.26718  0.13078  1.0000
  H   H81       1.0  0.09982  0.25289  0.19411  1.0000
  S   S20       1.0  0.14675  0.47597  0.19727  1.0000
  H   H82       1.0  0.42615  0.28947  0.21707  1.0000
  C   C69       1.0  0.38062  0.28219  0.15123  1.0000
  C   C70       1.0  0.41553  0.02217  0.22777  1.0000
  H   H83       1.0  0.29989  0.36808  0.07076  1.0000
  H   H84       1.0  0.07734  0.19532  0.99939  1.0000
  H   H85       1.0  0.37226  0.45389  0.22641  1.0000
  H   H86       1.0  0.99235  0.27229  0.18755  1.0000
  C   C71       1.0  0.05513  0.46416  0.02135  1.0000
  C   C72       1.0  0.05692  0.41798  0.21801  1.0000
  S   S21       1.0  0.11381  0.39477  0.23253  1.0000
  H   H87       1.0  0.36743  0.19069  0.20466  1.0000
  H   H88       1.0  0.22289  0.29090  0.07043  1.0000
  S   S22       1.0  0.27902  0.11437  0.00659  1.0000
  H   H89       1.0  0.02923  0.47057  0.22773  1.0000
  C   C73       1.0  0.08625  0.26578  0.23003  1.0000
  H   H90       1.0  0.38928  0.27008  0.23348  1.0000
  C   C74       1.0  0.20162  0.41374  0.10247  1.0000
  H   H91       1.0  0.06793  0.47691  0.22030  1.0000
  C   C75       1.0  0.04544  0.46016  0.22941  1.0000
  C   C76       1.0  0.20953  0.46781  0.10914  1.0000
  H   H92       1.0  0.05005  0.12148  0.01541  1.0000
  H   H93       1.0  0.23626  0.40791  0.07990  1.0000
  C   C77       1.0  0.13446  0.14275  0.99324  1.0000
  C   C78       1.0  0.28433  0.39386  0.04872  1.0000
  C   C79       1.0  0.20608  0.23126  0.99698  1.0000
  H   H94       1.0  0.29914  0.41580  0.05892  1.0000
  C   C80       1.0  0.24684  0.36563  0.01553  1.0000
  H   H95       1.0  0.35681  0.21209  0.22854  1.0000
  C   C81       1.0  0.11924  0.24040  0.22546  1.0000
  C   C82       1.0  0.12210  0.12576  0.01509  1.0000
  H   H96       1.0  0.06070  0.41324  0.23783  1.0000
  C   C83       1.0  0.26556  0.39366  0.02886  1.0000
  C   C84       1.0  0.16651  0.48054  0.11505  1.0000
  H   H97       1.0  0.39029  0.20617  0.23245  1.0000
  C   C85       1.0  0.12445  0.48154  0.17347  1.0000
  H   H98       1.0  0.16315  0.47903  0.09410  1.0000
  C   C86       1.0  0.02630  0.32327  0.23744  1.0000
  H   H99       1.0  0.16721  0.99520  0.00509  1.0000
  H   H100      1.0  0.26574  0.41533  0.02364  1.0000
  C   C87       1.0  0.27210  0.45782  0.23320  1.0000
  H   H101      1.0  0.40219  0.47487  0.20333  1.0000
  C   C88       1.0  0.38066  0.47338  0.21281  1.0000
  N   N5        1.0  0.35587  0.46805  0.19409  1.0000
  C   C89       1.0  0.32690  0.46397  0.20740  1.0000
  C   C90       1.0  0.05664  0.17570  0.98998  1.0000
  H   H102      1.0  0.23236  0.36549  0.99994  1.0000
  H   H103      1.0  0.21398  0.09442  0.99139  1.0000
  C   C91       1.0  0.44397  0.04738  0.23569  1.0000
  C   C92       1.0  0.46728  0.01273  0.23701  1.0000
  C   C93       1.0  0.30088  0.48415  0.23795  1.0000
  C   C94       1.0  0.25049  0.08062  0.98988  1.0000
  C   C95       1.0  0.41206  0.99126  0.22426  1.0000
  C   C96       1.0  0.32789  0.48734  0.22521  1.0000
  H   H104      1.0  0.44605  0.07074  0.23846  1.0000
  S   S23       1.0  0.43648  0.17571  0.23952  1.0000
  C   C97       1.0  0.45702  0.99009  0.39005  1.0000
  C   C98       1.0  0.39276  0.44396  0.47106  1.0000
  S   S24       1.0  0.16377  0.38439  0.28503  1.0000
  Fe  Fe12      1.0  0.18306  0.26703  0.38014  1.0000
  S   S25       1.0  0.19325  0.30425  0.41071  1.0000
  S   S26       1.0  0.17553  0.27283  0.33824  1.0000
  Fe  Fe13      1.0  0.19257  0.22374  0.41736  1.0000
  S   S27       1.0  0.20338  0.25854  0.44987  1.0000
  S   S28       1.0  0.19036  0.17608  0.42334  1.0000
  Fe  Fe14      1.0  0.16238  0.26405  0.43585  1.0000
  S   S29       1.0  0.12692  0.26942  0.46245  1.0000
  Fe  Fe15      1.0  0.23284  0.29446  0.42140  1.0000
  S   S30       1.0  0.28200  0.33232  0.43167  1.0000
  S   S31       1.0  0.14980  0.22724  0.40455  1.0000
  S   S32       1.0  0.22439  0.25928  0.38964  1.0000
  Fe  Fe16      1.0  0.44624  0.40016  0.36661  1.0000
  S   S33       1.0  0.45175  0.37352  0.39818  1.0000
  S   S34       1.0  0.39604  0.38376  0.35403  1.0000
  H   H105      1.0  0.02838  0.23912  0.27187  1.0000
  N   N6        1.0  0.26531  0.37858  0.36340  1.0000
  H   H106      1.0  0.05066  0.45968  0.24984  1.0000
  H   H107      1.0  0.08043  0.31725  0.24586  1.0000
  H   H108      1.0  0.06566  0.29234  0.31173  1.0000
  Fe  Fe17      1.0  0.36811  0.09657  0.25811  1.0000
  S   S35       1.0  0.33109  0.04828  0.26961  1.0000
  Fe  Fe18      1.0  0.40021  0.16824  0.26951  1.0000
  H   H109      1.0  0.26420  0.33489  0.34967  1.0000
  S   S36       1.0  0.39981  0.21312  0.28523  1.0000
  Fe  Fe19      1.0  0.43840  0.13351  0.25504  1.0000
  H   H110      1.0  0.43430  0.03739  0.48940  1.0000
  C   C99       1.0  0.98984  0.18482  0.44430  1.0000
  S   S37       1.0  0.40465  0.12825  0.28672  1.0000
  H   H111      1.0  0.00350  0.32150  0.27352  1.0000
  Fe  Fe20      1.0  0.48573  0.36731  0.37194  1.0000
  H   H112      1.0  0.27634  0.20069  0.41598  1.0000
  C   C100      1.0  0.47268  0.06706  0.31253  1.0000
  C   C101      1.0  0.34657  0.16903  0.39998  1.0000
  C   C102      1.0  0.45886  0.28906  0.34536  1.0000
  C   C103      1.0  0.44415  0.29586  0.32569  1.0000
  C   C104      1.0  0.42629  0.27233  0.30746  1.0000
  C   C105      1.0  0.42324  0.24184  0.30846  1.0000
  C   C106      1.0  0.43765  0.23490  0.32829  1.0000
  C   C107      1.0  0.45546  0.25844  0.34659  1.0000
  H   H113      1.0  0.44658  0.31930  0.32447  1.0000
  H   H114      1.0  0.41488  0.27785  0.29243  1.0000
  H   H115      1.0  0.43453  0.21128  0.32981  1.0000
  H   H116      1.0  0.45526  0.04023  0.37479  1.0000
  H   H117      1.0  0.03247  0.26638  0.24801  1.0000
  C   C108      1.0  0.00096  0.31094  0.25465  1.0000
  C   C109      1.0  0.25173  0.38774  0.38575  1.0000
  C   C110      1.0  0.02615  0.17245  0.40828  1.0000
  C   C111      1.0  0.09043  0.24183  0.47565  1.0000
  C   C112      1.0  0.31448  0.34281  0.41092  1.0000
  C   C113      1.0  0.34417  0.36621  0.41889  1.0000
  C   C114      1.0  0.36978  0.37789  0.40195  1.0000
  C   C115      1.0  0.36562  0.36685  0.37666  1.0000
  C   C116      1.0  0.33619  0.34278  0.36888  1.0000
  C   C117      1.0  0.31095  0.33023  0.38611  1.0000
  H   H118      1.0  0.34719  0.37588  0.43810  1.0000
  H   H119      1.0  0.39240  0.39636  0.40816  1.0000
  H   H120      1.0  0.33287  0.33396  0.34940  1.0000
  H   H121      1.0  0.28855  0.31153  0.37992  1.0000
  C   C118      1.0  0.16683  0.35303  0.29946  1.0000
  C   C119      1.0  0.16636  0.35182  0.32613  1.0000
  C   C120      1.0  0.16920  0.32765  0.33836  1.0000
  C   C121      1.0  0.17262  0.30437  0.32400  1.0000
  C   C122      1.0  0.17323  0.30568  0.29735  1.0000
  C   C123      1.0  0.17022  0.32974  0.28512  1.0000
  H   H122      1.0  0.16374  0.36971  0.33742  1.0000
  H   H123      1.0  0.16845  0.32690  0.35886  1.0000
  H   H124      1.0  0.17610  0.28795  0.28605  1.0000
  H   H125      1.0  0.17083  0.33037  0.26461  1.0000
  H   H126      1.0  0.40803  0.15917  0.47562  1.0000
  C   C124      1.0  0.07230  0.25320  0.48940  1.0000
  C   C125      1.0  0.23668  0.41518  0.31361  1.0000
  C   C126      1.0  0.23872  0.19387  0.45822  1.0000
  C   C127      1.0  0.21311  0.16916  0.44594  1.0000
  C   C128      1.0  0.20561  0.13801  0.45136  1.0000
  C   C129      1.0  0.22356  0.13152  0.46877  1.0000
  H   H127      1.0  0.24482  0.21796  0.45420  1.0000
  H   H128      1.0  0.18582  0.11873  0.44199  1.0000
  H   H129      1.0  0.47933  0.20144  0.32153  1.0000
  C   C130      1.0  0.46687  0.08626  0.29610  1.0000
  H   H130      1.0  0.32584  0.09333  0.46577  1.0000
  C   C131      1.0  0.44510  0.03317  0.39416  1.0000
  H   H131      1.0  0.44299  0.08112  0.29202  1.0000
  H   H132      1.0  0.24711  0.20650  0.38056  1.0000
  H   H133      1.0  0.45309  0.04724  0.32093  1.0000
  H   H134      1.0  0.27526  0.24522  0.34755  1.0000
  C   C132      1.0  0.26008  0.38610  0.29221  1.0000
  H   H135      1.0  0.31143  0.38501  0.35242  1.0000
  H   H136      1.0  0.31061  0.41949  0.36575  1.0000
  H   H137      1.0  0.25654  0.37929  0.40379  1.0000
  N   N7        1.0  0.07273  0.28139  0.27274  1.0000
  C   C133      1.0  0.03841  0.26460  0.26797  1.0000
  H   H138      1.0  0.25118  0.45559  0.24295  1.0000
  C   C134      1.0  0.99446  0.43852  0.43478  1.0000
  H   H139      1.0  0.16646  0.18489  0.47192  1.0000
  N   N8        1.0  0.45967  0.01646  0.40721  1.0000
  C   C135      1.0  0.14686  0.18737  0.48134  1.0000
  H   H140      1.0  0.30803  0.11432  0.48234  1.0000
  H   H141      1.0  0.07461  0.32705  0.27785  1.0000
  C   C136      1.0  0.32367  0.16296  0.41856  1.0000
  C   C137      1.0  0.08843  0.26674  0.25693  1.0000
  C   C138      1.0  0.25706  0.18738  0.47521  1.0000
  H   H142      1.0  0.06013  0.22121  0.41389  1.0000
  H   H143      1.0  0.98991  0.12543  0.40646  1.0000
  H   H144      1.0  0.44895  0.05518  0.40457  1.0000
  C   C139      1.0  0.35472  0.15183  0.44926  1.0000
  H   H145      1.0  0.00263  0.45972  0.42300  1.0000
  C   C140      1.0  0.37793  0.15872  0.42998  1.0000
  H   H146      1.0  0.99572  0.43679  0.25633  1.0000
  H   H147      1.0  0.04419  0.16356  0.48535  1.0000
  C   C141      1.0  0.43247  0.01975  0.47515  1.0000
  H   H148      1.0  0.26598  0.37746  0.27472  1.0000
  H   H149      1.0  0.21752  0.10742  0.47268  1.0000
  H   H150      1.0  0.02558  0.27436  0.28005  1.0000
  C   C142      1.0  0.24459  0.40425  0.29121  1.0000
  H   H151      1.0  0.41934  0.01797  0.39201  1.0000
  H   H152      1.0  0.38535  0.11868  0.46411  1.0000
  C   C143      1.0  0.32977  0.11182  0.48067  1.0000
  H   H153      1.0  0.10968  0.25323  0.28761  1.0000
  H   H154      1.0  0.06801  0.25650  0.30715  1.0000
  H   H155      1.0  0.10299  0.29422  0.30550  1.0000
  H   H156      1.0  0.11097  0.32779  0.26852  1.0000
  N   N9        1.0  0.35779  0.14194  0.47491  1.0000
  C   C144      1.0  0.08512  0.31474  0.26596  1.0000
  C   C145      1.0  0.24954  0.15621  0.48064  1.0000
  C   C146      1.0  0.44468  0.00621  0.43235  1.0000
  H   H157      1.0  0.38699  0.43564  0.45151  1.0000
  S   S38       1.0  0.35967  0.13576  0.24429  1.0000
  H   H158      1.0  0.46672  0.25296  0.36177  1.0000
  C   C147      1.0  0.05191  0.18861  0.48645  1.0000
  C   C148      1.0  0.98726  0.41302  0.24888  1.0000
  H   H159      1.0  0.01234  0.43002  0.43339  1.0000
  H   H160      1.0  0.22394  0.42870  0.31265  1.0000
  H   H161      1.0  0.40529  0.31338  0.41339  1.0000
  H   H162      1.0  0.30234  0.16408  0.41406  1.0000
  C   C149      1.0  0.32776  0.15486  0.44288  1.0000
  C   C150      1.0  0.07762  0.28097  0.30046  1.0000
  H   H163      1.0  0.27939  0.36433  0.31547  1.0000
  Fe  Fe21      1.0  0.15514  0.38764  0.24301  1.0000
  H   H164      1.0  0.22571  0.37722  0.38416  1.0000
  C   C151      1.0  0.31630  0.01701  0.24664  1.0000
  N   N10       1.0  0.37302  0.27835  0.38701  1.0000
  C   C152      1.0  0.38767  0.29929  0.36532  1.0000
  C   C153      1.0  0.37963  0.29857  0.41038  1.0000
  C   C154      1.0  0.38878  0.25834  0.38888  1.0000
  C   C155      1.0  0.33864  0.25844  0.38446  1.0000
  C   C156      1.0  0.32156  0.23603  0.40309  1.0000
  C   C157      1.0  0.32100  0.26121  0.36426  1.0000
  C   C158      1.0  0.28901  0.21747  0.40148  1.0000
  C   C159      1.0  0.28839  0.24255  0.36292  1.0000
  C   C160      1.0  0.27245  0.22072  0.38147  1.0000
  H   H165      1.0  0.38367  0.28561  0.34705  1.0000
  H   H166      1.0  0.37880  0.31669  0.36360  1.0000
  H   H167      1.0  0.41358  0.31345  0.36762  1.0000
  H   H168      1.0  0.37036  0.28473  0.42775  1.0000
  H   H169      1.0  0.36890  0.31463  0.40935  1.0000
  H   H170      1.0  0.14435  0.20598  0.47121  1.0000
  H   H171      1.0  0.38355  0.24214  0.37192  1.0000
  H   H172      1.0  0.41484  0.27281  0.38988  1.0000
  H   H173      1.0  0.38178  0.24403  0.40612  1.0000
  H   H174      1.0  0.33316  0.23307  0.41933  1.0000
  H   H175      1.0  0.33174  0.27785  0.34941  1.0000
  H   H176      1.0  0.30604  0.38829  0.38580  1.0000
  H   H177      1.0  0.26199  0.41374  0.38820  1.0000
  C   C161      1.0  0.25230  0.34386  0.36341  1.0000
  H   H178      1.0  0.09278  0.20003  0.46269  1.0000
  H   H179      1.0  0.04802  0.34344  0.24303  1.0000
  H   H180      1.0  0.25470  0.33567  0.38230  1.0000
  C   C162      1.0  0.37375  0.16718  0.40575  1.0000
  C   C163      1.0  0.29979  0.39346  0.36694  1.0000
  C   C164      1.0  0.10646  0.25352  0.26740  1.0000
  C   C165      1.0  0.48376  0.20217  0.30070  1.0000
  H   H181      1.0  0.22689  0.33188  0.35860  1.0000
  H   H182      1.0  0.23563  0.41574  0.35366  1.0000
  H   H183      1.0  0.39151  0.17190  0.39119  1.0000
  C   C166      1.0  0.99687  0.14826  0.41540  1.0000
  H   H184      1.0  0.34312  0.17494  0.38103  1.0000
  C   C167      1.0  0.26727  0.37838  0.31565  1.0000
  C   C168      1.0  0.41646  0.47430  0.47644  1.0000
  C   C169      1.0  0.25842  0.38807  0.33887  1.0000
  H   H185      1.0  0.30935  0.15059  0.45663  1.0000
  S   S39       1.0  0.47913  0.39263  0.33950  1.0000
  H   H186      1.0  0.35815  0.40069  0.48654  1.0000
  H   H187      1.0  0.99458  0.44683  0.45472  1.0000
  H   H188      1.0  0.39939  0.15745  0.43306  1.0000
  C   C170      1.0  0.07962  0.20927  0.47369  1.0000
  H   H189      1.0  0.27714  0.20665  0.48427  1.0000
  C   C171      1.0  0.01894  0.20884  0.43686  1.0000
  H   H190      1.0  0.04058  0.16773  0.39453  1.0000
  C   C172      1.0  0.24332  0.40723  0.33716  1.0000
  S   S40       1.0  0.48385  0.44713  0.38135  1.0000
  C   C173      1.0  0.38577  0.13699  0.47789  1.0000
  H   H191      1.0  0.47635  0.17761  0.29375  1.0000
  H   H192      1.0  0.23786  0.40918  0.27309  1.0000
  H   H193      1.0  0.46779  0.20969  0.29167  1.0000
  H   H194      1.0  0.46884  0.99866  0.37145  1.0000
  S   S41       1.0  0.48155  0.31797  0.36874  1.0000
  H   H195      1.0  0.12515  0.16475  0.47791  1.0000
  C   C174      1.0  0.03717  0.20264  0.41903  1.0000
  H   H196      1.0  0.02783  0.23223  0.44555  1.0000
  C   C175      1.0  0.44576  0.02874  0.45107  1.0000
  C   C176      1.0  0.12162  0.24064  0.25178  1.0000
  H   H197      1.0  0.13555  0.23104  0.26021  1.0000
  H   H198      1.0  0.45748  0.05358  0.44738  1.0000
  H   H199      1.0  0.42057  0.26127  0.24046  1.0000
  S   S42       1.0  0.48572  0.13510  0.26236  1.0000
  C   C177      1.0  0.41751  0.98814  0.48124  1.0000
  C   C178      1.0  0.46974  0.04265  0.24042  1.0000
  Fe  Fe22      1.0  0.26560  0.08743  0.57763  1.0000
  S   S43       1.0  0.30360  0.11159  0.54896  1.0000
  S   S44       1.0  0.26838  0.10432  0.61921  1.0000
  Fe  Fe23      1.0  0.22345  0.03662  0.53753  1.0000
  H   H200      1.0  0.29875  0.07743  0.65615  1.0000
  H   H201      1.0  0.36197  0.15799  0.71039  1.0000
  Fe  Fe24      1.0  0.29401  0.06288  0.53596  1.0000
  S   S45       1.0  0.33106  0.04850  0.52387  1.0000
  Fe  Fe25      1.0  0.26449  0.10503  0.52249  1.0000
  H   H202      1.0  0.20892  0.47562  0.61265  1.0000
  S   S46       1.0  0.25838  0.03874  0.56633  1.0000
  S   S47       1.0  0.22667  0.08307  0.55188  1.0000
  S   S48       1.0  0.00047  0.17339  0.51764  1.0000
  H   H203      1.0  0.18853  0.23032  0.53265  1.0000
  Fe  Fe26      1.0  0.38777  0.22917  0.72105  1.0000
  S   S49       1.0  0.38505  0.21358  0.67915  1.0000
  S   S50       1.0  0.21986  0.36025  0.71866  1.0000
  Fe  Fe27      1.0  0.29606  0.43904  0.70748  1.0000
  S   S51       1.0  0.27015  0.40453  0.67579  1.0000
  S   S52       1.0  0.38702  0.99383  0.60539  1.0000
  Fe  Fe28      1.0  0.22585  0.40069  0.69444  1.0000
  S   S53       1.0  0.17984  0.39721  0.67966  1.0000
  Fe  Fe29      1.0  0.26692  0.36848  0.70351  1.0000
  S   S54       1.0  0.28393  0.33317  0.69248  1.0000
  S   S55       1.0  0.25197  0.43774  0.72458  1.0000
  H   H204      1.0  0.33373  0.14559  0.60426  1.0000
  H   H205      1.0  0.39074  0.99470  0.54989  1.0000
  S   S56       1.0  0.07072  0.47022  0.62378  1.0000
  H   H206      1.0  0.42908  0.46478  0.69794  1.0000
  N   N11       1.0  0.15245  0.19514  0.50887  1.0000
  H   H207      1.0  0.02674  0.24450  0.56004  1.0000
  Fe  Fe30      1.0  0.03544  0.43784  0.59477  1.0000
  S   S57       1.0  0.07067  0.44391  0.56426  1.0000
  H   H208      1.0  0.13829  0.40649  0.59143  1.0000
  C   C179      1.0  0.18014  0.16265  0.51519  1.0000
  H   H209      1.0  0.35465  0.39568  0.71624  1.0000
  C   C180      1.0  0.37622  0.00528  0.55621  1.0000
  C   C181      1.0  0.40032  0.45384  0.56811  1.0000
  H   H210      1.0  0.36203  0.15950  0.51372  1.0000
  C   C182      1.0  0.99031  0.36386  0.55657  1.0000
  C   C183      1.0  0.17360  0.42189  0.65863  1.0000
  C   C184      1.0  0.14340  0.41946  0.65708  1.0000
  C   C185      1.0  0.13688  0.43745  0.63988  1.0000
  C   C186      1.0  0.16033  0.45757  0.62350  1.0000
  C   C187      1.0  0.19059  0.46019  0.62521  1.0000
  C   C188      1.0  0.19729  0.44268  0.64280  1.0000
  H   H211      1.0  0.12486  0.40346  0.66919  1.0000
  H   H212      1.0  0.11358  0.43538  0.63906  1.0000
  N   N12       1.0  0.41879  0.47703  0.54867  1.0000
  H   H213      1.0  0.22060  0.44477  0.64368  1.0000
  N   N13       1.0  0.39790  0.43655  0.72727  1.0000
  C   C189      1.0  0.39616  0.47320  0.64478  1.0000
  C   C190      1.0  0.37082  0.46723  0.66144  1.0000
  H   H214      1.0  0.39596  0.45405  0.63326  1.0000
  H   H215      1.0  0.35128  0.44379  0.66234  1.0000
  H   H216      1.0  0.41009  0.16999  0.68379  1.0000
  S   S58       1.0  0.17708  0.99191  0.53015  1.0000
  C   C191      1.0  0.29369  0.31630  0.71769  1.0000
  H   H217      1.0  0.40302  0.43213  0.56593  1.0000
  H   H218      1.0  0.33216  0.10253  0.49911  1.0000
  H   H219      1.0  0.27834  0.99272  0.55286  1.0000
  H   H220      1.0  0.32484  0.11079  0.69274  1.0000
  H   H221      1.0  0.19749  0.17583  0.50114  1.0000
  C   C192      1.0  0.34566  0.03233  0.54654  1.0000
  C   C193      1.0  0.36403  0.01797  0.53848  1.0000
  C   C194      1.0  0.37036  0.00721  0.58217  1.0000
  C   C195      1.0  0.35142  0.02090  0.59010  1.0000
  C   C196      1.0  0.33911  0.03342  0.57243  1.0000
  H   H222      1.0  0.20291  0.13420  0.52194  1.0000
  H   H223      1.0  0.34621  0.02162  0.61006  1.0000
  H   H224      1.0  0.32486  0.04424  0.57887  1.0000
  C   C197      1.0  0.30115  0.13497  0.63536  1.0000
  C   C198      1.0  0.29760  0.14270  0.66083  1.0000
  C   C199      1.0  0.32304  0.16634  0.67460  1.0000
  C   C200      1.0  0.35245  0.18266  0.66302  1.0000
  C   C201      1.0  0.35598  0.17504  0.63753  1.0000
  C   C202      1.0  0.33054  0.15133  0.62378  1.0000
  H   H225      1.0  0.27502  0.13011  0.67003  1.0000
  H   H226      1.0  0.31981  0.17183  0.69416  1.0000
  H   H227      1.0  0.37856  0.18752  0.62832  1.0000
  S   S59       1.0  0.25879  0.05851  0.50651  1.0000
  N   N14       1.0  0.38730  0.13109  0.70862  1.0000
  C   C203      1.0  0.38445  0.43473  0.51613  1.0000
  N   N15       1.0  0.09329  0.36997  0.57843  1.0000
  C   C204      1.0  0.12488  0.38039  0.58951  1.0000
  C   C205      1.0  0.09790  0.38628  0.55412  1.0000
  C   C206      1.0  0.07557  0.38051  0.59616  1.0000
  C   C207      1.0  0.07529  0.33548  0.57391  1.0000
  C   C208      1.0  0.08631  0.31424  0.58140  1.0000
  C   C209      1.0  0.04558  0.32212  0.56178  1.0000
  C   C210      1.0  0.06888  0.28183  0.57636  1.0000
  C   C211      1.0  0.02844  0.28973  0.55675  1.0000
  C   C212      1.0  0.04009  0.26963  0.56399  1.0000
  H   H228      1.0  0.13939  0.37288  0.57725  1.0000
  H   H229      1.0  0.10311  0.18048  0.51523  1.0000
  H   H230      1.0  0.12341  0.37153  0.60899  1.0000
  H   H231      1.0  0.10928  0.37746  0.53965  1.0000
  H   H232      1.0  0.11298  0.41222  0.55663  1.0000
  H   H233      1.0  0.07546  0.38314  0.54600  1.0000
  C   C213      1.0  0.18211  0.22499  0.51222  1.0000
  H   H234      1.0  0.38013  0.06625  0.63809  1.0000
  H   H235      1.0  0.05238  0.37557  0.58842  1.0000
  H   H236      1.0  0.10828  0.32204  0.59122  1.0000
  H   H237      1.0  0.03523  0.33662  0.55615  1.0000
  C   C214      1.0  0.39646  0.11416  0.72694  1.0000
  H   H238      1.0  0.00592  0.28018  0.54722  1.0000
  H   H239      1.0  0.99370  0.47026  0.52408  1.0000
  S   S60       1.0  0.39374  0.27668  0.73466  1.0000
  N   N16       1.0  0.31398  0.24910  0.66831  1.0000
  C   C215      1.0  0.28242  0.24753  0.66884  1.0000
  C   C216      1.0  0.31466  0.22849  0.64695  1.0000
  C   C217      1.0  0.31760  0.23625  0.69251  1.0000
  C   C218      1.0  0.34000  0.28132  0.66504  1.0000
  C   C219      1.0  0.33493  0.30710  0.65874  1.0000
  C   C220      1.0  0.37171  0.28739  0.66690  1.0000
  C   C221      1.0  0.36006  0.33709  0.65530  1.0000
  C   C222      1.0  0.39667  0.31744  0.66345  1.0000
  C   C223      1.0  0.39086  0.34228  0.65769  1.0000
  H   H240      1.0  0.27663  0.25420  0.65045  1.0000
  H   H241      1.0  0.26350  0.22330  0.67241  1.0000
  H   H242      1.0  0.28076  0.26321  0.68424  1.0000
  H   H243      1.0  0.31165  0.23705  0.62839  1.0000
  H   H244      1.0  0.29582  0.20377  0.64871  1.0000
  H   H245      1.0  0.33732  0.22761  0.64599  1.0000
  H   H246      1.0  0.31899  0.25195  0.70895  1.0000
  H   H247      1.0  0.29759  0.21265  0.69607  1.0000
  H   H248      1.0  0.33894  0.23310  0.69286  1.0000
  H   H249      1.0  0.31172  0.30493  0.65677  1.0000
  H   H250      1.0  0.37755  0.26883  0.67076  1.0000
  H   H251      1.0  0.35542  0.35640  0.65091  1.0000
  H   H252      1.0  0.42064  0.32134  0.66510  1.0000
  H   H253      1.0  0.12912  0.20659  0.53978  1.0000
  C   C224      1.0  0.42432  0.48501  0.50161  1.0000
  C   C225      1.0  0.33777  0.06986  0.64486  1.0000
  C   C226      1.0  0.03400  0.20009  0.50045  1.0000
  C   C227      1.0  0.36920  0.14446  0.72289  1.0000
  C   C228      1.0  0.18332  0.13865  0.52685  1.0000
  H   H254      1.0  0.42255  0.35298  0.71589  1.0000
  H   H255      1.0  0.07769  0.26601  0.58210  1.0000
  H   H256      1.0  0.18016  0.24536  0.50465  1.0000
  C   C229      1.0  0.41607  0.15789  0.69876  1.0000
  C   C230      1.0  0.36002  0.16625  0.49409  1.0000
  H   H257      1.0  0.24617  0.29000  0.73096  1.0000
  H   H258      1.0  0.38664  0.12856  0.49718  1.0000
  H   H259      1.0  0.11249  0.15264  0.54508  1.0000
  H   H260      1.0  0.07112  0.36855  0.61460  1.0000
  C   C231      1.0  0.32458  0.32126  0.72009  1.0000
  C   C232      1.0  0.38412  0.09567  0.67120  1.0000
  S   S61       1.0  0.34202  0.48423  0.70121  1.0000
  C   C233      1.0  0.36961  0.10947  0.68728  1.0000
  H   H261      1.0  0.43866  0.48259  0.72923  1.0000
  S   S62       1.0  0.15238  0.47776  0.59928  1.0000
  C   C234      1.0  0.99760  0.48180  0.50614  1.0000
  H   H262      1.0  0.11888  0.11118  0.56472  1.0000
  H   H263      1.0  0.34264  0.33760  0.70798  1.0000
  H   H264      1.0  0.08025  0.27829  0.49093  1.0000
  C   C235      1.0  0.41885  0.46753  0.71642  1.0000
  H   H265      1.0  0.40839  0.46347  0.58768  1.0000
  H   H266      1.0  0.14169  0.41938  0.72139  1.0000
  H   H267      1.0  0.41268  0.10589  0.71844  1.0000
  H   H268      1.0  0.48118  0.99934  0.52445  1.0000
  C   C236      1.0  0.13606  0.12576  0.55093  1.0000
  H   H269      1.0  0.37122  0.41815  0.53047  1.0000
  H   H270      1.0  0.03040  0.24170  0.51178  1.0000
  C   C237      1.0  0.36840  0.07624  0.65028  1.0000
  C   C238      1.0  0.04402  0.23248  0.50136  1.0000
  C   C239      1.0  0.15499  0.16932  0.52137  1.0000
  H   H271      1.0  0.08847  0.40635  0.60023  1.0000
  Fe  Fe31      1.0  0.10561  0.47767  0.59262  1.0000
  H   H272      1.0  0.40790  0.10003  0.67453  1.0000
  S   S63       1.0  0.02510  0.47575  0.58085  1.0000
  C   C240      1.0  0.33805  0.10178  0.68156  1.0000
  C   C241      1.0  0.27024  0.29457  0.73315  1.0000
  H   H273      1.0  0.34809  0.12595  0.73228  1.0000
  S   S64       1.0  0.29427  0.40306  0.73449  1.0000
  C   C242      1.0  0.45218  0.48475  0.55174  1.0000
  H   H274      1.0  0.41029  0.36553  0.65497  1.0000
  C   C243      1.0  0.32258  0.08238  0.66056  1.0000
  H   H275      1.0  0.36908  0.01686  0.51849  1.0000
  H   H276      1.0  0.32569  0.05525  0.62843  1.0000
  H   H277      1.0  0.37501  0.44761  0.56737  1.0000
  H   H278      1.0  0.00195  0.38795  0.55057  1.0000
  H   H279      1.0  0.12617  0.22135  0.50992  1.0000
  Fe  Fe32      1.0  0.06281  0.48412  0.55208  1.0000
  H   H280      1.0  0.13758  0.36851  0.73391  1.0000
  H   H281      1.0  0.43294  0.15048  0.69030  1.0000
  H   H282      1.0  0.42896  0.17584  0.71399  1.0000
  C   C244      1.0  0.13273  0.14985  0.53948  1.0000
  H   H283      1.0  0.45643  0.46477  0.54521  1.0000
  C   C245      1.0  0.40882  0.46549  0.52226  1.0000
  C   C246      1.0  0.16135  0.12026  0.54470  1.0000
  S   S65       1.0  0.00118  0.38826  0.60589  1.0000
  C   C247      1.0  0.41034  0.39082  0.71972  1.0000
  H   H284      1.0  0.16389  0.10160  0.55361  1.0000
  C   C248      1.0  0.12656  0.20096  0.51902  1.0000
  H   H285      1.0  0.20220  0.22438  0.50193  1.0000
  H   H286      1.0  0.40600  0.48117  0.71295  1.0000
  H   H287      1.0  0.39243  0.37970  0.70548  1.0000
  C   C249      1.0  0.98689  0.35755  0.58246  1.0000
  C   C250      1.0  0.42774  0.37530  0.72532  1.0000
  H   H288      1.0  0.37544  0.09321  0.73404  1.0000
  H   H289      1.0  0.18304  0.43797  0.72548  1.0000
  S   S66       1.0  0.27410  0.14953  0.50160  1.0000
  C   C251      1.0  0.16052  0.43147  0.73584  1.0000
  H   H290      1.0  0.38071  0.18935  0.49047  1.0000
  H   H291      1.0  0.17954  0.38876  0.73553  1.0000
  H   H292      1.0  0.38009  0.41642  0.69001  1.0000
  C   C252      1.0  0.41622  0.41973  0.73234  1.0000
  C   C253      1.0  0.37156  0.41925  0.70922  1.0000
  H   H293      1.0  0.33891  0.16997  0.49414  1.0000
  H   H294      1.0  0.35774  0.43210  0.70654  1.0000
  C   C254      1.0  0.33206  0.30449  0.73762  1.0000
  H   H295      1.0  0.35601  0.30869  0.73935  1.0000
  H   H296      1.0  0.38346  0.16124  0.73827  1.0000
  C   C255      1.0  0.37664  0.42430  0.49085  1.0000
  Fe  Fe33      1.0  0.05368  0.23485  0.92770  1.0000
  S   S67       1.0  0.07810  0.26929  0.95979  1.0000
  H   H297      1.0  0.40228  0.45761  0.76507  1.0000
  Fe  Fe34      1.0  0.10220  0.27876  0.88777  1.0000
  S   S68       1.0  0.12835  0.31567  0.91778  1.0000
  S   S69       1.0  0.11659  0.28282  0.84575  1.0000
  Fe  Fe35      1.0  0.12334  0.27530  0.94164  1.0000
  H   H298      1.0  0.45818  0.40073  0.87056  1.0000
  Fe  Fe36      1.0  0.08029  0.30541  0.93241  1.0000
  S   S70       1.0  0.06206  0.34010  0.94341  1.0000
  S   S71       1.0  0.09896  0.23876  0.91080  1.0000
  S   S72       1.0  0.05427  0.27054  0.90110  1.0000
  H   H299      1.0  0.33835  0.02428  0.85712  1.0000
  Fe  Fe37      1.0  0.35803  0.24976  0.76431  1.0000
  S   S73       1.0  0.31646  0.25865  0.77321  1.0000
  Fe  Fe38      1.0  0.38897  0.20764  0.77501  1.0000
  H   H300      1.0  0.37778  0.10520  0.90731  1.0000
  S   S74       1.0  0.38313  0.16154  0.79121  1.0000
  Fe  Fe39      1.0  0.42851  0.27749  0.76308  1.0000
  C   C256      1.0  0.21216  0.29954  0.85258  1.0000
  S   S75       1.0  0.39295  0.25251  0.79356  1.0000
  H   H301      1.0  0.28175  0.06021  0.98481  1.0000
  C   C257      1.0  0.27759  0.27738  0.75040  1.0000
  S   S76       1.0  0.23284  0.39364  0.78994  1.0000
  C   C258      1.0  0.20073  0.24973  0.97945  1.0000
  H   H302      1.0  0.44739  0.36906  0.89143  1.0000
  C   C259      1.0  0.47412  0.44704  0.90388  1.0000
  H   H303      1.0  0.21850  0.26237  0.96543  1.0000
  S   S77       1.0  0.47547  0.13771  0.86225  1.0000
  C   C260      1.0  0.15777  0.38244  0.74681  1.0000
  Fe  Fe40      1.0  0.43506  0.02002  0.86270  1.0000
  S   S78       1.0  0.44130  0.05443  0.89474  1.0000
  C   C261      1.0  0.20685  0.02641  0.96232  1.0000
  C   C262      1.0  0.10463  0.41167  0.76572  1.0000
  C   C263      1.0  0.23675  0.03017  0.96765  1.0000
  H   H304      1.0  0.10767  0.42645  0.74989  1.0000
  H   H305      1.0  0.17574  0.04703  0.96700  1.0000
  H   H306      1.0  0.17632  0.29006  0.88102  1.0000
  C   C264      1.0  0.41010  0.15571  0.81004  1.0000
  C   C265      1.0  0.43590  0.18075  0.82182  1.0000
  C   C266      1.0  0.45577  0.17486  0.83762  1.0000
  C   C267      1.0  0.45041  0.14395  0.84150  1.0000
  C   C268      1.0  0.42508  0.11894  0.82920  1.0000
  C   C269      1.0  0.40487  0.12479  0.81380  1.0000
  H   H307      1.0  0.44013  0.20464  0.81923  1.0000
  C   C270      1.0  0.19877  0.04968  0.97109  1.0000
  H   H308      1.0  0.42085  0.09507  0.83183  1.0000
  H   H309      1.0  0.38503  0.10525  0.80472  1.0000
  C   C271      1.0  0.00855  0.36972  0.90516  1.0000
  C   C272      1.0  0.25007  0.28144  0.86132  1.0000
  C   C273      1.0  0.20850  0.27311  0.89159  1.0000
  H   H310      1.0  0.43471  0.34194  0.97406  1.0000
  C   C274      1.0  0.11998  0.38170  0.79295  1.0000
  H   H311      1.0  0.20646  0.43598  0.76466  1.0000
  H   H312      1.0  0.18324  0.44940  0.78352  1.0000
  H   H313      1.0  0.07764  0.47292  0.94705  1.0000
  H   H314      1.0  0.44831  0.39269  0.82137  1.0000
  H   H315      1.0  0.43560  0.34303  0.79689  1.0000
  C   C275      1.0  0.03778  0.12912  0.96265  1.0000
  C   C276      1.0  0.35843  0.04799  0.86115  1.0000
  H   H316      1.0  0.01147  0.40633  0.97916  1.0000
  C   C277      1.0  0.14785  0.31478  0.83029  1.0000
  C   C278      1.0  0.16736  0.34317  0.84310  1.0000
  C   C279      1.0  0.19291  0.36717  0.83034  1.0000
  C   C280      1.0  0.19925  0.36324  0.80464  1.0000
  C   C281      1.0  0.17949  0.33506  0.79173  1.0000
  C   C282      1.0  0.15395  0.31107  0.80447  1.0000
  H   H317      1.0  0.16306  0.34645  0.86294  1.0000
  H   H318      1.0  0.20804  0.38881  0.84059  1.0000
  H   H319      1.0  0.18407  0.33150  0.77202  1.0000
  H   H320      1.0  0.13903  0.28923  0.79436  1.0000
  C   C283      1.0  0.04372  0.34939  0.91867  1.0000
  C   C284      1.0  0.05185  0.34752  0.89328  1.0000
  C   C285      1.0  0.03863  0.35698  0.87397  1.0000
  C   C286      1.0  0.01726  0.36849  0.87981  1.0000
  H   H321      1.0  0.29778  0.03098  0.91422  1.0000
  C   C287      1.0  0.02165  0.36007  0.92448  1.0000
  H   H322      1.0  0.06886  0.33940  0.88853  1.0000
  H   H323      1.0  0.04525  0.35561  0.85446  1.0000
  C   C288      1.0  0.23488  0.26986  0.88444  1.0000
  H   H324      1.0  0.10414  0.19843  0.95701  1.0000
  C   C289      1.0  0.12696  0.40142  0.77179  1.0000
  H   H325      1.0  0.45107  0.44636  0.94769  1.0000
  C   C290      1.0  0.00156  0.48630  0.94935  1.0000
  H   H326      1.0  0.40343  0.09220  0.89167  1.0000
  N   N17       1.0  0.06633  0.15672  0.97266  1.0000
  C   C291      1.0  0.08299  0.17646  0.95080  1.0000
  C   C292      1.0  0.07142  0.38390  0.80103  1.0000
  H   H327      1.0  0.27024  0.27797  0.85694  1.0000
  C   C293      1.0  0.22039  0.07657  0.98494  1.0000
  H   H328      1.0  0.33510  0.01690  0.90345  1.0000
  C   C294      1.0  0.38413  0.44181  0.75128  1.0000
  H   H329      1.0  0.19683  0.26427  0.90955  1.0000
  N   N18       1.0  0.25487  0.31021  0.82036  1.0000
  C   C295      1.0  0.28258  0.30522  0.81461  1.0000
  H   H330      1.0  0.28232  0.35656  0.83705  1.0000
  C   C296      1.0  0.26577  0.34465  0.82105  1.0000
  C   C297      1.0  0.23918  0.29690  0.84471  1.0000
  H   H331      1.0  0.21188  0.30023  0.80083  1.0000
  Fe  Fe41      1.0  0.47396  0.09025  0.86767  1.0000
  H   H332      1.0  0.42506  0.39033  0.89146  1.0000
  N   N19       1.0  0.15657  0.41085  0.75741  1.0000
  H   H333      1.0  0.47519  0.19440  0.84711  1.0000
  H   H334      1.0  0.24612  0.35048  0.82346  1.0000
  C   C298      1.0  0.18363  0.42819  0.77473  1.0000
  H   H335      1.0  0.06066  0.41119  0.77547  1.0000
  H   H336      1.0  0.01707  0.44583  0.97929  1.0000
  S   S79       1.0  0.01117  0.18716  0.93588  1.0000
  S   S80       1.0  0.16784  0.27684  0.95813  1.0000
  H   H337      1.0  0.09591  0.42792  0.96989  1.0000
  H   H338      1.0  0.45691  0.35972  0.93202  1.0000
  C   C299      1.0  0.19706  0.28777  0.87559  1.0000
  H   H339      1.0  0.36930  0.41914  0.76063  1.0000
  C   C300      1.0  0.43499  0.41261  0.97618  1.0000
  N   N20       1.0  0.46994  0.41535  0.90980  1.0000
  H   H340      1.0  0.29207  0.10252  0.85159  1.0000
  H   H341      1.0  0.06768  0.18389  0.94063  1.0000
  H   H342      1.0  0.02246  0.11434  0.97801  1.0000
  H   H343      1.0  0.24328  0.01245  0.96105  1.0000
  H   H344      1.0  0.24357  0.25828  0.89694  1.0000
  H   H345      1.0  0.37632  0.04018  0.90670  1.0000
  S   S81       1.0  0.46642  0.05639  0.83494  1.0000
  Fe  Fe42      1.0  0.48215  0.04682  0.90591  1.0000
  H   H346      1.0  0.24344  0.30498  0.78047  1.0000
  H   H347      1.0  0.13574  0.37282  0.79871  1.0000
  C   C301      1.0  0.44783  0.42335  0.95226  1.0000
  H   H348      1.0  0.29388  0.31567  0.79628  1.0000
  H   H349      1.0  0.24730  0.07247  0.88023  1.0000
  C   C302      1.0  0.45981  0.35986  0.80066  1.0000
  H   H350      1.0  0.20246  0.31083  0.84095  1.0000
  S   S82       1.0  0.34993  0.20231  0.74893  1.0000
  H   H351      1.0  0.38488  0.10925  0.87376  1.0000
  C   C303      1.0  0.45112  0.37512  0.94385  1.0000
  C   C304      1.0  0.48387  0.35402  0.79088  1.0000
  H   H352      1.0  0.06864  0.41991  0.94472  1.0000
  H   H353      1.0  0.22313  0.26960  0.79817  1.0000
  H   H354      1.0  0.09003  0.16342  0.93641  1.0000
  H   H355      1.0  0.34004  0.09754  0.85358  1.0000
  C   C305      1.0  0.23236  0.29559  0.79910  1.0000
  H   H356      1.0  0.27598  0.27971  0.81271  1.0000
  C   C306      1.0  0.45640  0.40488  0.93532  1.0000
  H   H357      1.0  0.02301  0.13646  0.95147  1.0000
  H   H358      1.0  0.99192  0.37829  0.90990  1.0000
  C   C307      1.0  0.43841  0.36469  0.96787  1.0000
  H   H359      1.0  0.12836  0.16693  0.96303  1.0000
  Fe  Fe43      1.0  0.24730  0.39742  0.74800  1.0000
  H   H360      1.0  0.30105  0.31645  0.82939  1.0000
  H   H361      1.0  0.01456  0.36080  0.94397  1.0000
  H   H362      1.0  0.25081  0.03687  0.91109  1.0000
  C   C308      1.0  0.46712  0.38807  0.81460  1.0000
  H   H363      1.0  0.10396  0.48338  0.97367  1.0000
  N   N21       1.0  0.05992  0.44169  0.97855  1.0000
  N   N22       1.0  0.35382  0.06173  0.88553  1.0000
  H   H364      1.0  0.36082  0.06288  0.84480  1.0000
  C   C309      1.0  0.38102  0.09340  0.88976  1.0000
  C   C310      1.0  0.35394  0.04158  0.90617  1.0000
  C   C311      1.0  0.32438  0.06427  0.88440  1.0000
  C   C312      1.0  0.29802  0.04706  0.90034  1.0000
  C   C313      1.0  0.32125  0.08411  0.86662  1.0000
  C   C314      1.0  0.27064  0.05014  0.89873  1.0000
  C   C315      1.0  0.29378  0.08704  0.86523  1.0000
  C   C316      1.0  0.26857  0.07015  0.88130  1.0000
  C   C317      1.0  0.07079  0.42041  0.96579  1.0000
  H   H365      1.0  0.47734  0.42679  0.76944  1.0000
  H   H366      1.0  0.35096  0.05077  0.92517  1.0000
  H   H367      1.0  0.45145  0.44788  0.90433  1.0000
  C   C318      1.0  0.07735  0.40300  0.78025  1.0000
  C   C319      1.0  0.09263  0.37315  0.80729  1.0000
  H   H368      1.0  0.46531  0.37620  0.74733  1.0000
  H   H369      1.0  0.44734  0.45445  0.76040  1.0000
  H   H370      1.0  0.38007  0.04509  0.86140  1.0000
  H   H371      1.0  0.27779  0.35567  0.80307  1.0000
  H   H372      1.0  0.05030  0.37749  0.81229  1.0000
  S   S83       1.0  0.47609  0.32027  0.77115  1.0000
  H   H373      1.0  0.02318  0.42843  0.95064  1.0000
  H   H374      1.0  0.08795  0.35816  0.82342  1.0000
  C   C320      1.0  0.25849  0.05725  0.98120  1.0000
  H   H375      1.0  0.18394  0.41353  0.79042  1.0000
  C   C321      1.0  0.07886  0.47345  0.96816  1.0000
  H   H376      1.0  0.00345  0.48152  0.92936  1.0000
  H   H377      1.0  0.04406  0.11390  0.94993  1.0000
  C   C322      1.0  0.11673  0.15287  0.97919  1.0000
  S   S84       1.0  0.17869  0.99291  0.94515  1.0000
  S   S85       1.0  0.00202  0.38108  0.85495  1.0000
  C   C323      1.0  0.44918  0.39283  0.89005  1.0000
  C   C324      1.0  0.43051  0.38349  0.98404  1.0000
  C   C325      1.0  0.08566  0.14588  0.98666  1.0000
  S   S86       1.0  0.47384  0.01002  0.87549  1.0000
  C   C326      1.0  0.45854  0.41679  0.75554  1.0000
  C   C327      1.0  0.44109  0.43236  0.75028  1.0000
  C   C328      1.0  0.30844  0.28195  0.75244  1.0000
  S   S87       1.0  0.42664  0.23265  0.74618  1.0000
  H   H378      1.0  0.25915  0.25977  0.76163  1.0000
  C   C329      1.0  0.17258  0.25188  0.97982  1.0000
  H   H379      1.0  0.16096  0.45394  0.74234  1.0000
  H   H380      1.0  0.40858  0.12946  0.74386  1.0000
  H   H381      1.0  0.15756  0.36673  0.76175  1.0000
  H   H382      1.0  0.00495  0.28086  0.88286  1.0000
  H   H383      1.0  0.36904  0.45322  0.74786  1.0000
  H   H384      1.0  0.05662  0.39560  0.97156  1.0000
  H   H385      1.0  0.04412  0.18632  0.97965  1.0000
  C   C330      1.0  0.02654  0.43011  0.97162  1.0000
  H   H386      1.0  0.48412  0.45413  0.88455  1.0000
  C   C331      1.0  0.45181  0.38828  0.74313  1.0000
  H   H387      1.0  0.15853  0.14931  0.98780  1.0000
  H   H388      1.0  0.42878  0.42720  0.98882  1.0000
  Fe  Fe44      1.0  0.03631  0.58447  0.09053  1.0000
  S   S88       1.0  0.07042  0.61008  0.05971  1.0000
  H   H389      1.0  0.15564  0.72073  0.21182  1.0000
  Fe  Fe45      1.0  0.06663  0.54160  0.09946  1.0000
  S   S89       1.0  0.10314  0.56576  0.06954  1.0000
  H   H390      1.0  0.05675  0.66501  0.08291  1.0000
  Fe  Fe46      1.0  0.10649  0.61108  0.08671  1.0000
  S   S90       1.0  0.15264  0.65609  0.09357  1.0000
  Fe  Fe47      1.0  0.06296  0.56215  0.04594  1.0000
  S   S91       1.0  0.05907  0.54758  0.00373  1.0000
  S   S92       1.0  0.07265  0.58706  0.11821  1.0000
  S   S93       1.0  0.02613  0.53632  0.07507  1.0000
  H   H391      1.0  0.39133  0.91414  0.07786  1.0000
  C   C332      1.0  0.12951  0.72795  0.08155  1.0000
  H   H392      1.0  0.35470  0.98280  0.23921  1.0000
  S   S94       1.0  0.45260  0.93398  0.11744  1.0000
  C   C333      1.0  0.13784  0.90344  0.01650  1.0000
  Fe  Fe48      1.0  0.22289  0.81324  0.18550  1.0000
  S   S95       1.0  0.25029  0.80243  0.21401  1.0000
  S   S96       1.0  0.17771  0.77263  0.16887  1.0000
  Fe  Fe49      1.0  0.26151  0.88471  0.19819  1.0000
  S   S97       1.0  0.27601  0.93503  0.18770  1.0000
  Fe  Fe50      1.0  0.29337  0.84386  0.19847  1.0000
  S   S98       1.0  0.34041  0.84419  0.19014  1.0000
  S   S99       1.0  0.26629  0.85238  0.16825  1.0000
  S   S100      1.0  0.21505  0.84704  0.21213  1.0000
  H   H393      1.0  0.06629  0.86297  0.06128  1.0000
  S   S101      1.0  0.42091  0.52102  0.07754  1.0000
  C   C334      1.0  0.08693  0.87486  0.04940  1.0000
  N   N23       1.0  0.09725  0.70771  0.07171  1.0000
  C   C335      1.0  0.29133  0.96611  0.21079  1.0000
  H   H394      1.0  0.11010  0.76836  0.09003  1.0000
  H   H395      1.0  0.01001  0.71505  0.04235  1.0000
  C   C336      1.0  0.47545  0.70075  0.15742  1.0000
  C   C337      1.0  0.42093  0.90752  0.13658  1.0000
  C   C338      1.0  0.42172  0.88250  0.14869  1.0000
  C   C339      1.0  0.39676  0.86321  0.16474  1.0000
  C   C340      1.0  0.37041  0.86824  0.16858  1.0000
  C   C341      1.0  0.36927  0.89279  0.15594  1.0000
  C   C342      1.0  0.39452  0.91249  0.14031  1.0000
  H   H396      1.0  0.44185  0.87840  0.14616  1.0000
  H   H397      1.0  0.39794  0.84433  0.17439  1.0000
  H   H398      1.0  0.34915  0.89692  0.15853  1.0000
  H   H399      1.0  0.39361  0.93177  0.13110  1.0000
  H   H400      1.0  0.38740  0.92666  0.23182  1.0000
  H   H401      1.0  0.25206  0.50237  0.08992  1.0000
  C   C343      1.0  0.04951  0.71040  0.05601  1.0000
  Fe  Fe51      1.0  0.44898  0.50974  0.10495  1.0000
  H   H402      1.0  0.37578  0.87627  0.06092  1.0000
  C   C344      1.0  0.48410  0.61296  0.16931  1.0000
  H   H403      1.0  0.07799  0.69137  0.10868  1.0000
  C   C345      1.0  0.11009  0.51706  0.15163  1.0000
  H   H404      1.0  0.11271  0.54045  0.14936  1.0000
  H   H405      1.0  0.14472  0.53151  0.18139  1.0000
  C   C346      1.0  0.20223  0.48909  0.14948  1.0000
  S   S102      1.0  0.06239  0.49624  0.11570  1.0000
  N   N24       1.0  0.12738  0.94945  0.01075  1.0000
  C   C347      1.0  0.16025  0.68639  0.11710  1.0000
  C   C348      1.0  0.13674  0.68600  0.13336  1.0000
  C   C349      1.0  0.14273  0.71233  0.14945  1.0000
  C   C350      1.0  0.17251  0.73899  0.15011  1.0000
  C   C351      1.0  0.19638  0.73884  0.13466  1.0000
  C   C352      1.0  0.19017  0.71282  0.11812  1.0000
  H   H406      1.0  0.11376  0.66570  0.13319  1.0000
  H   H407      1.0  0.12407  0.71214  0.16130  1.0000
  H   H408      1.0  0.21936  0.75919  0.13483  1.0000
  H   H409      1.0  0.20856  0.71344  0.10567  1.0000
  C   C353      1.0  0.12018  0.91948  0.02285  1.0000
  H   H410      1.0  0.47873  0.69930  0.13653  1.0000
  C   C354      1.0  0.39086  0.92367  0.02593  1.0000
  H   H411      1.0  0.11666  0.71349  0.22025  1.0000
  H   H412      1.0  0.14264  0.74876  0.06961  1.0000
  H   H413      1.0  0.19588  0.50608  0.15965  1.0000
  H   H414      1.0  0.07873  0.91383  0.04493  1.0000
  H   H415      1.0  0.47007  0.72764  0.20251  1.0000
  C   C355      1.0  0.35135  0.93776  0.99541  1.0000
  C   C356      1.0  0.46586  0.77813  0.13014  1.0000
  H   H416      1.0  0.11064  0.71200  0.03225  1.0000
  H   H417      1.0  0.09835  0.83666  0.04950  1.0000
  C   C357      1.0  0.13041  0.87427  0.02648  1.0000
  C   C358      1.0  0.08875  0.75584  0.07918  1.0000
  H   H418      1.0  0.38837  0.97460  0.17712  1.0000
  C   C359      1.0  0.04290  0.75707  0.06238  1.0000
  C   C360      1.0  0.16163  0.97145  0.01178  1.0000
  H   H419      1.0  0.47956  0.82756  0.13386  1.0000
  C   C361      1.0  0.10490  0.85993  0.04279  1.0000
  H   H420      1.0  0.03955  0.68636  0.04876  1.0000
  H   H421      1.0  0.43244  0.90517  0.00723  1.0000
  H   H422      1.0  0.43572  0.88737  0.03514  1.0000
  H   H423      1.0  0.21023  0.53889  0.12322  1.0000
  H   H424      1.0  0.08509  0.95271  0.02014  1.0000
  H   H425      1.0  0.07784  0.67471  0.03967  1.0000
  C   C362      1.0  0.03212  0.72649  0.05257  1.0000
  H   H426      1.0  0.41359  0.89329  0.07522  1.0000
  H   H427      1.0  0.46513  0.61598  0.17799  1.0000
  H   H428      1.0  0.14360  0.71506  0.08161  1.0000
  H   H429      1.0  0.45302  0.56925  0.14951  1.0000
  H   H430      1.0  0.11613  0.68254  0.04834  1.0000
  N   N25       1.0  0.38128  0.96475  0.21689  1.0000
  C   C363      1.0  0.12813  0.51189  0.16983  1.0000
  C   C364      1.0  0.13882  0.71539  0.22803  1.0000
  C   C365      1.0  0.07887  0.72493  0.06877  1.0000
  C   C366      1.0  0.08798  0.49181  0.13703  1.0000
  H   H431      1.0  0.09362  0.66831  0.09229  1.0000
  H   H432      1.0  0.47995  0.68208  0.16544  1.0000
  C   C367      1.0  0.47172  0.49604  0.99406  1.0000
  H   H433      1.0  0.12940  0.73608  0.10161  1.0000
  H   H434      1.0  0.99609  0.50326  0.02152  1.0000
  C   C368      1.0  0.07094  0.77154  0.07591  1.0000
  H   H435      1.0  0.13387  0.69185  0.23462  1.0000
  C   C369      1.0  0.46998  0.75321  0.13895  1.0000
  C   C370      1.0  0.10052  0.69375  0.04690  1.0000
  H   H436      1.0  0.39851  0.87207  0.01920  1.0000
  S   S103      1.0  0.00339  0.60375  0.10381  1.0000
  C   C371      1.0  0.08066  0.68203  0.08965  1.0000
  H   H437      1.0  0.17935  0.77535  0.22167  1.0000
  H   H438      1.0  0.38882  0.49956  0.16708  1.0000
  C   C372      1.0  0.41984  0.89406  0.02492  1.0000
  H   H439      1.0  0.28895  0.49083  0.14157  1.0000
  H   H440      1.0  0.02721  0.77110  0.01160  1.0000
  H   H441      1.0  0.14356  0.86199  0.02048  1.0000
  S   S104      1.0  0.48478  0.89165  0.07009  1.0000
  H   H442      1.0  0.17558  0.96373  0.99906  1.0000
  H   H443      1.0  0.43876  0.96480  0.22676  1.0000
  H   H444      1.0  0.02937  0.76951  0.05966  1.0000
  C   C373      1.0  0.03123  0.81705  0.00683  1.0000
  N   N26       1.0  0.41159  0.91530  0.04072  1.0000
  C   C374      1.0  0.09430  0.90419  0.03963  1.0000
  S   S105      1.0  0.99988  0.81231  0.02788  1.0000
  H   H445      1.0  0.39841  0.93465  0.19878  1.0000
  C   C375      1.0  0.39719  0.89903  0.06462  1.0000
  H   H446      1.0  0.07887  0.79507  0.08400  1.0000
  H   H447      1.0  0.24377  0.53261  0.12007  1.0000
  C   C376      1.0  0.35778  0.96137  0.23673  1.0000
  C   C377      1.0  0.99002  0.62111  0.08143  1.0000
  C   C378      1.0  0.16121  0.77079  0.23655  1.0000
  H   H448      1.0  0.99069  0.59200  0.04967  1.0000
  C   C379      1.0  0.28630  0.96057  0.23677  1.0000
  N   N27       1.0  0.19964  0.48992  0.12156  1.0000
  H   H449      1.0  0.45680  0.73070  0.12930  1.0000
  C   C380      1.0  0.11096  0.96606  0.02293  1.0000
  H   H450      1.0  0.11613  0.97028  0.04363  1.0000
  H   H451      1.0  0.04170  0.86426  0.99768  1.0000
  H   H452      1.0  0.45620  0.93876  0.05994  1.0000
  H   H453      1.0  0.15677  0.91264  0.00294  1.0000
  H   H454      1.0  0.34890  0.90253  0.05023  1.0000
  H   H455      1.0  0.35813  0.91468  0.20791  1.0000
  S   S106      1.0  0.43826  0.49521  0.00984  1.0000
  S   S107      1.0  0.28971  0.87712  0.22786  1.0000
  C   C381      1.0  0.44082  0.94414  0.04778  1.0000
  C   C382      1.0  0.48223  0.80816  0.14120  1.0000
  C   C383      1.0  0.40181  0.94016  0.00302  1.0000
  H   H456      1.0  0.45031  0.77437  0.11432  1.0000
  H   H457      1.0  0.15883  0.49763  0.12307  1.0000
  H   H458      1.0  0.34919  0.49279  0.16356  1.0000
  H   H459      1.0  0.17082  0.97431  0.03143  1.0000
  C   C384      1.0  0.21887  0.52308  0.11407  1.0000
  H   H460      1.0  0.45048  0.69434  0.16154  1.0000
  H   H461      1.0  0.21804  0.52536  0.09317  1.0000
  H   H462      1.0  0.14122  0.77172  0.22711  1.0000
  H   H463      1.0  0.22654  0.49496  0.15514  1.0000
  H   H464      1.0  0.45527  0.95601  0.03103  1.0000
  C   C385      1.0  0.04059  0.79368  0.00306  1.0000
  C   C386      1.0  0.37086  0.97105  0.19242  1.0000
  C   C387      1.0  0.33996  0.92190  0.01792  1.0000
  H   H465      1.0  0.34794  0.95117  0.18615  1.0000
  C   C388      1.0  0.35930  0.91493  0.03309  1.0000
  H   H466      1.0  0.99882  0.57074  0.00379  1.0000
  H   H467      1.0  0.34954  0.50848  0.22920  1.0000
  H   H468      1.0  0.42554  0.94757  0.99631  1.0000
  H   H469      1.0  0.33422  0.94185  0.23184  1.0000
  C   C389      1.0  0.47714  0.58639  0.15319  1.0000
  H   H470      1.0  0.37316  0.51792  0.18883  1.0000
  C   C390      1.0  0.38153  0.93401  0.21378  1.0000
  C   C391      1.0  0.99778  0.49873  0.00144  1.0000
  H   H471      1.0  0.43556  0.96142  0.05865  1.0000
  H   H472      1.0  0.31585  0.91475  0.02353  1.0000
  C   C392      1.0  0.36726  0.49576  0.17777  1.0000
  H   H473      1.0  0.98654  0.65343  0.10912  1.0000
  C   C393      1.0  0.04875  0.84605  0.99506  1.0000
  H   H474      1.0  0.38849  0.49581  0.22397  1.0000
  C   C394      1.0  0.43897  0.98731  0.22898  1.0000
  C   C395      1.0  0.00692  0.51115  0.45938  1.0000
  Fe  Fe52      1.0  0.09259  0.80974  0.38107  1.0000
  S   S108      1.0  0.12084  0.80197  0.41059  1.0000
  S   S109      1.0  0.10904  0.82194  0.33998  1.0000
  Fe  Fe53      1.0  0.04107  0.80298  0.42071  1.0000
  S   S110      1.0  0.06751  0.79662  0.45257  1.0000
  H   H475      1.0  0.19928  0.74769  0.24470  1.0000
  Fe  Fe54      1.0  0.11098  0.83576  0.43553  1.0000
  S   S111      1.0  0.15470  0.87767  0.45260  1.0000
  Fe  Fe55      1.0  0.07434  0.76396  0.42421  1.0000
  S   S112      1.0  0.06007  0.71445  0.43655  1.0000
  S   S113      1.0  0.08394  0.84458  0.40541  1.0000
  S   S114      1.0  0.04657  0.76931  0.39294  1.0000
  C   C396      1.0  0.18012  0.74074  0.25908  1.0000
  H   H476      1.0  0.18942  0.75802  0.27537  1.0000
  S   S115      1.0  0.22811  0.82474  0.28135  1.0000
  H   H477      1.0  0.20265  0.95537  0.35248  1.0000
  C   C397      1.0  0.08461  0.72018  0.30980  1.0000
  C   C398      1.0  0.14221  0.82229  0.32408  1.0000
  C   C399      1.0  0.15946  0.80864  0.33419  1.0000
  C   C400      1.0  0.18549  0.80943  0.32081  1.0000
  C   C401      1.0  0.19447  0.82357  0.29707  1.0000
  C   C402      1.0  0.17696  0.83686  0.28682  1.0000
  C   C403      1.0  0.15106  0.83622  0.30026  1.0000
  H   H478      1.0  0.15267  0.79731  0.35226  1.0000
  H   H479      1.0  0.19874  0.79896  0.32891  1.0000
  H   H480      1.0  0.18364  0.84807  0.26869  1.0000
  H   H481      1.0  0.13787  0.84678  0.29219  1.0000
  C   C404      1.0  0.04535  0.68277  0.41401  1.0000
  C   C405      1.0  0.02684  0.65210  0.42241  1.0000
  C   C406      1.0  0.01482  0.62622  0.40508  1.0000
  C   C407      1.0  0.02158  0.63081  0.37917  1.0000
  C   C408      1.0  0.04006  0.66151  0.37074  1.0000
  C   C409      1.0  0.05176  0.68745  0.38805  1.0000
  H   H482      1.0  0.02173  0.64844  0.44242  1.0000
  C   C410      1.0  0.29861  0.98598  0.25460  1.0000
  H   H483      1.0  0.06614  0.71097  0.38140  1.0000
  H   H484      1.0  0.21355  0.95077  0.39433  1.0000
  C   C411      1.0  0.01390  0.87215  0.46725  1.0000
  H   H485      1.0  0.00082  0.60269  0.41181  1.0000
  H   H486      1.0  0.08741  0.76518  0.30308  1.0000
  N   N28       1.0  0.19356  0.90323  0.37847  1.0000
  H   H487      1.0  0.01081  0.52274  0.44148  1.0000
  H   H488      1.0  0.17207  0.79073  0.25052  1.0000
  C   C412      1.0  0.13489  0.91023  0.48728  1.0000
  H   H489      1.0  0.23752  0.93156  0.39737  1.0000
  H   H490      1.0  0.03667  0.87804  0.45759  1.0000
  C   C413      1.0  0.09523  0.74815  0.29700  1.0000
  H   H491      1.0  0.20344  0.92114  0.41719  1.0000
  H   H492      1.0  0.14631  0.88238  0.36425  1.0000
  H   H493      1.0  0.17580  0.85316  0.37343  1.0000
  C   C414      1.0  0.09492  0.69846  0.30233  1.0000
  H   H494      1.0  0.18060  0.86664  0.40575  1.0000
  H   H495      1.0  0.12398  0.77710  0.26807  1.0000
  C   C415      1.0  0.19000  0.93534  0.47636  1.0000
  H   H496      1.0  0.08660  0.67670  0.31241  1.0000
  H   H497      1.0  0.99517  0.85269  0.45584  1.0000
  C   C416      1.0  0.19119  0.87290  0.38648  1.0000
  H   H498      1.0  0.12389  0.68749  0.27737  1.0000
  H   H499      1.0  0.06853  0.71549  0.32566  1.0000
  S   S116      1.0  0.00738  0.59885  0.35684  1.0000
  H   H500      1.0  0.27272  0.93674  0.24307  1.0000
  H   H501      1.0  0.47190  0.93637  0.46152  1.0000
  H   H502      1.0  0.00056  0.70230  0.39136  1.0000
  H   H503      1.0  0.43211  0.97325  0.38572  1.0000
  H   H504      1.0  0.36464  0.95661  0.25548  1.0000
  H   H505      1.0  0.24313  0.93795  0.28492  1.0000
  N   N29       1.0  0.15152  0.74013  0.24850  1.0000
  C   C417      1.0  0.16136  0.89992  0.37899  1.0000
  H   H506      1.0  0.20941  0.93527  0.46577  1.0000
  C   C418      1.0  0.21884  0.89457  0.33800  1.0000
  C   C419      1.0  0.20752  0.91245  0.35289  1.0000
  C   C420      1.0  0.23370  0.93119  0.30383  1.0000
  C   C421      1.0  0.11648  0.75476  0.27683  1.0000
  C   C422      1.0  0.12789  0.73335  0.26896  1.0000
  H   H507      1.0  0.16093  0.92235  0.37562  1.0000
  H   H508      1.0  0.22498  0.97074  0.31010  1.0000
  C   C423      1.0  0.21290  0.92780  0.39761  1.0000
  S   S117      1.0  0.99359  0.80187  0.42733  1.0000
  H   H509      1.0  0.01104  0.81844  0.48166  1.0000
  H   H510      1.0  0.04536  0.66515  0.35074  1.0000
  H   H511      1.0  0.14987  0.89195  0.39777  1.0000
  C   C424      1.0  0.21044  0.94040  0.34222  1.0000
  H   H512      1.0  0.24008  0.88988  0.30277  1.0000
  H   H513      1.0  0.17576  0.71752  0.26600  1.0000
  C   C425      1.0  0.23184  0.90404  0.31391  1.0000
  C   C426      1.0  0.03226  0.51087  0.47218  1.0000
  H   H514      1.0  0.21461  0.87376  0.38745  1.0000
  H   H515      1.0  0.99707  0.59857  0.46546  1.0000
  H   H516      1.0  0.21756  0.87289  0.34428  1.0000
  C   C427      1.0  0.48320  0.95966  0.47036  1.0000
  C   C428      1.0  0.11623  0.70485  0.28222  1.0000
  C   C429      1.0  0.15971  0.90980  0.47332  1.0000
  H   H517      1.0  0.05549  0.52217  0.46387  1.0000
  H   H518      1.0  0.42728  0.95521  0.42650  1.0000
  H   H519      1.0  0.29462  0.98165  0.27466  1.0000
  H   H520      1.0  0.98749  0.69645  0.43755  1.0000
  C   C430      1.0  0.22323  0.94948  0.31801  1.0000
  H   H521      1.0  0.00992  0.89300  0.46591  1.0000
  C   C431      1.0  0.00883  0.59503  0.48139  1.0000
  H   H522      1.0  0.11156  0.89069  0.48531  1.0000
  H   H523      1.0  0.05184  0.63754  0.47599  1.0000
  H   H524      1.0  0.98925  0.75355  0.46196  1.0000
  H   H525      1.0  0.40471  0.94089  0.46843  1.0000
  H   H526      1.0  0.04987  0.84931  0.48584  1.0000
  C   C432      1.0  0.41556  0.96538  0.46323  1.0000
  C   C433      1.0  0.42894  0.97408  0.43914  1.0000
  H   H527      1.0  0.30218  0.50234  0.25140  1.0000
  Fe  Fe56      1.0  0.24356  0.83717  0.24003  1.0000
  H   H528      1.0  0.46866  0.97722  0.39832  1.0000
  H   H529      1.0  0.42921  0.48954  0.46106  1.0000
  C   C434      1.0  0.03966  0.61679  0.48731  1.0000
  Fe  Fe57      1.0  0.42627  0.92917  0.55214  1.0000
  C   C435      1.0  0.02816  0.62209  0.69716  1.0000
  S   S118      1.0  0.44350  0.93186  0.51080  1.0000
  Fe  Fe58      1.0  0.37935  0.88780  0.59396  1.0000
  S   S119      1.0  0.40391  0.92522  0.62417  1.0000
  S   S120      1.0  0.33949  0.84060  0.60677  1.0000
  Fe  Fe59      1.0  0.40404  0.95820  0.59470  1.0000
  Fe  Fe60      1.0  0.44913  0.93081  0.60640  1.0000
  H   H530      1.0  0.99208  0.66761  0.68836  1.0000
  S   S121      1.0  0.37786  0.92060  0.56505  1.0000
  S   S122      1.0  0.42481  0.89166  0.57753  1.0000
  C   C436      1.0  0.15651  0.61506  0.60608  1.0000
  H   H531      1.0  0.45357  0.78186  0.64802  1.0000
  Fe  Fe61      1.0  0.17681  0.77531  0.68777  1.0000
  S   S123      1.0  0.19352  0.75367  0.71685  1.0000
  S   S124      1.0  0.21003  0.81439  0.66178  1.0000
  Fe  Fe62      1.0  0.10731  0.73513  0.70411  1.0000
  S   S125      1.0  0.05590  0.71477  0.69323  1.0000
  Fe  Fe63      1.0  0.15226  0.70761  0.70462  1.0000
  S   S126      1.0  0.15509  0.66214  0.69704  1.0000
  S   S127      1.0  0.14458  0.78425  0.71500  1.0000
  S   S128      1.0  0.13777  0.72885  0.67385  1.0000
  C   C437      1.0  0.99310  0.56845  0.49588  1.0000
  Fe  Fe64      1.0  0.06465  0.50929  0.60650  1.0000
  S   S129      1.0  0.05998  0.55138  0.62358  1.0000
  S   S130      1.0  0.10203  0.51905  0.57704  1.0000
  C   C438      1.0  0.24702  0.84791  0.72680  1.0000
  C   C439      1.0  0.08681  0.58176  0.64409  1.0000
  C   C440      1.0  0.11141  0.57961  0.65596  1.0000
  C   C441      1.0  0.13216  0.60441  0.67211  1.0000
  C   C442      1.0  0.12863  0.63161  0.67644  1.0000
  C   C443      1.0  0.10418  0.63387  0.66438  1.0000
  C   C444      1.0  0.08330  0.60898  0.64843  1.0000
  H   H532      1.0  0.11441  0.55881  0.65279  1.0000
  H   H533      1.0  0.15104  0.60247  0.68130  1.0000
  H   H534      1.0  0.10123  0.65469  0.66747  1.0000
  H   H535      1.0  0.06434  0.61086  0.63931  1.0000
  C   C445      1.0  0.02476  0.70086  0.71546  1.0000
  C   C446      1.0  0.18735  0.70875  0.63483  1.0000
  H   H536      1.0  0.21881  0.98060  0.49489  1.0000
  C   C447      1.0  0.99515  0.67730  0.70757  1.0000
  C   C448      1.0  0.42165  0.52798  0.65831  1.0000
  C   C449      1.0  0.42174  0.50360  0.64302  1.0000
  H   H537      1.0  0.39733  0.54071  0.68769  1.0000
  H   H538      1.0  0.44116  0.55144  0.65734  1.0000
  C   C450      1.0  0.46990  0.74307  0.61808  1.0000
  C   C451      1.0  0.27510  0.86407  0.71364  1.0000
  C   C452      1.0  0.08592  0.57921  0.53278  1.0000
  H   H539      1.0  0.45175  0.88612  0.65568  1.0000
  C   C453      1.0  0.46167  0.71685  0.60170  1.0000
  C   C454      1.0  0.30483  0.83496  0.62363  1.0000
  C   C455      1.0  0.28863  0.80800  0.63822  1.0000
  C   C456      1.0  0.26004  0.80171  0.65055  1.0000
  C   C457      1.0  0.24687  0.82194  0.64791  1.0000
  C   C458      1.0  0.26325  0.84905  0.63356  1.0000
  C   C459      1.0  0.29212  0.85566  0.62168  1.0000
  H   H540      1.0  0.29835  0.79195  0.64003  1.0000
  H   H541      1.0  0.24811  0.78119  0.66194  1.0000
  H   H542      1.0  0.25333  0.86487  0.63136  1.0000
  H   H543      1.0  0.30409  0.87624  0.61033  1.0000
  H   H544      1.0  0.25838  0.93250  0.64106  1.0000
  H   H545      1.0  0.04486  0.60602  0.57044  1.0000
  H   H546      1.0  0.06004  0.90002  0.50225  1.0000
  S   S131      1.0  0.45365  0.50917  0.62240  1.0000
  C   C460      1.0  0.22041  0.65307  0.61520  1.0000
  H   H547      1.0  0.25507  0.97699  0.52474  1.0000
  C   C461      1.0  0.39669  0.52180  0.67550  1.0000
  C   C462      1.0  0.19967  0.66603  0.62026  1.0000
  C   C463      1.0  0.14051  0.93568  0.50435  1.0000
  H   H548      1.0  0.22445  0.71791  0.59314  1.0000
  H   H549      1.0  0.22555  0.61242  0.60281  1.0000
  H   H550      1.0  0.47994  0.67192  0.63907  1.0000
  N   N30       1.0  0.24591  0.94347  0.55419  1.0000
  H   H551      1.0  0.25551  0.91222  0.52928  1.0000
  H   H552      1.0  0.16980  0.69380  0.64903  1.0000
  C   C464      1.0  0.21779  0.94713  0.56140  1.0000
  C   C465      1.0  0.47655  0.69163  0.63351  1.0000
  H   H553      1.0  0.16890  0.57874  0.59506  1.0000
  H   H554      1.0  0.22402  0.96804  0.57432  1.0000
  C   C466      1.0  0.01024  0.55860  0.73837  1.0000
  H   H555      1.0  0.19732  0.73346  0.64252  1.0000
  S   S132      1.0  0.45207  0.96856  0.58038  1.0000
  C   C467      1.0  0.06411  0.61479  0.72334  1.0000
  C   C468      1.0  0.06599  0.60476  0.56283  1.0000
  H   H556      1.0  0.21986  0.89349  0.54724  1.0000
  C   C469      1.0  0.29130  0.93885  0.57264  1.0000
  C   C470      1.0  0.17746  0.60301  0.60166  1.0000
  H   H557      1.0  0.19950  0.92584  0.57062  1.0000
  H   H558      1.0  0.08364  0.63779  0.71752  1.0000
  C   C471      1.0  0.46371  0.77742  0.66522  1.0000
  H   H559      1.0  0.46815  0.50558  0.54084  1.0000
  C   C472      1.0  0.25098  0.93744  0.60155  1.0000
  H   H560      1.0  0.28690  0.96909  0.53043  1.0000
  C   C473      1.0  0.03540  0.89072  0.50920  1.0000
  H   H561      1.0  0.20632  0.95066  0.54458  1.0000
  H   H562      1.0  0.00663  0.62478  0.69566  1.0000
  C   C474      1.0  0.22786  0.70211  0.65504  1.0000
  C   C475      1.0  0.23507  0.72085  0.61227  1.0000
  H   H563      1.0  0.23552  0.72577  0.66425  1.0000
  H   H564      1.0  0.24915  0.69887  0.65304  1.0000
  S   S133      1.0  0.48467  0.57978  0.57623  1.0000
  H   H565      1.0  0.24364  0.74587  0.61862  1.0000
  H   H566      1.0  0.25628  0.71747  0.60999  1.0000
  H   H567      1.0  0.46959  0.79806  0.67845  1.0000
  C   C476      1.0  0.16723  0.64603  0.61536  1.0000
  C   C477      1.0  0.03850  0.54895  0.55583  1.0000
  N   N31       1.0  0.21202  0.69882  0.63040  1.0000
  N   N32       1.0  0.05705  0.57925  0.54311  1.0000
  H   H568      1.0  0.24533  0.66679  0.61854  1.0000
  H   H569      1.0  0.43133  0.52575  0.54218  1.0000
  H   H570      1.0  0.14951  0.65340  0.61909  1.0000
  H   H571      1.0  0.44493  0.75635  0.67434  1.0000
  H   H572      1.0  0.32976  0.93556  0.59001  1.0000
  C   C478      1.0  0.02779  0.49623  0.49562  1.0000
  C   C479      1.0  0.48235  0.74458  0.64261  1.0000
  H   H573      1.0  0.45288  0.71645  0.58284  1.0000
  C   C480      1.0  0.23544  0.91527  0.53704  1.0000
  C   C481      1.0  0.30234  0.88429  0.72680  1.0000
  H   H574      1.0  0.02655  0.83187  0.51327  1.0000
  H   H575      1.0  0.21179  0.68440  0.66859  1.0000
  H   H576      1.0  0.44310  0.50863  0.50478  1.0000
  H   H577      1.0  0.02600  0.60308  0.68333  1.0000
  C   C482      1.0  0.00655  0.58485  0.73099  1.0000
  H   H578      1.0  0.05233  0.54534  0.57079  1.0000
  C   C483      1.0  0.20936  0.62201  0.60613  1.0000
  H   H579      1.0  0.07784  0.60076  0.57925  1.0000
  C   C484      1.0  0.17082  0.96122  0.50737  1.0000
  C   C485      1.0  0.29594  0.93396  0.61768  1.0000
  H   H580      1.0  0.08020  0.56202  0.51646  1.0000
  N   N33       1.0  0.03330  0.61490  0.72327  1.0000
  C   C486      1.0  0.26758  0.93448  0.62189  1.0000
  C   C487      1.0  0.03988  0.58452  0.52236  1.0000
  C   C488      1.0  0.26739  0.97163  0.53994  1.0000
  H   H581      1.0  0.46107  0.85472  0.68771  1.0000
  H   H582      1.0  0.05502  0.66385  0.73536  1.0000
  H   H583      1.0  0.22588  0.83216  0.71645  1.0000
  S   S134      1.0  0.12031  0.71176  0.73430  1.0000
  N   N34       1.0  0.01344  0.86279  0.49385  1.0000
  C   C489      1.0  0.30762  0.93591  0.59311  1.0000
  H   H584      1.0  0.99470  0.54166  0.52609  1.0000
  H   H585      1.0  0.03494  0.88477  0.52949  1.0000
  H   H586      1.0  0.06447  0.59668  0.70970  1.0000
  H   H587      1.0  0.02961  0.91049  0.50861  1.0000
  H   H588      1.0  0.10334  0.60253  0.52595  1.0000
  H   H589      1.0  0.17499  0.70784  0.61696  1.0000
  C   C490      1.0  0.05498  0.61178  0.50756  1.0000
  H   H590      1.0  0.42208  0.51457  0.57428  1.0000
  H   H591      1.0  0.09806  0.57247  0.54724  1.0000
  H   H592      1.0  0.46674  0.76232  0.61129  1.0000
  C   C491      1.0  0.26258  0.94003  0.57622  1.0000
  H   H593      1.0  0.27570  0.86080  0.69319  1.0000
  H   H594      1.0  0.13163  0.59994  0.60297  1.0000
  C   C492      1.0  0.48064  0.87165  0.67693  1.0000
  H   H595      1.0  0.22921  0.93770  0.60624  1.0000
  H   H596      1.0  0.12134  0.93553  0.51545  1.0000
  C   C493      1.0  0.00823  0.56308  0.51606  1.0000
  H   H597      1.0  0.04789  0.64464  0.69075  1.0000
  H   H598      1.0  0.32415  0.89670  0.71639  1.0000
  H   H599      1.0  0.30160  0.94048  0.55401  1.0000
  H   H600      1.0  0.30894  0.93187  0.63344  1.0000
  C   C494      1.0  0.48519  0.71784  0.64995  1.0000
  H   H601      1.0  0.22213  0.91666  0.52046  1.0000
  H   H602      1.0  0.08227  0.62821  0.55544  1.0000
  C   C495      1.0  0.19548  0.96104  0.49301  1.0000
  H   H603      1.0  0.03138  0.52861  0.54224  1.0000
  H   H604      1.0  0.48466  0.91081  0.53935  1.0000
  C   C496      1.0  0.47527  0.88946  0.65877  1.0000
  C   C497      1.0  0.02564  0.83953  0.49377  1.0000
  H   H605      1.0  0.01723  0.54782  0.56543  1.0000
  S   S135      1.0  0.06052  0.49644  0.51089  1.0000
  H   H606      1.0  0.39112  0.50153  0.55115  1.0000
  C   C498      1.0  0.46521  0.69129  0.60936  1.0000
  C   C499      1.0  0.47384  0.96448  0.49491  1.0000
  H   H607      1.0  0.45977  0.67133  0.59643  1.0000
  C   C500      1.0  0.41562  0.50590  0.55423  1.0000
  H   H608      1.0  0.40806  0.98123  0.50016  1.0000
  H   H609      1.0  0.45997  0.49069  0.57185  1.0000
  H   H610      1.0  0.03273  0.55880  0.73828  1.0000
  H   H611      1.0  0.07890  0.62928  0.51136  1.0000
  C   C501      1.0  0.37117  0.49140  0.67730  1.0000
  H   H612      1.0  0.09276  0.85655  0.88404  1.0000
  H   H613      1.0  0.03793  0.79792  0.89951  1.0000
  S   S136      1.0  0.17383  0.77702  0.78464  1.0000
  C   C502      1.0  0.03195  0.73072  0.84506  1.0000
  Fe  Fe65      1.0  0.15889  0.88061  0.94238  1.0000
  S   S137      1.0  0.14471  0.90708  0.91594  1.0000
  S   S138      1.0  0.12194  0.83671  0.96211  1.0000
  Fe  Fe66      1.0  0.22929  0.92172  0.92888  1.0000
  S   S139      1.0  0.21886  0.95036  0.90164  1.0000
  S   S140      1.0  0.27997  0.93481  0.93765  1.0000
  Fe  Fe67      1.0  0.18571  0.95091  0.93205  1.0000
  H   H614      1.0  0.02544  0.75109  0.87946  1.0000
  Fe  Fe68      1.0  0.17949  0.90349  0.88848  1.0000
  S   S141      1.0  0.16614  0.88965  0.84691  1.0000
  S   S142      1.0  0.19798  0.92457  0.96019  1.0000
  S   S143      1.0  0.19190  0.87479  0.91403  1.0000
  H   H615      1.0  0.13250  0.82470  0.87674  1.0000
  H   H616      1.0  0.11414  0.79355  0.89889  1.0000
  C   C503      1.0  0.03574  0.64068  0.74094  1.0000
  H   H617      1.0  0.12194  0.83299  0.90727  1.0000
  C   C504      1.0  0.34063  0.96206  0.91988  1.0000
  C   C505      1.0  0.30875  0.94901  0.91338  1.0000
  C   C506      1.0  0.30056  0.94761  0.88784  1.0000
  H   H618      1.0  0.47273  0.93334  0.95588  1.0000
  H   H619      1.0  0.31076  0.92247  0.79991  1.0000
  H   H620      1.0  0.99751  0.56939  0.88739  1.0000
  H   H621      1.0  0.27609  0.93762  0.88261  1.0000
  C   C507      1.0  0.17066  0.80797  0.80164  1.0000
  C   C508      1.0  0.15871  0.82614  0.79059  1.0000
  C   C509      1.0  0.15770  0.85121  0.80465  1.0000
  C   C510      1.0  0.16874  0.85846  0.82979  1.0000
  C   C511      1.0  0.18083  0.84037  0.84077  1.0000
  C   C512      1.0  0.18151  0.81512  0.82683  1.0000
  H   H622      1.0  0.15035  0.82099  0.77120  1.0000
  H   H623      1.0  0.14828  0.86504  0.79596  1.0000
  H   H624      1.0  0.18955  0.84569  0.86004  1.0000
  H   H625      1.0  0.19076  0.80117  0.83557  1.0000
  C   C513      1.0  0.05144  0.73318  0.82444  1.0000
  C   C514      1.0  0.04174  0.75447  0.86409  1.0000
  H   H626      1.0  0.31756  0.95752  0.84930  1.0000
  C   C515      1.0  0.07158  0.78162  0.86284  1.0000
  H   H627      1.0  0.06147  0.83178  0.86270  1.0000
  H   H628      1.0  0.25502  0.91024  0.79282  1.0000
  N   N35       1.0  0.08250  0.80777  0.88212  1.0000
  H   H629      1.0  0.24668  0.89068  0.82262  1.0000
  C   C516      1.0  0.06152  0.80106  0.90464  1.0000
  H   H630      1.0  0.07111  0.82076  0.91914  1.0000
  C   C517      1.0  0.30164  0.88850  0.75320  1.0000
  C   C518      1.0  0.09057  0.78345  0.84138  1.0000
  C   C519      1.0  0.07574  0.85196  0.98042  1.0000
  H   H631      1.0  0.04876  0.52461  0.95194  1.0000
  H   H632      1.0  0.05892  0.77980  0.91438  1.0000
  C   C520      1.0  0.02734  0.51061  0.96225  1.0000
  C   C521      1.0  0.08461  0.83618  0.87028  1.0000
  C   C522      1.0  0.24603  0.85183  0.75316  1.0000
  C   C523      1.0  0.11405  0.81491  0.89155  1.0000
  H   H633      1.0  0.46798  0.52121  0.96240  1.0000
  H   H634      1.0  0.38860  0.98349  0.90635  1.0000
  C   C524      1.0  0.48079  0.51017  0.97032  1.0000
  H   H635      1.0  0.10155  0.84390  0.85416  1.0000
  C   C525      1.0  0.08611  0.82926  0.97793  1.0000
  H   H636      1.0  0.39117  0.95943  0.97052  1.0000
  H   H637      1.0  0.04376  0.71475  0.80973  1.0000
  H   H638      1.0  0.23773  0.82695  0.79995  1.0000
  C   C526      1.0  0.36415  0.97363  0.90109  1.0000
  H   H639      1.0  0.00899  0.71031  0.84619  1.0000
  H   H640      1.0  0.01407  0.64334  0.74138  1.0000
  H   H641      1.0  0.22447  0.87069  0.79518  1.0000
  C   C527      1.0  0.02565  0.51697  0.98836  1.0000
  H   H642      1.0  0.04021  0.63647  0.76072  1.0000
  H   H643      1.0  0.03738  0.58798  0.96889  1.0000
  H   H644      1.0  0.00266  0.53475  0.89170  1.0000
  H   H645      1.0  0.00504  0.71356  0.77567  1.0000
  C   C528      1.0  0.00234  0.70299  0.75680  1.0000
  C   C529      1.0  0.06800  0.79988  0.98894  1.0000
  C   C530      1.0  0.26121  0.84489  0.80680  1.0000
  H   H646      1.0  0.25936  0.84643  0.82785  1.0000
  H   H647      1.0  0.09595  0.76151  0.80653  1.0000
  H   H648      1.0  0.02128  0.57140  0.92533  1.0000
  H   H649      1.0  0.29965  0.90041  0.82816  1.0000
  H   H650      1.0  0.27782  0.83533  0.80215  1.0000
  C   C531      1.0  0.30192  0.89832  0.80716  1.0000
  C   C532      1.0  0.32408  0.95878  0.86900  1.0000
  H   H651      1.0  0.11315  0.80364  0.83878  1.0000
  H   H652      1.0  0.13076  0.93228  0.97296  1.0000
  H   H653      1.0  0.08908  0.87436  0.97170  1.0000
  H   H654      1.0  0.32021  0.89059  0.80393  1.0000
  C   C533      1.0  0.24851  0.88736  0.80171  1.0000
  N   N36       1.0  0.27156  0.87585  0.79520  1.0000
  H   H655      1.0  0.32361  0.90449  0.76213  1.0000
  C   C534      1.0  0.27331  0.87230  0.76723  1.0000
  C   C535      1.0  0.01267  0.57346  0.96458  1.0000
  C   C536      1.0  0.00301  0.56344  0.93954  1.0000
  C   C537      1.0  0.08074  0.75949  0.82263  1.0000
  H   H656      1.0  0.22362  0.83846  0.76241  1.0000
  C   C538      1.0  0.35595  0.97187  0.87554  1.0000
  C   C539      1.0  0.11757  0.94265  0.98380  1.0000
  Fe  Fe69      1.0  0.15960  0.76031  0.74350  1.0000
  H   H657      1.0  0.09213  0.92576  0.98205  1.0000
  H   H658      1.0  0.34720  0.96329  0.93954  1.0000
  H   H659      1.0  0.12186  0.96440  0.97392  1.0000
  S   S144      1.0  0.38490  0.98592  0.85143  1.0000
  C   C540      1.0  0.99094  0.56368  0.98436  1.0000
  H   H660      1.0  0.47074  0.97686  0.93325  1.0000
  C   C541      1.0  0.48283  0.95671  0.96462  1.0000
  C   C542      1.0  0.48179  0.98139  0.95168  1.0000
  H   H661      1.0  0.33608  0.94274  0.98359  1.0000
  H   H662      1.0  0.07030  0.61068  0.74258  1.0000
  H   H663      1.0  0.07073  0.49053  0.97505  1.0000
  H   H664      1.0  0.05113  0.73164  0.74655  1.0000
  H   H665      1.0  0.07552  0.78194  0.98694  1.0000
  H   H666      1.0  0.98774  0.51124  0.75207  1.0000
  C   C543      1.0  0.02845  0.71330  0.74032  1.0000
  C   C544      1.0  0.38229  0.94704  0.98805  1.0000
  H   H667      1.0  0.89852  0.16185  0.05273  1.0000
  Fe  Fe70      1.0  0.84951  0.11132  0.01818  1.0000
  S   S145      1.0  0.86499  0.08795  0.04672  1.0000
  C   C545      1.0  0.72536  0.12583  0.22362  1.0000
  Fe  Fe71      1.0  0.77915  0.06476  0.02826  1.0000
  S   S146      1.0  0.79091  0.03920  0.05747  1.0000
  S   S147      1.0  0.72846  0.04266  0.01457  1.0000
  Fe  Fe72      1.0  0.82626  0.08777  0.07165  1.0000
  S   S148      1.0  0.83592  0.10090  0.11391  1.0000
  Fe  Fe73      1.0  0.82792  0.04206  0.02964  1.0000
  C   C546      1.0  0.78077  0.15008  0.21670  1.0000
  S   S149      1.0  0.81219  0.11337  0.04402  1.0000
  S   S150      1.0  0.81480  0.06555  0.99956  1.0000
  H   H668      1.0  0.90849  0.18505  0.12081  1.0000
  Fe  Fe74      1.0  0.84462  0.23214  0.21609  1.0000
  S   S151      1.0  0.83295  0.21751  0.17414  1.0000
  C   C547      1.0  0.76701  0.10557  0.17545  1.0000
  C   C548      1.0  0.89293  0.20906  0.08144  1.0000
  C   C549      1.0  0.96912  0.27174  0.22308  1.0000
  H   H669      1.0  0.94723  0.25165  0.21749  1.0000
  C   C550      1.0  0.83508  0.13359  0.13018  1.0000
  C   C551      1.0  0.84916  0.14320  0.15426  1.0000
  C   C552      1.0  0.84881  0.16882  0.16794  1.0000
  C   C553      1.0  0.83390  0.18486  0.15783  1.0000
  C   C554      1.0  0.81942  0.17492  0.13394  1.0000
  C   C555      1.0  0.82034  0.14974  0.12002  1.0000
  H   H670      1.0  0.86054  0.13081  0.16236  1.0000
  H   H671      1.0  0.86009  0.17616  0.18629  1.0000
  H   H672      1.0  0.80751  0.18689  0.12604  1.0000
  H   H673      1.0  0.80922  0.14254  0.10160  1.0000
  H   H674      1.0  0.88769  0.15448  0.09768  1.0000
  H   H675      1.0  0.66162  0.00624  0.00841  1.0000
  C   C556      1.0  0.64623  0.01190  0.07133  1.0000
  C   C557      1.0  0.64071  0.00320  0.04554  1.0000
  C   C558      1.0  0.66610  0.01273  0.02835  1.0000
  C   C559      1.0  0.69720  0.03082  0.03680  1.0000
  C   C560      1.0  0.70270  0.03914  0.06262  1.0000
  C   C561      1.0  0.67731  0.02988  0.07972  1.0000
  H   H676      1.0  0.83348  0.20713  0.04521  1.0000
  H   H677      1.0  0.72651  0.05314  0.06936  1.0000
  C   C562      1.0  0.73317  0.07189  0.14178  1.0000
  H   H678      1.0  0.52094  0.99695  0.01817  1.0000
  H   H679      1.0  0.96800  0.22001  0.08565  1.0000
  H   H680      1.0  0.86278  0.24774  0.11996  1.0000
  C   C563      1.0  0.91046  0.17570  0.10162  1.0000
  N   N37       1.0  0.91763  0.19893  0.08159  1.0000
  H   H681      1.0  0.95137  0.32581  0.22542  1.0000
  H   H682      1.0  0.95035  0.46083  0.99875  1.0000
  H   H683      1.0  0.68843  0.07114  0.13855  1.0000
  C   C564      1.0  0.88876  0.22560  0.10284  1.0000
  C   C565      1.0  0.71582  0.10218  0.16931  1.0000
  H   H684      1.0  0.94991  0.23682  0.10636  1.0000
  H   H685      1.0  0.77920  0.07753  0.14916  1.0000
  C   C566      1.0  0.71035  0.08071  0.14898  1.0000
  C   C567      1.0  0.84920  0.21260  0.06122  1.0000
  C   C568      1.0  0.84612  0.22921  0.08237  1.0000
  S   S152      1.0  0.61523  0.00062  0.09375  1.0000
  H   H686      1.0  0.52635  0.47007  0.99799  1.0000
  N   N38       1.0  0.75011  0.13912  0.20386  1.0000
  H   H687      1.0  0.92557  0.20001  0.04102  1.0000
  H   H688      1.0  0.78442  0.16808  0.23189  1.0000
  C   C569      1.0  0.74441  0.11542  0.18312  1.0000
  H   H689      1.0  0.69765  0.10871  0.17389  1.0000
  H   H690      1.0  0.76688  0.17675  0.17760  1.0000
  H   H691      1.0  0.68169  0.03667  0.09958  1.0000
  H   H692      1.0  0.72922  0.05568  0.12577  1.0000
  C   C570      1.0  0.76133  0.08418  0.15505  1.0000
  H   H693      1.0  0.95379  0.24529  0.07314  1.0000
  H   H694      1.0  0.72620  0.16160  0.18572  1.0000
  C   C571      1.0  0.74956  0.16705  0.19336  1.0000
  C   C572      1.0  0.92042  0.18396  0.05716  1.0000
  H   H695      1.0  0.92861  0.16765  0.10269  1.0000
  C   C573      1.0  0.86591  0.23575  0.10312  1.0000
  H   H696      1.0  0.75563  0.18631  0.20801  1.0000
  H   H697      1.0  0.90269  0.23030  0.11981  1.0000
  C   C574      1.0  0.87222  0.20262  0.06061  1.0000
  H   H698      1.0  0.93949  0.17711  0.05754  1.0000
  C   C575      1.0  0.94862  0.22646  0.08694  1.0000
  H   H699      1.0  0.82801  0.23656  0.08289  1.0000
  H   H700      1.0  0.87307  0.18969  0.04365  1.0000
  H   H701      1.0  0.78956  0.11443  0.18456  1.0000
  H   H702      1.0  0.70170  0.12000  0.21642  1.0000
  S   S153      1.0  0.88533  0.15653  0.99916  1.0000
  H   H703      1.0  0.80071  0.16163  0.20335  1.0000
  S   S154      1.0  0.83711  0.00167  0.01596  1.0000
  S   S155      1.0  0.88377  0.27869  0.22971  1.0000
  C   C576      1.0  0.50985  0.99236  0.99975  1.0000
  H   H704      1.0  0.61536  0.02159  0.99972  1.0000
  H   H705      1.0  0.61688  0.98957  0.03882  1.0000
  C   C577      1.0  0.48865  0.48199  0.00407  1.0000
  C   C578      1.0  0.96143  0.35023  0.23189  1.0000
  H   H706      1.0  0.78255  0.13054  0.22593  1.0000
  H   H707      1.0  0.51940  0.04049  0.99538  1.0000
  H   H708      1.0  0.72426  0.10404  0.23122  1.0000
  C   C579      1.0  0.51385  0.48154  0.99025  1.0000
  Fe  Fe75      1.0  0.59505  0.02149  0.36969  1.0000
  S   S156      1.0  0.61990  0.05655  0.40121  1.0000
  Fe  Fe76      1.0  0.55410  0.05296  0.35713  1.0000
  S   S157      1.0  0.57768  0.09029  0.38770  1.0000
  S   S158      1.0  0.50918  0.04727  0.33814  1.0000
  Fe  Fe77      1.0  0.62310  0.09211  0.37309  1.0000
  S   S159      1.0  0.66991  0.13687  0.36796  1.0000
  Fe  Fe78      1.0  0.57196  0.05033  0.41223  1.0000
  S   S160      1.0  0.55450  0.04696  0.45351  1.0000
  S   S161      1.0  0.59969  0.05714  0.34107  1.0000
  S   S162      1.0  0.54689  0.01289  0.38227  1.0000
  Fe  Fe79      1.0  0.82006  0.21136  0.26999  1.0000
  H   H709      1.0  0.48746  0.00922  0.24077  1.0000
  S   S163      1.0  0.77813  0.16633  0.28452  1.0000
  Fe  Fe80      1.0  0.89154  0.25109  0.25949  1.0000
  S   S164      1.0  0.94236  0.26751  0.27060  1.0000
  Fe  Fe81      1.0  0.84977  0.28180  0.25799  1.0000
  S   S165      1.0  0.84937  0.32867  0.26587  1.0000
  S   S166      1.0  0.85848  0.25548  0.28850  1.0000
  H   H710      1.0  0.92940  0.31447  0.48748  1.0000
  Fe  Fe82      1.0  0.51796  0.43698  0.35741  1.0000
  S   S167      1.0  0.52698  0.41091  0.38820  1.0000
  C   C580      1.0  0.94652  0.35899  0.25106  1.0000
  H   H711      1.0  0.79888  0.44821  0.35488  1.0000
  H   H712      1.0  0.79422  0.02797  0.43327  1.0000
  H   H713      1.0  0.84981  0.43870  0.30367  1.0000
  S   S168      1.0  0.94066  0.43430  0.34519  1.0000
  C   C581      1.0  0.96521  0.40652  0.39926  1.0000
  H   H714      1.0  0.78410  0.43488  0.31262  1.0000
  S   S169      1.0  0.55905  0.48131  0.34128  1.0000
  H   H715      1.0  0.50551  0.23130  0.25733  1.0000
  C   C582      1.0  0.87534  0.35798  0.28771  1.0000
  C   C583      1.0  0.89429  0.35205  0.30416  1.0000
  C   C584      1.0  0.91410  0.37565  0.32162  1.0000
  C   C585      1.0  0.91507  0.40536  0.32299  1.0000
  C   C586      1.0  0.89639  0.41142  0.30640  1.0000
  C   C587      1.0  0.87657  0.38782  0.28891  1.0000
  H   H716      1.0  0.89362  0.32924  0.30350  1.0000
  H   H717      1.0  0.92870  0.37078  0.33415  1.0000
  H   H718      1.0  0.89760  0.43442  0.30687  1.0000
  H   H719      1.0  0.86211  0.39267  0.27621  1.0000
  C   C588      1.0  0.95337  0.38590  0.44293  1.0000
  C   C589      1.0  0.59146  0.46508  0.30383  1.0000
  Fe  Fe83      1.0  0.49172  0.41960  0.41123  1.0000
  H   H720      1.0  0.61602  0.45451  0.27330  1.0000
  H   H721      1.0  0.57211  0.44147  0.30405  1.0000
  H   H722      1.0  0.94747  0.39705  0.27425  1.0000
  H   H723      1.0  0.73529  0.09327  0.33528  1.0000
  C   C590      1.0  0.52857  0.09856  0.30664  1.0000
  H   H724      1.0  0.54229  0.13660  0.28074  1.0000
  H   H725      1.0  0.55240  0.10335  0.31044  1.0000
  C   C591      1.0  0.69891  0.14543  0.34364  1.0000
  C   C592      1.0  0.69510  0.12432  0.32335  1.0000
  C   C593      1.0  0.71934  0.13141  0.30526  1.0000
  C   C594      1.0  0.74748  0.15997  0.30680  1.0000
  C   C595      1.0  0.75096  0.18144  0.32671  1.0000
  C   C596      1.0  0.72693  0.17409  0.34506  1.0000
  H   H726      1.0  0.67348  0.10255  0.32158  1.0000
  H   H727      1.0  0.71627  0.11460  0.28997  1.0000
  H   H728      1.0  0.77247  0.20339  0.32833  1.0000
  H   H729      1.0  0.73017  0.19068  0.36058  1.0000
  C   C597      1.0  0.52276  0.01479  0.46859  1.0000
  C   C598      1.0  0.81947  0.07074  0.45612  1.0000
  H   H730      1.0  0.48906  0.48446  0.43594  1.0000
  C   C599      1.0  0.81277  0.04032  0.44697  1.0000
  C   C600      1.0  0.83099  0.02652  0.45475  1.0000
  C   C601      1.0  0.85525  0.04306  0.47237  1.0000
  H   H731      1.0  0.92843  0.10349  0.47714  1.0000
  H   H732      1.0  0.54829  0.47975  0.42497  1.0000
  H   H733      1.0  0.76278  0.09215  0.35727  1.0000
  H   H734      1.0  0.97040  0.12170  0.47452  1.0000
  H   H735      1.0  0.94650  0.35034  0.41285  1.0000
  C   C602      1.0  0.94266  0.36371  0.48549  1.0000
  C   C603      1.0  0.93752  0.09763  0.42941  1.0000
  S   S170      1.0  0.85457  0.20405  0.24419  1.0000
  H   H736      1.0  0.72934  0.00504  0.43087  1.0000
  H   H737      1.0  0.71594  0.00926  0.38776  1.0000
  H   H738      1.0  0.91414  0.07949  0.43621  1.0000
  H   H739      1.0  0.89861  0.11871  0.44383  1.0000
  C   C604      1.0  0.52171  0.22463  0.26699  1.0000
  C   C605      1.0  0.84390  0.08735  0.47354  1.0000
  H   H740      1.0  0.74041  0.11252  0.36534  1.0000
  H   H741      1.0  0.95433  0.08838  0.43300  1.0000
  C   C606      1.0  0.53592  0.20876  0.30509  1.0000
  H   H742      1.0  0.50685  0.31511  0.30078  1.0000
  H   H743      1.0  0.56145  0.22339  0.30136  1.0000
  C   C607      1.0  0.82945  0.33880  0.34023  1.0000
  S   S171      1.0  0.85272  0.12632  0.48327  1.0000
  C   C608      1.0  0.72981  0.02674  0.42520  1.0000
  C   C609      1.0  0.49358  0.03824  0.41056  1.0000
  H   H744      1.0  0.49163  0.06224  0.24689  1.0000
  H   H745      1.0  0.49356  0.26303  0.28253  1.0000
  H   H746      1.0  0.86279  0.36733  0.36878  1.0000
  H   H747      1.0  0.79687  0.31675  0.30967  1.0000
  H   H748      1.0  0.92487  0.34145  0.25933  1.0000
  H   H749      1.0  0.67600  0.06389  0.34751  1.0000
  C   C610      1.0  0.84533  0.36590  0.35540  1.0000
  C   C611      1.0  0.94588  0.35531  0.43293  1.0000
  C   C612      1.0  0.94931  0.12446  0.47012  1.0000
  H   H750      1.0  0.93849  0.43361  0.44934  1.0000
  H   H751      1.0  0.74380  0.04918  0.46209  1.0000
  H   H752      1.0  0.52915  0.18514  0.29603  1.0000
  H   H753      1.0  0.54618  0.24184  0.26193  1.0000
  C   C613      1.0  0.50352  0.07305  0.31792  1.0000
  H   H754      1.0  0.79330  0.40860  0.29403  1.0000
  C   C614      1.0  0.95935  0.39031  0.25946  1.0000
  H   H755      1.0  0.94665  0.44673  0.41762  1.0000
  H   H756      1.0  0.66564  0.04220  0.37605  1.0000
  C   C615      1.0  0.51874  0.30239  0.30742  1.0000
  C   C616      1.0  0.73929  0.09106  0.35567  1.0000
  C   C617      1.0  0.52273  0.11743  0.28982  1.0000
  C   C618      1.0  0.55500  0.29885  0.33635  1.0000
  H   H757      1.0  0.50555  0.04690  0.39209  1.0000
  H   H758      1.0  0.80598  0.08166  0.44933  1.0000
  C   C619      1.0  0.52602  0.25508  0.30590  1.0000
  C   C620      1.0  0.72970  0.08204  0.41107  1.0000
  C   C621      1.0  0.68440  0.06319  0.36686  1.0000
  C   C622      1.0  0.51141  0.27259  0.29707  1.0000
  H   H759      1.0  0.54500  0.33802  0.33574  1.0000
  S   S172      1.0  0.49968  0.43310  0.45347  1.0000
  C   C623      1.0  0.71023  0.03521  0.34836  1.0000
  C   C624      1.0  0.72238  0.05762  0.39235  1.0000
  C   C625      1.0  0.93733  0.32996  0.44893  1.0000
  H   H760      1.0  0.72915  0.10356  0.40667  1.0000
  N   N39       1.0  0.81326  0.41906  0.33169  1.0000
  C   C626      1.0  0.84258  0.44534  0.32213  1.0000
  C   C627      1.0  0.78771  0.41367  0.31371  1.0000
  C   C628      1.0  0.80516  0.42880  0.35665  1.0000
  C   C629      1.0  0.81810  0.39111  0.33454  1.0000
  C   C630      1.0  0.80242  0.36312  0.31922  1.0000
  C   C631      1.0  0.83990  0.39174  0.35259  1.0000
  C   C632      1.0  0.80813  0.33745  0.32216  1.0000
  H   H761      1.0  0.93191  0.30683  0.44105  1.0000
  N   N40       1.0  0.96308  0.41349  0.42674  1.0000
  H   H762      1.0  0.95099  0.14487  0.48181  1.0000
  H   H763      1.0  0.94198  0.38933  0.39129  1.0000
  H   H764      1.0  0.92549  0.15880  0.45001  1.0000
  H   H765      1.0  0.50542  0.02622  0.41965  1.0000
  C   C633      1.0  0.54817  0.26916  0.32592  1.0000
  C   C634      1.0  0.94013  0.42585  0.42950  1.0000
  H   H766      1.0  0.82514  0.43826  0.37021  1.0000
  H   H767      1.0  0.86245  0.45257  0.33560  1.0000
  H   H768      1.0  0.78498  0.40879  0.36565  1.0000
  H   H769      1.0  0.78618  0.36059  0.30443  1.0000
  H   H770      1.0  0.85359  0.41257  0.36419  1.0000
  H   H771      1.0  0.83982  0.46675  0.31925  1.0000
  C   C635      1.0  0.50180  0.46765  0.46868  1.0000
  C   C636      1.0  0.72221  0.02957  0.40028  1.0000
  H   H772      1.0  0.95628  0.41166  0.47874  1.0000
  N   N41       1.0  0.71430  0.06151  0.36619  1.0000
  H   H773      1.0  0.70522  0.03931  0.32870  1.0000
  N   N42       1.0  0.51724  0.22324  0.29497  1.0000
  C   C637      1.0  0.73765  0.05145  0.44290  1.0000
  C   C638      1.0  0.57680  0.98956  0.48772  1.0000
  H   H774      1.0  0.68982  0.01270  0.35384  1.0000
  H   H775      1.0  0.53204  0.20483  0.32582  1.0000
  H   H776      1.0  0.49835  0.05944  0.42255  1.0000
  H   H777      1.0  0.59434  0.01295  0.48262  1.0000
  H   H778      1.0  0.68642  0.08444  0.37758  1.0000
  C   C639      1.0  0.95123  0.38922  0.46972  1.0000
  H   H779      1.0  0.73171  0.03208  0.34749  1.0000
  H   H780      1.0  0.92105  0.14277  0.41817  1.0000
  Fe  Fe84      1.0  0.93911  0.47885  0.36001  1.0000
  H   H781      1.0  0.86931  0.03246  0.47862  1.0000
  C   C640      1.0  0.92216  0.13767  0.43845  1.0000
  H   H782      1.0  0.74330  0.09811  0.44978  1.0000
  N   N43       1.0  0.94726  0.12865  0.44259  1.0000
  C   C641      1.0  0.73749  0.07902  0.43589  1.0000
  C   C642      1.0  0.97780  0.15378  0.43377  1.0000
  H   H783      1.0  0.61480  0.99401  0.41363  1.0000
  H   H784      1.0  0.93519  0.09901  0.40858  1.0000
  H   H785      1.0  0.51705  0.20137  0.25832  1.0000
  H   H786      1.0  0.91618  0.40773  0.42373  1.0000
  H   H787      1.0  0.56782  0.48196  0.39546  1.0000
  H   H788      1.0  0.97321  0.42804  0.38788  1.0000
  C   C643      1.0  0.61646  0.47256  0.28641  1.0000
  H   H789      1.0  0.57149  0.30902  0.35191  1.0000
  S   S173      1.0  0.90223  0.47220  0.38915  1.0000
  S   S174      1.0  0.80918  0.23819  0.24112  1.0000
  H   H790      1.0  0.83447  0.31918  0.34179  1.0000
  H   H791      1.0  0.76496  0.39393  0.31972  1.0000
  C   C644      1.0  0.86132  0.07308  0.48206  1.0000
  H   H792      1.0  0.56029  0.25764  0.33410  1.0000
  C   C645      1.0  0.54027  0.31538  0.32716  1.0000
  C   C646      1.0  0.97237  0.28491  0.24764  1.0000
  C   C647      1.0  0.93582  0.33416  0.47513  1.0000
  C   C648      1.0  0.49188  0.11139  0.28443  1.0000
  H   H793      1.0  0.97717  0.19061  0.45890  1.0000
  S   S175      1.0  0.82574  0.98982  0.44173  1.0000
  H   H794      1.0  0.98242  0.39750  0.39560  1.0000
  H   H795      1.0  0.73002  0.14274  0.24008  1.0000
  C   C649      1.0  0.88025  0.27253  0.65936  1.0000
  Fe  Fe85      1.0  0.75117  0.14230  0.70793  1.0000
  S   S176      1.0  0.76508  0.15081  0.66583  1.0000
  Fe  Fe86      1.0  0.93043  0.22601  0.53170  1.0000
  S   S177      1.0  0.95389  0.21151  0.56112  1.0000
  S   S178      1.0  0.94617  0.27695  0.52246  1.0000
  Fe  Fe87      1.0  0.89076  0.15774  0.51143  1.0000
  S   S179      1.0  0.91219  0.13941  0.53924  1.0000
  C   C650      1.0  0.69739  0.99750  0.70433  1.0000
  Fe  Fe88      1.0  0.90496  0.17169  0.56784  1.0000
  S   S180      1.0  0.88372  0.15266  0.60674  1.0000
  Fe  Fe89      1.0  0.95846  0.18109  0.52937  1.0000
  S   S181      1.0  0.88138  0.18824  0.54025  1.0000
  H   H796      1.0  0.94148  0.36686  0.50592  1.0000
  H   H797      1.0  0.70247  0.01350  0.51002  1.0000
  S   S182      1.0  0.78202  0.13758  0.73687  1.0000
  C   C651      1.0  0.60213  0.06788  0.72228  1.0000
  H   H798      1.0  0.51456  0.45726  0.50475  1.0000
  H   H799      1.0  0.69893  0.00036  0.68399  1.0000
  C   C652      1.0  0.96234  0.30753  0.54589  1.0000
  C   C653      1.0  0.95969  0.30119  0.57175  1.0000
  H   H800      1.0  0.78098  0.99723  0.49298  1.0000
  H   H801      1.0  0.79942  0.02536  0.71976  1.0000
  C   C654      1.0  0.90273  0.27782  0.64038  1.0000
  C   C655      1.0  0.70985  0.02421  0.72074  1.0000
  H   H802      1.0  0.94793  0.27708  0.57763  1.0000
  C   C656      1.0  0.83306  0.20978  0.70689  1.0000
  H   H803      1.0  0.57687  0.00265  0.52663  1.0000
  C   C657      1.0  0.85447  0.26555  0.71215  1.0000
  C   C658      1.0  0.79800  0.15080  0.64960  1.0000
  C   C659      1.0  0.80606  0.16350  0.62526  1.0000
  C   C660      1.0  0.83215  0.16435  0.61187  1.0000
  C   C661      1.0  0.85044  0.15222  0.62259  1.0000
  C   C662      1.0  0.84221  0.13928  0.64682  1.0000
  C   C663      1.0  0.81629  0.13865  0.66028  1.0000
  H   H804      1.0  0.79221  0.17307  0.61680  1.0000
  H   H805      1.0  0.83824  0.17466  0.59339  1.0000
  H   H806      1.0  0.85613  0.12980  0.65531  1.0000
  H   H807      1.0  0.81038  0.12863  0.67888  1.0000
  H   H808      1.0  0.91224  0.29928  0.62975  1.0000
  H   H809      1.0  0.98052  0.34398  0.51840  1.0000
  H   H810      1.0  0.83719  0.26109  0.72791  1.0000
  C   C664      1.0  0.59697  0.00655  0.71992  1.0000
  N   N44       1.0  0.84286  0.23920  0.69296  1.0000
  C   C665      1.0  0.50994  0.47374  0.49452  1.0000
  H   H811      1.0  0.90804  0.21014  0.64344  1.0000
  C   C666      1.0  0.81458  0.23713  0.68051  1.0000
  H   H812      1.0  0.81438  0.04103  0.52070  1.0000
  C   C667      1.0  0.87818  0.22231  0.66730  1.0000
  S   S183      1.0  0.74436  0.17914  0.73108  1.0000
  C   C668      1.0  0.77117  0.01070  0.50316  1.0000
  C   C669      1.0  0.73969  0.00265  0.49984  1.0000
  H   H813      1.0  0.72123  0.04748  0.71300  1.0000
  H   H814      1.0  0.53826  0.99501  0.55397  1.0000
  H   H815      1.0  0.81466  0.20644  0.72125  1.0000
  C   C670      1.0  0.51306  0.01970  0.49297  1.0000
  H   H816      1.0  0.96943  0.32114  0.60997  1.0000
  H   H817      1.0  0.73491  0.05808  0.53842  1.0000
  S   S184      1.0  0.93707  0.19729  0.49978  1.0000
  C   C671      1.0  0.90052  0.22776  0.64818  1.0000
  C   C672      1.0  0.61587  0.02977  0.70236  1.0000
  C   C673      1.0  0.72702  0.01994  0.51270  1.0000
  N   N45       1.0  0.79750  0.08165  0.54969  1.0000
  C   C674      1.0  0.79724  0.11043  0.54074  1.0000
  C   C675      1.0  0.78458  0.07572  0.57587  1.0000
  C   C676      1.0  0.83083  0.08836  0.55104  1.0000
  C   C677      1.0  0.77808  0.05442  0.53259  1.0000
  H   H818      1.0  0.52454  0.04295  0.50190  1.0000
  C   C678      1.0  0.97179  0.32614  0.58998  1.0000
  H   H819      1.0  0.62953  0.02550  0.68774  1.0000
  H   H820      1.0  0.87667  0.26882  0.72095  1.0000
  C   C679      1.0  0.61831  0.05994  0.70366  1.0000
  C   C680      1.0  0.48857  0.99488  0.50592  1.0000
  H   H821      1.0  0.77358  0.10898  0.54182  1.0000
  H   H822      1.0  0.83311  0.06824  0.55864  1.0000
  H   H823      1.0  0.76059  0.07348  0.57712  1.0000
  H   H824      1.0  0.79938  0.09530  0.58943  1.0000
  H   H825      1.0  0.78340  0.05367  0.58299  1.0000
  H   H826      1.0  0.79490  0.23137  0.69424  1.0000
  H   H827      1.0  0.84483  0.10904  0.56392  1.0000
  H   H828      1.0  0.60466  0.09152  0.72354  1.0000
  H   H829      1.0  0.63340  0.07758  0.69050  1.0000
  C   C681      1.0  0.79020  0.03612  0.51926  1.0000
  H   H830      1.0  0.94911  0.47111  0.50181  1.0000
  H   H831      1.0  0.87957  0.08524  0.49599  1.0000
  H   H832      1.0  0.85299  0.20994  0.71733  1.0000
  H   H833      1.0  0.80528  0.11479  0.52063  1.0000
  H   H834      1.0  0.80595  0.21831  0.66529  1.0000
  H   H835      1.0  0.81916  0.25946  0.67162  1.0000
  C   C682      1.0  0.91278  0.25543  0.63480  1.0000
  H   H836      1.0  0.81306  0.13173  0.55230  1.0000
  H   H837      1.0  0.82246  0.18865  0.69403  1.0000
  H   H838      1.0  0.92997  0.25938  0.61995  1.0000
  H   H839      1.0  0.86953  0.20020  0.67666  1.0000
  C   C683      1.0  0.97794  0.33892  0.53838  1.0000
  C   C684      1.0  0.74582  0.04541  0.52886  1.0000
  S   S185      1.0  0.70628  0.10304  0.72322  1.0000
  H   H840      1.0  0.85892  0.28823  0.70404  1.0000
  H   H841      1.0  0.87279  0.29034  0.66269  1.0000
  C   C685      1.0  0.86731  0.24462  0.67349  1.0000
  H   H842      1.0  0.84230  0.09402  0.53206  1.0000
  C   C686      1.0  0.97231  0.48222  0.49342  1.0000
  H   H843      1.0  0.76737  0.02930  0.73479  1.0000
  C   C687      1.0  0.58104  0.01561  0.73879  1.0000
  C   C688      1.0  0.79115  0.03177  0.73783  1.0000
  C   C689      1.0  0.58343  0.04572  0.73974  1.0000
  Fe  Fe90      1.0  0.89513  0.37149  0.86434  1.0000
  S   S186      1.0  0.93119  0.39411  0.83384  1.0000
  S   S187      1.0  0.84886  0.32641  0.85792  1.0000
  Fe  Fe91      1.0  0.93675  0.42136  0.90535  1.0000
  H   H844      1.0  0.49086  0.46538  0.91726  1.0000
  S   S188      1.0  0.94013  0.43762  0.94703  1.0000
  Fe  Fe92      1.0  0.93639  0.44023  0.85066  1.0000
  H   H845      1.0  0.53815  0.13973  0.79787  1.0000
  Fe  Fe93      1.0  0.96561  0.39745  0.86379  1.0000
  S   S189      1.0  0.89813  0.41744  0.87959  1.0000
  S   S190      1.0  0.92932  0.37295  0.89354  1.0000
  C   C690      1.0  0.58916  0.17515  0.82560  1.0000
  Fe  Fe94      1.0  0.50632  0.05055  0.85126  1.0000
  S   S191      1.0  0.54938  0.04847  0.83391  1.0000
  S   S192      1.0  0.51594  0.08698  0.88236  1.0000
  S   S193      1.0  0.49616  0.04434  0.94665  1.0000
  C   C691      1.0  0.62611  0.04920  0.96629  1.0000
  S   S194      1.0  0.50619  0.44646  0.83579  1.0000
  H   H846      1.0  0.56571  0.19598  0.78649  1.0000
  Fe  Fe95      1.0  0.73703  0.10100  0.75370  1.0000
  S   S195      1.0  0.72834  0.05371  0.76783  1.0000
  Fe  Fe96      1.0  0.77391  0.17322  0.76079  1.0000
  C   C692      1.0  0.70757  0.46449  0.80824  1.0000
  S   S196      1.0  0.81911  0.21649  0.77409  1.0000
  H   H847      1.0  0.92718  0.20935  0.92224  1.0000
  S   S197      1.0  0.65597  0.13952  0.75786  1.0000
  S   S198      1.0  0.73202  0.13573  0.78090  1.0000
  H   H848      1.0  0.54699  0.16984  0.86409  1.0000
  C   C693      1.0  0.97353  0.46831  0.96237  1.0000
  C   C694      1.0  0.68140  0.46937  0.80523  1.0000
  H   H849      1.0  0.93253  0.30015  0.84065  1.0000
  C   C695      1.0  0.50125  0.41659  0.90782  1.0000
  C   C696      1.0  0.57853  0.07402  0.81254  1.0000
  C   C697      1.0  0.57426  0.09566  0.79826  1.0000
  C   C698      1.0  0.59799  0.11526  0.78143  1.0000
  C   C699      1.0  0.62636  0.11364  0.77877  1.0000
  C   C700      1.0  0.63043  0.09171  0.79284  1.0000
  C   C701      1.0  0.60662  0.07196  0.80950  1.0000
  H   H850      1.0  0.55260  0.09708  0.80004  1.0000
  H   H851      1.0  0.59448  0.13197  0.77053  1.0000
  H   H852      1.0  0.65194  0.08993  0.79084  1.0000
  H   H853      1.0  0.61008  0.05503  0.82012  1.0000
  C   C702      1.0  0.78162  0.02385  0.78250  1.0000
  C   C703      1.0  0.59856  0.03471  0.88750  1.0000
  H   H854      1.0  0.63088  0.07260  0.93179  1.0000
  C   C704      1.0  0.51522  0.37638  0.79582  1.0000
  C   C705      1.0  0.52253  0.40434  0.81016  1.0000
  H   H855      1.0  0.97194  0.30071  0.86605  1.0000
  H   H856      1.0  0.53403  0.37219  0.78828  1.0000
  H   H857      1.0  0.54677  0.42142  0.81352  1.0000
  H   H858      1.0  0.55693  0.06320  0.92258  1.0000
  C   C706      1.0  0.77086  0.46485  0.77024  1.0000
  H   H859      1.0  0.88425  0.44309  0.80735  1.0000
  C   C707      1.0  0.83996  0.29738  0.83305  1.0000
  C   C708      1.0  0.81070  0.27006  0.83311  1.0000
  C   C709      1.0  0.80346  0.24545  0.81479  1.0000
  C   C710      1.0  0.82563  0.24772  0.79634  1.0000
  C   C711      1.0  0.85477  0.27518  0.79611  1.0000
  C   C712      1.0  0.86175  0.30003  0.81410  1.0000
  H   H860      1.0  0.79361  0.26774  0.84762  1.0000
  H   H861      1.0  0.78099  0.22448  0.81528  1.0000
  H   H862      1.0  0.87211  0.27726  0.78193  1.0000
  H   H863      1.0  0.88416  0.32104  0.81346  1.0000
  N   N46       1.0  0.79119  0.01233  0.75910  1.0000
  C   C713      1.0  0.57867  0.00060  0.97185  1.0000
  C   C714      1.0  0.58626  0.02937  0.93254  1.0000
  C   C715      1.0  0.61541  0.19116  0.80931  1.0000
  H   H864      1.0  0.89157  0.24489  0.84271  1.0000
  C   C716      1.0  0.95595  0.14810  0.96030  1.0000
  H   H865      1.0  0.79037  0.45874  0.77203  1.0000
  C   C717      1.0  0.93642  0.22926  0.90984  1.0000
  H   H866      1.0  0.75659  0.02298  0.93230  1.0000
  H   H867      1.0  0.84060  0.04317  0.76490  1.0000
  C   C718      1.0  0.55354  0.18852  0.84997  1.0000
  Fe  Fe97      1.0  0.55155  0.48465  0.85412  1.0000
  H   H868      1.0  0.87704  0.26680  0.90793  1.0000
  C   C719      1.0  0.88946  0.46710  0.80395  1.0000
  H   H869      1.0  0.94229  0.32570  0.86862  1.0000
  H   H870      1.0  0.91068  0.30509  0.90884  1.0000
  N   N47       1.0  0.76276  0.47497  0.79504  1.0000
  N   N48       1.0  0.90685  0.27793  0.87453  1.0000
  C   C720      1.0  0.64186  0.18638  0.81049  1.0000
  H   H871      1.0  0.57412  0.21004  0.85752  1.0000
  H   H872      1.0  0.58218  0.22635  0.81135  1.0000
  C   C721      1.0  0.92823  0.26651  0.88419  1.0000
  C   C722      1.0  0.97712  0.17943  0.95461  1.0000
  C   C723      1.0  0.96075  0.28070  0.87810  1.0000
  H   H873      1.0  0.87720  0.29721  0.88963  1.0000
  C   C724      1.0  0.74127  0.01030  0.94849  1.0000
  H   H874      1.0  0.89222  0.22839  0.90584  1.0000
  C   C725      1.0  0.69465  0.99040  0.75677  1.0000
  C   C726      1.0  0.96816  0.24373  0.90349  1.0000
  H   H875      1.0  0.54067  0.20525  0.80641  1.0000
  H   H876      1.0  0.59064  0.03654  0.86815  1.0000
  H   H877      1.0  0.75094  0.02610  0.96566  1.0000
  H   H878      1.0  0.79404  0.05001  0.78462  1.0000
  S   S199      1.0  0.57801  0.47293  0.88287  1.0000
  H   H879      1.0  0.75034  0.44389  0.76194  1.0000
  H   H880      1.0  0.98342  0.23502  0.91085  1.0000
  H   H881      1.0  0.63802  0.99435  0.74275  1.0000
  H   H882      1.0  0.66318  0.16141  0.82790  1.0000
  C   C727      1.0  0.64305  0.16577  0.82778  1.0000
  C   C728      1.0  0.49529  0.01188  0.96253  1.0000
  H   H883      1.0  0.75516  0.45825  0.83332  1.0000
  H   H884      1.0  0.60168  0.01318  0.88737  1.0000
  N   N49       1.0  0.56035  0.17882  0.82450  1.0000
  Fe  Fe98      1.0  0.70275  0.13915  0.74965  1.0000
  C   C729      1.0  0.94228  0.19592  0.97717  1.0000
  H   H885      1.0  0.53319  0.19354  0.84950  1.0000
  C   C730      1.0  0.92822  0.14071  0.97441  1.0000
  H   H886      1.0  0.62199  0.05543  0.89021  1.0000
  H   H887      1.0  0.51219  0.42485  0.88890  1.0000
  N   N50       1.0  0.57569  0.03334  0.90733  1.0000
  H   H888      1.0  0.98627  0.22760  0.95938  1.0000
  C   C731      1.0  0.54448  0.00748  0.89972  1.0000
  H   H889      1.0  0.90652  0.31467  0.85231  1.0000
  C   C732      1.0  0.56253  0.20270  0.80636  1.0000
  C   C733      1.0  0.97028  0.20337  0.96347  1.0000
  H   H890      1.0  0.86697  0.23149  0.87033  1.0000
  S   S200      1.0  0.97522  0.44602  0.87724  1.0000
  C   C734      1.0  0.49850  0.41053  0.81938  1.0000
  H   H891      1.0  0.75605  0.01657  0.78222  1.0000
  C   C735      1.0  0.89234  0.28706  0.89619  1.0000
  C   C736      1.0  0.82386  0.01767  0.76218  1.0000
  C   C737      1.0  0.53351  0.14834  0.81656  1.0000
  H   H892      1.0  0.70629  0.44957  0.82348  1.0000
  H   H893      1.0  0.78045  0.44794  0.81479  1.0000
  H   H894      1.0  0.50023  0.39329  0.91005  1.0000
  H   H895      1.0  0.71736  0.00778  0.94569  1.0000
  C   C738      1.0  0.91666  0.24039  0.90036  1.0000
  H   H896      1.0  0.61836  0.13296  0.85683  1.0000
  C   C739      1.0  0.86951  0.47326  0.78846  1.0000
  C   C740      1.0  0.61778  0.14978  0.84401  1.0000
  C   C741      1.0  0.70894  0.02075  0.74702  1.0000
  H   H897      1.0  0.57187  0.14069  0.85546  1.0000
  H   H898      1.0  0.59641  0.08416  0.91100  1.0000
  C   C742      1.0  0.75900  0.45109  0.81377  1.0000
  H   H899      1.0  0.52838  0.12969  0.83046  1.0000
  H   H900      1.0  0.96078  0.12931  0.95349  1.0000
  H   H901      1.0  0.73913  0.42767  0.80857  1.0000
  H   H902      1.0  0.66154  0.45884  0.81810  1.0000
  C   C743      1.0  0.88163  0.25256  0.85915  1.0000
  H   H903      1.0  0.84903  0.45380  0.78004  1.0000
  H   H904      1.0  0.56478  0.06637  0.88900  1.0000
  H   H905      1.0  0.86524  0.26044  0.85143  1.0000
  H   H906      1.0  0.51145  0.15026  0.81485  1.0000
  C   C744      1.0  0.92282  0.30573  0.85830  1.0000
  C   C745      1.0  0.59120  0.15430  0.84298  1.0000
  H   H907      1.0  0.82650  0.00569  0.77891  1.0000
  C   C746      1.0  0.61575  0.05214  0.94240  1.0000
  H   H908      1.0  0.78299  0.00146  0.97399  1.0000
  H   H909      1.0  0.61598  0.20701  0.79512  1.0000
  H   H910      1.0  0.66118  0.19783  0.79727  1.0000
  C   C747      1.0  0.57346  0.06308  0.90751  1.0000
  H   H911      1.0  0.51753  0.43302  0.92259  1.0000
  H   H912      1.0  0.77935  0.48371  0.75609  1.0000
  H   H913      1.0  0.78628  0.01469  0.80007  1.0000
  H   H914      1.0  0.53750  0.01095  0.88051  1.0000
  C   C748      1.0  0.98024  0.26940  0.88770  1.0000
  C   C749      1.0  0.92097  0.16456  0.98269  1.0000
  H   H915      1.0  0.56729  0.99984  0.75347  1.0000
  H   H916      1.0  0.64855  0.06704  0.97359  1.0000
  H   H917      1.0  0.78872  0.99646  0.94062  1.0000
  C   C750      1.0  0.73441  0.47917  0.79230  1.0000
  C   C751      1.0  0.97186  0.47467  0.98847  1.0000
  H   H918      1.0  0.57138  0.05221  0.75453  1.0000
  H   H919      1.0  0.52576  0.00636  0.91298  1.0000
  S   S201      1.0  0.94390  0.48566  0.83227  1.0000
  C   C752      1.0  0.50900  0.01706  0.98673  1.0000
  C   C753      1.0  0.56800  0.00336  0.94803  1.0000
  H   H920      1.0  0.91209  0.11647  0.97833  1.0000
  H   H921      1.0  0.92316  0.48609  0.91839  1.0000
  C   C754      1.0  0.60752  0.02355  0.98103  1.0000
  H   H922      1.0  0.93699  0.21463  0.98337  1.0000
  H   H923      1.0  0.93579  0.48782  0.88624  1.0000
  H   H924      1.0  0.83158  0.00863  0.74516  1.0000
  H   H925      1.0  0.80675  0.05733  0.74168  1.0000
  Fe  Fe99      1.0  0.76788  0.59987  0.21756  1.0000
  S   S202      1.0  0.78566  0.60380  0.17646  1.0000
  C   C755      1.0  0.91060  0.67596  0.19335  1.0000
  Fe  Fe100     1.0  0.61052  0.78007  0.19122  1.0000
  S   S203      1.0  0.57507  0.75489  0.22153  1.0000
  S   S204      1.0  0.60999  0.82463  0.17766  1.0000
  Fe  Fe101     1.0  0.64159  0.73751  0.19852  1.0000
  S   S205      1.0  0.67725  0.72149  0.18561  1.0000
  Fe  Fe102     1.0  0.57126  0.71000  0.20328  1.0000
  S   S206      1.0  0.52292  0.66798  0.19558  1.0000
  S   S207      1.0  0.60444  0.73504  0.17158  1.0000
  S   S208      1.0  0.65156  0.78532  0.21483  1.0000
  Fe  Fe103     1.0  0.91136  0.72662  0.08195  1.0000
  S   S209      1.0  0.88243  0.68808  0.05420  1.0000
  S   S210      1.0  0.89639  0.72280  0.12375  1.0000
  Fe  Fe104     1.0  0.95764  0.76597  0.03922  1.0000
  S   S211      1.0  0.93007  0.72935  0.00922  1.0000
  Fe  Fe105     1.0  0.88691  0.72685  0.02883  1.0000
  H   H926      1.0  0.60346  0.89512  0.04192  1.0000
  Fe  Fe106     1.0  0.92875  0.69521  0.03810  1.0000
  S   S212      1.0  0.93942  0.65503  0.02758  1.0000
  S   S213      1.0  0.91432  0.76539  0.05742  1.0000
  S   S214      1.0  0.95790  0.73183  0.06734  1.0000
  Fe  Fe107     1.0  0.52926  0.89232  0.08383  1.0000
  S   S215      1.0  0.53726  0.92846  0.11490  1.0000
  S   S216      1.0  0.53556  0.84857  0.08889  1.0000
  Fe  Fe108     1.0  0.51534  0.93069  0.04416  1.0000
  H   H927      1.0  0.83921  0.61551  0.20733  1.0000
  Fe  Fe109     1.0  0.56536  0.96309  0.08488  1.0000
  S   S217      1.0  0.55854  0.92681  0.05444  1.0000
  H   H928      1.0  0.89575  0.53216  0.15371  1.0000
  C   C756      1.0  0.51537  0.63545  0.17444  1.0000
  H   H929      1.0  0.79363  0.72426  0.04985  1.0000
  C   C757      1.0  0.90171  0.64622  0.20402  1.0000
  C   C758      1.0  0.92836  0.68483  0.17102  1.0000
  S   S218      1.0  0.52405  0.96935  0.07284  1.0000
  H   H930      1.0  0.89883  0.59482  0.05686  1.0000
  H   H931      1.0  0.70921  0.68354  0.18173  1.0000
  C   C759      1.0  0.50363  0.56276  0.04925  1.0000
  H   H932      1.0  0.52121  0.51783  0.04869  1.0000
  C   C760      1.0  0.89600  0.58325  0.07538  1.0000
  C   C761      1.0  0.80580  0.96459  0.00712  1.0000
  H   H933      1.0  0.55174  0.60099  0.13920  1.0000
  C   C762      1.0  0.96162  0.64461  0.04786  1.0000
  C   C763      1.0  0.96855  0.65678  0.07278  1.0000
  H   H934      1.0  0.89208  0.88454  0.07496  1.0000
  S   S219      1.0  0.49902  0.93046  0.00362  1.0000
  C   C764      1.0  0.58947  0.83084  0.15257  1.0000
  C   C765      1.0  0.58679  0.85877  0.15289  1.0000
  C   C766      1.0  0.57055  0.86466  0.13353  1.0000
  C   C767      1.0  0.55677  0.84262  0.11355  1.0000
  C   C768      1.0  0.55996  0.81497  0.11299  1.0000
  C   C769      1.0  0.57639  0.80921  0.13226  1.0000
  H   H935      1.0  0.59713  0.87590  0.16832  1.0000
  H   H936      1.0  0.56839  0.88607  0.13423  1.0000
  H   H937      1.0  0.54977  0.79798  0.09744  1.0000
  H   H938      1.0  0.57945  0.78834  0.13113  1.0000
  H   H939      1.0  0.77182  0.96839  0.03209  1.0000
  C   C770      1.0  0.53965  0.63118  0.16308  1.0000
  C   C771      1.0  0.56447  0.55742  0.01289  1.0000
  H   H940      1.0  0.75763  0.81920  0.01263  1.0000
  H   H941      1.0  0.56382  0.64826  0.16672  1.0000
  C   C772      1.0  0.67528  0.94702  0.06512  1.0000
  H   H942      1.0  0.82487  0.56025  0.17118  1.0000
  C   C773      1.0  0.81510  0.63804  0.16198  1.0000
  C   C774      1.0  0.82092  0.63675  0.13582  1.0000
  C   C775      1.0  0.84565  0.66234  0.12386  1.0000
  C   C776      1.0  0.86467  0.68987  0.13788  1.0000
  C   C777      1.0  0.85804  0.69165  0.16384  1.0000
  C   C778      1.0  0.83346  0.66591  0.17585  1.0000
  H   H943      1.0  0.80615  0.61571  0.12475  1.0000
  H   H944      1.0  0.84990  0.66074  0.10379  1.0000
  H   H945      1.0  0.87211  0.71307  0.17477  1.0000
  H   H946      1.0  0.82868  0.66762  0.19580  1.0000
  C   C779      1.0  0.69046  0.70494  0.20899  1.0000
  C   C780      1.0  0.79965  0.87325  0.02992  1.0000
  N   N51       1.0  0.87825  0.59270  0.09414  1.0000
  C   C781      1.0  0.88266  0.54435  0.14861  1.0000
  H   H947      1.0  0.62674  0.87364  0.10401  1.0000
  H   H948      1.0  0.60238  0.90203  0.08876  1.0000
  C   C782      1.0  0.88908  0.56003  0.12567  1.0000
  C   C783      1.0  0.77597  0.95385  0.01794  1.0000
  C   C784      1.0  0.64392  0.84360  0.08835  1.0000
  H   H949      1.0  0.77997  0.74576  0.07015  1.0000
  C   C785      1.0  0.60804  0.58967  0.23283  1.0000
  H   H950      1.0  0.92036  0.59048  0.08175  1.0000
  C   C786      1.0  0.55356  0.60172  0.01246  1.0000
  H   H951      1.0  0.85418  0.53154  0.18243  1.0000
  C   C787      1.0  0.85289  0.86972  0.04939  1.0000
  C   C788      1.0  0.52945  0.73932  0.16144  1.0000
  H   H952      1.0  0.53492  0.72051  0.16741  1.0000
  S   S220      1.0  0.49436  0.54793  0.12295  1.0000
  C   C789      1.0  0.66453  0.88263  0.04680  1.0000
  H   H953      1.0  0.90550  0.84274  0.06031  1.0000
  H   H954      1.0  0.83976  0.73319  0.13303  1.0000
  S   S221      1.0  0.60792  0.71047  0.22929  1.0000
  H   H955      1.0  0.77424  0.81029  0.03944  1.0000
  H   H956      1.0  0.64214  0.86297  0.22322  1.0000
  C   C790      1.0  0.63813  0.56452  0.21571  1.0000
  H   H957      1.0  0.83658  0.60122  0.23871  1.0000
  H   H958      1.0  0.78075  0.79966  0.00756  1.0000
  N   N52       1.0  0.80839  0.72891  0.08893  1.0000
  C   C791      1.0  0.81502  0.70183  0.08538  1.0000
  C   C792      1.0  0.78499  0.72541  0.06944  1.0000
  C   C793      1.0  0.83762  0.75828  0.08392  1.0000
  C   C794      1.0  0.79776  0.73009  0.11536  1.0000
  C   C795      1.0  0.76840  0.72918  0.12137  1.0000
  C   C796      1.0  0.81704  0.73210  0.13610  1.0000
  C   C797      1.0  0.75908  0.72993  0.14662  1.0000
  H   H959      1.0  0.56368  0.53672  0.02087  1.0000
  C   C798      1.0  0.87810  0.86759  0.06027  1.0000
  H   H960      1.0  0.76269  0.70323  0.07169  1.0000
  H   H961      1.0  0.83592  0.70524  0.09626  1.0000
  H   H962      1.0  0.79478  0.67959  0.09155  1.0000
  H   H963      1.0  0.66275  0.81615  0.06862  1.0000
  C   C799      1.0  0.80733  0.73247  0.16124  1.0000
  C   C800      1.0  0.50146  0.58176  0.14231  1.0000
  H   H964      1.0  0.85737  0.76113  0.09622  1.0000
  H   H965      1.0  0.54427  0.61653  0.02076  1.0000
  H   H966      1.0  0.83405  0.77937  0.08723  1.0000
  H   H967      1.0  0.75207  0.72770  0.10702  1.0000
  C   C801      1.0  0.75173  0.92386  0.01101  1.0000
  H   H968      1.0  0.73657  0.72916  0.15093  1.0000
  C   C802      1.0  0.68584  0.70915  0.23483  1.0000
  H   H969      1.0  0.53303  0.74127  0.14053  1.0000
  C   C803      1.0  0.63880  0.86990  0.08782  1.0000
  S   S222      1.0  0.71970  0.59337  0.22815  1.0000
  Fe  Fe110     1.0  0.49459  0.93021  0.09940  1.0000
  C   C804      1.0  0.53270  0.60434  0.14736  1.0000
  H   H970      1.0  0.88393  0.55737  0.07148  1.0000
  H   H971      1.0  0.90193  0.64082  0.08247  1.0000
  C   C805      1.0  0.98228  0.64474  0.08960  1.0000
  C   C806      1.0  0.55139  0.57536  0.02538  1.0000
  H   H972      1.0  0.93455  0.70753  0.16306  1.0000
  C   C807      1.0  0.71724  0.67459  0.22005  1.0000
  C   C808      1.0  0.62633  0.92243  0.08759  1.0000
  H   H973      1.0  0.91980  0.63213  0.10856  1.0000
  H   H974      1.0  0.77847  0.87254  0.02118  1.0000
  C   C809      1.0  0.89694  0.62680  0.09993  1.0000
  S   S223      1.0  0.84025  0.72283  0.01544  1.0000
  H   H975      1.0  0.64907  0.54911  0.21950  1.0000
  H   H976      1.0  0.96517  0.61226  0.02017  1.0000
  C   C810      1.0  0.53503  0.53886  0.06120  1.0000
  C   C811      1.0  0.84297  0.82453  0.02200  1.0000
  H   H977      1.0  0.63950  0.91637  0.02470  1.0000
  C   C812      1.0  0.65908  0.83670  0.06819  1.0000
  H   H978      1.0  0.77091  0.73167  0.18601  1.0000
  C   C813      1.0  0.77842  0.73141  0.16649  1.0000
  H   H979      1.0  0.68962  0.94859  0.08195  1.0000
  H   H980      1.0  0.83220  0.56138  0.07953  1.0000
  N   N53       1.0  0.64426  0.91851  0.06570  1.0000
  H   H981      1.0  0.82027  0.69830  0.06519  1.0000
  C   C814      1.0  0.97035  0.62173  0.03946  1.0000
  C   C815      1.0  0.86817  0.82260  0.03296  1.0000
  H   H982      1.0  0.63868  0.92550  0.10591  1.0000
  H   H983      1.0  0.63593  0.82841  0.10451  1.0000
  H   H984      1.0  0.84579  0.75849  0.06395  1.0000
  H   H985      1.0  0.55890  0.54129  0.06396  1.0000
  H   H986      1.0  0.62235  0.93738  0.04115  1.0000
  H   H987      1.0  0.67284  0.96890  0.06527  1.0000
  H   H988      1.0  0.83621  0.59844  0.09216  1.0000
  H   H989      1.0  0.54724  0.76171  0.17050  1.0000
  H   H990      1.0  0.49113  0.55547  0.06773  1.0000
  H   H991      1.0  0.90398  0.69281  0.20175  1.0000
  H   H992      1.0  0.86318  0.66820  0.22863  1.0000
  H   H993      1.0  0.85288  0.59709  0.06236  1.0000
  H   H994      1.0  0.65711  0.58636  0.20775  1.0000
  H   H995      1.0  0.62291  0.94368  0.08596  1.0000
  C   C816      1.0  0.93804  0.66467  0.15879  1.0000
  C   C817      1.0  0.66941  0.85621  0.04746  1.0000
  H   H996      1.0  0.90465  0.60261  0.19722  1.0000
  C   C818      1.0  0.91118  0.62587  0.19062  1.0000
  C   C819      1.0  0.64890  0.89023  0.06690  1.0000
  H   H997      1.0  0.88478  0.63554  0.11368  1.0000
  H   H998      1.0  0.79437  0.86926  0.05050  1.0000
  C   C820      1.0  0.98484  0.61026  0.05611  1.0000
  C   C821      1.0  0.92930  0.63514  0.16847  1.0000
  N   N54       1.0  0.53635  0.56772  0.05074  1.0000
  H   H999      1.0  0.96230  0.67464  0.07940  1.0000
  H   H1000     1.0  0.82227  0.73344  0.17674  1.0000
  H   H1001     1.0  0.67306  0.89704  0.03034  1.0000
  H   H1002     1.0  0.85373  0.58828  0.21380  1.0000
  H   H1003     1.0  0.68909  0.94753  0.04784  1.0000
  C   C822      1.0  0.87190  0.57570  0.11821  1.0000
  H   H1004     1.0  0.50228  0.58426  0.04413  1.0000
  H   H1005     1.0  0.72949  0.66146  0.21422  1.0000
  C   C823      1.0  0.62672  0.91670  0.04234  1.0000
  H   H1006     1.0  0.72900  0.91545  0.01998  1.0000
  H   H1007     1.0  0.83056  0.80779  0.00688  1.0000
  C   C824      1.0  0.70596  0.68735  0.20167  1.0000
  C   C825      1.0  0.49100  0.75787  0.15920  1.0000
  H   H1008     1.0  0.90765  0.55952  0.11415  1.0000
  H   H1009     1.0  0.52336  0.53359  0.08015  1.0000
  C   C826      1.0  0.77890  0.81826  0.01954  1.0000
  H   H1010     1.0  0.93674  0.61940  0.15882  1.0000
  H   H1011     1.0  0.81889  0.89762  0.02740  1.0000
  H   H1012     1.0  0.95229  0.67203  0.14175  1.0000
  H   H1013     1.0  0.62014  0.55259  0.20065  1.0000
  C   C827      1.0  0.88570  0.84408  0.05209  1.0000
  H   H1014     1.0  0.68119  0.85081  0.03172  1.0000
  H   H1015     1.0  0.87442  0.80462  0.02624  1.0000
  C   C828      1.0  0.75663  0.90488  0.99244  1.0000
  C   C829      1.0  0.84291  0.56015  0.15853  1.0000
  H   H1016     1.0  0.83636  0.58863  0.13220  1.0000
  H   H1017     1.0  0.62379  0.65931  0.20544  1.0000
  H   H1018     1.0  0.55368  0.61618  0.06377  1.0000
  C   C830      1.0  0.62498  0.61913  0.22115  1.0000
  H   H1019     1.0  0.84863  0.88879  0.05636  1.0000
  C   C831      1.0  0.84933  0.57605  0.13577  1.0000
  H   H1020     1.0  0.64978  0.62873  0.21715  1.0000
  C   C832      1.0  0.85939  0.54411  0.16486  1.0000
  C   C833      1.0  0.84857  0.58703  0.08165  1.0000
  H   H1021     1.0  0.49003  0.54409  0.03478  1.0000
  C   C834      1.0  0.61034  0.63695  0.21448  1.0000
  C   C835      1.0  0.55399  0.59417  0.06903  1.0000
  H   H1022     1.0  0.54376  0.58883  0.08850  1.0000
  H   H1023     1.0  0.56727  0.64018  0.21447  1.0000
  C   C836      1.0  0.57855  0.62623  0.21953  1.0000
  H   H1024     1.0  0.57896  0.59923  0.07020  1.0000
  C   C837      1.0  0.83433  0.84795  0.02996  1.0000
  C   C838      1.0  0.83304  0.74514  0.99276  1.0000
  H   H1025     1.0  0.60849  0.86889  0.22652  1.0000
  N   N55       1.0  0.88291  0.63602  0.22765  1.0000
  H   H1026     1.0  0.51164  0.75191  0.20651  1.0000
  C   C839      1.0  0.56130  0.59769  0.23130  1.0000
  N   N56       1.0  0.80741  0.84925  0.01795  1.0000
  H   H1027     1.0  0.78350  0.72356  0.00125  1.0000
  C   C840      1.0  0.85185  0.60909  0.22156  1.0000
  H   H1028     1.0  0.58301  0.52528  0.23686  1.0000
  H   H1029     1.0  0.64753  0.90150  0.23151  1.0000
  H   H1030     1.0  0.53660  0.58963  0.23524  1.0000
  H   H1031     1.0  0.52514  0.79470  0.18432  1.0000
  C   C841      1.0  0.50288  0.81348  0.16108  1.0000
  N   N57       1.0  0.49698  0.73242  0.16837  1.0000
  H   H1032     1.0  0.51618  0.83709  0.16915  1.0000
  C   C842      1.0  0.50761  0.78891  0.16977  1.0000
  H   H1033     1.0  0.72927  0.98094  0.99153  1.0000
  H   H1034     1.0  0.49621  0.71056  0.20371  1.0000
  C   C843      1.0  0.57568  0.57957  0.23799  1.0000
  H   H1035     1.0  0.94264  0.53582  0.99473  1.0000
  C   C844      1.0  0.49353  0.73065  0.19643  1.0000
  C   C845      1.0  0.63209  0.87608  0.23473  1.0000
  N   N58       1.0  0.62399  0.57089  0.23904  1.0000
  C   C846      1.0  0.80223  0.74071  0.98996  1.0000
  C   C847      1.0  0.81459  0.85676  0.99081  1.0000
  H   H1036     1.0  0.90057  0.60448  0.23960  1.0000
  Fe  Fe111     1.0  0.70876  0.92443  0.42934  1.0000
  S   S224      1.0  0.74491  0.95225  0.40031  1.0000
  S   S225      1.0  0.67460  0.94204  0.44252  1.0000
  Fe  Fe112     1.0  0.73707  0.87948  0.43719  1.0000
  S   S226      1.0  0.77522  0.90540  0.40903  1.0000
  S   S227      1.0  0.73235  0.83260  0.45040  1.0000
  Fe  Fe113     1.0  0.77888  0.94998  0.42783  1.0000
  H   H1037     1.0  0.94712  0.67427  0.44726  1.0000
  Fe  Fe114     1.0  0.73680  0.90453  0.38470  1.0000
  S   S228      1.0  0.73405  0.88942  0.34264  1.0000
  S   S229      1.0  0.74301  0.92393  0.45764  1.0000
  S   S230      1.0  0.69837  0.87705  0.41209  1.0000
  H   H1038     1.0  0.64608  0.95063  0.35505  1.0000
  C   C848      1.0  0.49873  0.51674  0.46830  1.0000
  Fe  Fe115     1.0  0.71670  0.55796  0.25634  1.0000
  S   S231      1.0  0.73940  0.59314  0.28834  1.0000
  S   S232      1.0  0.67100  0.51211  0.26141  1.0000
  Fe  Fe116     1.0  0.74421  0.62868  0.25952  1.0000
  S   S233      1.0  0.72775  0.66478  0.26976  1.0000
  Fe  Fe117     1.0  0.78526  0.59758  0.27280  1.0000
  S   S234      1.0  0.82960  0.60374  0.29297  1.0000
  C   C849      1.0  0.59090  0.57479  0.44166  1.0000
  C   C850      1.0  0.57093  0.49305  0.41483  1.0000
  C   C851      1.0  0.60934  0.54248  0.39922  1.0000
  S   S235      1.0  0.62010  0.77287  0.28628  1.0000
  Fe  Fe118     1.0  0.90004  0.51324  0.37159  1.0000
  S   S236      1.0  0.93455  0.51764  0.34082  1.0000
  S   S237      1.0  0.85245  0.50978  0.36215  1.0000
  Fe  Fe119     1.0  0.94190  0.50767  0.41332  1.0000
  Fe  Fe120     1.0  0.61575  0.75815  0.24416  1.0000
  C   C852      1.0  0.91331  0.76245  0.46980  1.0000
  S   S238      1.0  0.93551  0.54805  0.39910  1.0000
  H   H1039     1.0  0.61897  0.82081  0.25226  1.0000
  H   H1040     1.0  0.56085  0.55413  0.39554  1.0000
  H   H1041     1.0  0.60883  0.82659  0.28393  1.0000
  C   C853      1.0  0.93685  0.78086  0.45238  1.0000
  C   C854      1.0  0.64178  0.50321  0.28557  1.0000
  S   S239      1.0  0.61091  0.98513  0.35855  1.0000
  H   H1042     1.0  0.93702  0.71207  0.42270  1.0000
  H   H1043     1.0  0.53080  0.91792  0.46036  1.0000
  C   C855      1.0  0.97676  0.49678  0.46995  1.0000
  C   C856      1.0  0.83530  0.57631  0.31112  1.0000
  C   C857      1.0  0.81023  0.54852  0.31958  1.0000
  C   C858      1.0  0.81590  0.52826  0.33494  1.0000
  C   C859      1.0  0.84666  0.53522  0.34166  1.0000
  C   C860      1.0  0.87176  0.56259  0.33266  1.0000
  C   C861      1.0  0.86606  0.58316  0.31776  1.0000
  H   H1044     1.0  0.78643  0.54300  0.31480  1.0000
  C   C862      1.0  0.96438  0.77779  0.44930  1.0000
  H   H1045     1.0  0.89554  0.56838  0.33775  1.0000
  H   H1046     1.0  0.88565  0.60471  0.31161  1.0000
  C   C863      1.0  0.58121  0.52689  0.46231  1.0000
  C   C864      1.0  0.59404  0.58989  0.46542  1.0000
  H   H1047     1.0  0.98031  0.66076  0.38675  1.0000
  H   H1048     1.0  0.61630  0.56753  0.39576  1.0000
  C   C865      1.0  0.61461  0.88184  0.30504  1.0000
  H   H1049     1.0  0.63975  0.97683  0.44607  1.0000
  C   C866      1.0  0.61648  0.51904  0.31954  1.0000
  C   C867      1.0  0.64184  0.52631  0.30258  1.0000
  H   H1050     1.0  0.61653  0.53737  0.33207  1.0000
  H   H1051     1.0  0.66116  0.54993  0.30240  1.0000
  H   H1052     1.0  0.58551  0.82726  0.25814  1.0000
  H   H1053     1.0  0.63982  0.59447  0.27548  1.0000
  N   N59       1.0  0.57971  0.52699  0.41393  1.0000
  C   C868      1.0  0.65726  0.95412  0.41898  1.0000
  H   H1054     1.0  0.62903  0.54178  0.40941  1.0000
  C   C869      1.0  0.60720  0.90690  0.26855  1.0000
  H   H1055     1.0  0.62166  0.86620  0.31392  1.0000
  H   H1056     1.0  0.89230  0.76513  0.47198  1.0000
  C   C870      1.0  0.65911  0.94693  0.39323  1.0000
  C   C871      1.0  0.71311  0.67939  0.24592  1.0000
  C   C872      1.0  0.64124  0.97118  0.42620  1.0000
  H   H1057     1.0  0.67135  0.93374  0.38749  1.0000
  C   C873      1.0  0.70229  0.85650  0.32752  1.0000
  C   C874      1.0  0.70643  0.84694  0.30276  1.0000
  C   C875      1.0  0.68173  0.82119  0.28996  1.0000
  C   C876      1.0  0.65250  0.80470  0.30179  1.0000
  C   C877      1.0  0.64849  0.81408  0.32662  1.0000
  C   C878      1.0  0.67314  0.83984  0.33938  1.0000
  H   H1058     1.0  0.72888  0.85959  0.29339  1.0000
  H   H1059     1.0  0.68529  0.81418  0.27094  1.0000
  H   H1060     1.0  0.62604  0.80145  0.33601  1.0000
  H   H1061     1.0  0.66948  0.84687  0.35837  1.0000
  C   C879      1.0  0.58393  0.54266  0.43935  1.0000
  H   H1062     1.0  0.59362  0.58840  0.42509  1.0000
  C   C880      1.0  0.60999  0.83450  0.26421  1.0000
  H   H1063     1.0  0.57555  0.50237  0.46265  1.0000
  H   H1064     1.0  0.58831  0.93909  0.27693  1.0000
  Fe  Fe121     1.0  0.97043  0.55085  0.36918  1.0000
  C   C881      1.0  0.59365  0.91859  0.31073  1.0000
  H   H1065     1.0  0.60807  0.91139  0.24857  1.0000
  C   C882      1.0  0.62716  0.98100  0.40783  1.0000
  H   H1066     1.0  0.69343  0.69992  0.27306  1.0000
  H   H1067     1.0  0.86402  0.65296  0.25857  1.0000
  C   C883      1.0  0.75604  0.79733  0.47271  1.0000
  C   C884      1.0  0.49598  0.48919  0.45566  1.0000
  C   C885      1.0  0.59567  0.92298  0.28465  1.0000
  H   H1068     1.0  0.84705  0.63448  0.38424  1.0000
  S   S240      1.0  0.79259  0.63745  0.24742  1.0000
  C   C886      1.0  0.61725  0.88592  0.27836  1.0000
  C   C887      1.0  0.56427  0.96586  0.46897  1.0000
  H   H1069     1.0  0.93367  0.79762  0.44126  1.0000
  H   H1070     1.0  0.66269  0.87000  0.29037  1.0000
  N   N60       1.0  0.63013  0.86888  0.26209  1.0000
  H   H1071     1.0  0.66164  0.57517  0.26306  1.0000
  C   C888      1.0  0.55453  0.52952  0.40001  1.0000
  S   S241      1.0  0.94401  0.49661  0.45481  1.0000
  C   C889      1.0  0.59113  0.48840  0.32035  1.0000
  C   C890      1.0  0.97700  0.68214  0.38747  1.0000
  H   H1072     1.0  0.57233  0.97077  0.44950  1.0000
  H   H1073     1.0  0.59862  0.61421  0.46681  1.0000
  C   C891      1.0  0.96816  0.75611  0.46394  1.0000
  H   H1074     1.0  0.77895  0.87429  0.48786  1.0000
  C   C892      1.0  0.54083  0.93611  0.47515  1.0000
  C   C893      1.0  0.64928  0.58872  0.25775  1.0000
  H   H1075     1.0  0.67797  0.90300  0.27016  1.0000
  H   H1076     1.0  0.84246  0.58108  0.38167  1.0000
  H   H1077     1.0  0.92332  0.64493  0.25004  1.0000
  C   C894      1.0  0.69712  0.69645  0.25317  1.0000
  H   H1078     1.0  0.61516  0.52598  0.25330  1.0000
  H   H1079     1.0  0.96966  0.68475  0.36818  1.0000
  H   H1080     1.0  0.96772  0.65497  0.43245  1.0000
  H   H1081     1.0  0.58933  0.48923  0.42417  1.0000
  H   H1082     1.0  0.59306  0.54275  0.26873  1.0000
  H   H1083     1.0  0.58489  0.93126  0.32316  1.0000
  C   C895      1.0  0.96437  0.67628  0.43212  1.0000
  H   H1084     1.0  0.60146  0.89475  0.34125  1.0000
  H   H1085     1.0  0.88806  0.57316  0.39127  1.0000
  H   H1086     1.0  0.94749  0.71710  0.38936  1.0000
  N   N61       1.0  0.74946  0.81333  0.37251  1.0000
  C   C896      1.0  0.76792  0.84074  0.35649  1.0000
  C   C897      1.0  0.72061  0.81450  0.38140  1.0000
  C   C898      1.0  0.76855  0.81671  0.39536  1.0000
  C   C899      1.0  0.74095  0.78398  0.35725  1.0000
  C   C900      1.0  0.72220  0.77724  0.33512  1.0000
  C   C901      1.0  0.75163  0.76196  0.36319  1.0000
  C   C902      1.0  0.71497  0.75042  0.31974  1.0000
  C   C903      1.0  0.74430  0.73523  0.34760  1.0000
  C   C904      1.0  0.72616  0.72954  0.32588  1.0000
  H   H1087     1.0  0.75443  0.84128  0.33982  1.0000
  H   H1088     1.0  0.77492  0.86343  0.36715  1.0000
  H   H1089     1.0  0.78965  0.84056  0.34918  1.0000
  H   H1090     1.0  0.70611  0.81506  0.36555  1.0000
  H   H1091     1.0  0.72626  0.83599  0.39341  1.0000
  H   H1092     1.0  0.70571  0.79389  0.39308  1.0000
  H   H1093     1.0  0.79142  0.81753  0.39026  1.0000
  H   H1094     1.0  0.77423  0.83895  0.40642  1.0000
  H   H1095     1.0  0.75562  0.79737  0.40875  1.0000
  H   H1096     1.0  0.71320  0.79287  0.32935  1.0000
  H   H1097     1.0  0.76580  0.76488  0.37967  1.0000
  H   H1098     1.0  0.70077  0.74595  0.30285  1.0000
  H   H1099     1.0  0.75288  0.71882  0.35227  1.0000
  H   H1100     1.0  0.72089  0.70893  0.31376  1.0000
  C   C905      1.0  0.86455  0.60111  0.38715  1.0000
  C   C906      1.0  0.64464  0.95638  0.37490  1.0000
  N   N62       1.0  0.95374  0.68051  0.40697  1.0000
  C   C907      1.0  0.58492  0.54243  0.48596  1.0000
  S   S242      1.0  0.97908  0.51270  0.38506  1.0000
  C   C908      1.0  0.62863  0.97345  0.38212  1.0000
  C   C909      1.0  0.92277  0.65356  0.40068  1.0000
  C   C910      1.0  0.91910  0.62245  0.39913  1.0000
  C   C911      1.0  0.89583  0.65719  0.39530  1.0000
  C   C912      1.0  0.89036  0.59671  0.39254  1.0000
  C   C913      1.0  0.75747  0.82718  0.47171  1.0000
  H   H1101     1.0  0.79627  0.50728  0.34191  1.0000
  H   H1102     1.0  0.60716  0.53064  0.38020  1.0000
  C   C914      1.0  0.95366  0.71140  0.40801  1.0000
  C   C915      1.0  0.86726  0.63124  0.38854  1.0000
  C   C916      1.0  0.60300  0.89800  0.32089  1.0000
  H   H1103     1.0  0.74055  0.77854  0.45995  1.0000
  H   H1104     1.0  0.93853  0.61778  0.40272  1.0000
  H   H1105     1.0  0.89615  0.67980  0.39606  1.0000
  H   H1106     1.0  0.56094  0.55782  0.24720  1.0000
  C   C917      1.0  0.66230  0.87717  0.27063  1.0000
  H   H1107     1.0  0.51449  0.98032  0.43853  1.0000
  H   H1108     1.0  0.54918  0.51618  0.38148  1.0000
  H   H1109     1.0  0.88635  0.61991  0.26465  1.0000
  C   C918      1.0  0.60268  0.53998  0.24996  1.0000
  H   H1110     1.0  0.97719  0.73109  0.41307  1.0000
  H   H1111     1.0  0.53242  0.51997  0.41125  1.0000
  C   C919      1.0  0.87745  0.66107  0.24052  1.0000
  H   H1112     1.0  0.49420  0.53329  0.45807  1.0000
  S   S243      1.0  0.76244  0.56017  0.24220  1.0000
  C   C920      1.0  0.91696  0.74059  0.48431  1.0000
  C   C921      1.0  0.94448  0.73748  0.48115  1.0000
  H   H1113     1.0  0.67309  0.86527  0.25855  1.0000
  C   C922      1.0  0.89908  0.62594  0.24613  1.0000
  H   H1114     1.0  0.66760  0.61135  0.25034  1.0000
  C   C923      1.0  0.50733  0.98463  0.45720  1.0000
  C   C924      1.0  0.77763  0.85123  0.48834  1.0000
  H   H1115     1.0  0.89994  0.68215  0.24559  1.0000
  C   C925      1.0  0.59086  0.57368  0.48752  1.0000
  H   H1116     1.0  0.72512  0.98299  0.48719  1.0000
  H   H1117     1.0  0.67401  0.72267  0.24076  1.0000
  C   C926      1.0  0.98118  0.85062  0.50421  1.0000
  Fe  Fe122     1.0  0.56627  0.58984  0.59450  1.0000
  S   S244      1.0  0.55961  0.61758  0.56425  1.0000
  S   S245      1.0  0.61656  0.60251  0.60464  1.0000
  Fe  Fe123     1.0  0.52653  0.62301  0.59225  1.0000
  S   S246      1.0  0.52873  0.67142  0.59749  1.0000
  Fe  Fe124     1.0  0.51903  0.57160  0.55147  1.0000
  C   C927      1.0  0.54228  0.95345  0.51983  1.0000
  S   S247      1.0  0.53464  0.59694  0.62337  1.0000
  S   S248      1.0  0.52776  0.54328  0.58006  1.0000
  Fe  Fe125     1.0  0.81420  0.76104  0.53682  1.0000
  S   S249      1.0  0.80732  0.72648  0.50472  1.0000
  S   S250      1.0  0.81562  0.80846  0.53102  1.0000
  Fe  Fe126     1.0  0.81780  0.71686  0.57692  1.0000
  S   S251      1.0  0.81071  0.67969  0.54716  1.0000
  S   S252      1.0  0.82036  0.71040  0.61947  1.0000
  Fe  Fe127     1.0  0.84544  0.71982  0.52352  1.0000
  H   H1118     1.0  0.81065  0.86387  0.51920  1.0000
  Fe  Fe128     1.0  0.77369  0.69059  0.53177  1.0000
  S   S253      1.0  0.72381  0.65568  0.52036  1.0000
  S   S254      1.0  0.85425  0.75652  0.55446  1.0000
  S   S255      1.0  0.77885  0.72567  0.56277  1.0000
  H   H1119     1.0  0.71297  0.70807  0.54237  1.0000
  Fe  Fe129     1.0  0.84803  0.59971  0.71359  1.0000
  S   S256      1.0  0.84390  0.60499  0.67109  1.0000
  Fe  Fe130     1.0  0.63257  0.88737  0.70781  1.0000
  S   S257      1.0  0.66804  0.93424  0.69284  1.0000
  Fe  Fe131     1.0  0.59898  0.81528  0.70206  1.0000
  H   H1120     1.0  0.58222  0.52987  0.50326  1.0000
  S   S258      1.0  0.59596  0.76772  0.69052  1.0000
  Fe  Fe132     1.0  0.56262  0.85265  0.71323  1.0000
  S   S259      1.0  0.51666  0.85351  0.70515  1.0000
  S   S260      1.0  0.59448  0.85325  0.68149  1.0000
  S   S261      1.0  0.64104  0.84975  0.72494  1.0000
  C   C928      1.0  0.79554  0.84522  0.50615  1.0000
  C   C929      1.0  0.68293  0.96717  0.71406  1.0000
  H   H1121     1.0  0.92708  0.75424  0.69821  1.0000
  C   C930      1.0  0.96942  0.66619  0.72433  1.0000
  C   C931      1.0  0.50581  0.91538  0.55064  1.0000
  C   C932      1.0  0.72512  0.76531  0.55958  1.0000
  C   C933      1.0  0.64131  0.72797  0.55715  1.0000
  S   S262      1.0  0.49530  0.93645  0.62305  1.0000
  H   H1122     1.0  0.51338  0.96689  0.57598  1.0000
  H   H1123     1.0  0.88832  0.66674  0.69046  1.0000
  C   C934      1.0  0.82764  0.68131  0.63336  1.0000
  C   C935      1.0  0.82571  0.67868  0.65991  1.0000
  C   C936      1.0  0.83066  0.65556  0.67174  1.0000
  C   C937      1.0  0.83789  0.63488  0.65712  1.0000
  C   C938      1.0  0.83999  0.63762  0.63059  1.0000
  C   C939      1.0  0.83492  0.66070  0.61874  1.0000
  H   H1124     1.0  0.82000  0.69443  0.67140  1.0000
  H   H1125     1.0  0.82852  0.65351  0.69213  1.0000
  H   H1126     1.0  0.84562  0.62182  0.61909  1.0000
  H   H1127     1.0  0.83667  0.66252  0.59831  1.0000
  C   C940      1.0  0.64572  0.61857  0.58081  1.0000
  C   C941      1.0  0.63839  0.61212  0.55499  1.0000
  C   C942      1.0  0.66245  0.62360  0.53658  1.0000
  C   C943      1.0  0.69396  0.64189  0.54383  1.0000
  C   C944      1.0  0.70115  0.64904  0.56959  1.0000
  C   C945      1.0  0.67714  0.63737  0.58798  1.0000
  H   H1128     1.0  0.61425  0.59766  0.54930  1.0000
  H   H1129     1.0  0.65667  0.61806  0.51667  1.0000
  H   H1130     1.0  0.72526  0.66342  0.57527  1.0000
  H   H1131     1.0  0.68281  0.64304  0.60786  1.0000
  C   C946      1.0  0.54863  0.69841  0.62298  1.0000
  C   C947      1.0  0.55261  0.72932  0.62259  1.0000
  C   C948      1.0  0.56703  0.75090  0.64305  1.0000
  C   C949      1.0  0.57774  0.74180  0.66408  1.0000
  C   C950      1.0  0.57421  0.71108  0.66426  1.0000
  C   C951      1.0  0.55968  0.68948  0.64390  1.0000
  H   H1132     1.0  0.54422  0.73649  0.60646  1.0000
  H   H1133     1.0  0.57024  0.77463  0.64239  1.0000
  H   H1134     1.0  0.58261  0.70380  0.68031  1.0000
  H   H1135     1.0  0.55680  0.66583  0.64452  1.0000
  H   H1136     1.0  0.68026  0.59740  0.64030  1.0000
  H   H1137     1.0  0.55099  0.94664  0.58305  1.0000
  C   C952      1.0  0.97558  0.58140  0.73176  1.0000
  C   C953      1.0  0.51107  0.87587  0.68147  1.0000
  C   C954      1.0  0.53613  0.89795  0.66742  1.0000
  C   C955      1.0  0.53083  0.91615  0.64959  1.0000
  H   H1138     1.0  0.55963  0.90133  0.67053  1.0000
  H   H1139     1.0  0.55045  0.93355  0.63917  1.0000
  H   H1140     1.0  0.63815  0.74194  0.54306  1.0000
  H   H1141     1.0  0.90699  0.71313  0.58543  1.0000
  C   C956      1.0  0.79380  0.81528  0.50739  1.0000
  H   H1142     1.0  0.60802  0.94373  0.69823  1.0000
  C   C957      1.0  0.52043  0.97004  0.55563  1.0000
  H   H1143     1.0  0.56839  0.93622  0.55619  1.0000
  C   C958      1.0  0.92234  0.71237  0.65828  1.0000
  C   C959      1.0  0.92621  0.69624  0.61405  1.0000
  H   H1144     1.0  0.72572  0.73324  0.51617  1.0000
  C   C960      1.0  0.96619  0.87001  0.50524  1.0000
  C   C961      1.0  0.50040  0.91208  0.64516  1.0000
  H   H1145     1.0  0.92364  0.66442  0.68400  1.0000
  H   H1146     1.0  0.89000  0.71850  0.70029  1.0000
  H   H1147     1.0  0.92417  0.87384  0.51447  1.0000
  C   C962      1.0  0.69322  0.76355  0.52467  1.0000
  H   H1148     1.0  0.50582  0.80652  0.62917  1.0000
  H   H1149     1.0  0.94757  0.72065  0.49226  1.0000
  H   H1150     1.0  0.53601  0.79808  0.64027  1.0000
  H   H1151     1.0  0.91951  0.78455  0.52803  1.0000
  H   H1152     1.0  0.89465  0.81946  0.52899  1.0000
  C   C963      1.0  0.61712  0.69181  0.59125  1.0000
  C   C964      1.0  0.51534  0.80117  0.64628  1.0000
  H   H1153     1.0  0.59353  0.71178  0.57028  1.0000
  C   C965      1.0  0.51246  0.50115  0.50721  1.0000
  C   C966      1.0  0.74771  0.60277  0.61497  1.0000
  C   C967      1.0  0.73510  0.60217  0.66092  1.0000
  C   C968      1.0  0.75709  0.59114  0.66604  1.0000
  C   C969      1.0  0.71896  0.60695  0.68210  1.0000
  C   C970      1.0  0.76263  0.58563  0.69085  1.0000
  C   C971      1.0  0.72471  0.60135  0.70684  1.0000
  C   C972      1.0  0.61537  0.71076  0.57269  1.0000
  H   H1154     1.0  0.77337  0.61730  0.61801  1.0000
  H   H1155     1.0  0.74193  0.57748  0.61414  1.0000
  H   H1156     1.0  0.77089  0.58716  0.65135  1.0000
  H   H1157     1.0  0.70207  0.61548  0.67966  1.0000
  H   H1158     1.0  0.60533  0.72906  0.72838  1.0000
  N   N63       1.0  0.69785  0.74398  0.54363  1.0000
  S   S263      1.0  0.50847  0.55716  0.50949  1.0000
  H   H1159     1.0  0.49488  0.71679  0.66797  1.0000
  H   H1160     1.0  0.97800  0.89384  0.49875  1.0000
  H   H1161     1.0  0.51102  0.90655  0.50337  1.0000
  H   H1162     1.0  0.97242  0.80261  0.51243  1.0000
  H   H1163     1.0  0.89067  0.74270  0.61616  1.0000
  S   S264      1.0  0.88809  0.71650  0.50649  1.0000
  N   N64       1.0  0.49164  0.77298  0.65930  1.0000
  H   H1164     1.0  0.71475  0.77679  0.51314  1.0000
  C   C973      1.0  0.90265  0.73007  0.62287  1.0000
  H   H1165     1.0  0.67422  0.74888  0.51099  1.0000
  H   H1166     1.0  0.91732  0.67746  0.71468  1.0000
  C   C974      1.0  0.56626  0.98347  0.51282  1.0000
  H   H1167     1.0  0.52727  0.76893  0.68077  1.0000
  C   C975      1.0  0.55842  0.95196  0.56284  1.0000
  H   H1168     1.0  0.72239  0.64965  0.64605  1.0000
  H   H1169     1.0  0.63559  0.98391  0.69620  1.0000
  N   N65       1.0  0.72941  0.60947  0.63507  1.0000
  H   H1170     1.0  0.71990  0.78221  0.57106  1.0000
  C   C976      1.0  0.50685  0.52284  0.49416  1.0000
  S   S265      1.0  0.88845  0.59361  0.72833  1.0000
  H   H1171     1.0  0.74291  0.60849  0.59575  1.0000
  H   H1172     1.0  0.73212  0.75236  0.57292  1.0000
  H   H1173     1.0  0.69165  0.70446  0.58211  1.0000
  H   H1174     1.0  0.68753  0.56503  0.63117  1.0000
  H   H1175     1.0  0.73783  0.65097  0.61479  1.0000
  S   S266      1.0  0.56431  0.81222  0.73227  1.0000
  H   H1176     1.0  0.64575  0.67474  0.60873  1.0000
  Fe  Fe133     1.0  0.49480  0.55313  0.60576  1.0000
  H   H1177     1.0  0.77997  0.57782  0.69429  1.0000
  C   C977      1.0  0.93541  0.85884  0.51419  1.0000
  H   H1178     1.0  0.97490  0.75099  0.68354  1.0000
  H   H1179     1.0  0.68535  0.70358  0.51840  1.0000
  C   C978      1.0  0.75238  0.96530  0.73232  1.0000
  H   H1180     1.0  0.97386  0.71340  0.67941  1.0000
  H   H1181     1.0  0.94697  0.64776  0.71806  1.0000
  H   H1182     1.0  0.92051  0.72724  0.72280  1.0000
  C   C979      1.0  0.93166  0.69588  0.63999  1.0000
  H   H1183     1.0  0.71885  0.92366  0.71198  1.0000
  H   H1184     1.0  0.89911  0.74240  0.66117  1.0000
  H   H1185     1.0  0.93297  0.68298  0.60049  1.0000
  C   C980      1.0  0.91171  0.71330  0.60551  1.0000
  S   S267      1.0  0.60034  0.88804  0.73874  1.0000
  C   C981      1.0  0.67087  0.70705  0.57910  1.0000
  H   H1186     1.0  0.57769  0.97655  0.56288  1.0000
  H   H1187     1.0  0.59258  0.58522  0.50591  1.0000
  C   C982      1.0  0.69565  0.59054  0.62857  1.0000
  C   C983      1.0  0.91596  0.72876  0.70235  1.0000
  C   C984      1.0  0.56291  0.94990  0.72224  1.0000
  C   C985      1.0  0.90762  0.72958  0.64888  1.0000
  H   H1188     1.0  0.49807  0.91203  0.57089  1.0000
  H   H1189     1.0  0.59680  0.67817  0.60297  1.0000
  H   H1190     1.0  0.94308  0.68238  0.64564  1.0000
  H   H1191     1.0  0.68779  0.78160  0.53399  1.0000
  C   C986      1.0  0.70575  0.72131  0.52954  1.0000
  C   C987      1.0  0.93280  0.80864  0.52199  1.0000
  H   H1192     1.0  0.76251  0.65822  0.64162  1.0000
  C   C988      1.0  0.73825  0.64342  0.63439  1.0000
  H   H1193     1.0  0.54832  0.95118  0.70661  1.0000
  C   C989      1.0  0.91396  0.67873  0.69398  1.0000
  C   C990      1.0  0.91872  0.82818  0.52247  1.0000
  H   H1194     1.0  0.96912  0.55149  0.49109  1.0000
  N   N66       1.0  0.53178  0.94757  0.54663  1.0000
  H   H1195     1.0  0.51300  0.89701  0.54561  1.0000
  N   N67       1.0  0.92855  0.71170  0.68563  1.0000
  C   C991      1.0  0.96351  0.81947  0.51294  1.0000
  C   C992      1.0  0.66999  0.72659  0.55992  1.0000
  H   H1196     1.0  0.74637  0.77928  0.54784  1.0000
  S   S268      1.0  0.81279  0.56003  0.73672  1.0000
  H   H1197     1.0  0.52404  0.82270  0.65886  1.0000
  C   C993      1.0  0.64479  0.68998  0.59447  1.0000
  H   H1198     1.0  0.69091  0.59329  0.60846  1.0000
  C   C994      1.0  0.96291  0.72628  0.68989  1.0000
  H   H1199     1.0  0.71242  0.60552  0.72279  1.0000
  C   C995      1.0  0.74659  0.59081  0.71120  1.0000
  H   H1200     1.0  0.49951  0.96637  0.54467  1.0000
  H   H1201     1.0  0.63309  0.78339  0.73704  1.0000
  N   N68       1.0  0.59587  0.97528  0.72048  1.0000
  C   C996      1.0  0.52973  0.92988  0.50012  1.0000
  H   H1202     1.0  0.51905  0.50562  0.52702  1.0000
  H   H1203     1.0  0.56138  0.92602  0.72089  1.0000
  H   H1204     1.0  0.75137  0.58693  0.73041  1.0000
  C   C997      1.0  0.61002  0.96776  0.69765  1.0000
  C   C998      1.0  0.50547  0.77129  0.68378  1.0000
  H   H1205     1.0  0.75299  0.97958  0.71676  1.0000
  H   H1206     1.0  0.96862  0.72651  0.71034  1.0000
  H   H1207     1.0  0.97083  0.60030  0.72654  1.0000
  H   H1208     1.0  0.59828  0.96869  0.67994  1.0000
  H   H1209     1.0  0.51209  0.79291  0.69587  1.0000
  C   C999      1.0  0.73243  0.93297  0.72929  1.0000
  H   H1210     1.0  0.77291  0.76839  0.49082  1.0000
  H   H1211     1.0  0.48852  0.75141  0.69521  1.0000
  C   C1000     1.0  0.77421  0.79143  0.49033  1.0000
  C   C1001     1.0  0.95003  0.55356  0.73953  1.0000
  Fe  Fe134     1.0  0.81971  0.59711  0.76673  1.0000
  H   H1212     1.0  0.69816  0.95014  0.86932  1.0000
  S   S269      1.0  0.77536  0.59842  0.78192  1.0000
  Fe  Fe135     1.0  0.89175  0.62904  0.75850  1.0000
  S   S270      1.0  0.93991  0.66862  0.76941  1.0000
  C   C1002     1.0  0.71517  0.90610  0.90870  1.0000
  H   H1213     1.0  0.83398  0.95351  0.98047  1.0000
  H   H1214     1.0  0.61488  0.95247  0.74390  1.0000
  S   S271      1.0  0.85909  0.59328  0.78619  1.0000
  Fe  Fe136     1.0  0.59050  0.55582  0.86736  1.0000
  S   S272      1.0  0.61789  0.54762  0.89742  1.0000
  S   S273      1.0  0.60560  0.60611  0.85655  1.0000
  Fe  Fe137     1.0  0.57127  0.50766  0.90890  1.0000
  Fe  Fe138     1.0  0.62170  0.51430  0.86809  1.0000
  S   S274      1.0  0.66919  0.51500  0.86135  1.0000
  S   S275      1.0  0.54364  0.51835  0.88074  1.0000
  S   S276      1.0  0.59562  0.52363  0.83752  1.0000
  Fe  Fe139     1.0  0.72730  0.83474  0.95275  1.0000
  S   S277      1.0  0.76449  0.84934  0.92267  1.0000
  C   C1003     1.0  0.95937  0.54390  0.97921  1.0000
  Fe  Fe140     1.0  0.69440  0.76654  0.93136  1.0000
  S   S278      1.0  0.72954  0.77680  0.89986  1.0000
  S   S279      1.0  0.65621  0.71755  0.94005  1.0000
  Fe  Fe141     1.0  0.76541  0.80383  0.93014  1.0000
  S   S280      1.0  0.81174  0.80261  0.93514  1.0000
  Fe  Fe142     1.0  0.72462  0.82090  0.89549  1.0000
  S   S281      1.0  0.72396  0.84046  0.85665  1.0000
  S   S282      1.0  0.73061  0.79109  0.96188  1.0000
  S   S283      1.0  0.68715  0.80889  0.92534  1.0000
  C   C1004     1.0  0.95450  0.52842  0.74684  1.0000
  C   C1005     1.0  0.49707  0.96207  0.98863  1.0000
  S   S284      1.0  0.60936  0.83917  0.79623  1.0000
  C   C1006     1.0  0.78632  0.91585  0.98126  1.0000
  H   H1215     1.0  0.93465  0.50698  0.75310  1.0000
  C   C1007     1.0  0.69179  0.84026  0.84048  1.0000
  C   C1008     1.0  0.66218  0.82985  0.85170  1.0000
  C   C1009     1.0  0.63735  0.82989  0.83795  1.0000
  C   C1010     1.0  0.64174  0.84034  0.81287  1.0000
  C   C1011     1.0  0.67145  0.85107  0.80176  1.0000
  C   C1012     1.0  0.69624  0.85091  0.81548  1.0000
  H   H1216     1.0  0.65832  0.82153  0.87089  1.0000
  H   H1217     1.0  0.61448  0.82153  0.84675  1.0000
  H   H1218     1.0  0.67525  0.85933  0.78258  1.0000
  H   H1219     1.0  0.71898  0.85873  0.80662  1.0000
  C   C1013     1.0  0.62058  0.63667  0.88009  1.0000
  C   C1014     1.0  0.64106  0.66753  0.87300  1.0000
  C   C1015     1.0  0.65274  0.69244  0.89127  1.0000
  C   C1016     1.0  0.64317  0.68681  0.91661  1.0000
  C   C1017     1.0  0.62289  0.65592  0.92370  1.0000
  C   C1018     1.0  0.61196  0.63085  0.90559  1.0000
  H   H1220     1.0  0.64793  0.67219  0.85332  1.0000
  H   H1221     1.0  0.66872  0.71605  0.88567  1.0000
  H   H1222     1.0  0.61557  0.65149  0.94329  1.0000
  H   H1223     1.0  0.59608  0.60718  0.91115  1.0000
  C   C1019     1.0  0.70617  0.94388  0.88624  1.0000
  C   C1020     1.0  0.93677  0.54265  0.90012  1.0000
  C   C1021     1.0  0.74589  0.57402  0.80354  1.0000
  C   C1022     1.0  0.71609  0.57270  0.80290  1.0000
  C   C1023     1.0  0.69233  0.55462  0.82029  1.0000
  C   C1024     1.0  0.69817  0.53780  0.83872  1.0000
  C   C1025     1.0  0.72801  0.53922  0.83941  1.0000
  C   C1026     1.0  0.75173  0.55723  0.82197  1.0000
  H   H1224     1.0  0.71132  0.58573  0.78884  1.0000
  H   H1225     1.0  0.66945  0.55355  0.81931  1.0000
  H   H1226     1.0  0.73283  0.52641  0.85363  1.0000
  H   H1227     1.0  0.77474  0.55873  0.82309  1.0000
  H   H1228     1.0  0.66109  0.49316  0.78469  1.0000
  C   C1027     1.0  0.59795  0.70698  0.82854  1.0000
  C   C1028     1.0  0.52268  0.49533  0.96637  1.0000
  H   H1229     1.0  0.69586  0.96010  0.97108  1.0000
  H   H1230     1.0  0.69662  0.89810  0.87084  1.0000
  H   H1231     1.0  0.62695  0.72205  0.86188  1.0000
  N   N69       1.0  0.95973  0.53193  0.90735  1.0000
  C   C1029     1.0  0.97263  0.67956  0.74882  1.0000
  C   C1030     1.0  0.79534  0.75811  0.97248  1.0000
  C   C1031     1.0  0.81915  0.77988  0.95728  1.0000
  C   C1032     1.0  0.84995  0.78434  0.96010  1.0000
  C   C1033     1.0  0.94405  0.49706  0.90583  1.0000
  H   H1232     1.0  0.77162  0.75459  0.97073  1.0000
  H   H1233     1.0  0.86857  0.80118  0.94850  1.0000
  C   C1034     1.0  0.91663  0.49199  0.81427  1.0000
  C   C1035     1.0  0.90286  0.52922  0.79436  1.0000
  H   H1234     1.0  0.81121  0.50314  0.80607  1.0000
  H   H1235     1.0  0.79438  0.85666  0.98083  1.0000
  H   H1236     1.0  0.56855  0.62931  0.97875  1.0000
  H   H1237     1.0  0.90835  0.55322  0.79065  1.0000
  C   C1036     1.0  0.56747  0.60931  0.98843  1.0000
  H   H1238     1.0  0.71436  0.88317  0.90919  1.0000
  C   C1037     1.0  0.71739  0.96515  0.90705  1.0000
  H   H1239     1.0  0.60256  0.97757  0.76109  1.0000
  C   C1038     1.0  0.87618  0.50431  0.78344  1.0000
  H   H1240     1.0  0.92657  0.55145  0.74010  1.0000
  C   C1039     1.0  0.64301  0.76247  0.80729  1.0000
  C   C1040     1.0  0.76638  0.95681  0.77417  1.0000
  C   C1041     1.0  0.58225  0.75298  0.76584  1.0000
  C   C1042     1.0  0.59392  0.71422  0.80386  1.0000
  C   C1043     1.0  0.72924  0.91269  0.74859  1.0000
  C   C1044     1.0  0.50623  0.51004  0.95663  1.0000
  N   N70       1.0  0.74036  0.97932  0.95176  1.0000
  H   H1241     1.0  0.66122  0.78442  0.80048  1.0000
  H   H1242     1.0  0.54430  0.98426  0.89881  1.0000
  H   H1243     1.0  0.59019  0.59661  0.95794  1.0000
  H   H1244     1.0  0.58062  0.68542  0.83691  1.0000
  H   H1245     1.0  0.92472  0.51813  0.95128  1.0000
  H   H1246     1.0  0.94725  0.56875  0.90181  1.0000
  H   H1247     1.0  0.79036  0.90171  0.96670  1.0000
  C   C1045     1.0  0.70518  0.91450  0.88703  1.0000
  N   N71       1.0  0.61124  0.74952  0.76638  1.0000
  S   S285      1.0  0.72523  0.86744  0.98440  1.0000
  C   C1046     1.0  0.92312  0.52305  0.80945  1.0000
  N   N72       1.0  0.71434  0.62861  0.87683  1.0000
  C   C1047     1.0  0.73914  0.63513  0.85733  1.0000
  C   C1048     1.0  0.71189  0.60207  0.89189  1.0000
  C   C1049     1.0  0.68425  0.61857  0.86335  1.0000
  C   C1050     1.0  0.72054  0.65603  0.89393  1.0000
  C   C1051     1.0  0.69944  0.65313  0.91407  1.0000
  C   C1052     1.0  0.74700  0.68616  0.89109  1.0000
  C   C1053     1.0  0.70457  0.67863  0.93038  1.0000
  C   C1054     1.0  0.75167  0.71162  0.90739  1.0000
  C   C1055     1.0  0.73035  0.70787  0.92683  1.0000
  H   H1248     1.0  0.74094  0.65351  0.84420  1.0000
  H   H1249     1.0  0.76242  0.64251  0.86619  1.0000
  H   H1250     1.0  0.73413  0.61386  0.84522  1.0000
  H   H1251     1.0  0.73341  0.60916  0.90341  1.0000
  H   H1252     1.0  0.70858  0.58148  0.87952  1.0000
  H   H1253     1.0  0.69144  0.59310  0.90502  1.0000
  H   H1254     1.0  0.68444  0.63816  0.85259  1.0000
  H   H1255     1.0  0.67896  0.59849  0.84974  1.0000
  H   H1256     1.0  0.66394  0.61055  0.87656  1.0000
  H   H1257     1.0  0.67839  0.63126  0.91704  1.0000
  H   H1258     1.0  0.76429  0.69085  0.87631  1.0000
  H   H1259     1.0  0.68786  0.67605  0.94536  1.0000
  H   H1260     1.0  0.77176  0.73457  0.90485  1.0000
  H   H1261     1.0  0.73345  0.72780  0.93892  1.0000
  C   C1056     1.0  0.70712  0.50378  0.77068  1.0000
  H   H1262     1.0  0.73351  0.91917  0.94601  1.0000
  S   S286      1.0  0.55444  0.49362  0.94967  1.0000
  H   H1263     1.0  0.58390  0.77207  0.77941  1.0000
  H   H1264     1.0  0.71998  0.94251  0.97906  1.0000
  C   C1057     1.0  0.77291  0.98550  0.95702  1.0000
  H   H1265     1.0  0.92865  0.53533  0.88012  1.0000
  H   H1266     1.0  0.66725  0.77084  0.84301  1.0000
  H   H1267     1.0  0.94415  0.54249  0.81718  1.0000
  H   H1268     1.0  0.91535  0.53257  0.91219  1.0000
  H   H1269     1.0  0.71344  0.88773  0.74620  1.0000
  H   H1270     1.0  0.56101  0.73110  0.77097  1.0000
  C   C1058     1.0  0.61632  0.74225  0.79244  1.0000
  C   C1059     1.0  0.98449  0.53093  0.74625  1.0000
  Fe  Fe143     1.0  0.60608  0.84794  0.75432  1.0000
  H   H1271     1.0  0.77427  0.96372  0.96099  1.0000
  H   H1272     1.0  0.57298  0.69776  0.79384  1.0000
  H   H1273     1.0  0.75338  0.51210  0.76145  1.0000
  C   C1060     1.0  0.97092  0.54318  0.93360  1.0000
  C   C1061     1.0  0.73346  0.49921  0.77360  1.0000
  H   H1274     1.0  0.56415  0.98072  0.98347  1.0000
  H   H1275     1.0  0.51300  0.52123  0.93851  1.0000
  C   C1062     1.0  0.78940  0.50529  0.80350  1.0000
  C   C1063     1.0  0.68126  0.96368  0.74037  1.0000
  H   H1276     1.0  0.55147  0.95068  0.74053  1.0000
  C   C1064     1.0  0.57982  0.59107  0.97670  1.0000
  S   S287      1.0  0.85108  0.51068  0.76279  1.0000
  H   H1277     1.0  0.97607  0.53440  0.86857  1.0000
  C   C1065     1.0  0.72623  0.92704  0.92965  1.0000
  Fe  Fe144     1.0  0.85403  0.55828  0.75486  1.0000
  C   C1066     1.0  0.72053  0.96505  0.97432  1.0000
  C   C1067     1.0  0.62420  0.72746  0.84261  1.0000
  H   H1278     1.0  0.74360  0.90875  0.78603  1.0000
  H   H1279     1.0  0.62843  0.71927  0.74916  1.0000
  C   C1068     1.0  0.74621  0.92458  0.77098  1.0000
  C   C1069     1.0  0.94940  0.53381  0.95424  1.0000
  H   H1280     1.0  0.79523  0.52403  0.78953  1.0000
  S   S288      1.0  0.85316  0.63707  0.74247  1.0000
  C   C1070     1.0  0.64678  0.75498  0.83195  1.0000
  H   H1281     1.0  0.82000  0.83942  0.98028  1.0000
  C   C1071     1.0  0.72795  0.95737  0.92944  1.0000
  H   H1282     1.0  0.83527  0.88030  0.98858  1.0000
  C   C1072     1.0  0.61349  0.97481  0.74304  1.0000
  C   C1073     1.0  0.81097  0.94528  0.98900  1.0000
  C   C1074     1.0  0.76998  0.97824  0.75499  1.0000
  H   H1283     1.0  0.66001  0.77820  0.75667  1.0000
  C   C1075     1.0  0.85693  0.76720  0.97782  1.0000
  H   H1284     1.0  0.67054  0.94039  0.74807  1.0000
  H   H1285     1.0  0.70730  0.51983  0.75669  1.0000
  H   H1286     1.0  0.88074  0.77085  0.97970  1.0000
  H   H1287     1.0  0.58645  0.70113  0.75228  1.0000
  H   H1288     1.0  0.57797  0.75901  0.74658  1.0000
  C   C1076     1.0  0.60770  0.72359  0.74837  1.0000
  H   H1289     1.0  0.78404  0.51388  0.82190  1.0000
  C   C1077     1.0  0.98526  0.54328  0.88806  1.0000
  C   C1078     1.0  0.63732  0.77904  0.75687  1.0000
  H   H1290     1.0  0.58796  0.55113  0.97963  1.0000
  H   H1291     1.0  0.63984  0.79987  0.76848  1.0000
  H   H1292     1.0  0.77899  0.96484  0.79190  1.0000
  H   H1293     1.0  0.96037  0.48804  0.91143  1.0000
  H   H1294     1.0  0.54516  0.98497  0.94242  1.0000
  H   H1295     1.0  0.69405  0.98751  0.77707  1.0000
  C   C1079     1.0  0.68112  0.48883  0.78644  1.0000
  C   C1080     1.0  0.57856  0.56542  0.98899  1.0000
  H   H1296     1.0  0.71755  0.98748  0.90510  1.0000
