data_image0
_chemical_formula_structural       HSC3HNFeS2FeS2FeSFeS3HSHFeS2FeSFeS3FeS3CHNH2CHSHFeS2FeS2FeSFeS3FeS2FeSFeSFeS3FeS2FeSFeS3FeS2C2NFeCFeHSHFeS2FeS2Fe2S2FeS2FeCSHFeCS2HFeSFeS2FeS3FeCSFeHFeS2FeSHFeSFeS3C6H4C6H4C4HCH2CH5SCHCNC6H5C4H4CHCH2C2H2CH4C6H4CH2C6H2C6H4C6H4C6H4C6H4CNCHC6H4C4H2C6H4C6H4C6H4NH2C4H3C3H3C6HCHC3HCH2CH5CHFeHCHFeH3SH2SCH7C2H2C2NH2SH2CSHC2HCHC4H3C4HFeCHSH3C2H4FeH3NC9H16C3H3NC4H6NC6H14SNHCNC9H17C2SHCHCSNC9H18C3H2CHCS2FeCH3C4FeSH2CH2CH2CH2CHNCHC2HCH4SHCH2NC9H14CH5C2HCH3CH3NC2H2CHCHCHNH2FeH3SNH2CH3CHNC4H3CHCHCH4C4H2CH3C2HCHC3HC3NC2H2C2H2CHCHNC2H3SNC2H3C3H5CH3C2H7CH3CHCH2CH2CH4C4H5C2H7C2H3FeC2H3C3H5SHCH3SFeS2FeSHFeSFeS4HSH2FeCHCFeSH2FeHSFeS2FeCFeHS2HSC2FeS2FeS2FeSFeS3FeSFeS3H3FeSFeS2FeSC3H2C6H4C5HC4HFeHC6H4C4H5C6H3CH2CHCFeCH3C6H5FeCH2C6H4C4H2C4H4CNH3CHC2HCHC6H4CH2C6H5CNHNCSH2CHC2HSNH4SH3C4H2C3H3CHC3H2CSH5CHCH2FeC3HCNH5SHC2H2SH3SH2CH3C2HCH2C2HCH6CSHCH4CHCSH4NSH2CSH2C2SH2SHCFeCNCH4NC9H16CHSC2H8C2SHCH2CHCHSNHCH3CH3C2H3C2HCH4CHSCH3C2H4CH2SC3HCNCHC3H2CHS2H2CHC2H2CH2CHCHC3HFeCHSFeC3H3CHNHCHC2HCHC2H3C2H2C7HFeCH3CH2CH2C2HC2SC2H3CNHC6H2CHFeH2C2HC3NCH3SNSC3HCH5C3H4CHCH3CH5CHNH2CHCH4CH3CNHC2S2FeSFeS2FeSFeS3FeHCFeS2FeSH2S2FeHSFeS2C2FeCS2H2CHFeHCFeSCHSH2FeHCFeS2FeS2FeS2FeSFeS3HFeSCFeS3FeHFeS2FeSFeS2FeSFeS2H3SHSFeS2FeSHFeHFeSHSHFeSFeS2FeSFeS4FeCFeSCHFeS2C4SHFeCSCHCHC6SH2C8H4C6H5C2H4CH2C3HSCH2S2H3C6H4C6H4C3SC2HCH6C6H3CHC3H2C6H4C6SH2C2HC2SHC3SH2CNCHCHNHC6H4CHCHC8H4C2HSC2SH2FeC6H4CHCHSHCH2C5H3C6H4C3H5CNFeHSHC2HCH6FeC2HCSHC3FeCSNC9H16CHCSH3SCH2SH5S2HCNC9H12NC9H14CNC9H12CNCHC7H3S2H4FeH4NC9H7CH5C2H2CH3CH2C3FeHC2FeCHCHCHCHCHC4HCHSHCH5SCH3C2HCH2C4H2NHFeCH3CFeNC6HCNH2CHC3HSH2CFeHC2NH4CH2CSFeCNH3C4H3C2H3CH2C2H4NC6NCH12CHC3HC3H2NC3NC9H14NC9H12SH2C3HC2H2SC3SHSHCH3C2H4C4HC2HNC2HCH3CH2CHCH2C3HC4HC2HC2NCS2CH3C2H2CHFeHCFeSH2CH2CH3SH2SHCHC2HCFeCH3CH3CH2FeC2SFeC2SHFeH2CH3CHS2H3NHCH3CH3C3H4C2H3NSCH4NH2CHCH3CH3CH2CHC3HNHCSH3SH4CHSHC3HCH5CH2CHSH2CH4CH3C2HCH2C2SH4CNH3SHCH2C2H2NH3CH4FeS2FeS2FeHFeHCS2H4CHC3HCH2C2HFeS2FeS2FeSFeS3CHSFeS2HSHFeSFeS2HNH2FeS2FeS2FeSFeS3HFeH2C2FeHSCHFeSHSHS2CH2C3H2CH3CH3C9H3C3H2CHCH2C4H6C4H2CH4CH4C3H6CHSCH2CHCHC4H7C3HC2H2CH2CH2CHC3HFeC2SC2HC2H4C7H6C3H3C6H4C6H6C2HCHC2H2NCHCH3C2SHSNH2CH3CHC3H2CNCHCH2C2H2NCHCHC2FeH3CHCSHCH6C2HC2HC2HCHCH2CH2SH3CHFeH3SHCH2CHNC2NHCH2FeHC2HCHC4H3CH3CH2NCHC2H5CH8CHCHSH3NH2C2H2FeS2FeSFeS2FeH2FeHSCFeS3FeS2FeS2FeSFeS2NSHCH5FeS2FeS2FeSFeS3FeS2FeS2FeSFeS3H2CH4FeS2FeSFeSFeS3FeS2FeSHFeSFeS3C2FeS2FeS2C2FeS3FeCH2CFeS2FeSFe2S2C6H3CH2C4HC2H3C6H4FeHC7H4C6H2CHC6H5C4H3CHCHC6H4CHSC6H4C6H4C6H4C6H4C7H4C6H4SC6H5C6H4C4H2C6H3C6H7CHC2HCHFeSNC6H2CH8CH5NC6H8NC9H12CHNC2HC2H3CH3CH3CSC5H3NC6HC2H6CH2CH2C5HSCHCHCHCHCH3CH2CHCSHC6H4CNCHCHCFeHCSC2NC9H15C2SH2CHC2HCHCHCHCH2CSH3CH2NC9H16C2H5CHNH3SCH3CH2CNHCHC2H3FeSH2CH3CH4C3SCH5CNC9H14CHCHSH2C2SH2NHC3HC3HNCHSHSCHCFeH7CH2CNCSH2CH2CH4C2H5CHCHNSC2SHC6SHCHCHCNCH3CH2CH2CHCNHCH4CH3CNH3C2HCH3CHC2H2SNH5CS2H4C2H2CHCHSHCH4NHC2H2C3HCH3C2HCHCHC3H2Fe2C2H3C4H2SHCH4C2HCH2C2H5CNH4CHCH2CH2CHS2FeSFeS2FeS2FeS2FeSFeS3FeSFeSFeS3H2FeS2FeS2FeSFeHS2FeS2HSFeSFeS3FeSFeCSHFeS2FeS2FeHFeS3FeHSFeS2NFeS3FeSHFeS2FeSFeS3FeS2FeS2FeSFeS3HFeS2FeSHFeS2FeSFeS3CNHCHC6H4C4HCH3C7H4C4H2C3HCHC9H4C6H4C6H4C6H5C3H5SH2C2H3CH2C8H4C6H4CHCHC7H4C7H2C4H4C7H4C6H5C3H2C7H4C3HNC9H17FeNC4H3NHCH8NH4CNC6H14C2H2C2H3CH3CH4C2H3SH2SHNC4HCH9C3HSHSCSCH2C3H2CNC9H20C2HC2HCHC2HCH6CH2CH3CH2CH2NC6HC2H11NCH2CH2C2HC2HC2H2C2HSH3C2NH2C3SC3H3C4H2CHNC9H8CH5CH6SFeH2CH2CHCSHC4NCH3CH4CHSNC5H2SC2HNHCH2C2NHCNCH2C7H5FeHC2H2CFeHSNHSFeSC2H2C2SNH2CHCHC2H2CHCHCHCFeCH2SC2HCH3CH2NCH3S3CHC2HC2HFe2SHCH3CHCNC2HCHC3H2CH2C2HC2H2CH3CH8C3HSCH4CH2CH4FeH3CH3CH3CH3C6SCSFeSH2CFeS2FeS2FeS3CH4C2HSFeS2FeS2FeSFeHS2HSHC2HCHFeSH2CH2FeSFeS2FeSFeS3H3CH3SCFeS2FeS2FeSFeS3H3C6H2CHC5H3C2H2CHC7H5N2C3H3C7H5CHNCH3C7H13C6H4C2HCHFeC2H2C6H4CH4CHC2S2H2C3HC6H4C4HC6H4C3H5C6H3NC8HCH6CH5CH2CH7SH5C3H4C2H3C4HC4HN2CH3CSH5CH2C6H2CH4CH3SH5C4HCH3SNC4H3CHCHCHCHCH3CH2CSH3CSCHC2H3NHCH2C2H2NCHC2HCHCHCHCH2CH3CNCH6CHC3H2C2HFeHCHCH3CHCSNCSC9H5CH3CHSNH6CNC4HC4H2CH6CH2C2H3C2HCHCHC2H2CH2CFeNH2CNH5CH4CH2NH5C2HC2H3C3H2CSCHCHFeH6FeH2SH2CH4CH4SFeSFeS2FeHFeS2HSH2Fe2CFeS2Fe2S3H2SCH2FeS2FeS2CH2CSHS2CFeS2FeS2FeSFeS4FeS2FeSFeSCHCHSCFeS2FeSHFeS2CSCFeS2FeSCFeSFeHS2FeS2FeS2FeSFeHS2FeSHFeS2FeSFeS2C3H3FeSHFeS2FeS2Fe2S3C3HC3SC2H4CH2FeC6H4FeHCHFeC6H4SC3H4C7H5SHCFeHC3HCHC6H4C2HCH2C7H3C7H4C6H4C6H4NCH3CNHC3SH2C6H4C6H3CH3FeC5FeHSC7H4C2HCNC2NSHC3SC7H4C4H4CH3NC9H14NC9H14C2H3NC9H14C3H4CH2C2SNC8H12C2SCFeC2HCHSHCH4C2SHNC3NCHC2NSCH2SCHCHCSHCH2SH2SHNSH3CNC9H13NCHC2HCNC2HCHCHNSH2CH2CH2NC3H2FeH2C2H7NC9H14SC3HCHCHCHCHSHC3H3FeCNC2HCHFeH3CH4CHSFeHCHCHCH3CH2SC2HC3HSH5CHCHSHSNC7H12C3H4SH2CHC2FeH3FeCN2C2HC2SC2H2CH3CH2C2HC2HCH4SH2CHFeCH3CH2NHSCHSHCH4C2HC3FeSH2FeSH2FeCHCH2CNH3CHCSH2C2S2CH3C5HCHCHFeSH4FeHCH5CH4CHCHSHCH6C2HCHC2H4FeC3HC3HC2NCH2C2H2CH2CH4S2H2C2HC5H3C2SH3SC2SH2CH3CH7CNC2H3FeHC3HS3H2C3HCH3C2H3CH3CHCHCH3C2SC2H3CH2SCH2C2HCH9CHCH2CHCH2CHFeCH2C3HCHC2HNH2CH2CH3SHCFeS2HS2HFeSHSC2H3SC2HFeSFeS2FeSHFeS2FeS2FeSFeCS2HSHFeS2FeS2FeHFeHS3NH3CH2C2H3SFeS2FeS2FeSFeS3NCSC2HC3H4C6H4C6H5CHCH2FeHC6H5CSFeHCH2C5H3CHC2H3CH5SH3C3HCHSHC2HC4H3NC6H5CHC4H5C6H4FeCH2NCHCSCH4C3H5NCHNHC3HCHCNCH4C3HCH2CHSCHC2SH4CH2CH2CHCHC2HC2SCH5C3H2C3H4CHCH3CHC3HC2HCH3SCSHC6HCHCHFeHCHCH3C3HC3H2NH2CH4CH3C2HCHC2H2C2H2CHCHCHC4HCH2CHC2HC2HCH2SC6NCHCHCH3CH3C2HCHCH2NC3H2CH2CHCHCHSHC3NCH3CH2C2HNH2C2NH2SHCHSC5NCHNHC4HC2HCH8NC4HC2FeCHCHCH4C7H3CH2C2H3FeH5CH3CHCH7CH4CH2CFeC2SFeS2FeSFeS2FeS2FeS2FeSFeS3H6CH4CHFeS2FeS2FeSFeS3FeS2FeSFeSFeS2H3C2FeS2FeS2FeSFeS3FeHSHFeS2FeS2FeS2FeSFeS2FeS2FeS2CFeS3FeS2FeS2FeSFeS3FeS2FeS2FeSFeS3C5HC6H4C6H4C6H5C2HC2HC3H2C6H4C6H4C6H4C6H4C4HCH4C7H4C2HC3HCH2C6H4C6H5C2S2CSHCH3FeC6H4C6H2CHC6H4C6H4C3H2C6H4C3H2FeCH2SHNCSC2SH2C2HCHCHCHCHC4H3C2HC4HCHNC3H2C2HCHNC6FeHSCH8CH3NHCH2SH2C2H2NSH3CSHC4H3NC9H12CH2C2H4C2HCH3C2H5CH2NHCNH2C3H2CHNC2H2C2HCH5C2H3CH2C2HFeH2C2H4CH2NC9H14NC3HC2H3CHC4H6SH5NHCH4NCHC7H3NHC2H7CSHCH3SCH7CHC2NH3NC6H11NCH2C5HC3HCHC2H3CHCH2C2HCH2SCH4CH5CHC2H3CH2CH3C2HCSH3C2H2CHCNC9H14NC9H14C2FeH3SC2HSHC2SHC3NCH2C2SH3CHC2H2NH2C2HCH3C4H4SHNH2CHC2NHC2H2CHFeHSC2H3C2H5C2H2C3HC2H3CH2C6HCH4CHCHCH3CHC2HCH5NC2H5C3H11CHCH3SH3FeHSHNSFeSFeS2FeS2FeSFeS3FeS2FeS2FeSFeS3HCNCH2C2H2FeS2FeSCHCFeSHFeS2FeSFeS3FeS2FeS2FeSFeS3FeSC2FeSFeSFeS2HS2FeH2FeS2FeSH2SHCH2CHS2FeS2FeSHFeCFeS3FeS2FeS2FeSFeS2C2HC7H4C6H4C6H4CH3C3SH4CHC2SH2CHC6H4CH4C2H3CHC2HC6H4C6H9C4H4C7H4CHCH2C6H6C2HC3HNC6H4C7H4C6H4C6H4C6H4C3H5C3NH2C2HC4H5CHCHC2HSHCHNC4SHC3H3CH5CHSH2NC7HCH11C2NHCH8C4HCS2HSH2FeC4HCHSHCH2C3HCHC2HCHSFeCH3CHCHCH2C5FeCH3C2HSC5NCHFeC2H7CHC2HCH4CNC5H10CH2C5HCHFeHCNCHC3HC2H3CNHC2HC2SH2C2HC2H3CHCH2SHCNC5H12CNC9H14C2HFeHC2H3SCH2CH4CH2CHS2HCHCSH2CH2CNC9H14CH2CNC9H15CFeHCHCH2CH4C3H3SCH3CH4SFeS2FeS2FeSFeS3C2H2SHFeHSFeCSFeSHS2CHFeH2FeS2FeS2FeSFeCS2H3FeS2FeSFeS3HCHFeS2CNHCSH2CHCHC6H7CHC5H5C2H3C4H2C3H5C6H3C6H3C3H2C6H3SCH2CNHC7H4CSCHCHCHC7H4C5HSC2SC6NH3CHNC3H3C6H4CH2C2H3CHC4FeH4NC3HSH3SHC2H2CH4CNH3C9H3CH3CHCHC4FeH3SCH2NC7HSH6CH3S2CFeCHCH3NC5HCNH7C2H2NHC2HC2HC2H6FeCH3CSNC4H15CHCH2CHCHCSNHNC10SC2H8NH3NH2CH3CH5CHCFeHCFeCFeHCSCSCHCHCH3SCFeCH5C2SHCH3CHC2H2CH7C2H4CSC2H8CH6C3H3NH3C2H8C2SH4SC2HCNCH5NHSH2FeSCNCFeS2FeS2FeSFeS3CFeS2HCNSHSHSC3HCHFeH3SH2C2HCS4FeS2Fe2SFeS2FeSFeH2S2FeS2FeSFeSFeS2FeSFeS2FeSFeS3CSFeS2FeC2FeSHFeS2CHFeCHFeS2HCHFeS2CHCHS2FeS2FeSCFeSFeS2FeS2H2CFeSCSFeHCSHCHCHC3H3C5H3CH2C2HC3SH3C6H5C3SH2C2H2CNH2C6H7C6H4C4H3C4H3CH2C3HCH2C2SC6H4C7H4CSHC3H4C6H5C2HCH2C2HCH4SCSHC5H4C6H4C6H5C10H4C4SH3C7H2NC9H14NH2NC5H2CH4C2H4C2HCH2CH3CHCFeCNCNHS2H2CH3NC9H13SNC9H15SC3H2CSCHSCHNSH3SCH2CHFeC2HC3H7FeC3HCHSH2CH2SHCHCNC5H3CH7SCFeHC3HFeC4H3SCH2SCHC3HFeH2C2FeS2H2C2HCHCHC2SHCHCH3CH2CFeC2HC4H10SHFeHSFeNC9H14CSH5CHCH2SHC2H2FeHSH4SH2C5H2CNC9H15C3HC2H5C2HCH2C4H3CFeC2HNSHCH3CH3NH2C2H3SH3CFeSH3C3HCSH4CNC9H2CH9NC9H14NHFeH6C2NHCHSH5C2FeHC2H2NSHCHSHSH2SHFeS2FeS2FeSFeS3H2C2HSFeSHC2H5SH3C2S2CHFeS2FeS2FeSFeS3HC3SH2SCHSCHFeS2FeS2FeH2FeH2S2CHCHCFeH3C2H2C7H4C6NHC2HC2H2CHC6H4C3H2CH4C3H2C2NC6H4CH3CH3C7HC2HC2HC4HCHSCH2C6H2C2HSHC2HC6H4NHCHC7H6C2HCHSC2H4C2H4NHCH2CHCHCH2C2HC6H2C5H2CH2C4FeC2HFeCH2FeH2C3HSC5H6FeCH2C2H7C7NCHCH3CFeH3CH2C2H6CH2C2H3CHN3CH4CHCHCHNCHC4H3SH3CH2C2H3CH11C2H4CFeH3S2C3H3CHC2H5NH5SH6CH2NHCH2FeHSFeCSFeS2HFeS2FeSFeSFeS3FeS2FeS2FeSFeS3C2HSHFeHCFeS2FeSHS2FeS2FeS2FeSFeS3FeSHFeS2FeSFeS2H2CSH2CFeS2FeSHFeSFeS3FeS2FeCSFeS2H2CH2CH2FeS2CH2FeH2S2C2FeS2FeS2FeSFeS3HC6H2C8H4CHCHC6H4C2H2SNHC6HFeH2CHC2H2FeCH2C6H4CHC4H2C2H3C2HCH2C7H7C3H2C6H4C6H4C6H5CH5SH2C8H4C6H4C6H4CSHC6H4CNC2SC6H4C6H4NC9H14CHC2HNH2CH3C2H4CHC2H2C2H4C2HC4FeNC4HNH2CHNCHSH6C2H2NHCSN2C9H13NC6H11NCHCH2C3H3CH2CH2CSH3C2HC3HCHCHC2HC4H4SHCH3CFeSHCH2CH3CHFeSH5CNCFeCSH6CHCSHCHC2HCSH2C2H3CHNC9H14SC2SNH2CH2CH2C2HCHCH6C2H2C2HNC2HCHC11H7C2HCHC2HC3H3CHCH3CH3CH3SC2HNHCNC2H7SH2C3H2CH3SH2CHCH5C3H8C2H3C3HCH2CNC2H4C3HCH2CH3C2HCNC3H2SH2C3H3FeHC3H5CH2CHCH3CFeS2FeSFe2S3FeS2HSHFeCFeSHSFeS2FeS2FeCFeHS2FeS2FeS2FeSFeS3CSC2HS2FeSCFeS2FeSCFeSFeCS2FeS2FeS2FeSFeS3CH2CS2H2SCH2CFeS2FeS2FeSFeS3FeS3FeSFeS5FeS2FeSFeS3CHSFeSCH2C6H4C6H4C6H4C6H4S2HCSH9CHSH3C6H4C6HCH2C3H2C6H5C3H2C4H2CHSC6H4C2HC3H3C6H4C6H4C6H4CH5CFeH2C9H4C4H5C2H2C6H2CHC3H4CH3C2HCHCH4C3SC3SH2CSCHCNC9H13NC9H16CFeC2H2NC2H2C4H5CSC2N2CSCHC2SH3CHC2HC2HCH2C3HCNHC3H2FeH3CH3SH6CHCSH2CNC9H12CH2CH2CH2CHFeH2CHNH3C5H4FeH5C3HC3H5NCHC7H2CH4CH2C3SNC9H4CH3CH4CNC6H2CH12CHNCHC7H7NH6CH4CH2C2H2NSCHCH3FeHCH3NFeHC3H3CH4C4HCHCH2NH2C2H5C2Fe2H3CHSFeCH3SH2NC2HFeH2SHSH2CHC2H7C3SH4SH2CH2C2HCHCHC2H3SH5FeH4C3NFeC4HNCH2C2H3CHCHC2H2C3HCH3CH2NC2H3CH2C3H2CHCH2CH2C4HCNH3NH2C5H3CSHC2H2SCH2CH2C2H2CH8CHCHSH4CHC4H2NCFeS2HCFeH4CH2SCHFeS2FeS2FeSFeS3HCFeS2FeS2FeHFeCS3H2CHC4HFeSFeSCSCHSH2FeS2FeS2FeSFeS3CHC5H2C6H3NC3H2C6H4C6HC3HC4HNH3CH2CH3C6SH3CHCHCH2CHC4HCH2CHC3HCHC3HC6H4SH2C3H2C8H5C8H6C6HCHC2H3CHC2H3CH4SC5H3C2HC2HCH6SCH2CHFeNCSCHC2H3CH2NHCHCHCHC3H7C2SHCHSHSH2NHCHCHCHC2H2SCH2CH4CH6CHC2NHCHC3H3NCH4NCHC7HCHSCH9CSH2NCSH2C2HSH6SC2H2CH2CNFeCSHC3FeHC5HCHCHCH3C3HC2HCHCH5C2HCHCHC2HFeCH2CHSC3HCNC8H3CH3CH5CH2SH4CHNC2H2CH6SHCHCHCH2C2NCH3CH2CHC2HCH2CH2CH3CHFeSFe2S2FeSHSFeS2FeSHFeSFeS3FeCSH2CH2FeSFeS2FeS2FeSFeS3FeCSFeCSC2HFeS2FeS2HCHCFeSHSFeS2FeCSC2HCSH4NH2SHFeS2FeSFeSFeHSH2SHFeS2FeS2FeSFeS4HFeSH2FeS2FeSC2FeSCSCHFeS2FeSC3HSC6H4C6H7CHC6H3C2FeHCHC2H2CSCH3CH2C4H4CHC6H4CHC6H3SHCSH3CH2C2H4FeC7H4CS2HCFeCH2C6H4SCHSHC6H6C3FeSHC2H2C6H3SHCHC5NH2C2H2CHCHFeH2C6H4C3NCH3C6H4CHS2CSH2FeH4SH3CH5SCH2NC9H15CHSC3SHCHFeCHNHC2SH2C3NC6FeSH2SC4H3CHSH2NC9H16C3H2SNCH2CSNH2CHFeCHCNC6H3C2H2C2HCHSCHSH2C3FeHC2H2CSHCH3C2HFeH3CHNC5H6FeH5FeCSCHCH2CHC2H3C2H2CH3C3H5S2N2H3CH3CH2C3FeCNH2C3HCHSC2SHCNFeCFeHC3FeHFeHNC2HC6H7CH4NC9H14NC9H17NSC3H2CH4CH2C2H2FeSH3FeH3CH2CH5CNHC2HCHFeH2SH2C4SC2HCH2FeHCH2SHSHSCSCSHCSHC3HCHC2SHCH5CH2NCH4C3SH3SCHC2HCHC4H3CHS2H2SNCHC3H2FeCSC2HC2HC5SHCH2CFeSCS2HC2H2SCSHCH10CHCSH3SCSHCH2C4HSH3CH3NH3CHNC2HCH2CHSCH3C3SCH3C3H2FeHCFeC3H2CHCHCH2CH2CNCH2FeCHCH3CSH2CH2C3H8FeH2C4FeCHC2FeH2CFeH3CH4CHC2H3C2H2CH2C2H3CH2SC2HFeC3H5C3HFeSHCH2CH2NFeS2FeS2FeSFeS3CH5CH3SH2SC3SFeS2FeS2FeHFeS3FeS2FeSFeSFeS3CSNHFeS2FeS2FeSFeS4C6H4C6H4C3H2C6H4CHC6H9C6H4CH2C2HCHC2HC6H4C2SC2H2C4HCH4C2H3C3H2C6H4C7H4C6H6CH2CH3C2HC4HC4NCHCHC2HCHCH3CH5SHCHSHC2HCNH2C2SCHCNHC3SH2C3NH6CNC9H14C2H3CH5C2H5SH3CH5C3H2C2SHCHCH3CHCHC2H2CSNH2C3HC2HCHCH2CH2CHCH2NHCSH2CH3NC2HCHC2SH2CH4CHNFeHCFeCNC9H3CH7C7SHCH2CH5NH4S2C4HCH2SH3CH4CH2CSCHS2HCH2CHNCFeH3CFeC2H4CH3NCH3NH2C2HCHCH2C3H5C2H2CH2CSC2H2CH2C2H3CHC3HCHNHCH5CHSHSH3FeS2FeSFeSFeS5FeSHFeS2FeSFeS3C4FeSFeS2FeS2FeS2FeCFeS3FeSFeS2Fe2S2H2NFeS2FeS2Fe2S3FeSHFeSFeS2FeS2FeS2FeSFeCS2FeS2FeS2FeSFeS3FeS3FeSH3FeS2FeS2FeSFeS3H2C3H2NH4NCH2C6H4C6H4C6H4C4H2C6H5CHCH2C3H3C6H4C6H4C6H3C6H2C6H4C6H4C3H5SCH2CSHCHNC6H4C6H4C6H4C3H2CH3FeC6H4C2H2SH2CH3CH4SHC2NC9H12SNCH3C2HC2HCHCHCH9SCH2SHCH3SHC2H2CH2SC5HC2HC2HFeH4CHC3HCHCNC2HNCSH2C2HCHNCHCFeH2CHCNC11H4CHCH5CH3CH7C2HCH3NC9H16SHC2H3CHC3HC2HC2SH8CH5CHCHCHC2NH4CH2CH3CNC7HSH11CH2NC9H14NC9H16SCHC3HCNC9H14NC9H13NCHFeH3CHCHCNC9H4SH8SC2H7CH3FeCH2SC2H2SC5H5NFe2H2C2H2FeCH3C3H3C2HCHC3HCHCH2CHC2HCH3CH5CHCHC2H3C3HCH3CH4
_chemical_formula_sum              "H6912 S1536 C5760 N384 Fe768"
_cell_length_a       83.1585
_cell_length_b       84.0309
_cell_length_c       84.1971
_cell_angle_alpha    74.1238
_cell_angle_beta     74.1532
_cell_angle_gamma    74.1523

_space_group_name_H-M_alt    "P 1"
_space_group_IT_number       1

loop_
  _space_group_symop_operation_xyz
  'x, y, z'

loop_
  _atom_site_type_symbol
  _atom_site_label
  _atom_site_symmetry_multiplicity
  _atom_site_fract_x
  _atom_site_fract_y
  _atom_site_fract_z
  _atom_site_occupancy
  H   H1        1.0  0.27865  0.04315  0.03146  1.0000
  S   S1        1.0  0.02997  0.46773  0.14221  1.0000
  C   C1        1.0  0.12063  0.16517  0.12359  1.0000
  C   C2        1.0  0.39007  0.31360  0.06583  1.0000
  C   C3        1.0  0.09268  0.39774  0.10772  1.0000
  H   H2        1.0  0.05263  0.39483  0.10823  1.0000
  N   N1        1.0  0.06819  0.30861  0.01254  1.0000
  Fe  Fe1       1.0  0.15160  0.08530  0.07707  1.0000
  S   S2        1.0  0.16506  0.10401  0.07946  1.0000
  S   S3        1.0  0.15196  0.06044  0.09607  1.0000
  Fe  Fe2       1.0  0.14272  0.10644  0.04362  1.0000
  S   S4        1.0  0.15541  0.12689  0.04332  1.0000
  S   S5        1.0  0.12877  0.11127  0.02268  1.0000
  Fe  Fe3       1.0  0.17651  0.10566  0.05176  1.0000
  S   S6        1.0  0.20421  0.10470  0.03815  1.0000
  Fe  Fe4       1.0  0.14277  0.12338  0.07081  1.0000
  S   S7        1.0  0.12833  0.14442  0.08413  1.0000
  S   S8        1.0  0.16476  0.08532  0.04989  1.0000
  S   S9        1.0  0.12838  0.10451  0.07064  1.0000
  H   H3        1.0  0.21054  0.47418  0.07241  1.0000
  S   S10       1.0  0.01231  0.21934  0.11294  1.0000
  H   H4        1.0  0.00566  0.14623  0.09348  1.0000
  Fe  Fe5       1.0  0.04270  0.20017  0.07619  1.0000
  S   S11       1.0  0.05103  0.21550  0.08936  1.0000
  S   S12       1.0  0.06189  0.18672  0.05677  1.0000
  Fe  Fe6       1.0  0.03711  0.20047  0.11298  1.0000
  S   S13       1.0  0.04546  0.18763  0.13755  1.0000
  Fe  Fe7       1.0  0.02529  0.23278  0.08784  1.0000
  S   S14       1.0  0.01744  0.26129  0.08311  1.0000
  S   S15       1.0  0.03034  0.18423  0.09986  1.0000
  S   S16       1.0  0.01777  0.21859  0.07286  1.0000
  Fe  Fe8       1.0  0.08373  0.06541  0.17857  1.0000
  S   S17       1.0  0.06923  0.06485  0.16017  1.0000
  S   S18       1.0  0.11205  0.05455  0.17268  1.0000
  S   S19       1.0  0.05201  0.11016  0.14063  1.0000
  C   C4        1.0  0.06596  0.00317  0.14389  1.0000
  H   H5        1.0  0.29382  0.02837  0.01173  1.0000
  N   N2        1.0  0.08782  0.42039  0.00185  1.0000
  H   H6        1.0  0.37115  0.15966  0.05716  1.0000
  H   H7        1.0  0.07922  0.17214  0.14472  1.0000
  C   C5        1.0  0.01575  0.12628  0.12195  1.0000
  H   H8        1.0  0.35359  0.99709  0.14860  1.0000
  S   S20       1.0  0.32369  0.00678  0.02449  1.0000
  H   H9        1.0  0.21494  0.48893  0.98659  1.0000
  Fe  Fe9       1.0  0.28311  0.10494  0.07364  1.0000
  S   S21       1.0  0.30122  0.09327  0.05258  1.0000
  S   S22       1.0  0.25419  0.11084  0.08005  1.0000
  Fe  Fe10      1.0  0.31182  0.10230  0.09136  1.0000
  S   S23       1.0  0.33195  0.09027  0.07191  1.0000
  S   S24       1.0  0.31703  0.10540  0.11510  1.0000
  Fe  Fe11      1.0  0.31820  0.10998  0.05324  1.0000
  S   S25       1.0  0.33538  0.12327  0.03062  1.0000
  Fe  Fe12      1.0  0.31332  0.07487  0.07324  1.0000
  S   S26       1.0  0.31946  0.04631  0.07993  1.0000
  S   S27       1.0  0.29902  0.12306  0.07283  1.0000
  S   S28       1.0  0.29418  0.08545  0.09414  1.0000
  Fe  Fe13      1.0  0.40461  0.14447  0.13468  1.0000
  S   S29       1.0  0.42163  0.12431  0.12147  1.0000
  S   S30       1.0  0.40058  0.17216  0.12182  1.0000
  Fe  Fe14      1.0  0.39519  0.11878  0.16721  1.0000
  S   S31       1.0  0.41152  0.09646  0.15637  1.0000
  Fe  Fe15      1.0  0.43074  0.11299  0.14559  1.0000
  S   S32       1.0  0.45917  0.10438  0.14321  1.0000
  Fe  Fe16      1.0  0.40074  0.10999  0.13328  1.0000
  S   S33       1.0  0.39443  0.09829  0.11528  1.0000
  S   S34       1.0  0.41525  0.13437  0.15813  1.0000
  S   S35       1.0  0.38279  0.13105  0.14487  1.0000
  Fe  Fe17      1.0  0.40547  0.20213  0.02997  1.0000
  S   S36       1.0  0.37954  0.21338  0.04373  1.0000
  S   S37       1.0  0.42736  0.18802  0.04255  1.0000
  Fe  Fe18      1.0  0.38058  0.23555  0.02177  1.0000
  S   S38       1.0  0.37079  0.26280  0.02406  1.0000
  Fe  Fe19      1.0  0.37000  0.20201  0.02781  1.0000
  S   S39       1.0  0.34704  0.19076  0.04127  1.0000
  S   S40       1.0  0.40743  0.22526  0.00931  1.0000
  S   S41       1.0  0.39600  0.18904  0.01553  1.0000
  Fe  Fe20      1.0  0.39217  0.44116  0.09319  1.0000
  S   S42       1.0  0.36848  0.43508  0.11155  1.0000
  S   S43       1.0  0.40989  0.42469  0.07591  1.0000
  C   C6        1.0  0.44995  0.17297  0.00171  1.0000
  C   C7        1.0  0.14081  0.10356  0.00464  1.0000
  N   N3        1.0  0.37460  0.15584  0.08256  1.0000
  Fe  Fe21      1.0  0.37727  0.44513  0.12912  1.0000
  C   C8        1.0  0.47839  0.17459  0.16309  1.0000
  Fe  Fe22      1.0  0.35640  0.46214  0.10175  1.0000
  H   H10       1.0  0.45010  0.14157  0.14199  1.0000
  S   S44       1.0  0.40208  0.44927  0.11133  1.0000
  H   H11       1.0  0.07800  0.45741  0.08105  1.0000
  Fe  Fe23      1.0  0.41824  0.33057  0.01850  1.0000
  S   S45       1.0  0.42814  0.34972  0.99624  1.0000
  S   S46       1.0  0.42713  0.30356  0.01566  1.0000
  Fe  Fe24      1.0  0.40281  0.35661  0.04056  1.0000
  S   S47       1.0  0.41182  0.37760  0.01994  1.0000
  S   S48       1.0  0.38740  0.36275  0.06544  1.0000
  Fe  Fe25      1.0  0.40258  0.36675  0.00347  1.0000
  Fe  Fe26      1.0  0.43626  0.35825  0.01522  1.0000
  S   S49       1.0  0.39192  0.34683  0.02436  1.0000
  S   S50       1.0  0.42795  0.33800  0.03712  1.0000
  Fe  Fe27      1.0  0.29678  0.43465  0.01599  1.0000
  S   S51       1.0  0.30661  0.45548  0.99582  1.0000
  S   S52       1.0  0.30894  0.40701  0.01705  1.0000
  Fe  Fe28      1.0  0.26811  0.45914  0.03430  1.0000
  C   C9        1.0  0.48015  0.14300  0.12026  1.0000
  S   S53       1.0  0.24582  0.46555  0.05551  1.0000
  H   H12       1.0  0.47290  0.48179  0.15934  1.0000
  Fe  Fe29      1.0  0.30270  0.46783  0.01757  1.0000
  C   C10       1.0  0.46490  0.45811  0.10558  1.0000
  S   S54       1.0  0.26918  0.44536  0.01458  1.0000
  S   S55       1.0  0.29472  0.44617  0.03775  1.0000
  H   H13       1.0  0.08272  0.43825  0.01781  1.0000
  Fe  Fe30      1.0  0.12298  0.45501  0.09621  1.0000
  S   S56       1.0  0.11054  0.44607  0.12336  1.0000
  Fe  Fe31      1.0  0.15497  0.45093  0.06816  1.0000
  S   S57       1.0  0.14177  0.46941  0.04836  1.0000
  S   S58       1.0  0.18181  0.43672  0.05939  1.0000
  Fe  Fe32      1.0  0.11988  0.45630  0.06085  1.0000
  S   S59       1.0  0.10293  0.44986  0.04774  1.0000
  S   S60       1.0  0.14559  0.46735  0.08730  1.0000
  S   S61       1.0  0.13383  0.43661  0.07919  1.0000
  Fe  Fe33      1.0  0.01084  0.41259  0.15724  1.0000
  C   C11       1.0  0.19392  0.10442  0.00010  1.0000
  S   S62       1.0  0.02204  0.38882  0.14708  1.0000
  Fe  Fe34      1.0  0.01510  0.44738  0.15596  1.0000
  H   H14       1.0  0.49043  0.38910  0.03753  1.0000
  Fe  Fe35      1.0  0.04190  0.36928  0.06152  1.0000
  S   S63       1.0  0.06034  0.35170  0.07705  1.0000
  S   S64       1.0  0.01764  0.38504  0.07428  1.0000
  Fe  Fe36      1.0  0.06620  0.36437  0.02802  1.0000
  S   S65       1.0  0.08643  0.34694  0.04126  1.0000
  H   H15       1.0  0.00908  0.41341  0.09050  1.0000
  Fe  Fe37      1.0  0.06517  0.33509  0.05866  1.0000
  S   S66       1.0  0.07233  0.30647  0.06441  1.0000
  Fe  Fe38      1.0  0.07966  0.36523  0.05818  1.0000
  S   S67       1.0  0.10006  0.37227  0.06625  1.0000
  S   S68       1.0  0.04508  0.35149  0.04441  1.0000
  S   S69       1.0  0.06110  0.38376  0.04358  1.0000
  C   C12       1.0  0.02070  0.38840  0.12670  1.0000
  C   C13       1.0  0.02628  0.37290  0.12163  1.0000
  C   C14       1.0  0.02555  0.37193  0.10549  1.0000
  C   C15       1.0  0.01935  0.38649  0.09421  1.0000
  C   C16       1.0  0.01384  0.40208  0.09919  1.0000
  C   C17       1.0  0.01451  0.40304  0.11543  1.0000
  H   H16       1.0  0.03105  0.36153  0.13029  1.0000
  H   H17       1.0  0.02939  0.35980  0.10195  1.0000
  H   H18       1.0  0.16454  0.12748  0.99970  1.0000
  H   H19       1.0  0.47936  0.43708  0.06496  1.0000
  C   C18       1.0  0.10208  0.42831  0.05331  1.0000
  C   C19       1.0  0.11605  0.41579  0.05780  1.0000
  C   C20       1.0  0.11530  0.39862  0.06177  1.0000
  C   C21       1.0  0.10064  0.39388  0.06110  1.0000
  C   C22       1.0  0.08658  0.40643  0.05684  1.0000
  C   C23       1.0  0.08729  0.42360  0.05300  1.0000
  H   H20       1.0  0.12767  0.41926  0.05768  1.0000
  H   H21       1.0  0.12621  0.38899  0.06510  1.0000
  H   H22       1.0  0.07501  0.40295  0.05690  1.0000
  H   H23       1.0  0.07627  0.43327  0.05003  1.0000
  C   C24       1.0  0.08813  0.45140  0.12689  1.0000
  C   C25       1.0  0.07863  0.43988  0.13800  1.0000
  C   C26       1.0  0.06071  0.44458  0.14226  1.0000
  C   C27       1.0  0.05224  0.46092  0.13571  1.0000
  H   H24       1.0  0.05875  0.15219  0.02908  1.0000
  C   C28       1.0  0.06177  0.47242  0.12452  1.0000
  H   H25       1.0  0.08516  0.42740  0.14352  1.0000
  H   H26       1.0  0.05359  0.43567  0.15095  1.0000
  C   C29       1.0  0.44371  0.47240  0.08240  1.0000
  H   H27       1.0  0.22725  0.02505  0.07572  1.0000
  H   H28       1.0  0.26943  0.00291  0.04906  1.0000
  H   H29       1.0  0.47285  0.41646  0.12958  1.0000
  H   H30       1.0  0.04498  0.46004  0.17791  1.0000
  H   H31       1.0  0.09745  0.39979  0.09381  1.0000
  S   S70       1.0  0.36256  0.47170  0.12141  1.0000
  C   C30       1.0  0.40822  0.40002  0.12065  1.0000
  H   H32       1.0  0.43748  0.17553  0.99801  1.0000
  C   C31       1.0  0.04628  0.13727  0.15567  1.0000
  N   N4        1.0  0.49054  0.30609  0.04178  1.0000
  C   C32       1.0  0.22825  0.45658  0.05799  1.0000
  C   C33       1.0  0.23013  0.44298  0.05065  1.0000
  C   C34       1.0  0.21579  0.43682  0.05150  1.0000
  C   C35       1.0  0.19947  0.44427  0.05960  1.0000
  C   C36       1.0  0.19759  0.45770  0.06726  1.0000
  C   C37       1.0  0.21202  0.46373  0.06658  1.0000
  H   H33       1.0  0.24263  0.43713  0.04436  1.0000
  H   H34       1.0  0.21731  0.42631  0.04573  1.0000
  H   H35       1.0  0.18506  0.46342  0.07364  1.0000
  H   H36       1.0  0.48202  0.39167  0.11644  1.0000
  H   H37       1.0  0.07602  0.27905  0.99951  1.0000
  C   C38       1.0  0.35701  0.37943  0.00600  1.0000
  C   C39       1.0  0.33959  0.38456  0.01307  1.0000
  C   C40       1.0  0.33086  0.40126  0.00813  1.0000
  C   C41       1.0  0.33957  0.41278  0.99586  1.0000
  H   H38       1.0  0.36355  0.36649  0.00984  1.0000
  H   H39       1.0  0.33287  0.37556  0.02247  1.0000
  H   H40       1.0  0.25154  0.05381  0.11292  1.0000
  H   H41       1.0  0.39654  0.45513  0.14896  1.0000
  C   C42       1.0  0.46848  0.39729  0.11980  1.0000
  H   H42       1.0  0.39278  0.15302  0.05905  1.0000
  C   C43       1.0  0.28602  0.02122  0.00867  1.0000
  H   H43       1.0  0.47040  0.45559  0.05105  1.0000
  H   H44       1.0  0.48092  0.33510  0.08517  1.0000
  C   C44       1.0  0.00565  0.15250  0.13162  1.0000
  C   C45       1.0  0.46375  0.44857  0.09483  1.0000
  H   H45       1.0  0.11283  0.42958  0.01102  1.0000
  H   H46       1.0  0.45710  0.16011  0.99979  1.0000
  C   C46       1.0  0.48728  0.33369  0.07241  1.0000
  H   H47       1.0  0.10009  0.16610  0.00970  1.0000
  H   H48       1.0  0.46245  0.16554  0.09883  1.0000
  H   H49       1.0  0.08915  0.12371  0.02837  1.0000
  H   H50       1.0  0.25864  0.01123  0.00708  1.0000
  C   C47       1.0  0.39358  0.37963  0.06913  1.0000
  C   C48       1.0  0.38287  0.38922  0.08075  1.0000
  C   C49       1.0  0.38767  0.40315  0.08299  1.0000
  C   C50       1.0  0.40318  0.40748  0.07362  1.0000
  C   C51       1.0  0.41392  0.39772  0.06223  1.0000
  C   C52       1.0  0.40913  0.38386  0.06005  1.0000
  H   H51       1.0  0.37076  0.38605  0.08782  1.0000
  H   H52       1.0  0.37927  0.41055  0.09182  1.0000
  H   H53       1.0  0.42602  0.40085  0.05505  1.0000
  H   H54       1.0  0.41760  0.37634  0.05139  1.0000
  C   C53       1.0  0.45415  0.36606  0.04303  1.0000
  H   H55       1.0  0.44414  0.35955  0.04468  1.0000
  H   H56       1.0  0.44673  0.36962  0.06861  1.0000
  C   C54       1.0  0.38646  0.27420  0.02154  1.0000
  C   C55       1.0  0.40375  0.26621  0.01951  1.0000
  C   C56       1.0  0.41611  0.27539  0.01763  1.0000
  C   C57       1.0  0.41122  0.29259  0.01804  1.0000
  C   C58       1.0  0.39390  0.30062  0.02028  1.0000
  C   C59       1.0  0.38153  0.29143  0.02197  1.0000
  H   H57       1.0  0.40765  0.25287  0.01981  1.0000
  H   H58       1.0  0.42949  0.26909  0.01613  1.0000
  C   C60       1.0  0.40923  0.17702  0.09997  1.0000
  C   C61       1.0  0.40245  0.19257  0.09022  1.0000
  C   C62       1.0  0.40832  0.19624  0.07260  1.0000
  C   C63       1.0  0.42106  0.18440  0.06469  1.0000
  C   C64       1.0  0.42845  0.16924  0.07451  1.0000
  C   C65       1.0  0.42252  0.16555  0.09211  1.0000
  H   H59       1.0  0.39238  0.20162  0.09627  1.0000
  H   H60       1.0  0.40299  0.20821  0.06515  1.0000
  H   H61       1.0  0.43849  0.16015  0.06848  1.0000
  H   H62       1.0  0.42827  0.15384  0.09952  1.0000
  C   C66       1.0  0.33832  0.10522  0.11472  1.0000
  C   C67       1.0  0.34298  0.10430  0.12979  1.0000
  C   C68       1.0  0.36013  0.10308  0.12994  1.0000
  C   C69       1.0  0.37264  0.10256  0.11503  1.0000
  C   C70       1.0  0.36790  0.10411  0.09986  1.0000
  C   C71       1.0  0.35074  0.10557  0.09968  1.0000
  H   H63       1.0  0.33336  0.10426  0.14142  1.0000
  H   H64       1.0  0.36373  0.10194  0.14168  1.0000
  H   H65       1.0  0.37755  0.10401  0.08827  1.0000
  H   H66       1.0  0.34713  0.10695  0.08792  1.0000
  C   C72       1.0  0.34451  0.17184  0.03806  1.0000
  C   C73       1.0  0.35733  0.16191  0.02798  1.0000
  C   C74       1.0  0.35457  0.14688  0.02584  1.0000
  C   C75       1.0  0.33905  0.14176  0.03378  1.0000
  C   C76       1.0  0.32634  0.15175  0.04380  1.0000
  C   C77       1.0  0.32908  0.16667  0.04598  1.0000
  H   H67       1.0  0.36925  0.16587  0.02175  1.0000
  H   H68       1.0  0.36448  0.13918  0.01812  1.0000
  H   H69       1.0  0.31416  0.14828  0.04952  1.0000
  H   H70       1.0  0.31909  0.17433  0.05373  1.0000
  C   C78       1.0  0.32221  0.01774  0.04000  1.0000
  C   C79       1.0  0.32335  0.00902  0.05649  1.0000
  C   C80       1.0  0.32236  0.01796  0.06867  1.0000
  C   C81       1.0  0.32019  0.03563  0.06443  1.0000
  C   C82       1.0  0.31869  0.04441  0.04804  1.0000
  C   C83       1.0  0.31974  0.03545  0.03581  1.0000
  H   H71       1.0  0.32539  0.99535  0.05976  1.0000
  H   H72       1.0  0.32348  0.01110  0.08133  1.0000
  H   H73       1.0  0.31713  0.05803  0.04465  1.0000
  H   H74       1.0  0.31894  0.04222  0.02302  1.0000
  C   C84       1.0  0.07878  0.15704  0.99642  1.0000
  N   N5        1.0  0.26387  0.05258  0.08705  1.0000
  C   C85       1.0  0.46609  0.10580  0.16057  1.0000
  H   H75       1.0  0.40133  0.14733  0.08402  1.0000
  C   C86       1.0  0.03286  0.27383  0.07650  1.0000
  C   C87       1.0  0.05035  0.26657  0.07334  1.0000
  C   C88       1.0  0.06234  0.27678  0.06953  1.0000
  C   C89       1.0  0.05690  0.29429  0.06861  1.0000
  C   C90       1.0  0.03942  0.30163  0.07128  1.0000
  C   C91       1.0  0.02743  0.29140  0.07527  1.0000
  H   H76       1.0  0.05466  0.25307  0.07411  1.0000
  H   H77       1.0  0.07587  0.27106  0.06744  1.0000
  H   H78       1.0  0.03513  0.31513  0.07061  1.0000
  H   H79       1.0  0.01388  0.29707  0.07770  1.0000
  C   C92       1.0  0.04890  0.16562  0.13926  1.0000
  C   C93       1.0  0.05510  0.15913  0.12463  1.0000
  C   C94       1.0  0.05596  0.14214  0.12527  1.0000
  C   C95       1.0  0.05145  0.13118  0.14073  1.0000
  H   H80       1.0  0.05923  0.16728  0.11272  1.0000
  H   H81       1.0  0.06033  0.13748  0.11370  1.0000
  C   C96       1.0  0.21808  0.10756  0.04919  1.0000
  C   C97       1.0  0.23580  0.10471  0.04244  1.0000
  C   C98       1.0  0.24713  0.10611  0.05150  1.0000
  C   C99       1.0  0.24071  0.11047  0.06729  1.0000
  C   C100      1.0  0.22299  0.11368  0.07379  1.0000
  C   C101      1.0  0.21172  0.11222  0.06479  1.0000
  H   H82       1.0  0.24078  0.10134  0.03025  1.0000
  H   H83       1.0  0.26076  0.10381  0.04632  1.0000
  H   H84       1.0  0.21795  0.11713  0.08596  1.0000
  H   H85       1.0  0.19811  0.11470  0.06999  1.0000
  C   C102      1.0  0.14096  0.06051  0.11722  1.0000
  C   C103      1.0  0.12446  0.07037  0.12126  1.0000
  C   C104      1.0  0.11526  0.06853  0.13823  1.0000
  C   C105      1.0  0.12278  0.05719  0.15120  1.0000
  C   C106      1.0  0.13936  0.04759  0.14707  1.0000
  C   C107      1.0  0.14828  0.04906  0.13019  1.0000
  H   H86       1.0  0.11863  0.07899  0.11125  1.0000
  H   H87       1.0  0.10238  0.07587  0.14125  1.0000
  H   H88       1.0  0.14528  0.03882  0.15698  1.0000
  H   H89       1.0  0.16095  0.04127  0.12717  1.0000
  C   C108      1.0  0.11004  0.15629  0.07635  1.0000
  C   C109      1.0  0.09686  0.16599  0.08637  1.0000
  C   C110      1.0  0.08214  0.17543  0.08035  1.0000
  C   C111      1.0  0.08058  0.17539  0.06425  1.0000
  C   C112      1.0  0.09398  0.16605  0.05409  1.0000
  C   C113      1.0  0.10855  0.15627  0.06020  1.0000
  H   H90       1.0  0.09794  0.16612  0.09885  1.0000
  H   H91       1.0  0.07205  0.18281  0.08816  1.0000
  H   H92       1.0  0.09316  0.16660  0.04142  1.0000
  H   H93       1.0  0.11879  0.14902  0.05229  1.0000
  N   N6        1.0  0.00342  0.14290  0.12028  1.0000
  H   H94       1.0  0.36926  0.39860  0.02540  1.0000
  H   H95       1.0  0.38744  0.15081  0.10331  1.0000
  C   C114      1.0  0.36814  0.29717  0.07780  1.0000
  C   C115      1.0  0.34576  0.14938  0.08483  1.0000
  C   C116      1.0  0.48357  0.10409  0.15948  1.0000
  C   C117      1.0  0.37378  0.17418  0.07983  1.0000
  H   H96       1.0  0.27403  0.99349  0.01518  1.0000
  H   H97       1.0  0.09762  0.38404  0.11267  1.0000
  H   H98       1.0  0.11115  0.14699  0.00235  1.0000
  C   C118      1.0  0.06298  0.02089  0.14037  1.0000
  C   C119      1.0  0.05493  0.02978  0.15329  1.0000
  C   C120      1.0  0.04935  0.02104  0.16974  1.0000
  H   H99       1.0  0.06699  0.02779  0.12762  1.0000
  H   H100      1.0  0.05267  0.04344  0.15043  1.0000
  H   H101      1.0  0.07102  0.40290  0.00826  1.0000
  C   C121      1.0  0.45426  0.10954  0.17512  1.0000
  C   C122      1.0  0.38836  0.14621  0.09184  1.0000
  C   C123      1.0  0.07809  0.45935  0.16893  1.0000
  C   C124      1.0  0.46555  0.36877  0.02743  1.0000
  C   C125      1.0  0.37961  0.15133  0.06573  1.0000
  C   C126      1.0  0.45569  0.37173  0.05661  1.0000
  H   H102      1.0  0.05455  0.39827  0.13552  1.0000
  C   C127      1.0  0.39993  0.45588  0.17325  1.0000
  H   H103      1.0  0.29942  0.47253  0.05266  1.0000
  C   C128      1.0  0.12990  0.38814  0.02396  1.0000
  C   C129      1.0  0.26023  0.06023  0.10198  1.0000
  C   C130      1.0  0.24768  0.05181  0.08338  1.0000
  H   H104      1.0  0.26902  0.02686  0.10134  1.0000
  C   C131      1.0  0.12798  0.40567  0.01996  1.0000
  H   H105      1.0  0.11188  0.00310  0.10727  1.0000
  H   H106      1.0  0.40258  0.40189  0.13381  1.0000
  C   C132      1.0  0.06993  0.44915  0.08974  1.0000
  H   H107      1.0  0.34235  0.13813  0.99403  1.0000
  H   H108      1.0  0.25426  0.07401  0.09935  1.0000
  H   H109      1.0  0.15823  0.08369  0.01765  1.0000
  H   H110      1.0  0.21704  0.05167  0.03236  1.0000
  H   H111      1.0  0.39000  0.31384  0.02084  1.0000
  C   C133      1.0  0.31306  0.47132  0.07152  1.0000
  H   H112      1.0  0.38977  0.25690  0.05408  1.0000
  Fe  Fe39      1.0  0.39547  0.21348  0.99601  1.0000
  H   H113      1.0  0.36325  0.18186  0.07329  1.0000
  C   C134      1.0  0.24486  0.03688  0.08067  1.0000
  H   H114      1.0  0.39507  0.99594  0.10874  1.0000
  Fe  Fe40      1.0  0.27886  0.46725  0.99605  1.0000
  H   H115      1.0  0.23197  0.47713  0.02511  1.0000
  H   H116      1.0  0.40950  0.05614  0.17788  1.0000
  H   H117      1.0  0.07401  0.44735  0.17044  1.0000
  S   S71       1.0  0.33014  0.46990  0.09566  1.0000
  H   H118      1.0  0.36812  0.29766  0.02373  1.0000
  H   H119      1.0  0.47187  0.18984  0.12340  1.0000
  S   S72       1.0  0.36854  0.22537  0.00702  1.0000
  C   C135      1.0  0.46331  0.41127  0.12724  1.0000
  H   H120      1.0  0.22277  0.46300  0.01945  1.0000
  H   H121      1.0  0.32839  0.16405  0.99977  1.0000
  H   H122      1.0  0.05412  0.33314  0.98803  1.0000
  H   H123      1.0  0.20099  0.48764  0.03961  1.0000
  H   H124      1.0  0.29534  0.00982  0.00491  1.0000
  H   H125      1.0  0.35126  0.47889  0.03397  1.0000
  H   H126      1.0  0.00089  0.16574  0.10070  1.0000
  C   C136      1.0  0.06569  0.30652  0.99652  1.0000
  C   C137      1.0  0.32515  0.47592  0.04132  1.0000
  H   H127      1.0  0.44662  0.14755  0.12111  1.0000
  H   H128      1.0  0.08920  0.00135  0.17508  1.0000
  C   C138      1.0  0.06327  0.16929  0.99505  1.0000
  C   C139      1.0  0.10073  0.15224  0.01221  1.0000
  N   N7        1.0  0.46012  0.18593  0.99207  1.0000
  H   H129      1.0  0.08570  0.40312  0.98803  1.0000
  H   H130      1.0  0.07578  0.14842  0.03959  1.0000
  S   S73       1.0  0.07609  0.36939  0.99971  1.0000
  H   H131      1.0  0.43662  0.44423  0.05499  1.0000
  H   H132      1.0  0.47761  0.17488  0.10259  1.0000
  C   C140      1.0  0.07893  0.32123  0.00890  1.0000
  S   S74       1.0  0.27596  0.48189  0.01562  1.0000
  H   H133      1.0  0.44079  0.11051  0.17622  1.0000
  C   C141      1.0  0.07699  0.43201  0.09520  1.0000
  C   C142      1.0  0.06855  0.39744  0.13100  1.0000
  H   H134      1.0  0.35520  0.29682  0.08482  1.0000
  C   C143      1.0  0.26431  0.00492  0.01835  1.0000
  H   H135      1.0  0.36500  0.32311  0.07949  1.0000
  C   C144      1.0  0.04842  0.47252  0.17571  1.0000
  C   C145      1.0  0.04903  0.42777  0.11161  1.0000
  C   C146      1.0  0.05261  0.45566  0.09539  1.0000
  C   C147      1.0  0.35780  0.27038  0.06787  1.0000
  H   H136      1.0  0.07454  0.38402  0.13586  1.0000
  H   H137      1.0  0.33794  0.02000  0.12992  1.0000
  H   H138      1.0  0.43347  0.39662  0.09175  1.0000
  C   C148      1.0  0.46531  0.17062  0.10843  1.0000
  C   C149      1.0  0.47593  0.15822  0.16599  1.0000
  C   C150      1.0  0.39374  0.45006  0.16244  1.0000
  C   C151      1.0  0.27945  0.00688  0.03792  1.0000
  H   H139      1.0  0.04033  0.41996  0.11979  1.0000
  Fe  Fe41      1.0  0.13086  0.48489  0.06822  1.0000
  C   C152      1.0  0.47882  0.37686  0.02554  1.0000
  H   H140      1.0  0.07262  0.33410  0.00295  1.0000
  S   S75       1.0  0.10752  0.47384  0.07867  1.0000
  H   H141      1.0  0.05444  0.17359  0.00585  1.0000
  H   H142      1.0  0.47006  0.14013  0.15638  1.0000
  H   H143      1.0  0.25848  0.06889  0.03835  1.0000
  C   C153      1.0  0.46882  0.37995  0.05472  1.0000
  C   C154      1.0  0.10225  0.40910  0.00929  1.0000
  H   H144      1.0  0.20083  0.47603  0.00081  1.0000
  H   H145      1.0  0.36058  0.27650  0.05420  1.0000
  H   H146      1.0  0.44225  0.37496  0.10018  1.0000
  H   H147      1.0  0.25439  0.99991  0.02900  1.0000
  Fe  Fe42      1.0  0.00642  0.20402  0.09823  1.0000
  H   H148      1.0  0.06496  0.43873  0.00937  1.0000
  H   H149      1.0  0.48849  0.32330  0.01766  1.0000
  H   H150      1.0  0.22780  0.07312  0.03903  1.0000
  N   N8        1.0  0.11386  0.02654  0.11182  1.0000
  C   C155      1.0  0.13281  0.02341  0.10632  1.0000
  C   C156      1.0  0.10998  0.01943  0.13034  1.0000
  C   C157      1.0  0.10738  0.01707  0.10332  1.0000
  C   C158      1.0  0.10594  0.04480  0.10718  1.0000
  C   C159      1.0  0.11072  0.05436  0.09054  1.0000
  C   C160      1.0  0.09235  0.05325  0.11845  1.0000
  C   C161      1.0  0.10293  0.07141  0.08575  1.0000
  C   C162      1.0  0.08460  0.07032  0.11349  1.0000
  C   C163      1.0  0.08996  0.07941  0.09722  1.0000
  H   H151      1.0  0.13888  0.00981  0.11017  1.0000
  H   H152      1.0  0.13734  0.02684  0.09243  1.0000
  H   H153      1.0  0.13812  0.03074  0.11203  1.0000
  H   H154      1.0  0.11356  0.02691  0.13742  1.0000
  H   H155      1.0  0.11694  0.00604  0.13365  1.0000
  H   H156      1.0  0.09626  0.01903  0.13521  1.0000
  H   H157      1.0  0.11140  0.02060  0.08932  1.0000
  H   H158      1.0  0.46827  0.43496  0.05046  1.0000
  H   H159      1.0  0.09313  0.01970  0.10644  1.0000
  H   H160      1.0  0.12046  0.04879  0.08101  1.0000
  H   H161      1.0  0.08747  0.04698  0.13119  1.0000
  H   H162      1.0  0.10701  0.07848  0.07304  1.0000
  H   H163      1.0  0.07439  0.07660  0.12233  1.0000
  H   H164      1.0  0.08402  0.09267  0.09352  1.0000
  H   H165      1.0  0.47824  0.30580  0.02235  1.0000
  H   H166      1.0  0.23562  0.07834  0.08347  1.0000
  C   C164      1.0  0.48048  0.29409  0.05412  1.0000
  C   C165      1.0  0.42521  0.37322  0.13168  1.0000
  C   C166      1.0  0.07966  0.46760  0.11997  1.0000
  H   H167      1.0  0.42513  0.45505  0.07162  1.0000
  H   H168      1.0  0.08694  0.47658  0.11154  1.0000
  H   H169      1.0  0.46063  0.42000  0.08657  1.0000
  N   N9        1.0  0.07370  0.40249  0.11230  1.0000
  C   C167      1.0  0.06674  0.42078  0.10647  1.0000
  C   C168      1.0  0.48042  0.38251  0.03917  1.0000
  C   C169      1.0  0.27548  0.03571  0.09066  1.0000
  C   C170      1.0  0.27316  0.06326  0.07229  1.0000
  H   H170      1.0  0.27212  0.05943  0.10609  1.0000
  H   H171      1.0  0.28708  0.03661  0.09428  1.0000
  H   H172      1.0  0.28043  0.02996  0.07934  1.0000
  H   H173      1.0  0.26568  0.07648  0.06952  1.0000
  H   H174      1.0  0.28547  0.06405  0.07452  1.0000
  H   H175      1.0  0.27623  0.05807  0.06074  1.0000
  N   N10       1.0  0.11264  0.12037  0.13327  1.0000
  C   C171      1.0  0.13053  0.11214  0.12647  1.0000
  C   C172      1.0  0.10767  0.11117  0.15102  1.0000
  C   C173      1.0  0.10156  0.11833  0.12315  1.0000
  C   C174      1.0  0.11032  0.13863  0.13263  1.0000
  C   C175      1.0  0.12347  0.14780  0.12441  1.0000
  C   C176      1.0  0.09426  0.14797  0.13989  1.0000
  H   H176      1.0  0.32642  0.37082  0.99206  1.0000
  H   H177      1.0  0.05530  0.48507  0.11938  1.0000
  H   H178      1.0  0.40812  0.41260  0.11191  1.0000
  H   H179      1.0  0.13959  0.11361  0.13327  1.0000
  H   H180      1.0  0.13204  0.09830  0.12775  1.0000
  H   H181      1.0  0.13465  0.11739  0.11271  1.0000
  H   H182      1.0  0.11472  0.11359  0.15932  1.0000
  H   H183      1.0  0.11041  0.09721  0.15217  1.0000
  H   H184      1.0  0.09375  0.11486  0.15640  1.0000
  H   H185      1.0  0.10427  0.12586  0.10995  1.0000
  H   H186      1.0  0.10340  0.10490  0.12254  1.0000
  H   H187      1.0  0.08778  0.12263  0.12855  1.0000
  H   H188      1.0  0.13592  0.14199  0.11797  1.0000
  H   H189      1.0  0.08348  0.14203  0.14589  1.0000
  S   S76       1.0  0.37964  0.46742  0.08208  1.0000
  N   N11       1.0  0.06539  0.47064  0.17946  1.0000
  H   H190      1.0  0.44523  0.20422  0.00703  1.0000
  C   C177      1.0  0.22925  0.03659  0.07756  1.0000
  N   N12       1.0  0.35773  0.41916  0.03848  1.0000
  C   C178      1.0  0.37501  0.42225  0.03649  1.0000
  C   C179      1.0  0.36002  0.40138  0.03718  1.0000
  C   C180      1.0  0.35030  0.43073  0.02424  1.0000
  C   C181      1.0  0.34599  0.42191  0.05471  1.0000
  C   C182      1.0  0.35083  0.42716  0.06710  1.0000
  C   C183      1.0  0.32899  0.41949  0.05841  1.0000
  C   C184      1.0  0.33930  0.42975  0.08220  1.0000
  C   C185      1.0  0.31751  0.42236  0.07346  1.0000
  C   C186      1.0  0.32266  0.42750  0.08532  1.0000
  H   H191      1.0  0.38354  0.41994  0.02424  1.0000
  H   H192      1.0  0.37434  0.43559  0.03679  1.0000
  H   H193      1.0  0.38154  0.41359  0.04656  1.0000
  H   H194      1.0  0.34788  0.39838  0.03698  1.0000
  H   H195      1.0  0.36493  0.39232  0.04808  1.0000
  H   H196      1.0  0.34767  0.44421  0.02525  1.0000
  H   H197      1.0  0.35901  0.42948  0.01179  1.0000
  H   H198      1.0  0.33800  0.42818  0.02386  1.0000
  H   H199      1.0  0.36338  0.42950  0.06543  1.0000
  H   H200      1.0  0.32437  0.41552  0.04960  1.0000
  H   H201      1.0  0.34315  0.43398  0.09139  1.0000
  H   H202      1.0  0.30450  0.42074  0.07584  1.0000
  H   H203      1.0  0.31371  0.42999  0.09687  1.0000
  H   H204      1.0  0.49280  0.10093  0.14834  1.0000
  H   H205      1.0  0.44192  0.42917  0.13777  1.0000
  H   H206      1.0  0.34842  0.14913  0.07162  1.0000
  H   H207      1.0  0.04026  0.15944  0.16635  1.0000
  C   C187      1.0  0.11816  0.38092  0.02088  1.0000
  C   C188      1.0  0.22610  0.47569  0.01532  1.0000
  S   S77       1.0  0.46295  0.36232  0.01027  1.0000
  H   H208      1.0  0.25446  0.02525  0.08099  1.0000
  C   C189      1.0  0.16432  0.08405  0.99097  1.0000
  H   H209      1.0  0.43788  0.36425  0.13057  1.0000
  C   C190      1.0  0.49321  0.31894  0.04928  1.0000
  S   S78       1.0  0.47063  0.38660  0.07208  1.0000
  N   N13       1.0  0.36660  0.05338  0.09950  1.0000
  C   C191      1.0  0.37196  0.06484  0.08311  1.0000
  C   C192      1.0  0.34786  0.05871  0.10571  1.0000
  C   C193      1.0  0.37516  0.05565  0.11185  1.0000
  C   C194      1.0  0.37080  0.03580  0.09704  1.0000
  C   C195      1.0  0.36361  0.03177  0.08552  1.0000
  C   C196      1.0  0.38223  0.02238  0.10549  1.0000
  C   C197      1.0  0.36756  0.01542  0.08263  1.0000
  C   C198      1.0  0.38613  0.00603  0.10244  1.0000
  C   C199      1.0  0.37883  0.00260  0.09104  1.0000
  H   H210      1.0  0.36507  0.06505  0.07344  1.0000
  H   H211      1.0  0.36936  0.07816  0.08441  1.0000
  H   H212      1.0  0.38591  0.06098  0.07785  1.0000
  H   H213      1.0  0.34037  0.05837  0.09676  1.0000
  H   H214      1.0  0.34417  0.07195  0.10764  1.0000
  H   H215      1.0  0.34333  0.05041  0.11799  1.0000
  H   H216      1.0  0.38935  0.05282  0.10758  1.0000
  H   H217      1.0  0.37148  0.06897  0.11354  1.0000
  H   H218      1.0  0.37149  0.04766  0.12461  1.0000
  H   H219      1.0  0.35497  0.04131  0.07849  1.0000
  H   H220      1.0  0.38852  0.02422  0.11428  1.0000
  H   H221      1.0  0.02925  0.12772  0.11684  1.0000
  H   H222      1.0  0.01330  0.11788  0.11509  1.0000
  H   H223      1.0  0.37233  0.31979  0.98864  1.0000
  H   H224      1.0  0.06724  0.41992  0.99088  1.0000
  H   H225      1.0  0.47168  0.43595  0.09562  1.0000
  H   H226      1.0  0.18401  0.10342  0.01209  1.0000
  H   H227      1.0  0.33295  0.14957  0.13265  1.0000
  C   C200      1.0  0.38412  0.43755  0.16908  1.0000
  C   C201      1.0  0.47010  0.16393  0.13763  1.0000
  C   C202      1.0  0.34062  0.47662  0.04444  1.0000
  H   H228      1.0  0.42048  0.38114  0.09879  1.0000
  H   H229      1.0  0.41393  0.30101  0.05248  1.0000
  C   C203      1.0  0.47171  0.15298  0.15355  1.0000
  H   H230      1.0  0.13673  0.41130  0.02303  1.0000
  C   C204      1.0  0.26532  0.04458  0.03142  1.0000
  S   S79       1.0  0.02658  0.42155  0.16948  1.0000
  S   S80       1.0  0.32313  0.47910  0.02032  1.0000
  Fe  Fe43      1.0  0.38678  0.47504  0.10225  1.0000
  C   C205      1.0  0.09163  0.16528  0.13917  1.0000
  H   H231      1.0  0.47814  0.13824  0.10999  1.0000
  H   H232      1.0  0.47882  0.19843  0.14547  1.0000
  H   H233      1.0  0.04729  0.46901  0.09137  1.0000
  C   C206      1.0  0.24186  0.03488  0.02788  1.0000
  C   C207      1.0  0.06015  0.99439  0.16028  1.0000
  C   C208      1.0  0.15484  0.08990  0.00560  1.0000
  C   C209      1.0  0.31140  0.47312  0.05492  1.0000
  Fe  Fe44      1.0  0.49772  0.38600  0.07209  1.0000
  S   S81       1.0  0.07091  0.09197  0.18167  1.0000
  H   H234      1.0  0.04270  0.30588  0.02594  1.0000
  H   H235      1.0  0.05276  0.31613  0.03549  1.0000
  C   C210      1.0  0.34075  0.00713  0.12820  1.0000
  H   H236      1.0  0.09138  0.31761  0.00019  1.0000
  H   H237      1.0  0.48321  0.17042  0.99986  1.0000
  C   C211      1.0  0.48912  0.10691  0.17259  1.0000
  H   H238      1.0  0.35439  0.47491  0.06327  1.0000
  H   H239      1.0  0.14011  0.38017  0.03007  1.0000
  C   C212      1.0  0.44550  0.48200  0.09277  1.0000
  H   H240      1.0  0.48766  0.37904  0.01347  1.0000
  H   H241      1.0  0.03996  0.37050  0.00319  1.0000
  C   C213      1.0  0.07156  0.15483  0.02750  1.0000
  H   H242      1.0  0.10503  0.14620  0.02433  1.0000
  N   N14       1.0  0.45189  0.44502  0.07175  1.0000
  C   C214      1.0  0.44935  0.42792  0.08145  1.0000
  H   H243      1.0  0.04826  0.47864  0.16221  1.0000
  C   C215      1.0  0.46817  0.44309  0.05899  1.0000
  C   C216      1.0  0.45280  0.45529  0.08314  1.0000
  H   H244      1.0  0.40784  0.47833  0.12407  1.0000
  C   C217      1.0  0.07671  0.29269  0.02269  1.0000
  H   H245      1.0  0.45483  0.18185  0.11054  1.0000
  H   H246      1.0  0.10033  0.44139  0.98905  1.0000
  H   H247      1.0  0.43797  0.42881  0.09208  1.0000
  H   H248      1.0  0.39915  0.39431  0.11755  1.0000
  S   S82       1.0  0.07789  0.99241  0.12775  1.0000
  H   H249      1.0  0.48069  0.13201  0.13118  1.0000
  C   C218      1.0  0.19423  0.13317  0.99968  1.0000
  H   H250      1.0  0.07886  0.29482  0.03436  1.0000
  H   H251      1.0  0.47021  0.18389  0.01385  1.0000
  N   N15       1.0  0.03698  0.24856  0.13274  1.0000
  C   C219      1.0  0.01942  0.25562  0.12964  1.0000
  C   C220      1.0  0.04710  0.23872  0.11975  1.0000
  C   C221      1.0  0.03563  0.23648  0.14942  1.0000
  C   C222      1.0  0.04517  0.26256  0.13157  1.0000
  C   C223      1.0  0.05122  0.26426  0.14515  1.0000
  C   C224      1.0  0.04742  0.27501  0.11635  1.0000
  C   C225      1.0  0.05907  0.27760  0.14341  1.0000
  C   C226      1.0  0.05534  0.28823  0.11472  1.0000
  C   C227      1.0  0.06115  0.28953  0.12822  1.0000
  H   H252      1.0  0.01262  0.24546  0.13095  1.0000
  H   H253      1.0  0.01161  0.26379  0.13864  1.0000
  H   H254      1.0  0.01936  0.26346  0.11664  1.0000
  H   H255      1.0  0.04659  0.24614  0.10669  1.0000
  H   H256      1.0  0.04229  0.22716  0.12121  1.0000
  H   H257      1.0  0.06080  0.23449  0.12061  1.0000
  H   H258      1.0  0.02951  0.22607  0.14975  1.0000
  H   H259      1.0  0.04848  0.23015  0.15223  1.0000
  H   H260      1.0  0.02766  0.24287  0.15980  1.0000
  H   H261      1.0  0.05011  0.25545  0.15723  1.0000
  H   H262      1.0  0.04311  0.27458  0.10553  1.0000
  H   H263      1.0  0.30233  0.46934  0.08198  1.0000
  H   H264      1.0  0.05705  0.29749  0.10284  1.0000
  H   H265      1.0  0.06730  0.29982  0.12686  1.0000
  C   C228      1.0  0.32862  0.47177  0.07469  1.0000
  H   H266      1.0  0.37145  0.17817  0.09197  1.0000
  H   H267      1.0  0.38592  0.17761  0.07187  1.0000
  H   H268      1.0  0.26772  0.48869  0.05208  1.0000
  H   H269      1.0  0.00341  0.14563  0.14507  1.0000
  H   H270      1.0  0.23631  0.02598  0.02514  1.0000
  C   C229      1.0  0.40116  0.29984  0.05969  1.0000
  C   C230      1.0  0.43365  0.41144  0.12913  1.0000
  H   H271      1.0  0.02185  0.15293  0.09881  1.0000
  C   C231      1.0  0.05137  0.31479  0.02316  1.0000
  H   H272      1.0  0.07007  0.16868  0.02636  1.0000
  H   H273      1.0  0.07119  0.42154  0.02620  1.0000
  H   H274      1.0  0.08167  0.32260  0.02065  1.0000
  C   C232      1.0  0.10454  0.39116  0.01362  1.0000
  H   H275      1.0  0.40755  0.46536  0.16794  1.0000
  H   H276      1.0  0.45355  0.44503  0.17367  1.0000
  H   H277      1.0  0.01020  0.41507  0.11918  1.0000
  N   N16       1.0  0.27200  0.01652  0.02310  1.0000
  C   C233      1.0  0.48504  0.32091  0.06605  1.0000
  C   C234      1.0  0.47647  0.18582  0.14780  1.0000
  H   H278      1.0  0.48223  0.17847  0.17253  1.0000
  H   H279      1.0  0.11930  0.36731  0.02463  1.0000
  C   C235      1.0  0.44594  0.41837  0.13183  1.0000
  H   H280      1.0  0.42146  0.37561  0.14472  1.0000
  C   C236      1.0  0.36821  0.26051  0.09375  1.0000
  H   H281      1.0  0.07183  0.37873  0.10840  1.0000
  C   C237      1.0  0.25393  0.05929  0.03547  1.0000
  H   H282      1.0  0.38810  0.13251  0.09581  1.0000
  N   N17       1.0  0.46642  0.15771  0.12441  1.0000
  H   H283      1.0  0.09599  0.12442  0.00637  1.0000
  H   H284      1.0  0.07353  0.12713  0.01585  1.0000
  Fe  Fe45      1.0  0.05513  0.09068  0.16448  1.0000
  H   H285      1.0  0.01883  0.15485  0.12832  1.0000
  H   H286      1.0  0.04285  0.12882  0.16770  1.0000
  H   H287      1.0  0.09865  0.40513  0.11278  1.0000
  S   S83       1.0  0.00085  0.43822  0.14228  1.0000
  N   N18       1.0  0.08396  0.14885  0.01277  1.0000
  H   H288      1.0  0.46109  0.37930  0.11140  1.0000
  H   H289      1.0  0.28093  0.02912  0.99742  1.0000
  C   C238      1.0  0.04488  0.15457  0.15491  1.0000
  H   H290      1.0  0.28664  0.01415  0.04164  1.0000
  H   H291      1.0  0.43916  0.16281  0.13431  1.0000
  H   H292      1.0  0.37921  0.25837  0.09980  1.0000
  C   C239      1.0  0.23424  0.06643  0.08204  1.0000
  H   H293      1.0  0.37926  0.13788  0.06695  1.0000
  N   N19       1.0  0.45747  0.46684  0.17986  1.0000
  C   C240      1.0  0.23058  0.04961  0.03203  1.0000
  C   C241      1.0  0.35776  0.15229  0.09239  1.0000
  C   C242      1.0  0.43850  0.39728  0.12133  1.0000
  C   C243      1.0  0.23661  0.06178  0.03576  1.0000
  H   H294      1.0  0.36407  0.24827  0.09683  1.0000
  H   H295      1.0  0.07224  0.40561  0.13722  1.0000
  H   H296      1.0  0.47302  0.45265  0.11467  1.0000
  C   C244      1.0  0.05171  0.00334  0.17318  1.0000
  H   H297      1.0  0.36189  0.01270  0.07374  1.0000
  C   C245      1.0  0.45588  0.47483  0.10447  1.0000
  H   H298      1.0  0.32096  0.14393  0.08841  1.0000
  C   C246      1.0  0.04218  0.44499  0.10629  1.0000
  H   H299      1.0  0.31299  0.14379  0.11888  1.0000
  H   H300      1.0  0.32905  0.01428  0.10676  1.0000
  H   H301      1.0  0.41580  0.36669  0.13037  1.0000
  H   H302      1.0  0.32363  0.18863  0.01142  1.0000
  C   C247      1.0  0.21872  0.06600  0.07892  1.0000
  C   C248      1.0  0.21615  0.05108  0.07684  1.0000
  C   C249      1.0  0.32976  0.14655  0.09432  1.0000
  C   C250      1.0  0.35246  0.15273  0.10983  1.0000
  H   H303      1.0  0.35741  0.26941  0.10003  1.0000
  H   H304      1.0  0.39771  0.24959  0.07339  1.0000
  C   C251      1.0  0.47250  0.18064  0.13515  1.0000
  H   H305      1.0  0.19438  0.47386  0.03106  1.0000
  H   H306      1.0  0.36058  0.15545  0.11636  1.0000
  H   H307      1.0  0.46883  0.32324  0.03283  1.0000
  C   C252      1.0  0.07617  0.43019  0.01430  1.0000
  C   C253      1.0  0.06680  0.39261  0.10459  1.0000
  H   H308      1.0  0.09052  0.42794  0.09029  1.0000
  C   C254      1.0  0.25966  0.03197  0.02735  1.0000
  H   H309      1.0  0.20400  0.05083  0.07455  1.0000
  C   C255      1.0  0.37358  0.31228  0.07483  1.0000
  C   C256      1.0  0.38602  0.25319  0.06807  1.0000
  C   C257      1.0  0.00808  0.15232  0.10254  1.0000
  H   H310      1.0  0.39421  0.32536  0.06358  1.0000
  C   C258      1.0  0.19718  0.48672  0.02828  1.0000
  C   C259      1.0  0.43770  0.45271  0.06262  1.0000
  C   C260      1.0  0.06443  0.36792  0.98579  1.0000
  N   N20       1.0  0.19192  0.12199  0.98988  1.0000
  C   C261      1.0  0.48118  0.31489  0.02803  1.0000
  C   C262      1.0  0.46385  0.47343  0.16155  1.0000
  H   H311      1.0  0.20859  0.07734  0.07810  1.0000
  H   H312      1.0  0.42042  0.41729  0.13347  1.0000
  C   C263      1.0  0.07758  0.41117  0.99705  1.0000
  C   C264      1.0  0.08567  0.13026  0.01594  1.0000
  H   H313      1.0  0.40507  0.27468  0.05712  1.0000
  H   H314      1.0  0.47689  0.31275  0.07456  1.0000
  C   C265      1.0  0.32520  0.14655  0.11151  1.0000
  H   H315      1.0  0.18410  0.13374  0.01144  1.0000
  C   C266      1.0  0.43073  0.38533  0.10176  1.0000
  H   H316      1.0  0.44727  0.42046  0.07335  1.0000
  N   N21       1.0  0.37304  0.26696  0.07523  1.0000
  C   C267      1.0  0.33651  0.14967  0.11924  1.0000
  C   C268      1.0  0.11425  0.41605  0.01298  1.0000
  H   H317      1.0  0.35363  0.25854  0.06889  1.0000
  H   H318      1.0  0.06363  0.27870  0.15389  1.0000
  H   H319      1.0  0.02873  0.45014  0.11074  1.0000
  S   S84       1.0  0.37660  0.42975  0.15570  1.0000
  N   N22       1.0  0.42581  0.38924  0.11887  1.0000
  C   C269      1.0  0.39586  0.28467  0.06253  1.0000
  C   C270      1.0  0.37913  0.28284  0.07179  1.0000
  H   H320      1.0  0.34659  0.27890  0.07414  1.0000
  H   H321      1.0  0.38105  0.24146  0.07082  1.0000
  H   H322      1.0  0.48076  0.44754  0.18028  1.0000
  C   C271      1.0  0.10476  0.17388  0.13097  1.0000
  C   C272      1.0  0.45632  0.39032  0.11694  1.0000
  C   C273      1.0  0.34243  0.47432  0.06108  1.0000
  H   H323      1.0  0.45315  0.48064  0.15511  1.0000
  H   H324      1.0  0.06875  0.28296  0.02699  1.0000
  H   H325      1.0  0.07029  0.39611  0.09055  1.0000
  H   H326      1.0  0.48248  0.19294  0.99417  1.0000
  H   H327      1.0  0.47107  0.46306  0.15480  1.0000
  C   C274      1.0  0.07069  0.48694  0.17602  1.0000
  H   H328      1.0  0.44681  0.17248  0.01554  1.0000
  H   H329      1.0  0.40424  0.32514  0.99058  1.0000
  H   H330      1.0  0.47923  0.28419  0.04829  1.0000
  C   C275      1.0  0.44941  0.20295  0.99359  1.0000
  C   C276      1.0  0.08703  0.48716  0.17807  1.0000
  H   H331      1.0  0.10253  0.18738  0.13010  1.0000
  H   H332      1.0  0.09087  0.45549  0.17217  1.0000
  H   H333      1.0  0.45703  0.48233  0.11261  1.0000
  H   H334      1.0  0.42309  0.48426  0.14270  1.0000
  H   H335      1.0  0.04474  0.32746  0.01705  1.0000
  H   H336      1.0  0.08955  0.28743  0.01551  1.0000
  H   H337      1.0  0.07986  0.46567  0.15529  1.0000
  C   C277      1.0  0.13634  0.11136  0.98900  1.0000
  H   H338      1.0  0.01544  0.11945  0.13531  1.0000
  H   H339      1.0  0.34267  0.20886  0.99987  1.0000
  H   H340      1.0  0.13072  0.17195  0.11682  1.0000
  C   C278      1.0  0.04678  0.36886  0.99061  1.0000
  H   H341      1.0  0.23621  0.47520  0.00359  1.0000
  C   C279      1.0  0.35694  0.40755  0.98850  1.0000
  H   H342      1.0  0.43959  0.46479  0.05354  1.0000
  H   H343      1.0  0.28876  0.99519  0.03512  1.0000
  C   C280      1.0  0.47469  0.18314  0.00026  1.0000
  H   H344      1.0  0.20647  0.12860  0.00408  1.0000
  H   H345      1.0  0.20652  0.09978  0.00381  1.0000
  C   C281      1.0  0.33690  0.17267  0.99362  1.0000
  H   H346      1.0  0.33293  0.42565  0.99187  1.0000
  H   H347      1.0  0.12561  0.12197  0.98814  1.0000
  H   H348      1.0  0.49294  0.14635  0.11621  1.0000
  H   H349      1.0  0.09576  0.47553  0.18225  1.0000
  C   C282      1.0  0.34960  0.99389  0.13889  1.0000
  C   C283      1.0  0.44987  0.15223  0.13075  1.0000
  C   C284      1.0  0.09435  0.43238  0.98634  1.0000
  C   C285      1.0  0.36573  0.39090  0.99371  1.0000
  H   H350      1.0  0.46721  0.30067  0.05908  1.0000
  H   H351      1.0  0.38203  0.99000  0.08858  1.0000
  H   H352      1.0  0.47764  0.14939  0.17782  1.0000
  H   H353      1.0  0.22687  0.11542  0.98576  1.0000
  H   H354      1.0  0.09584  0.38467  0.01184  1.0000
  C   C286      1.0  0.07042  0.29061  0.99170  1.0000
  C   C287      1.0  0.33397  0.18683  0.00052  1.0000
  H   H355      1.0  0.43482  0.46172  0.17647  1.0000
  H   H356      1.0  0.36900  0.26622  0.98672  1.0000
  H   H357      1.0  0.43511  0.47876  0.07394  1.0000
  H   H358      1.0  0.37701  0.28997  0.98917  1.0000
  H   H359      1.0  0.17512  0.07341  0.99176  1.0000
  H   H360      1.0  0.48681  0.28728  0.06494  1.0000
  H   H361      1.0  0.37271  0.14062  0.98779  1.0000
  C   C288      1.0  0.33568  0.00392  0.11515  1.0000
  C   C289      1.0  0.34475  0.19824  0.99405  1.0000
  H   H362      1.0  0.19284  0.09554  0.99294  1.0000
  H   H363      1.0  0.19391  0.14631  0.99205  1.0000
  H   H364      1.0  0.41859  0.15873  0.18212  1.0000
  Fe  Fe46      1.0  0.05031  0.05505  0.18273  1.0000
  C   C290      1.0  0.17404  0.12768  0.98743  1.0000
  C   C291      1.0  0.44669  0.45488  0.18116  1.0000
  H   H365      1.0  0.03796  0.48001  0.18386  1.0000
  H   H366      1.0  0.37512  0.48418  0.18318  1.0000
  H   H367      1.0  0.38318  0.07837  0.18231  1.0000
  C   C292      1.0  0.49781  0.34464  0.06246  1.0000
  C   C293      1.0  0.20482  0.48827  0.99839  1.0000
  C   C294      1.0  0.05818  0.32069  0.98519  1.0000
  H   H368      1.0  0.45663  0.21302  0.98638  1.0000
  H   H369      1.0  0.43760  0.20569  0.98868  1.0000
  H   H370      1.0  0.45335  0.31428  0.98546  1.0000
  H   H371      1.0  0.49425  0.40700  0.35680  1.0000
  H   H372      1.0  0.46284  0.12660  0.23561  1.0000
  S   S85       1.0  0.03725  0.08697  0.22744  1.0000
  H   H373      1.0  0.47643  0.46548  0.29012  1.0000
  C   C295      1.0  0.45331  0.16147  0.33471  1.0000
  H   H374      1.0  0.08999  0.01190  0.36075  1.0000
  H   H375      1.0  0.37471  0.48632  0.20363  1.0000
  H   H376      1.0  0.08473  0.00949  0.30045  1.0000
  S   S86       1.0  0.39345  0.47091  0.24542  1.0000
  Fe  Fe47      1.0  0.07170  0.06838  0.34311  1.0000
  S   S87       1.0  0.08218  0.08936  0.32356  1.0000
  S   S88       1.0  0.08673  0.04791  0.36011  1.0000
  Fe  Fe48      1.0  0.03660  0.08017  0.33446  1.0000
  S   S89       1.0  0.04405  0.10230  0.31439  1.0000
  H   H377      1.0  0.45874  0.14224  0.29612  1.0000
  Fe  Fe49      1.0  0.06831  0.08372  0.30690  1.0000
  S   S90       1.0  0.08141  0.07921  0.28078  1.0000
  Fe  Fe50      1.0  0.05696  0.10584  0.33314  1.0000
  S   S91       1.0  0.05100  0.13130  0.34027  1.0000
  S   S92       1.0  0.06001  0.06136  0.32581  1.0000
  S   S93       1.0  0.04748  0.08508  0.35381  1.0000
  S   S94       1.0  0.40242  0.36926  0.35510  1.0000
  H   H378      1.0  0.38411  0.03816  0.25521  1.0000
  S   S95       1.0  0.27539  0.42879  0.36493  1.0000
  H   H379      1.0  0.47987  0.12368  0.35126  1.0000
  H   H380      1.0  0.40360  0.48548  0.28824  1.0000
  Fe  Fe51      1.0  0.03132  0.33847  0.37920  1.0000
  C   C296      1.0  0.49434  0.38856  0.38031  1.0000
  H   H381      1.0  0.48465  0.02716  0.33758  1.0000
  C   C297      1.0  0.46871  0.24809  0.37788  1.0000
  Fe  Fe52      1.0  0.29262  0.44427  0.36717  1.0000
  S   S96       1.0  0.32081  0.44227  0.35545  1.0000
  H   H382      1.0  0.45778  0.10381  0.22747  1.0000
  H   H383      1.0  0.11183  0.39008  0.36866  1.0000
  Fe  Fe53      1.0  0.39757  0.44966  0.23243  1.0000
  H   H384      1.0  0.41512  0.13341  0.25583  1.0000
  S   S97       1.0  0.40354  0.45796  0.20386  1.0000
  Fe  Fe54      1.0  0.39804  0.42347  0.26584  1.0000
  S   S98       1.0  0.39500  0.44270  0.28097  1.0000
  S   S99       1.0  0.39895  0.39581  0.27785  1.0000
  Fe  Fe55      1.0  0.37497  0.45779  0.26620  1.0000
  C   C298      1.0  0.40017  0.04751  0.22137  1.0000
  Fe  Fe56      1.0  0.41375  0.45390  0.25887  1.0000
  H   H385      1.0  0.47676  0.16965  0.34819  1.0000
  S   S100      1.0  0.37708  0.43804  0.25191  1.0000
  S   S101      1.0  0.41875  0.43321  0.24501  1.0000
  H   H386      1.0  0.45359  0.11962  0.25720  1.0000
  S   S102      1.0  0.45961  0.45679  0.32521  1.0000
  C   C299      1.0  0.45729  0.14768  0.30685  1.0000
  C   C300      1.0  0.02370  0.45490  0.22081  1.0000
  Fe  Fe57      1.0  0.40945  0.08401  0.31054  1.0000
  S   S103      1.0  0.39344  0.09737  0.29128  1.0000
  S   S104      1.0  0.42369  0.09614  0.32149  1.0000
  Fe  Fe58      1.0  0.40171  0.04970  0.31349  1.0000
  S   S105      1.0  0.38490  0.06019  0.29463  1.0000
  S   S106      1.0  0.40521  0.02216  0.32650  1.0000
  Fe  Fe59      1.0  0.40529  0.07460  0.27977  1.0000
  S   S107      1.0  0.41814  0.07481  0.25248  1.0000
  Fe  Fe60      1.0  0.37465  0.08175  0.30811  1.0000
  S   S108      1.0  0.34667  0.09350  0.31525  1.0000
  S   S109      1.0  0.42299  0.06235  0.29773  1.0000
  S   S110      1.0  0.38985  0.07009  0.32820  1.0000
  Fe  Fe61      1.0  0.38016  0.20731  0.37292  1.0000
  S   S111      1.0  0.36784  0.23522  0.36911  1.0000
  Fe  Fe62      1.0  0.39066  0.17826  0.35460  1.0000
  S   S112      1.0  0.38909  0.17079  0.33144  1.0000
  S   S113      1.0  0.36614  0.18854  0.37132  1.0000
  S   S114      1.0  0.40387  0.19837  0.35433  1.0000
  H   H387      1.0  0.16711  0.10534  0.35390  1.0000
  H   H388      1.0  0.47869  0.40248  0.33796  1.0000
  H   H389      1.0  0.44262  0.44795  0.19435  1.0000
  Fe  Fe63      1.0  0.03882  0.45452  0.27116  1.0000
  S   S115      1.0  0.03831  0.46096  0.24338  1.0000
  Fe  Fe64      1.0  0.05930  0.44337  0.29903  1.0000
  S   S116      1.0  0.03687  0.45303  0.31833  1.0000
  S   S117      1.0  0.08444  0.42962  0.30632  1.0000
  Fe  Fe65      1.0  0.02253  0.44079  0.30768  1.0000
  S   S118      1.0  0.04527  0.42980  0.28942  1.0000
  C   C301      1.0  0.02609  0.36948  0.34404  1.0000
  C   C302      1.0  0.03206  0.37776  0.32744  1.0000
  C   C303      1.0  0.02546  0.39507  0.32178  1.0000
  H   H390      1.0  0.04197  0.37082  0.31896  1.0000
  H   H391      1.0  0.03009  0.40130  0.30893  1.0000
  C   C304      1.0  0.09814  0.44610  0.34755  1.0000
  C   C305      1.0  0.10734  0.43107  0.34243  1.0000
  C   C306      1.0  0.10310  0.42615  0.32970  1.0000
  C   C307      1.0  0.08954  0.43615  0.32214  1.0000
  C   C308      1.0  0.08024  0.45109  0.32737  1.0000
  C   C309      1.0  0.08458  0.45607  0.34001  1.0000
  H   H392      1.0  0.11786  0.42331  0.34806  1.0000
  H   H393      1.0  0.11029  0.41454  0.32575  1.0000
  H   H394      1.0  0.06983  0.45887  0.32156  1.0000
  H   H395      1.0  0.07737  0.46763  0.34402  1.0000
  C   C310      1.0  0.01223  0.43007  0.22497  1.0000
  C   C311      1.0  0.01589  0.42450  0.24114  1.0000
  C   C312      1.0  0.02358  0.43403  0.24711  1.0000
  C   C313      1.0  0.02768  0.44918  0.23684  1.0000
  C   C314      1.0  0.01613  0.44532  0.21481  1.0000
  H   H396      1.0  0.02670  0.42948  0.25946  1.0000
  C   C315      1.0  0.33707  0.08639  0.33651  1.0000
  C   C316      1.0  0.34480  0.07130  0.34610  1.0000
  C   C317      1.0  0.33659  0.06518  0.36273  1.0000
  C   C318      1.0  0.32133  0.09567  0.34384  1.0000
  H   H397      1.0  0.35679  0.06400  0.34050  1.0000
  Fe  Fe66      1.0  0.03171  0.47560  0.29728  1.0000
  H   H398      1.0  0.31527  0.10736  0.33646  1.0000
  C   C319      1.0  0.41340  0.11660  0.32475  1.0000
  C   C320      1.0  0.41776  0.12283  0.33648  1.0000
  C   C321      1.0  0.40997  0.13927  0.33901  1.0000
  C   C322      1.0  0.39817  0.14973  0.32946  1.0000
  C   C323      1.0  0.39388  0.14350  0.31768  1.0000
  C   C324      1.0  0.40128  0.12689  0.31551  1.0000
  H   H399      1.0  0.42724  0.11496  0.34355  1.0000
  H   H400      1.0  0.41365  0.14402  0.34785  1.0000
  H   H401      1.0  0.38488  0.15156  0.31015  1.0000
  H   H402      1.0  0.39790  0.12228  0.30637  1.0000
  C   C325      1.0  0.14878  0.44959  0.34479  1.0000
  C   C326      1.0  0.42337  0.00485  0.28335  1.0000
  C   C327      1.0  0.41857  0.01529  0.29503  1.0000
  C   C328      1.0  0.41123  0.00912  0.31187  1.0000
  H   H403      1.0  0.11620  0.02279  0.35330  1.0000
  H   H404      1.0  0.10653  0.48726  0.35935  1.0000
  H   H405      1.0  0.42938  0.00951  0.27042  1.0000
  H   H406      1.0  0.42075  0.02805  0.29102  1.0000
  H   H407      1.0  0.03315  0.05270  0.26911  1.0000
  C   C329      1.0  0.08902  0.14551  0.36188  1.0000
  C   C330      1.0  0.44321  0.46095  0.27653  1.0000
  C   C331      1.0  0.43245  0.45638  0.29219  1.0000
  C   C332      1.0  0.43743  0.45541  0.30713  1.0000
  C   C333      1.0  0.45336  0.45850  0.30643  1.0000
  C   C334      1.0  0.46417  0.46293  0.29075  1.0000
  H   H408      1.0  0.39703  0.05313  0.25305  1.0000
  H   H409      1.0  0.42021  0.45386  0.29280  1.0000
  H   H410      1.0  0.42897  0.45216  0.31924  1.0000
  C   C335      1.0  0.46955  0.15146  0.32870  1.0000
  H   H411      1.0  0.08490  0.40859  0.36380  1.0000
  H   H412      1.0  0.03086  0.02096  0.32531  1.0000
  C   C336      1.0  0.47876  0.00939  0.31566  1.0000
  H   H413      1.0  0.05503  0.41774  0.37295  1.0000
  C   C337      1.0  0.47159  0.03398  0.33779  1.0000
  Fe  Fe67      1.0  0.05142  0.07987  0.20245  1.0000
  C   C338      1.0  0.02350  0.27819  0.37176  1.0000
  H   H414      1.0  0.16691  0.47215  0.34261  1.0000
  H   H415      1.0  0.06792  0.16541  0.36930  1.0000
  H   H416      1.0  0.46874  0.45075  0.20072  1.0000
  C   C339      1.0  0.32806  0.45107  0.33397  1.0000
  C   C340      1.0  0.31680  0.46111  0.32363  1.0000
  C   C341      1.0  0.46754  0.42276  0.27495  1.0000
  C   C342      1.0  0.34091  0.46391  0.29952  1.0000
  C   C343      1.0  0.35208  0.45421  0.31003  1.0000
  C   C344      1.0  0.34570  0.44800  0.32720  1.0000
  H   H417      1.0  0.06658  0.01565  0.21677  1.0000
  H   H418      1.0  0.44344  0.16325  0.18977  1.0000
  H   H419      1.0  0.36567  0.45163  0.30502  1.0000
  H   H420      1.0  0.35454  0.44072  0.33521  1.0000
  H   H421      1.0  0.36701  0.27055  0.35733  1.0000
  Fe  Fe68      1.0  0.25417  0.45156  0.36953  1.0000
  C   C345      1.0  0.43627  0.15408  0.19822  1.0000
  H   H422      1.0  0.00910  0.10770  0.33853  1.0000
  H   H423      1.0  0.08753  0.03940  0.28881  1.0000
  C   C346      1.0  0.40155  0.37641  0.33364  1.0000
  C   C347      1.0  0.39755  0.36649  0.32499  1.0000
  C   C348      1.0  0.39703  0.37249  0.30780  1.0000
  C   C349      1.0  0.40013  0.38858  0.29928  1.0000
  C   C350      1.0  0.40391  0.39858  0.30802  1.0000
  C   C351      1.0  0.40478  0.39244  0.32511  1.0000
  H   H424      1.0  0.39518  0.35406  0.33143  1.0000
  H   H425      1.0  0.39417  0.36467  0.30108  1.0000
  H   H426      1.0  0.40641  0.41093  0.30160  1.0000
  H   H427      1.0  0.40765  0.40025  0.33181  1.0000
  C   C352      1.0  0.06588  0.13652  0.34846  1.0000
  C   C353      1.0  0.08276  0.12721  0.34727  1.0000
  C   C354      1.0  0.09433  0.13186  0.35373  1.0000
  C   C355      1.0  0.06064  0.15034  0.35640  1.0000
  H   H428      1.0  0.08698  0.11659  0.34111  1.0000
  H   H429      1.0  0.04765  0.15768  0.35731  1.0000
  C   C356      1.0  0.09852  0.05699  0.36818  1.0000
  C   C357      1.0  0.09705  0.07452  0.36397  1.0000
  C   C358      1.0  0.10627  0.08189  0.37050  1.0000
  C   C359      1.0  0.33615  0.12689  0.37043  1.0000
  H   H430      1.0  0.08854  0.08251  0.35595  1.0000
  H   H431      1.0  0.10513  0.09543  0.36709  1.0000
  H   H432      1.0  0.00856  0.03238  0.30857  1.0000
  H   H433      1.0  0.49431  0.16854  0.31851  1.0000
  C   C360      1.0  0.11670  0.07181  0.38159  1.0000
  N   N23       1.0  0.05677  0.39953  0.35849  1.0000
  H   H434      1.0  0.29748  0.36856  0.36042  1.0000
  H   H435      1.0  0.05009  0.00775  0.30614  1.0000
  H   H436      1.0  0.01632  0.09427  0.30806  1.0000
  C   C361      1.0  0.00633  0.39575  0.34909  1.0000
  H   H437      1.0  0.47446  0.42126  0.32232  1.0000
  C   C362      1.0  0.47699  0.40718  0.32469  1.0000
  C   C363      1.0  0.38655  0.43707  0.19747  1.0000
  H   H438      1.0  0.00792  0.37215  0.36738  1.0000
  C   C364      1.0  0.44743  0.48026  0.18920  1.0000
  H   H439      1.0  0.38366  0.43208  0.21097  1.0000
  C   C365      1.0  0.39020  0.10503  0.21010  1.0000
  C   C366      1.0  0.38150  0.10402  0.22705  1.0000
  C   C367      1.0  0.38991  0.09474  0.24021  1.0000
  C   C368      1.0  0.40704  0.08637  0.23642  1.0000
  C   C369      1.0  0.41571  0.08735  0.21947  1.0000
  C   C370      1.0  0.40735  0.09670  0.20634  1.0000
  H   H440      1.0  0.36822  0.11046  0.22999  1.0000
  H   H441      1.0  0.38314  0.09410  0.25325  1.0000
  H   H442      1.0  0.42902  0.08103  0.21640  1.0000
  H   H443      1.0  0.44825  0.40457  0.34683  1.0000
  C   C371      1.0  0.15599  0.10541  0.36483  1.0000
  H   H444      1.0  0.37874  0.48093  0.28165  1.0000
  H   H445      1.0  0.43574  0.40353  0.33309  1.0000
  C   C372      1.0  0.04967  0.08499  0.24206  1.0000
  C   C373      1.0  0.04187  0.09081  0.25705  1.0000
  C   C374      1.0  0.05153  0.08929  0.26894  1.0000
  C   C375      1.0  0.06898  0.08175  0.26598  1.0000
  C   C376      1.0  0.07675  0.07592  0.25100  1.0000
  C   C377      1.0  0.06713  0.07755  0.23905  1.0000
  H   H446      1.0  0.02839  0.09669  0.25937  1.0000
  H   H447      1.0  0.04550  0.09402  0.28035  1.0000
  H   H448      1.0  0.09027  0.07018  0.24860  1.0000
  H   H449      1.0  0.07325  0.07309  0.22750  1.0000
  H   H450      1.0  0.43725  0.21123  0.36471  1.0000
  C   C378      1.0  0.44132  0.14458  0.21320  1.0000
  N   N24       1.0  0.46277  0.40143  0.32194  1.0000
  H   H451      1.0  0.41254  0.00943  0.24730  1.0000
  N   N25       1.0  0.43770  0.12144  0.24001  1.0000
  C   C379      1.0  0.31295  0.35940  0.37917  1.0000
  S   S119      1.0  0.48378  0.11639  0.20269  1.0000
  H   H452      1.0  0.42579  0.05130  0.23163  1.0000
  H   H453      1.0  0.41575  0.01403  0.22482  1.0000
  C   C380      1.0  0.02407  0.30641  0.35458  1.0000
  H   H454      1.0  0.02639  0.46681  0.21303  1.0000
  C   C381      1.0  0.09102  0.01527  0.30640  1.0000
  C   C382      1.0  0.40254  0.05707  0.19064  1.0000
  H   H455      1.0  0.44078  0.46286  0.21339  1.0000
  S   S120      1.0  0.01481  0.46442  0.28868  1.0000
  N   N26       1.0  0.48440  0.14799  0.33657  1.0000
  H   H456      1.0  0.42726  0.17201  0.33169  1.0000
  H   H457      1.0  0.48062  0.46598  0.18713  1.0000
  H   H458      1.0  0.40252  0.13740  0.20094  1.0000
  H   H459      1.0  0.34994  0.04729  0.31294  1.0000
  S   S121      1.0  0.36074  0.36071  0.38298  1.0000
  H   H460      1.0  0.06610  0.12102  0.38365  1.0000
  H   H461      1.0  0.36757  0.08115  0.21112  1.0000
  H   H462      1.0  0.04382  0.40860  0.33769  1.0000
  C   C383      1.0  0.09535  0.99576  0.22438  1.0000
  C   C384      1.0  0.04923  0.01485  0.29348  1.0000
  C   C385      1.0  0.49032  0.12944  0.34218  1.0000
  C   C386      1.0  0.04780  0.03080  0.25993  1.0000
  H   H463      1.0  0.03070  0.06722  0.28829  1.0000
  H   H464      1.0  0.36851  0.14757  0.36092  1.0000
  C   C387      1.0  0.05640  0.01396  0.26381  1.0000
  C   C388      1.0  0.10711  0.03022  0.32182  1.0000
  C   C389      1.0  0.45985  0.11210  0.18831  1.0000
  H   H465      1.0  0.47502  0.43107  0.26540  1.0000
  H   H466      1.0  0.42359  0.48467  0.22870  1.0000
  H   H467      1.0  0.31711  0.28173  0.36963  1.0000
  C   C390      1.0  0.39745  0.03995  0.25248  1.0000
  H   H468      1.0  0.07723  0.45869  0.20099  1.0000
  C   C391      1.0  0.03563  0.03291  0.32017  1.0000
  C   C392      1.0  0.00769  0.11773  0.34537  1.0000
  C   C393      1.0  0.42950  0.48833  0.21548  1.0000
  H   H469      1.0  0.47983  0.48502  0.22059  1.0000
  H   H470      1.0  0.12609  0.11822  0.38172  1.0000
  C   C394      1.0  0.37885  0.07105  0.20938  1.0000
  S   S122      1.0  0.03450  0.08087  0.18526  1.0000
  H   H471      1.0  0.11262  0.03700  0.32743  1.0000
  H   H472      1.0  0.00518  0.07516  0.22496  1.0000
  H   H473      1.0  0.34488  0.11809  0.33733  1.0000
  H   H474      1.0  0.17225  0.44096  0.31759  1.0000
  H   H475      1.0  0.33977  0.31091  0.37737  1.0000
  C   C395      1.0  0.42941  0.25862  0.36581  1.0000
  H   H476      1.0  0.09041  0.99242  0.35554  1.0000
  C   C396      1.0  0.21682  0.44879  0.36440  1.0000
  H   H477      1.0  0.37338  0.02344  0.30724  1.0000
  H   H478      1.0  0.43411  0.03274  0.22301  1.0000
  Fe  Fe69      1.0  0.00302  0.42527  0.18991  1.0000
  C   C397      1.0  0.42229  0.15155  0.19386  1.0000
  C   C398      1.0  0.41807  0.13012  0.21956  1.0000
  C   C399      1.0  0.46038  0.40705  0.30429  1.0000
  H   H479      1.0  0.17679  0.47380  0.32031  1.0000
  C   C400      1.0  0.45045  0.05965  0.34166  1.0000
  N   N27       1.0  0.35204  0.13218  0.35977  1.0000
  H   H480      1.0  0.00440  0.15205  0.31309  1.0000
  H   H481      1.0  0.05624  0.38738  0.33914  1.0000
  H   H482      1.0  0.44846  0.09499  0.24890  1.0000
  H   H483      1.0  0.35310  0.16571  0.34137  1.0000
  H   H484      1.0  0.05569  0.29251  0.37661  1.0000
  S   S123      1.0  0.43969  0.17408  0.38015  1.0000
  H   H485      1.0  0.37325  0.42124  0.19178  1.0000
  C   C401      1.0  0.17053  0.46564  0.33186  1.0000
  C   C402      1.0  0.40866  0.04611  0.20454  1.0000
  H   H486      1.0  0.33390  0.48684  0.32700  1.0000
  H   H487      1.0  0.01315  0.41256  0.24886  1.0000
  S   S124      1.0  0.13766  0.40981  0.37324  1.0000
  H   H488      1.0  0.18428  0.09835  0.37394  1.0000
  H   H489      1.0  0.13913  0.44364  0.34309  1.0000
  H   H490      1.0  0.46729  0.46806  0.26370  1.0000
  S   S125      1.0  0.00240  0.41802  0.21788  1.0000
  H   H491      1.0  0.07174  0.28552  0.33230  1.0000
  H   H492      1.0  0.45269  0.14669  0.21540  1.0000
  C   C403      1.0  0.19905  0.45456  0.36596  1.0000
  H   H493      1.0  0.02073  0.11819  0.34607  1.0000
  H   H494      1.0  0.13786  0.13441  0.35255  1.0000
  H   H495      1.0  0.31923  0.02287  0.34381  1.0000
  C   C404      1.0  0.22388  0.43144  0.36683  1.0000
  C   C405      1.0  0.05766  0.28974  0.33659  1.0000
  H   H496      1.0  0.44551  0.14083  0.24654  1.0000
  C   C406      1.0  0.46712  0.05022  0.34113  1.0000
  H   H497      1.0  0.06674  0.40485  0.33163  1.0000
  H   H498      1.0  0.12428  0.46143  0.32374  1.0000
  C   C407      1.0  0.45946  0.02670  0.33478  1.0000
  C   C408      1.0  0.04035  0.03206  0.28997  1.0000
  H   H499      1.0  0.09571  0.99303  0.32540  1.0000
  C   C409      1.0  0.48062  0.15559  0.35156  1.0000
  H   H500      1.0  0.14282  0.14766  0.36282  1.0000
  H   H501      1.0  0.31456  0.47533  0.29842  1.0000
  H   H502      1.0  0.44357  0.42232  0.32994  1.0000
  H   H503      1.0  0.09328  0.02146  0.18586  1.0000
  H   H504      1.0  0.15945  0.13739  0.34782  1.0000
  H   H505      1.0  0.20723  0.10235  0.38395  1.0000
  C   C410      1.0  0.10615  0.01294  0.32859  1.0000
  S   S126      1.0  0.37931  0.11644  0.19386  1.0000
  H   H506      1.0  0.01325  0.44977  0.20238  1.0000
  C   C411      1.0  0.16659  0.12239  0.37812  1.0000
  H   H507      1.0  0.48947  0.40249  0.31651  1.0000
  H   H508      1.0  0.47777  0.37709  0.31782  1.0000
  H   H509      1.0  0.41408  0.11313  0.25325  1.0000
  H   H510      1.0  0.42666  0.11393  0.26670  1.0000
  C   C412      1.0  0.11288  0.48769  0.31903  1.0000
  H   H511      1.0  0.41414  0.09740  0.19332  1.0000
  C   C413      1.0  0.46650  0.38264  0.32685  1.0000
  S   S127      1.0  0.23021  0.46326  0.35930  1.0000
  H   H512      1.0  0.06367  0.42393  0.35048  1.0000
  H   H513      1.0  0.33681  0.26950  0.37515  1.0000
  H   H514      1.0  0.02977  0.40075  0.36918  1.0000
  H   H515      1.0  0.00922  0.14879  0.34730  1.0000
  N   N28       1.0  0.15548  0.46125  0.32912  1.0000
  S   S128      1.0  0.40130  0.15982  0.37578  1.0000
  H   H516      1.0  0.06388  0.99293  0.28355  1.0000
  H   H517      1.0  0.05101  0.48540  0.31467  1.0000
  C   C414      1.0  0.01308  0.37850  0.35479  1.0000
  S   S129      1.0  0.27194  0.46778  0.36900  1.0000
  H   H518      1.0  0.09542  0.02532  0.20477  1.0000
  H   H519      1.0  0.00563  0.05171  0.31540  1.0000
  C   C415      1.0  0.37950  0.27750  0.37299  1.0000
  C   C416      1.0  0.44375  0.22941  0.37437  1.0000
  S   S130      1.0  0.43666  0.46396  0.25760  1.0000
  H   H520      1.0  0.20187  0.01216  0.37756  1.0000
  H   H521      1.0  0.30105  0.09683  0.36615  1.0000
  S   S131      1.0  0.01080  0.07323  0.34177  1.0000
  H   H522      1.0  0.47028  0.15068  0.36172  1.0000
  C   C417      1.0  0.45495  0.41765  0.27075  1.0000
  Fe  Fe70      1.0  0.35313  0.33995  0.37695  1.0000
  C   C418      1.0  0.47723  0.11124  0.18690  1.0000
  N   N29       1.0  0.46467  0.00960  0.33092  1.0000
  C   C419      1.0  0.37192  0.00206  0.29923  1.0000
  H   H523      1.0  0.02929  0.26533  0.37702  1.0000
  H   H524      1.0  0.43527  0.40326  0.27966  1.0000
  H   H525      1.0  0.03180  0.06501  0.30940  1.0000
  H   H526      1.0  0.42029  0.03672  0.20199  1.0000
  N   N30       1.0  0.34390  0.39397  0.33624  1.0000
  C   C420      1.0  0.34953  0.37632  0.33368  1.0000
  C   C421      1.0  0.35815  0.39866  0.34004  1.0000
  C   C422      1.0  0.32963  0.39416  0.35137  1.0000
  C   C423      1.0  0.33922  0.40575  0.32074  1.0000
  C   C424      1.0  0.32319  0.41743  0.32078  1.0000
  C   C425      1.0  0.35115  0.40615  0.30501  1.0000
  C   C426      1.0  0.31947  0.42865  0.30591  1.0000
  C   C427      1.0  0.34728  0.41738  0.29027  1.0000
  C   C428      1.0  0.33153  0.42872  0.29071  1.0000
  H   H527      1.0  0.36110  0.37456  0.32344  1.0000
  H   H528      1.0  0.35296  0.36715  0.34520  1.0000
  H   H529      1.0  0.33922  0.37238  0.33054  1.0000
  H   H530      1.0  0.35416  0.41155  0.34279  1.0000
  H   H531      1.0  0.36934  0.39881  0.32924  1.0000
  H   H532      1.0  0.36280  0.38960  0.35106  1.0000
  H   H533      1.0  0.31841  0.39091  0.34921  1.0000
  H   H534      1.0  0.33336  0.38472  0.36262  1.0000
  H   H535      1.0  0.32546  0.40672  0.35491  1.0000
  H   H536      1.0  0.31343  0.41843  0.33215  1.0000
  H   H537      1.0  0.36373  0.39794  0.30393  1.0000
  H   H538      1.0  0.30732  0.43768  0.30624  1.0000
  H   H539      1.0  0.35668  0.41734  0.27848  1.0000
  H   H540      1.0  0.32879  0.43774  0.27931  1.0000
  H   H541      1.0  0.15136  0.44707  0.31317  1.0000
  H   H542      1.0  0.45080  0.16716  0.34544  1.0000
  C   C429      1.0  0.32082  0.07435  0.37002  1.0000
  H   H543      1.0  0.05733  0.26339  0.37510  1.0000
  S   S132      1.0  0.05542  0.46690  0.27881  1.0000
  C   C430      1.0  0.18211  0.10991  0.37821  1.0000
  C   C431      1.0  0.01266  0.40414  0.33265  1.0000
  H   H544      1.0  0.23756  0.42689  0.36556  1.0000
  H   H545      1.0  0.45273  0.42194  0.25802  1.0000
  H   H546      1.0  0.43078  0.15970  0.30725  1.0000
  H   H547      1.0  0.47500  0.01947  0.30478  1.0000
  H   H548      1.0  0.33266  0.11738  0.36577  1.0000
  H   H549      1.0  0.40329  0.03153  0.26308  1.0000
  H   H550      1.0  0.99965  0.32392  0.35539  1.0000
  H   H551      1.0  0.45061  0.11510  0.19939  1.0000
  C   C432      1.0  0.32326  0.46767  0.30645  1.0000
  C   C433      1.0  0.05723  0.00608  0.28052  1.0000
  S   S133      1.0  0.32919  0.34662  0.36705  1.0000
  H   H552      1.0  0.36323  0.10704  0.35475  1.0000
  C   C434      1.0  0.28626  0.38041  0.38178  1.0000
  H   H553      1.0  0.10943  0.99172  0.22342  1.0000
  H   H554      1.0  0.42521  0.06024  0.33942  1.0000
  C   C435      1.0  0.05971  0.26724  0.36108  1.0000
  H   H555      1.0  0.15908  0.43893  0.34920  1.0000
  C   C436      1.0  0.42101  0.25354  0.35635  1.0000
  H   H556      1.0  0.07375  0.29249  0.35920  1.0000
  S   S134      1.0  0.03975  0.03209  0.18611  1.0000
  N   N31       1.0  0.11297  0.00275  0.34366  1.0000
  H   H557      1.0  0.05581  0.47067  0.20595  1.0000
  C   C437      1.0  0.41323  0.13958  0.20450  1.0000
  H   H558      1.0  0.34601  0.15474  0.36968  1.0000
  H   H559      1.0  0.41088  0.12071  0.22707  1.0000
  H   H560      1.0  0.05057  0.05696  0.29486  1.0000
  C   C438      1.0  0.43223  0.13235  0.22447  1.0000
  H   H561      1.0  0.34651  0.29488  0.36556  1.0000
  H   H562      1.0  0.45554  0.37728  0.32720  1.0000
  H   H563      1.0  0.00091  0.11347  0.35857  1.0000
  C   C439      1.0  0.47249  0.45736  0.18733  1.0000
  C   C440      1.0  0.44509  0.40722  0.28299  1.0000
  H   H564      1.0  0.14245  0.45648  0.35518  1.0000
  H   H565      1.0  0.43045  0.03094  0.24522  1.0000
  H   H566      1.0  0.49496  0.12281  0.33149  1.0000
  C   C441      1.0  0.19549  0.11203  0.38398  1.0000
  C   C442      1.0  0.09260  0.03203  0.29983  1.0000
  H   H567      1.0  0.04730  0.99651  0.18587  1.0000
  C   C443      1.0  0.04246  0.39236  0.37057  1.0000
  H   H568      1.0  0.11257  0.01170  0.19357  1.0000
  H   H569      1.0  0.31402  0.48240  0.35208  1.0000
  H   H570      1.0  0.00033  0.07816  0.25191  1.0000
  H   H571      1.0  0.34246  0.05334  0.37003  1.0000
  C   C444      1.0  0.43817  0.05280  0.33902  1.0000
  H   H572      1.0  0.34903  0.17791  0.31291  1.0000
  S   S135      1.0  0.06594  0.05340  0.20117  1.0000
  C   C445      1.0  0.09756  0.00587  0.32064  1.0000
  H   H573      1.0  0.10149  0.05263  0.30258  1.0000
  H   H574      1.0  0.45256  0.21958  0.38097  1.0000
  H   H575      1.0  0.10113  0.48556  0.31751  1.0000
  C   C446      1.0  0.44156  0.15752  0.31306  1.0000
  C   C447      1.0  0.31331  0.08977  0.36066  1.0000
  H   H576      1.0  0.33398  0.05265  0.33081  1.0000
  H   H577      1.0  0.43976  0.39391  0.30854  1.0000
  H   H578      1.0  0.48313  0.13714  0.30905  1.0000
  H   H579      1.0  0.05126  0.28360  0.33062  1.0000
  C   C448      1.0  0.09838  0.01526  0.19749  1.0000
  H   H580      1.0  0.43231  0.03225  0.33359  1.0000
  H   H581      1.0  0.46936  0.37796  0.33972  1.0000
  S   S136      1.0  0.10381  0.15067  0.37024  1.0000
  C   C449      1.0  0.35029  0.15763  0.33494  1.0000
  C   C450      1.0  0.47113  0.14475  0.31443  1.0000
  C   C451      1.0  0.05417  0.41727  0.36013  1.0000
  H   H582      1.0  0.44558  0.01279  0.31662  1.0000
  C   C452      1.0  0.00995  0.13929  0.32002  1.0000
  N   N32       1.0  0.15225  0.12079  0.37182  1.0000
  C   C453      1.0  0.00571  0.28302  0.37693  1.0000
  H   H583      1.0  0.12941  0.00285  0.35961  1.0000
  C   C454      1.0  0.16160  0.45209  0.31510  1.0000
  C   C455      1.0  0.44250  0.03661  0.33561  1.0000
  C   C456      1.0  0.03641  0.05837  0.29874  1.0000
  H   H584      1.0  0.10293  0.99243  0.36983  1.0000
  H   H585      1.0  0.49065  0.01139  0.31776  1.0000
  C   C457      1.0  0.03326  0.28982  0.36043  1.0000
  H   H586      1.0  0.27542  0.38825  0.37658  1.0000
  S   S137      1.0  0.18307  0.41035  0.37686  1.0000
  S   S138      1.0  0.03491  0.34789  0.35097  1.0000
  H   H587      1.0  0.34291  0.16099  0.29620  1.0000
  H   H588      1.0  0.36638  0.01364  0.34603  1.0000
  C   C458      1.0  0.06454  0.46225  0.19755  1.0000
  H   H589      1.0  0.17467  0.44733  0.37168  1.0000
  C   C459      1.0  0.05582  0.40008  0.34102  1.0000
  C   C460      1.0  0.42371  0.23651  0.35609  1.0000
  H   H590      1.0  0.06794  0.00940  0.19779  1.0000
  H   H591      1.0  0.19358  0.46801  0.36397  1.0000
  C   C461      1.0  0.32398  0.27695  0.38022  1.0000
  H   H592      1.0  0.18059  0.45413  0.33506  1.0000
  H   H593      1.0  0.32923  0.04259  0.31694  1.0000
  C   C462      1.0  0.12623  0.47392  0.32266  1.0000
  H   H594      1.0  0.43970  0.00333  0.33880  1.0000
  C   C463      1.0  0.47084  0.99698  0.34535  1.0000
  H   H595      1.0  0.03059  0.31613  0.34638  1.0000
  C   C464      1.0  0.00324  0.09288  0.31174  1.0000
  C   C465      1.0  0.05951  0.29540  0.36256  1.0000
  C   C466      1.0  0.34241  0.00025  0.32476  1.0000
  H   H596      1.0  0.04966  0.03006  0.31949  1.0000
  Fe  Fe71      1.0  0.38721  0.34955  0.37037  1.0000
  C   C467      1.0  0.44688  0.40822  0.33343  1.0000
  H   H597      1.0  0.32507  0.13794  0.37080  1.0000
  S   S139      1.0  0.00378  0.42568  0.32574  1.0000
  Fe  Fe72      1.0  0.48811  0.45315  0.32126  1.0000
  C   C468      1.0  0.03982  0.03973  0.27279  1.0000
  C   C469      1.0  0.43948  0.47592  0.20656  1.0000
  C   C470      1.0  0.33097  0.02226  0.34807  1.0000
  H   H598      1.0  0.10743  0.12477  0.35248  1.0000
  H   H599      1.0  0.21900  0.40651  0.37174  1.0000
  H   H600      1.0  0.43721  0.09914  0.23237  1.0000
  C   C471      1.0  0.10057  0.03947  0.30756  1.0000
  H   H601      1.0  0.00678  0.06119  0.20273  1.0000
  N   N33       1.0  0.05219  0.28548  0.35530  1.0000
  H   H602      1.0  0.05512  0.30932  0.35819  1.0000
  C   C472      1.0  0.29870  0.36925  0.37268  1.0000
  H   H603      1.0  0.37814  0.12037  0.35052  1.0000
  C   C473      1.0  0.07218  0.00511  0.20997  1.0000
  C   C474      1.0  0.37374  0.26605  0.36757  1.0000
  H   H604      1.0  0.00858  0.05213  0.29344  1.0000
  C   C475      1.0  0.44562  0.10411  0.23713  1.0000
  H   H605      1.0  0.34094  0.13107  0.30870  1.0000
  C   C476      1.0  0.34460  0.15536  0.30900  1.0000
  C   C477      1.0  0.34795  0.16488  0.31845  1.0000
  H   H606      1.0  0.06226  0.00691  0.25391  1.0000
  H   H607      1.0  0.33587  0.47342  0.35441  1.0000
  H   H608      1.0  0.45485  0.99121  0.32468  1.0000
  C   C478      1.0  0.34351  0.13854  0.31603  1.0000
  C   C479      1.0  0.34583  0.13118  0.33249  1.0000
  H   H609      1.0  0.30316  0.46370  0.32880  1.0000
  H   H610      1.0  0.33736  0.12108  0.38375  1.0000
  C   C480      1.0  0.45059  0.00404  0.32762  1.0000
  C   C481      1.0  0.07340  0.38877  0.36174  1.0000
  C   C482      1.0  0.07714  0.37113  0.36217  1.0000
  C   C483      1.0  0.44775  0.40196  0.29951  1.0000
  C   C484      1.0  0.09277  0.36072  0.36512  1.0000
  C   C485      1.0  0.10215  0.38488  0.36666  1.0000
  C   C486      1.0  0.10525  0.36759  0.36736  1.0000
  H   H611      1.0  0.35527  0.03391  0.35066  1.0000
  Fe  Fe73      1.0  0.41231  0.18076  0.37728  1.0000
  C   C487      1.0  0.47019  0.41772  0.29147  1.0000
  H   H612      1.0  0.06799  0.36526  0.36019  1.0000
  H   H613      1.0  0.05469  0.30361  0.33131  1.0000
  H   H614      1.0  0.09518  0.34724  0.36577  1.0000
  C   C488      1.0  0.38494  0.06031  0.22338  1.0000
  H   H615      1.0  0.11726  0.35949  0.36997  1.0000
  H   H616      1.0  0.16631  0.46054  0.30295  1.0000
  C   C489      1.0  0.45899  0.46438  0.27582  1.0000
  H   H617      1.0  0.32719  0.03174  0.35621  1.0000
  H   H618      1.0  0.31908  0.47660  0.37243  1.0000
  C   C490      1.0  0.43960  0.16444  0.32690  1.0000
  C   C491      1.0  0.14802  0.13569  0.35817  1.0000
  H   H619      1.0  0.05971  0.45035  0.20089  1.0000
  C   C492      1.0  0.09844  0.99969  0.35806  1.0000
  C   C493      1.0  0.07210  0.15472  0.36325  1.0000
  S   S140      1.0  0.37919  0.33007  0.36218  1.0000
  C   C494      1.0  0.01277  0.04460  0.30527  1.0000
  C   C495      1.0  0.18836  0.44291  0.37025  1.0000
  H   H620      1.0  0.02276  0.13992  0.32131  1.0000
  H   H621      1.0  0.09076  0.00667  0.23075  1.0000
  H   H622      1.0  0.37725  0.29080  0.36696  1.0000
  C   C496      1.0  0.16522  0.13677  0.38457  1.0000
  N   N34       1.0  0.03153  0.04170  0.30339  1.0000
  H   H623      1.0  0.14490  0.10456  0.36029  1.0000
  C   C497      1.0  0.08646  0.39538  0.36398  1.0000
  C   C498      1.0  0.10913  0.04682  0.37913  1.0000
  C   C499      1.0  0.42274  0.12053  0.25450  1.0000
  C   C500      1.0  0.42516  0.03780  0.23382  1.0000
  C   C501      1.0  0.34942  0.14043  0.34244  1.0000
  C   C502      1.0  0.40866  0.99250  0.31700  1.0000
  H   H624      1.0  0.04718  0.03699  0.24691  1.0000
  H   H625      1.0  0.04195  0.37994  0.36868  1.0000
  C   C503      1.0  0.33502  0.30219  0.37284  1.0000
  H   H626      1.0  0.47987  0.42255  0.29386  1.0000
  Fe  Fe74      1.0  0.11966  0.43357  0.37957  1.0000
  H   H627      1.0  0.44698  0.07235  0.34400  1.0000
  H   H628      1.0  0.33100  0.99869  0.33439  1.0000
  C   C504      1.0  0.37677  0.24876  0.37521  1.0000
  C   C505      1.0  0.39620  0.44956  0.19080  1.0000
  H   H629      1.0  0.02940  0.04081  0.32982  1.0000
  C   C506      1.0  0.45041  0.12749  0.24502  1.0000
  C   C507      1.0  0.19557  0.42554  0.37231  1.0000
  C   C508      1.0  0.32382  0.48228  0.35890  1.0000
  N   N35       1.0  0.09108  0.00032  0.20745  1.0000
  C   C509      1.0  0.36622  0.11698  0.35921  1.0000
  H   H630      1.0  0.07388  0.26424  0.35670  1.0000
  H   H631      1.0  0.47402  0.23447  0.37767  1.0000
  H   H632      1.0  0.04137  0.42491  0.35805  1.0000
  S   S141      1.0  0.10397  0.45326  0.36253  1.0000
  N   N36       1.0  0.34532  0.02591  0.33354  1.0000
  S   S142      1.0  0.34882  0.47179  0.27788  1.0000
  C   C510      1.0  0.35965  0.02658  0.34054  1.0000
  C   C511      1.0  0.33940  0.04280  0.32311  1.0000
  C   C512      1.0  0.35123  0.01323  0.32278  1.0000
  H   H633      1.0  0.44728  0.27815  0.37368  1.0000
  C   C513      1.0  0.36606  0.01388  0.30955  1.0000
  H   H634      1.0  0.05449  0.25898  0.35634  1.0000
  H   H635      1.0  0.41192  0.26284  0.34957  1.0000
  H   H636      1.0  0.41677  0.23265  0.34910  1.0000
  H   H637      1.0  0.11003  0.03330  0.38261  1.0000
  H   H638      1.0  0.39441  0.01664  0.23744  1.0000
  C   C514      1.0  0.14166  0.47616  0.32505  1.0000
  C   C515      1.0  0.40752  0.01833  0.23635  1.0000
  C   C516      1.0  0.35646  0.14335  0.36817  1.0000
  H   H639      1.0  0.46081  0.99716  0.35722  1.0000
  H   H640      1.0  0.47136  0.25535  0.36458  1.0000
  H   H641      1.0  0.42625  0.27196  0.36582  1.0000
  H   H642      1.0  0.49523  0.45058  0.24296  1.0000
  C   C517      1.0  0.43514  0.22448  0.36499  1.0000
  H   H643      1.0  0.08473  0.48767  0.37126  1.0000
  C   C518      1.0  0.38769  0.06956  0.19307  1.0000
  H   H644      1.0  0.38349  0.00257  0.28946  1.0000
  H   H645      1.0  0.13455  0.01442  0.33825  1.0000
  H   H646      1.0  0.04358  0.39042  0.38391  1.0000
  C   C519      1.0  0.21334  0.41991  0.37037  1.0000
  H   H647      1.0  0.32693  0.31017  0.36374  1.0000
  H   H648      1.0  0.01236  0.12995  0.31201  1.0000
  H   H649      1.0  0.36915  0.11091  0.37191  1.0000
  H   H650      1.0  0.15849  0.09362  0.37464  1.0000
  H   H651      1.0  0.37772  0.06268  0.23558  1.0000
  C   C520      1.0  0.44094  0.24663  0.37530  1.0000
  H   H652      1.0  0.36936  0.03286  0.33085  1.0000
  N   N37       1.0  0.40733  0.03617  0.23584  1.0000
  H   H653      1.0  0.47664  0.05553  0.34329  1.0000
  H   H654      1.0  0.49200  0.15254  0.35730  1.0000
  C   C521      1.0  0.12376  0.01112  0.34881  1.0000
  H   H655      1.0  0.48239  0.99702  0.31178  1.0000
  C   C522      1.0  0.00629  0.31107  0.35977  1.0000
  H   H656      1.0  0.48242  0.99937  0.34772  1.0000
  H   H657      1.0  0.34344  0.41212  0.37902  1.0000
  H   H658      1.0  0.33457  0.00958  0.35632  1.0000
  H   H659      1.0  0.06624  0.99416  0.21734  1.0000
  C   C523      1.0  0.38066  0.43097  0.18660  1.0000
  H   H660      1.0  0.35846  0.13679  0.38112  1.0000
  H   H661      1.0  0.22355  0.00047  0.37682  1.0000
  H   H662      1.0  0.99863  0.09868  0.23764  1.0000
  C   C524      1.0  0.36310  0.98938  0.30163  1.0000
  N   N38       1.0  0.99867  0.13427  0.33674  1.0000
  H   H663      1.0  0.99850  0.41307  0.27754  1.0000
  C   C525      1.0  0.47711  0.21162  0.57001  1.0000
  C   C526      1.0  0.28918  0.47305  0.46093  1.0000
  S   S143      1.0  0.26096  0.47473  0.41469  1.0000
  S   S144      1.0  0.29719  0.14431  0.40388  1.0000
  Fe  Fe75      1.0  0.07628  0.21954  0.53884  1.0000
  S   S145      1.0  0.09583  0.23122  0.54278  1.0000
  Fe  Fe76      1.0  0.08809  0.22746  0.50061  1.0000
  S   S146      1.0  0.10886  0.23927  0.50122  1.0000
  S   S147      1.0  0.08039  0.22864  0.47674  1.0000
  Fe  Fe77      1.0  0.11363  0.21757  0.52296  1.0000
  S   S148      1.0  0.13983  0.20342  0.52685  1.0000
  Fe  Fe78      1.0  0.08916  0.25205  0.52065  1.0000
  S   S149      1.0  0.08773  0.28032  0.51472  1.0000
  S   S150      1.0  0.09460  0.20444  0.52057  1.0000
  S   S151      1.0  0.06794  0.24161  0.51854  1.0000
  Fe  Fe79      1.0  0.06949  0.19306  0.40754  1.0000
  H   H664      1.0  0.02975  0.28112  0.48475  1.0000
  C   C527      1.0  0.06287  0.19516  0.57796  1.0000
  Fe  Fe80      1.0  0.07955  0.15737  0.42891  1.0000
  S   S152      1.0  0.10628  0.15370  0.41362  1.0000
  S   S153      1.0  0.07237  0.13772  0.45230  1.0000
  Fe  Fe81      1.0  0.10509  0.18030  0.41471  1.0000
  S   S154      1.0  0.12585  0.18616  0.42344  1.0000
  H   H665      1.0  0.03245  0.27564  0.41118  1.0000
  H   H666      1.0  0.19213  0.16383  0.45248  1.0000
  S   S155      1.0  0.07895  0.18324  0.43163  1.0000
  S   S156      1.0  0.06703  0.16720  0.40661  1.0000
  Fe  Fe82      1.0  0.15126  0.02978  0.43171  1.0000
  H   H667      1.0  0.46228  0.16015  0.44556  1.0000
  S   S157      1.0  0.15136  0.00197  0.43977  1.0000
  Fe  Fe83      1.0  0.14379  0.06189  0.44475  1.0000
  S   S158      1.0  0.15561  0.07651  0.41987  1.0000
  S   S159      1.0  0.13202  0.07403  0.46704  1.0000
  C   C528      1.0  0.13649  0.02696  0.49096  1.0000
  C   C529      1.0  0.27170  0.46009  0.48666  1.0000
  Fe  Fe84      1.0  0.17617  0.05305  0.41871  1.0000
  C   C530      1.0  0.09883  0.29836  0.55885  1.0000
  S   S160      1.0  0.12812  0.05100  0.43436  1.0000
  S   S161      1.0  0.16570  0.03936  0.44473  1.0000
  H   H668      1.0  0.11186  0.46426  0.41554  1.0000
  H   H669      1.0  0.45649  0.24878  0.49472  1.0000
  C   C531      1.0  0.15641  0.14718  0.44063  1.0000
  H   H670      1.0  0.29196  0.33695  0.41042  1.0000
  Fe  Fe85      1.0  0.27077  0.42154  0.39323  1.0000
  H   H671      1.0  0.27682  0.01579  0.53267  1.0000
  C   C532      1.0  0.48739  0.14575  0.44840  1.0000
  Fe  Fe86      1.0  0.36638  0.34192  0.40634  1.0000
  S   S162      1.0  0.35683  0.35017  0.43120  1.0000
  C   C533      1.0  0.37144  0.13241  0.56265  1.0000
  H   H672      1.0  0.32528  0.00770  0.52984  1.0000
  S   S163      1.0  0.13754  0.44076  0.39092  1.0000
  H   H673      1.0  0.06228  0.31099  0.43955  1.0000
  H   H674      1.0  0.19978  0.47659  0.50684  1.0000
  Fe  Fe87      1.0  0.30134  0.47256  0.54101  1.0000
  H   H675      1.0  0.43324  0.24271  0.40876  1.0000
  C   C534      1.0  0.44085  0.31609  0.46374  1.0000
  Fe  Fe88      1.0  0.30946  0.46452  0.50673  1.0000
  S   S164      1.0  0.32348  0.44566  0.49037  1.0000
  S   S165      1.0  0.28878  0.45907  0.52963  1.0000
  Fe  Fe89      1.0  0.40925  0.35843  0.48770  1.0000
  S   S166      1.0  0.39188  0.34183  0.50538  1.0000
  S   S167      1.0  0.41482  0.36183  0.45945  1.0000
  Fe  Fe90      1.0  0.41794  0.36804  0.51617  1.0000
  S   S168      1.0  0.40120  0.35246  0.53612  1.0000
  S   S169      1.0  0.43225  0.38419  0.52203  1.0000
  Fe  Fe91      1.0  0.41231  0.33264  0.52051  1.0000
  S   S170      1.0  0.42254  0.30596  0.53389  1.0000
  Fe  Fe92      1.0  0.38244  0.36323  0.51916  1.0000
  S   S171      1.0  0.35503  0.37334  0.53085  1.0000
  S   S172      1.0  0.43064  0.34751  0.50166  1.0000
  S   S173      1.0  0.39835  0.38045  0.50036  1.0000
  H   H676      1.0  0.05941  0.06689  0.39067  1.0000
  Fe  Fe93      1.0  0.48023  0.20324  0.43195  1.0000
  S   S174      1.0  0.45289  0.20111  0.43733  1.0000
  C   C535      1.0  0.12567  0.99977  0.51536  1.0000
  Fe  Fe94      1.0  0.41177  0.21561  0.53837  1.0000
  S   S175      1.0  0.43205  0.20181  0.52015  1.0000
  S   S176      1.0  0.39943  0.24252  0.52732  1.0000
  S   S177      1.0  0.43468  0.16855  0.55140  1.0000
  Fe  Fe95      1.0  0.44585  0.19168  0.54143  1.0000
  H   H677      1.0  0.04410  0.33551  0.45027  1.0000
  Fe  Fe96      1.0  0.41892  0.18011  0.53180  1.0000
  S   S178      1.0  0.41668  0.16214  0.51745  1.0000
  S   S179      1.0  0.39734  0.19452  0.54838  1.0000
  Fe  Fe97      1.0  0.30763  0.10752  0.54543  1.0000
  S   S180      1.0  0.32568  0.08314  0.54073  1.0000
  Fe  Fe98      1.0  0.33605  0.12739  0.53411  1.0000
  S   S181      1.0  0.35632  0.10474  0.52839  1.0000
  S   S182      1.0  0.34068  0.15368  0.52972  1.0000
  Fe  Fe99      1.0  0.33745  0.09961  0.51692  1.0000
  S   S183      1.0  0.34578  0.09512  0.49056  1.0000
  Fe  Fe100     1.0  0.34283  0.09053  0.55281  1.0000
  S   S184      1.0  0.31812  0.12342  0.52067  1.0000
  S   S185      1.0  0.32382  0.11372  0.55949  1.0000
  H   H678      1.0  0.22334  0.48827  0.41545  1.0000
  H   H679      1.0  0.18172  0.47119  0.56329  1.0000
  H   H680      1.0  0.06434  0.12642  0.42562  1.0000
  S   S186      1.0  0.36642  0.15262  0.41479  1.0000
  H   H681      1.0  0.19812  0.03416  0.47599  1.0000
  S   S187      1.0  0.35941  0.07117  0.56959  1.0000
  Fe  Fe101     1.0  0.25893  0.10342  0.42097  1.0000
  S   S188      1.0  0.27398  0.07703  0.42857  1.0000
  S   S189      1.0  0.23025  0.11007  0.42372  1.0000
  Fe  Fe102     1.0  0.28984  0.11899  0.41315  1.0000
  S   S190      1.0  0.30757  0.09406  0.41999  1.0000
  H   H682      1.0  0.48506  0.33460  0.42093  1.0000
  Fe  Fe103     1.0  0.29414  0.08466  0.40584  1.0000
  H   H683      1.0  0.33825  0.29337  0.40505  1.0000
  Fe  Fe104     1.0  0.28603  0.08859  0.44208  1.0000
  S   S191      1.0  0.28748  0.07615  0.46913  1.0000
  H   H684      1.0  0.45757  0.30747  0.50290  1.0000
  S   S192      1.0  0.26934  0.11440  0.43644  1.0000
  H   H685      1.0  0.47176  0.33403  0.45930  1.0000
  Fe  Fe105     1.0  0.17593  0.44996  0.51989  1.0000
  S   S193      1.0  0.20211  0.44169  0.52602  1.0000
  Fe  Fe106     1.0  0.14376  0.43659  0.52487  1.0000
  S   S194      1.0  0.13042  0.46099  0.51054  1.0000
  S   S195      1.0  0.13111  0.41503  0.54020  1.0000
  Fe  Fe107     1.0  0.15594  0.46079  0.49247  1.0000
  S   S196      1.0  0.15999  0.46767  0.46411  1.0000
  Fe  Fe108     1.0  0.14068  0.47330  0.52498  1.0000
  S   S197      1.0  0.16851  0.43519  0.50551  1.0000
  S   S198      1.0  0.15237  0.44897  0.54059  1.0000
  S   S199      1.0  0.03637  0.37216  0.53142  1.0000
  S   S200      1.0  0.03383  0.40413  0.54836  1.0000
  Fe  Fe109     1.0  0.01594  0.38942  0.54637  1.0000
  C   C536      1.0  0.44719  0.24142  0.40307  1.0000
  Fe  Fe110     1.0  0.05458  0.38527  0.53584  1.0000
  S   S201      1.0  0.07578  0.39463  0.51512  1.0000
  C   C537      1.0  0.39191  0.25427  0.39338  1.0000
  H   H686      1.0  0.48750  0.16527  0.51408  1.0000
  Fe  Fe111     1.0  0.12534  0.42526  0.41512  1.0000
  S   S202      1.0  0.14378  0.40086  0.41183  1.0000
  S   S203      1.0  0.11628  0.43134  0.44081  1.0000
  C   C538      1.0  0.36666  0.46478  0.50483  1.0000
  C   C539      1.0  0.06140  0.17830  0.58479  1.0000
  C   C540      1.0  0.29534  0.47257  0.40961  1.0000
  C   C541      1.0  0.11102  0.47751  0.40928  1.0000
  S   S204      1.0  0.49524  0.36608  0.41073  1.0000
  H   H687      1.0  0.12047  0.48333  0.42792  1.0000
  Fe  Fe112     1.0  0.03640  0.34497  0.41094  1.0000
  C   C542      1.0  0.49330  0.28500  0.53948  1.0000
  S   S205      1.0  0.04199  0.36521  0.42003  1.0000
  C   C543      1.0  0.29269  0.29747  0.39458  1.0000
  H   H688      1.0  0.26512  0.30468  0.40120  1.0000
  C   C544      1.0  0.37108  0.46661  0.51894  1.0000
  H   H689      1.0  0.08832  0.46925  0.48115  1.0000
  C   C545      1.0  0.21104  0.47272  0.51216  1.0000
  C   C546      1.0  0.09769  0.36985  0.40805  1.0000
  C   C547      1.0  0.08441  0.38422  0.40855  1.0000
  C   C548      1.0  0.06735  0.38266  0.41221  1.0000
  C   C549      1.0  0.06350  0.36681  0.41477  1.0000
  C   C550      1.0  0.07677  0.35247  0.41372  1.0000
  S   S206      1.0  0.27804  0.11015  0.39697  1.0000
  H   H690      1.0  0.45659  0.17214  0.47029  1.0000
  H   H691      1.0  0.05710  0.39377  0.41295  1.0000
  C   C551      1.0  0.07058  0.43019  0.54918  1.0000
  C   C552      1.0  0.03936  0.24957  0.40863  1.0000
  C   C553      1.0  0.12983  0.44015  0.44690  1.0000
  C   C554      1.0  0.14101  0.44952  0.43490  1.0000
  C   C555      1.0  0.15030  0.45802  0.44020  1.0000
  C   C556      1.0  0.14896  0.45653  0.45747  1.0000
  C   C557      1.0  0.13851  0.44639  0.46940  1.0000
  C   C558      1.0  0.12868  0.43852  0.46413  1.0000
  H   H692      1.0  0.14203  0.45073  0.42157  1.0000
  H   H693      1.0  0.15840  0.46582  0.43094  1.0000
  H   H694      1.0  0.13763  0.44492  0.48272  1.0000
  H   H695      1.0  0.12013  0.43117  0.47344  1.0000
  C   C559      1.0  0.11594  0.40959  0.53278  1.0000
  C   C560      1.0  0.11386  0.41581  0.51609  1.0000
  C   C561      1.0  0.10160  0.41105  0.51067  1.0000
  C   C562      1.0  0.09118  0.40037  0.52201  1.0000
  C   C563      1.0  0.09334  0.39417  0.53865  1.0000
  C   C564      1.0  0.10578  0.39864  0.54396  1.0000
  H   H696      1.0  0.12173  0.42419  0.50738  1.0000
  H   H697      1.0  0.10001  0.41588  0.49778  1.0000
  H   H698      1.0  0.08546  0.38592  0.54747  1.0000
  H   H699      1.0  0.10735  0.39380  0.55687  1.0000
  H   H700      1.0  0.36461  0.39118  0.39108  1.0000
  C   C565      1.0  0.45538  0.24727  0.50849  1.0000
  C   C566      1.0  0.10822  0.48318  0.46945  1.0000
  H   H701      1.0  0.17649  0.11240  0.46590  1.0000
  H   H702      1.0  0.20340  0.05545  0.50516  1.0000
  H   H703      1.0  0.12277  0.01481  0.53339  1.0000
  H   H704      1.0  0.14491  0.15066  0.56259  1.0000
  C   C567      1.0  0.11142  0.34551  0.50690  1.0000
  H   H705      1.0  0.12339  0.99683  0.46889  1.0000
  H   H706      1.0  0.27130  0.46996  0.49329  1.0000
  C   C568      1.0  0.34679  0.15038  0.41262  1.0000
  C   C569      1.0  0.34130  0.13513  0.42004  1.0000
  C   C570      1.0  0.32600  0.13307  0.41755  1.0000
  H   H707      1.0  0.36838  0.33652  0.54207  1.0000
  S   S207      1.0  0.39600  0.28571  0.39287  1.0000
  C   C571      1.0  0.14532  0.99422  0.42545  1.0000
  H   H708      1.0  0.34901  0.12479  0.42743  1.0000
  H   H709      1.0  0.32187  0.12126  0.42318  1.0000
  S   S208      1.0  0.38953  0.19107  0.39601  1.0000
  S   S209      1.0  0.41491  0.44529  0.58084  1.0000
  H   H710      1.0  0.48162  0.22176  0.51283  1.0000
  H   H711      1.0  0.22298  0.44291  0.45642  1.0000
  H   H712      1.0  0.15647  0.15822  0.58059  1.0000
  C   C572      1.0  0.32998  0.08901  0.48484  1.0000
  C   C573      1.0  0.31672  0.08276  0.49713  1.0000
  C   C574      1.0  0.30388  0.07847  0.49226  1.0000
  C   C575      1.0  0.30397  0.08095  0.47510  1.0000
  C   C576      1.0  0.31719  0.08728  0.46288  1.0000
  C   C577      1.0  0.33028  0.09112  0.46772  1.0000
  H   H713      1.0  0.31640  0.08113  0.51037  1.0000
  H   H714      1.0  0.29376  0.07348  0.50179  1.0000
  H   H715      1.0  0.31750  0.08909  0.44967  1.0000
  H   H716      1.0  0.34047  0.09601  0.45816  1.0000
  C   C578      1.0  0.39557  0.15993  0.52070  1.0000
  C   C579      1.0  0.39258  0.14464  0.51979  1.0000
  C   C580      1.0  0.37579  0.14264  0.52236  1.0000
  C   C581      1.0  0.36192  0.15593  0.52587  1.0000
  C   C582      1.0  0.36494  0.17136  0.52641  1.0000
  C   C583      1.0  0.38174  0.17334  0.52390  1.0000
  H   H717      1.0  0.40325  0.13421  0.51740  1.0000
  H   H718      1.0  0.37366  0.13071  0.52193  1.0000
  H   H719      1.0  0.35429  0.18178  0.52888  1.0000
  H   H720      1.0  0.38397  0.18532  0.52419  1.0000
  C   C584      1.0  0.44945  0.19443  0.42082  1.0000
  C   C585      1.0  0.46280  0.18419  0.41157  1.0000
  C   C586      1.0  0.06130  0.12222  0.39705  1.0000
  S   S210      1.0  0.47430  0.18986  0.53392  1.0000
  C   C587      1.0  0.43040  0.19368  0.40391  1.0000
  C   C588      1.0  0.43327  0.19929  0.41691  1.0000
  H   H721      1.0  0.47535  0.18058  0.41446  1.0000
  C   C589      1.0  0.17637  0.47919  0.55222  1.0000
  H   H722      1.0  0.41804  0.19788  0.40068  1.0000
  H   H723      1.0  0.42300  0.20752  0.42382  1.0000
  H   H724      1.0  0.05730  0.09643  0.38961  1.0000
  H   H725      1.0  0.00234  0.43824  0.57050  1.0000
  H   H726      1.0  0.08022  0.26217  0.48108  1.0000
  H   H727      1.0  0.37288  0.19020  0.48672  1.0000
  C   C590      1.0  0.41609  0.28846  0.53182  1.0000
  C   C591      1.0  0.40651  0.29005  0.51997  1.0000
  C   C592      1.0  0.40178  0.27576  0.51851  1.0000
  C   C593      1.0  0.40643  0.25987  0.52898  1.0000
  C   C594      1.0  0.41615  0.25826  0.54073  1.0000
  C   C595      1.0  0.42097  0.27253  0.54213  1.0000
  H   H728      1.0  0.40270  0.30227  0.51196  1.0000
  H   H729      1.0  0.39443  0.27701  0.50926  1.0000
  H   H730      1.0  0.41971  0.24609  0.54893  1.0000
  C   C596      1.0  0.08697  0.45123  0.53324  1.0000
  H   H731      1.0  0.37234  0.03699  0.58411  1.0000
  C   C597      1.0  0.24035  0.46287  0.52584  1.0000
  C   C598      1.0  0.23012  0.45128  0.52815  1.0000
  C   C599      1.0  0.21529  0.45624  0.52159  1.0000
  H   H732      1.0  0.25147  0.45906  0.53139  1.0000
  H   H733      1.0  0.23347  0.43853  0.53543  1.0000
  C   C600      1.0  0.33207  0.42552  0.50168  1.0000
  C   C601      1.0  0.32552  0.42019  0.51896  1.0000
  C   C602      1.0  0.33236  0.40401  0.52773  1.0000
  C   C603      1.0  0.34613  0.39325  0.51940  1.0000
  C   C604      1.0  0.35272  0.39858  0.50212  1.0000
  C   C605      1.0  0.34563  0.41462  0.49327  1.0000
  H   H734      1.0  0.31506  0.42845  0.52558  1.0000
  H   H735      1.0  0.32710  0.39992  0.54105  1.0000
  H   H736      1.0  0.36314  0.39027  0.49549  1.0000
  H   H737      1.0  0.35088  0.41866  0.47994  1.0000
  C   C606      1.0  0.23578  0.47949  0.51693  1.0000
  C   C607      1.0  0.42050  0.40709  0.56146  1.0000
  C   C608      1.0  0.42508  0.40401  0.54506  1.0000
  C   C609      1.0  0.42530  0.38814  0.54253  1.0000
  C   C610      1.0  0.42082  0.37539  0.55646  1.0000
  C   C611      1.0  0.45675  0.31349  0.45204  1.0000
  S   S211      1.0  0.10581  0.42050  0.40428  1.0000
  H   H738      1.0  0.42859  0.41390  0.53431  1.0000
  H   H739      1.0  0.42116  0.36304  0.55465  1.0000
  C   C612      1.0  0.13607  0.01248  0.48609  1.0000
  C   C613      1.0  0.31445  0.36029  0.39505  1.0000
  H   H740      1.0  0.19687  0.13534  0.42318  1.0000
  C   C614      1.0  0.37875  0.40725  0.54309  1.0000
  C   C615      1.0  0.12639  0.01421  0.52012  1.0000
  S   S212      1.0  0.27229  0.39525  0.40906  1.0000
  H   H741      1.0  0.00496  0.38103  0.51906  1.0000
  C   C616      1.0  0.22874  0.06850  0.40928  1.0000
  C   C617      1.0  0.47181  0.15657  0.45319  1.0000
  C   C618      1.0  0.22126  0.48433  0.50987  1.0000
  S   S213      1.0  0.28935  0.43523  0.39528  1.0000
  H   H742      1.0  0.29708  0.46032  0.40691  1.0000
  H   H743      1.0  0.33903  0.39897  0.46351  1.0000
  C   C619      1.0  0.26336  0.01602  0.53808  1.0000
  N   N39       1.0  0.47740  0.16684  0.49246  1.0000
  C   C620      1.0  0.33668  0.16371  0.40324  1.0000
  H   H744      1.0  0.25652  0.04314  0.53559  1.0000
  C   C621      1.0  0.39746  0.13184  0.57056  1.0000
  H   H745      1.0  0.19303  0.12841  0.46979  1.0000
  N   N40       1.0  0.47283  0.40506  0.57508  1.0000
  H   H746      1.0  0.39160  0.40892  0.53526  1.0000
  C   C622      1.0  0.37275  0.35410  0.43878  1.0000
  C   C623      1.0  0.38868  0.35577  0.42823  1.0000
  C   C624      1.0  0.40135  0.35863  0.43456  1.0000
  C   C625      1.0  0.39825  0.35959  0.45152  1.0000
  C   C626      1.0  0.38210  0.35851  0.46192  1.0000
  C   C627      1.0  0.36933  0.35591  0.45550  1.0000
  H   H747      1.0  0.39122  0.35501  0.41515  1.0000
  H   H748      1.0  0.41358  0.36003  0.42627  1.0000
  H   H749      1.0  0.37940  0.35981  0.47485  1.0000
  H   H750      1.0  0.35684  0.35516  0.46350  1.0000
  C   C628      1.0  0.46558  0.29638  0.45207  1.0000
  H   H751      1.0  0.15723  0.15968  0.43291  1.0000
  C   C629      1.0  0.30165  0.37094  0.40445  1.0000
  H   H752      1.0  0.06279  0.42160  0.54954  1.0000
  C   C630      1.0  0.49089  0.15999  0.50254  1.0000
  C   C631      1.0  0.11128  0.32846  0.50942  1.0000
  C   C632      1.0  0.21124  0.06864  0.41336  1.0000
  C   C633      1.0  0.19956  0.08186  0.42014  1.0000
  C   C634      1.0  0.20540  0.09479  0.42300  1.0000
  C   C635      1.0  0.22296  0.09447  0.41913  1.0000
  C   C636      1.0  0.23460  0.08139  0.41215  1.0000
  C   C637      1.0  0.27711  0.30768  0.40087  1.0000
  H   H753      1.0  0.18606  0.08212  0.42327  1.0000
  H   H754      1.0  0.19632  0.10486  0.42841  1.0000
  H   H755      1.0  0.45568  0.34798  0.41933  1.0000
  H   H756      1.0  0.23108  0.48052  0.38831  1.0000
  C   C638      1.0  0.05270  0.23535  0.40651  1.0000
  C   C639      1.0  0.31788  0.01038  0.52026  1.0000
  H   H757      1.0  0.07567  0.48536  0.50386  1.0000
  S   S214      1.0  0.09571  0.19163  0.39052  1.0000
  C   C640      1.0  0.15924  0.03087  0.53737  1.0000
  C   C641      1.0  0.05961  0.26572  0.40858  1.0000
  S   S215      1.0  0.01409  0.35293  0.39841  1.0000
  H   H758      1.0  0.02635  0.24880  0.40956  1.0000
  H   H759      1.0  0.45861  0.16772  0.51590  1.0000
  Fe  Fe113     1.0  0.37781  0.17141  0.39272  1.0000
  C   C642      1.0  0.08843  0.11938  0.45596  1.0000
  C   C643      1.0  0.08859  0.11021  0.47254  1.0000
  C   C644      1.0  0.10194  0.09624  0.47589  1.0000
  C   C645      1.0  0.11477  0.09087  0.46259  1.0000
  C   C646      1.0  0.11406  0.09942  0.44590  1.0000
  C   C647      1.0  0.10112  0.11387  0.44263  1.0000
  H   H760      1.0  0.07865  0.11423  0.48289  1.0000
  H   H761      1.0  0.10226  0.08954  0.48879  1.0000
  H   H762      1.0  0.12378  0.09530  0.43553  1.0000
  H   H763      1.0  0.10089  0.12064  0.42979  1.0000
  C   C648      1.0  0.11582  0.48823  0.41632  1.0000
  H   H764      1.0  0.27644  0.45598  0.44661  1.0000
  C   C649      1.0  0.33003  0.15544  0.58050  1.0000
  H   H765      1.0  0.07015  0.15626  0.50083  1.0000
  S   S216      1.0  0.02874  0.32112  0.42737  1.0000
  H   H766      1.0  0.39906  0.24966  0.40330  1.0000
  C   C650      1.0  0.13440  0.99902  0.40027  1.0000
  H   H767      1.0  0.28640  0.44199  0.46309  1.0000
  H   H768      1.0  0.15058  0.10305  0.46812  1.0000
  C   C651      1.0  0.07311  0.29319  0.52796  1.0000
  C   C652      1.0  0.06334  0.28628  0.54338  1.0000
  C   C653      1.0  0.36166  0.30301  0.51995  1.0000
  C   C654      1.0  0.06147  0.32136  0.53405  1.0000
  C   C655      1.0  0.07193  0.31075  0.52321  1.0000
  H   H769      1.0  0.06418  0.27274  0.54713  1.0000
  H   H770      1.0  0.06102  0.33483  0.53054  1.0000
  H   H771      1.0  0.07953  0.31607  0.51131  1.0000
  C   C656      1.0  0.09499  0.21919  0.46078  1.0000
  C   C657      1.0  0.11146  0.21000  0.46260  1.0000
  C   C658      1.0  0.12177  0.20074  0.45039  1.0000
  C   C659      1.0  0.11552  0.20073  0.43650  1.0000
  C   C660      1.0  0.09966  0.21092  0.43421  1.0000
  C   C661      1.0  0.08938  0.22004  0.44632  1.0000
  H   H772      1.0  0.11594  0.20951  0.47367  1.0000
  H   H773      1.0  0.13410  0.19291  0.45220  1.0000
  H   H774      1.0  0.09504  0.21130  0.42331  1.0000
  H   H775      1.0  0.07676  0.22727  0.44470  1.0000
  C   C662      1.0  0.14873  0.18587  0.51736  1.0000
  C   C663      1.0  0.16321  0.17441  0.52214  1.0000
  C   C664      1.0  0.14121  0.18266  0.50588  1.0000
  H   H776      1.0  0.16928  0.17699  0.53075  1.0000
  H   H777      1.0  0.13026  0.19164  0.50185  1.0000
  H   H778      1.0  0.11078  0.29050  0.55271  1.0000
  H   H779      1.0  0.20875  0.02293  0.52763  1.0000
  H   H780      1.0  0.04783  0.12064  0.40123  1.0000
  C   C665      1.0  0.27687  0.32184  0.40656  1.0000
  N   N41       1.0  0.07237  0.10979  0.40804  1.0000
  Fe  Fe114     1.0  0.09391  0.16511  0.39127  1.0000
  H   H781      1.0  0.20769  0.39597  0.40330  1.0000
  S   S217      1.0  0.16504  0.47555  0.50552  1.0000
  H   H782      1.0  0.17650  0.47406  0.39345  1.0000
  C   C666      1.0  0.13954  0.12574  0.45222  1.0000
  C   C667      1.0  0.10808  0.35284  0.52074  1.0000
  H   H783      1.0  0.10791  0.30551  0.52676  1.0000
  C   C668      1.0  0.01839  0.29112  0.48387  1.0000
  H   H784      1.0  0.18580  0.15719  0.42082  1.0000
  H   H785      1.0  0.45032  0.34331  0.52879  1.0000
  H   H786      1.0  0.35406  0.28860  0.55479  1.0000
  H   H787      1.0  0.43823  0.34193  0.43560  1.0000
  H   H788      1.0  0.18220  0.07928  0.45716  1.0000
  H   H789      1.0  0.23783  0.05836  0.40394  1.0000
  Fe  Fe115     1.0  0.00796  0.32792  0.41287  1.0000
  C   C669      1.0  0.07649  0.44057  0.53388  1.0000
  C   C670      1.0  0.18699  0.01265  0.52980  1.0000
  H   H790      1.0  0.16921  0.06389  0.46373  1.0000
  C   C671      1.0  0.45504  0.40329  0.58366  1.0000
  S   S218      1.0  0.06456  0.28456  0.40945  1.0000
  H   H791      1.0  0.48720  0.42458  0.57039  1.0000
  C   C672      1.0  0.16948  0.15928  0.51642  1.0000
  C   C673      1.0  0.18067  0.15918  0.45295  1.0000
  C   C674      1.0  0.45980  0.17821  0.39886  1.0000
  Fe  Fe116     1.0  0.03914  0.35534  0.55677  1.0000
  C   C675      1.0  0.46103  0.16346  0.50387  1.0000
  S   S219      1.0  0.03987  0.32720  0.56407  1.0000
  N   N42       1.0  0.25496  0.12389  0.49097  1.0000
  C   C676      1.0  0.25709  0.10547  0.49264  1.0000
  C   C677      1.0  0.25161  0.12741  0.50807  1.0000
  C   C678      1.0  0.23947  0.13263  0.48395  1.0000
  C   C679      1.0  0.27083  0.12911  0.48026  1.0000
  C   C680      1.0  0.28629  0.12355  0.48621  1.0000
  C   C681      1.0  0.27174  0.13887  0.46343  1.0000
  C   C682      1.0  0.30156  0.12778  0.47609  1.0000
  C   C683      1.0  0.28717  0.14274  0.45331  1.0000
  C   C684      1.0  0.30203  0.13724  0.45964  1.0000
  H   H792      1.0  0.26797  0.09796  0.49864  1.0000
  H   H793      1.0  0.24548  0.10085  0.50052  1.0000
  H   H794      1.0  0.25972  0.10229  0.48006  1.0000
  H   H795      1.0  0.23931  0.12434  0.51612  1.0000
  H   H796      1.0  0.25111  0.14096  0.50733  1.0000
  H   H797      1.0  0.26149  0.11966  0.51529  1.0000
  H   H798      1.0  0.23751  0.14663  0.48182  1.0000
  H   H799      1.0  0.24023  0.12914  0.47188  1.0000
  H   H800      1.0  0.22767  0.12899  0.49272  1.0000
  H   H801      1.0  0.28687  0.11544  0.49856  1.0000
  H   H802      1.0  0.26083  0.14333  0.45758  1.0000
  H   H803      1.0  0.31319  0.12318  0.48092  1.0000
  H   H804      1.0  0.28769  0.14976  0.44032  1.0000
  H   H805      1.0  0.31398  0.14004  0.45161  1.0000
  H   H806      1.0  0.32651  0.42485  0.39105  1.0000
  H   H807      1.0  0.20995  0.13599  0.45376  1.0000
  C   C685      1.0  0.49385  0.28380  0.48349  1.0000
  H   H808      1.0  0.13649  0.47082  0.56257  1.0000
  C   C686      1.0  0.46363  0.28028  0.50742  1.0000
  S   S220      1.0  0.20434  0.05201  0.41014  1.0000
  H   H809      1.0  0.47613  0.25170  0.38506  1.0000
  H   H810      1.0  0.47849  0.26648  0.55411  1.0000
  H   H811      1.0  0.47322  0.19147  0.49789  1.0000
  S   S221      1.0  0.01740  0.37171  0.57143  1.0000
  C   C687      1.0  0.36106  0.30603  0.50291  1.0000
  H   H812      1.0  0.37643  0.28974  0.54836  1.0000
  H   H813      1.0  0.13761  0.01883  0.41010  1.0000
  S   S222      1.0  0.35635  0.32189  0.40146  1.0000
  H   H814      1.0  0.12261  0.10714  0.49328  1.0000
  H   H815      1.0  0.48042  0.31512  0.42111  1.0000
  H   H816      1.0  0.42281  0.08311  0.57010  1.0000
  H   H817      1.0  0.17337  0.15724  0.46630  1.0000
  H   H818      1.0  0.09149  0.05159  0.42658  1.0000
  S   S223      1.0  0.18595  0.07912  0.55933  1.0000
  S   S224      1.0  0.32299  0.47634  0.51863  1.0000
  H   H819      1.0  0.16292  0.00591  0.53296  1.0000
  C   C688      1.0  0.08981  0.11329  0.40178  1.0000
  N   N43       1.0  0.09321  0.16365  0.48509  1.0000
  C   C689      1.0  0.09005  0.17937  0.49138  1.0000
  C   C690      1.0  0.10113  0.16732  0.46679  1.0000
  C   C691      1.0  0.07634  0.15964  0.48722  1.0000
  C   C692      1.0  0.10452  0.14902  0.49388  1.0000
  C   C693      1.0  0.10870  0.13313  0.48927  1.0000
  C   C694      1.0  0.11211  0.15012  0.50668  1.0000
  C   C695      1.0  0.11966  0.11916  0.49702  1.0000
  C   C696      1.0  0.12326  0.13613  0.51418  1.0000
  C   C697      1.0  0.12701  0.12070  0.50938  1.0000
  H   H820      1.0  0.10214  0.18359  0.48946  1.0000
  H   H821      1.0  0.08150  0.19016  0.48453  1.0000
  H   H822      1.0  0.08367  0.17767  0.50501  1.0000
  H   H823      1.0  0.11459  0.16856  0.46464  1.0000
  H   H824      1.0  0.09405  0.17935  0.46000  1.0000
  H   H825      1.0  0.10126  0.15731  0.46039  1.0000
  H   H826      1.0  0.06745  0.17057  0.48097  1.0000
  H   H827      1.0  0.07729  0.14892  0.48141  1.0000
  H   H828      1.0  0.10994  0.16171  0.51091  1.0000
  H   H829      1.0  0.17248  0.16964  0.44548  1.0000
  H   H830      1.0  0.12935  0.13736  0.52353  1.0000
  H   H831      1.0  0.13576  0.10995  0.51517  1.0000
  N   N44       1.0  0.09777  0.38697  0.45963  1.0000
  C   C698      1.0  0.08891  0.39813  0.44623  1.0000
  C   C699      1.0  0.09455  0.39643  0.47313  1.0000
  C   C700      1.0  0.11650  0.38351  0.45254  1.0000
  C   C701      1.0  0.09167  0.37093  0.46560  1.0000
  C   C702      1.0  0.08182  0.36611  0.48214  1.0000
  C   C703      1.0  0.09513  0.35976  0.45452  1.0000
  C   C704      1.0  0.07641  0.35077  0.48732  1.0000
  C   C705      1.0  0.08963  0.34449  0.45982  1.0000
  C   C706      1.0  0.08048  0.33990  0.47626  1.0000
  H   H832      1.0  0.07476  0.40029  0.45077  1.0000
  H   H833      1.0  0.09243  0.41073  0.44196  1.0000
  H   H834      1.0  0.09222  0.39261  0.43487  1.0000
  H   H835      1.0  0.08062  0.40073  0.47817  1.0000
  H   H836      1.0  0.09978  0.40814  0.46841  1.0000
  H   H837      1.0  0.10068  0.38867  0.48379  1.0000
  H   H838      1.0  0.11995  0.37862  0.44076  1.0000
  H   H839      1.0  0.12168  0.39519  0.44903  1.0000
  H   H840      1.0  0.12353  0.37412  0.46183  1.0000
  H   H841      1.0  0.07812  0.37394  0.49135  1.0000
  H   H842      1.0  0.10203  0.36284  0.44159  1.0000
  H   H843      1.0  0.06894  0.34738  0.50000  1.0000
  H   H844      1.0  0.09239  0.33627  0.45103  1.0000
  H   H845      1.0  0.07645  0.32795  0.48039  1.0000
  C   C707      1.0  0.33526  0.28357  0.40038  1.0000
  N   N45       1.0  0.34946  0.15167  0.47423  1.0000
  C   C708      1.0  0.33157  0.15888  0.48201  1.0000
  C   C709      1.0  0.34894  0.14466  0.46000  1.0000
  C   C710      1.0  0.35668  0.13732  0.48688  1.0000
  C   C711      1.0  0.35978  0.16481  0.46910  1.0000
  C   C712      1.0  0.36161  0.17253  0.48135  1.0000
  C   C713      1.0  0.36823  0.17036  0.45211  1.0000
  C   C714      1.0  0.37158  0.18467  0.47701  1.0000
  C   C715      1.0  0.37811  0.18259  0.44785  1.0000
  C   C716      1.0  0.22877  0.01666  0.55272  1.0000
  H   H846      1.0  0.32322  0.14959  0.48527  1.0000
  H   H847      1.0  0.33060  0.16254  0.49405  1.0000
  H   H848      1.0  0.32597  0.17036  0.47329  1.0000
  H   H849      1.0  0.34282  0.15459  0.45032  1.0000
  H   H850      1.0  0.34151  0.13446  0.46439  1.0000
  H   H851      1.0  0.36197  0.13878  0.45368  1.0000
  H   H852      1.0  0.35619  0.14111  0.49866  1.0000
  H   H853      1.0  0.34938  0.12709  0.49086  1.0000
  H   H854      1.0  0.37021  0.13164  0.48176  1.0000
  H   H855      1.0  0.35523  0.16928  0.49443  1.0000
  H   H856      1.0  0.36724  0.16560  0.44183  1.0000
  H   H857      1.0  0.30272  0.37145  0.41682  1.0000
  C   C717      1.0  0.40158  0.11385  0.57419  1.0000
  N   N46       1.0  0.34223  0.40480  0.40599  1.0000
  C   C718      1.0  0.33101  0.39293  0.40838  1.0000
  H   H858      1.0  0.08593  0.25214  0.40570  1.0000
  C   C719      1.0  0.36038  0.39548  0.40323  1.0000
  C   C720      1.0  0.33797  0.41189  0.42129  1.0000
  C   C721      1.0  0.34036  0.40107  0.43708  1.0000
  C   C722      1.0  0.33144  0.42946  0.42109  1.0000
  C   C723      1.0  0.33682  0.40746  0.45165  1.0000
  C   C724      1.0  0.32792  0.43570  0.43576  1.0000
  C   C725      1.0  0.33065  0.42474  0.45097  1.0000
  H   H859      1.0  0.31722  0.39931  0.41121  1.0000
  H   H860      1.0  0.10813  0.36614  0.51876  1.0000
  H   H861      1.0  0.33312  0.38179  0.41896  1.0000
  S   S225      1.0  0.49108  0.21819  0.40686  1.0000
  S   S226      1.0  0.19951  0.99389  0.52388  1.0000
  H   H862      1.0  0.03376  0.42272  0.57124  1.0000
  H   H863      1.0  0.36267  0.38386  0.41322  1.0000
  H   H864      1.0  0.19201  0.00383  0.41689  1.0000
  H   H865      1.0  0.44564  0.41223  0.57641  1.0000
  Fe  Fe117     1.0  0.27431  0.48507  0.51963  1.0000
  H   H866      1.0  0.32906  0.43866  0.40975  1.0000
  H   H867      1.0  0.49744  0.23368  0.50954  1.0000
  H   H868      1.0  0.32327  0.44918  0.43530  1.0000
  H   H869      1.0  0.32808  0.42967  0.46226  1.0000
  N   N47       1.0  0.20702  0.43597  0.44413  1.0000
  C   C726      1.0  0.19509  0.43158  0.46056  1.0000
  C   C727      1.0  0.22391  0.43456  0.44781  1.0000
  C   C728      1.0  0.20089  0.45391  0.43608  1.0000
  C   C729      1.0  0.20756  0.42486  0.43293  1.0000
  C   C730      1.0  0.19234  0.42465  0.42845  1.0000
  C   C731      1.0  0.22291  0.41414  0.42609  1.0000
  C   C732      1.0  0.19247  0.41433  0.41789  1.0000
  C   C733      1.0  0.22287  0.40389  0.41553  1.0000
  C   C734      1.0  0.20768  0.40390  0.41154  1.0000
  H   H870      1.0  0.18173  0.43356  0.45918  1.0000
  H   H871      1.0  0.19904  0.41808  0.46687  1.0000
  H   H872      1.0  0.19444  0.43959  0.46941  1.0000
  H   H873      1.0  0.22915  0.42139  0.45418  1.0000
  H   H874      1.0  0.24815  0.08121  0.40887  1.0000
  H   H875      1.0  0.23339  0.43840  0.43607  1.0000
  H   H876      1.0  0.18763  0.45640  0.43426  1.0000
  C   C735      1.0  0.07289  0.25150  0.40654  1.0000
  H   H877      1.0  0.45923  0.19967  0.56597  1.0000
  H   H878      1.0  0.18020  0.43248  0.43307  1.0000
  H   H879      1.0  0.23520  0.41344  0.42856  1.0000
  H   H880      1.0  0.18075  0.41446  0.41447  1.0000
  H   H881      1.0  0.23478  0.39595  0.41030  1.0000
  C   C736      1.0  0.41660  0.37837  0.57287  1.0000
  C   C737      1.0  0.48869  0.39644  0.52421  1.0000
  H   H882      1.0  0.10365  0.13152  0.47943  1.0000
  H   H883      1.0  0.10578  0.99393  0.48651  1.0000
  C   C738      1.0  0.20468  0.06302  0.47803  1.0000
  H   H884      1.0  0.38856  0.22950  0.39388  1.0000
  H   H885      1.0  0.23044  0.06216  0.50416  1.0000
  H   H886      1.0  0.45177  0.27964  0.51664  1.0000
  C   C739      1.0  0.23128  0.07229  0.46212  1.0000
  H   H887      1.0  0.23923  0.07698  0.45009  1.0000
  H   H888      1.0  0.07622  0.04429  0.40903  1.0000
  C   C740      1.0  0.19494  0.02506  0.53053  1.0000
  C   C741      1.0  0.16977  0.13700  0.44881  1.0000
  C   C742      1.0  0.47949  0.33566  0.50756  1.0000
  Fe  Fe118     1.0  0.38320  0.31347  0.38740  1.0000
  H   H889      1.0  0.07332  0.43996  0.52243  1.0000
  C   C743      1.0  0.21077  0.06027  0.49296  1.0000
  C   C744      1.0  0.17427  0.06888  0.49113  1.0000
  Fe  Fe119     1.0  0.03695  0.38506  0.57233  1.0000
  C   C745      1.0  0.27491  0.45205  0.46061  1.0000
  H   H890      1.0  0.24851  0.07317  0.47670  1.0000
  C   C746      1.0  0.24002  0.00074  0.55120  1.0000
  H   H891      1.0  0.20051  0.46271  0.44404  1.0000
  C   C747      1.0  0.46265  0.29153  0.54900  1.0000
  H   H892      1.0  0.10228  0.34944  0.54745  1.0000
  C   C748      1.0  0.17880  0.48471  0.39680  1.0000
  H   H893      1.0  0.44988  0.32820  0.42142  1.0000
  C   C749      1.0  0.36347  0.29587  0.55468  1.0000
  H   H894      1.0  0.21274  0.07019  0.45044  1.0000
  C   C750      1.0  0.06453  0.08725  0.39825  1.0000
  C   C751      1.0  0.33378  0.47858  0.55690  1.0000
  C   C752      1.0  0.09384  0.35397  0.41059  1.0000
  C   C753      1.0  0.47816  0.27973  0.54810  1.0000
  H   H895      1.0  0.31744  0.26769  0.39028  1.0000
  C   C754      1.0  0.11359  0.18533  0.56863  1.0000
  H   H896      1.0  0.39234  0.09202  0.57325  1.0000
  S   S227      1.0  0.11915  0.37125  0.40484  1.0000
  H   H897      1.0  0.12621  0.04647  0.39454  1.0000
  C   C755      1.0  0.19384  0.14683  0.42850  1.0000
  H   H898      1.0  0.45078  0.28741  0.55538  1.0000
  H   H899      1.0  0.46540  0.19165  0.47997  1.0000
  H   H900      1.0  0.34777  0.27535  0.39586  1.0000
  H   H901      1.0  0.48203  0.39487  0.38663  1.0000
  H   H902      1.0  0.36453  0.29554  0.49659  1.0000
  S   S228      1.0  0.24829  0.44283  0.39768  1.0000
  C   C756      1.0  0.25750  0.00091  0.54369  1.0000
  H   H903      1.0  0.46556  0.26996  0.46257  1.0000
  H   H904      1.0  0.17919  0.00501  0.40268  1.0000
  H   H905      1.0  0.34511  0.38754  0.43826  1.0000
  C   C757      1.0  0.11756  0.08409  0.57300  1.0000
  C   C758      1.0  0.31612  0.14635  0.40781  1.0000
  H   H906      1.0  0.44360  0.10309  0.57708  1.0000
  C   C759      1.0  0.43411  0.30253  0.47463  1.0000
  H   H907      1.0  0.46641  0.23346  0.53730  1.0000
  H   H908      1.0  0.43331  0.32867  0.46431  1.0000
  C   C760      1.0  0.38845  0.27165  0.38603  1.0000
  C   C761      1.0  0.10465  0.34314  0.53717  1.0000
  C   C762      1.0  0.49305  0.30210  0.53207  1.0000
  C   C763      1.0  0.35076  0.42122  0.55633  1.0000
  H   H909      1.0  0.21173  0.99212  0.57585  1.0000
  H   H910      1.0  0.16118  0.06778  0.49119  1.0000
  N   N48       1.0  0.47152  0.24848  0.51196  1.0000
  H   H911      1.0  0.20434  0.12793  0.39433  1.0000
  Fe  Fe120     1.0  0.41404  0.18439  0.56744  1.0000
  C   C764      1.0  0.33601  0.16913  0.56912  1.0000
  H   H912      1.0  0.49291  0.14599  0.50683  1.0000
  H   H913      1.0  0.49145  0.35156  0.52509  1.0000
  H   H914      1.0  0.38443  0.31765  0.53938  1.0000
  C   C765      1.0  0.47791  0.40225  0.55760  1.0000
  Fe  Fe121     1.0  0.04485  0.30900  0.40587  1.0000
  N   N49       1.0  0.18771  0.05985  0.47896  1.0000
  C   C766      1.0  0.07309  0.09193  0.40824  1.0000
  C   C767      1.0  0.49207  0.33767  0.52938  1.0000
  C   C768      1.0  0.41652  0.39418  0.57545  1.0000
  C   C769      1.0  0.08486  0.32441  0.56779  1.0000
  C   C770      1.0  0.47759  0.31462  0.53358  1.0000
  C   C771      1.0  0.47302  0.39325  0.53416  1.0000
  H   H915      1.0  0.01978  0.29173  0.45785  1.0000
  C   C772      1.0  0.08683  0.48839  0.49439  1.0000
  N   N50       1.0  0.47760  0.33276  0.52606  1.0000
  H   H916      1.0  0.34895  0.34408  0.52450  1.0000
  H   H917      1.0  0.47775  0.29303  0.44365  1.0000
  C   C773      1.0  0.34861  0.48198  0.55891  1.0000
  H   H918      1.0  0.13217  0.03903  0.51169  1.0000
  C   C774      1.0  0.12469  0.47850  0.56793  1.0000
  C   C775      1.0  0.49317  0.21584  0.56404  1.0000
  C   C776      1.0  0.44294  0.28595  0.47420  1.0000
  H   H919      1.0  0.34259  0.43305  0.56021  1.0000
  S   S229      1.0  0.16340  0.04181  0.40550  1.0000
  H   H920      1.0  0.46484  0.38882  0.52900  1.0000
  H   H921      1.0  0.38917  0.42808  0.55595  1.0000
  C   C777      1.0  0.18923  0.99632  0.40930  1.0000
  Fe  Fe122     1.0  0.14160  0.06399  0.40930  1.0000
  H   H922      1.0  0.45562  0.39291  0.55776  1.0000
  C   C778      1.0  0.10788  0.31862  0.52580  1.0000
  C   C779      1.0  0.34807  0.17565  0.57258  1.0000
  N   N51       1.0  0.18539  0.14328  0.44668  1.0000
  H   H923      1.0  0.45877  0.25556  0.53596  1.0000
  H   H924      1.0  0.20256  0.11891  0.45156  1.0000
  H   H925      1.0  0.49283  0.39430  0.51143  1.0000
  H   H926      1.0  0.28794  0.08597  0.53485  1.0000
  C   C780      1.0  0.48509  0.23421  0.50642  1.0000
  H   H927      1.0  0.00344  0.32857  0.58231  1.0000
  H   H928      1.0  0.19086  0.05817  0.45304  1.0000
  C   C781      1.0  0.29219  0.32582  0.40612  1.0000
  S   S230      1.0  0.30680  0.46256  0.56710  1.0000
  Fe  Fe123     1.0  0.17325  0.10651  0.55892  1.0000
  C   C782      1.0  0.03306  0.44231  0.58350  1.0000
  N   N52       1.0  0.36854  0.42321  0.54837  1.0000
  H   H929      1.0  0.34460  0.41840  0.54754  1.0000
  H   H930      1.0  0.26365  0.44604  0.46602  1.0000
  H   H931      1.0  0.33142  0.31613  0.55506  1.0000
  C   C783      1.0  0.36823  0.43753  0.53348  1.0000
  C   C784      1.0  0.37187  0.45324  0.53311  1.0000
  C   C785      1.0  0.36346  0.43625  0.51899  1.0000
  C   C786      1.0  0.36279  0.44965  0.50488  1.0000
  H   H932      1.0  0.09557  0.29132  0.57217  1.0000
  H   H933      1.0  0.10752  0.15650  0.56546  1.0000
  H   H934      1.0  0.46243  0.35789  0.52789  1.0000
  C   C787      1.0  0.09140  0.45170  0.54794  1.0000
  C   C788      1.0  0.11821  0.05425  0.38591  1.0000
  H   H935      1.0  0.07426  0.32804  0.56096  1.0000
  H   H936      1.0  0.44980  0.31711  0.54291  1.0000
  H   H937      1.0  0.09000  0.08110  0.42610  1.0000
  C   C789      1.0  0.25821  0.48054  0.46502  1.0000
  H   H938      1.0  0.37518  0.45562  0.54366  1.0000
  H   H939      1.0  0.35997  0.42494  0.51854  1.0000
  C   C790      1.0  0.13176  0.02780  0.50796  1.0000
  C   C791      1.0  0.18821  0.04144  0.48477  1.0000
  H   H940      1.0  0.19128  0.03639  0.49749  1.0000
  H   H941      1.0  0.17566  0.03849  0.48572  1.0000
  H   H942      1.0  0.17442  0.08259  0.48808  1.0000
  H   H943      1.0  0.17576  0.06372  0.50440  1.0000
  N   N53       1.0  0.28922  0.02114  0.48136  1.0000
  C   C792      1.0  0.29925  0.02930  0.46518  1.0000
  C   C793      1.0  0.28540  0.00599  0.47849  1.0000
  C   C794      1.0  0.27263  0.03298  0.48581  1.0000
  C   C795      1.0  0.29890  0.01715  0.49486  1.0000
  C   C796      1.0  0.30315  0.03037  0.49935  1.0000
  C   C797      1.0  0.30460  0.00033  0.50369  1.0000
  N   N54       1.0  0.27317  0.46664  0.46818  1.0000
  C   C798      1.0  0.46163  0.34433  0.53277  1.0000
  H   H944      1.0  0.37325  0.32074  0.56014  1.0000
  H   H945      1.0  0.30159  0.04150  0.46583  1.0000
  H   H946      1.0  0.31200  0.02097  0.46160  1.0000
  H   H947      1.0  0.29255  0.03231  0.45459  1.0000
  H   H948      1.0  0.29733  0.99676  0.47439  1.0000
  H   H949      1.0  0.27803  0.00936  0.46837  1.0000
  H   H950      1.0  0.27763  0.99930  0.49010  1.0000
  H   H951      1.0  0.26476  0.03584  0.47618  1.0000
  H   H952      1.0  0.26501  0.02760  0.49827  1.0000
  H   H953      1.0  0.27433  0.04542  0.48653  1.0000
  H   H954      1.0  0.29950  0.04346  0.49302  1.0000
  H   H955      1.0  0.33328  0.38776  0.39695  1.0000
  C   C799      1.0  0.46942  0.24600  0.53050  1.0000
  H   H956      1.0  0.25975  0.45525  0.49258  1.0000
  C   C800      1.0  0.19540  0.48758  0.39275  1.0000
  C   C801      1.0  0.34187  0.32137  0.55626  1.0000
  C   C802      1.0  0.46228  0.30871  0.54182  1.0000
  H   H957      1.0  0.10120  0.47476  0.38974  1.0000
  C   C803      1.0  0.49386  0.40519  0.54715  1.0000
  C   C804      1.0  0.22636  0.06392  0.49248  1.0000
  C   C805      1.0  0.21575  0.06860  0.46250  1.0000
  H   H958      1.0  0.06931  0.46217  0.58445  1.0000
  H   H959      1.0  0.43741  0.27552  0.48244  1.0000
  N   N55       1.0  0.12311  0.16778  0.57405  1.0000
  C   C806      1.0  0.32140  0.16170  0.40085  1.0000
  C   C807      1.0  0.35164  0.33600  0.50197  1.0000
  C   C808      1.0  0.37170  0.32260  0.54699  1.0000
  N   N56       1.0  0.42028  0.13906  0.42967  1.0000
  C   C809      1.0  0.41312  0.12375  0.43315  1.0000
  C   C810      1.0  0.41152  0.15229  0.41732  1.0000
  C   C811      1.0  0.43876  0.13459  0.42173  1.0000
  C   C812      1.0  0.41799  0.14574  0.44487  1.0000
  C   C813      1.0  0.42544  0.15941  0.44381  1.0000
  C   C814      1.0  0.40788  0.13950  0.46082  1.0000
  C   C815      1.0  0.42311  0.16631  0.45782  1.0000
  C   C816      1.0  0.40564  0.14649  0.47476  1.0000
  C   C817      1.0  0.41328  0.15981  0.47329  1.0000
  H   H960      1.0  0.39894  0.12658  0.43767  1.0000
  H   H961      1.0  0.41547  0.11882  0.42152  1.0000
  H   H962      1.0  0.41897  0.11329  0.44262  1.0000
  H   H963      1.0  0.39756  0.15596  0.42261  1.0000
  H   H964      1.0  0.41309  0.14783  0.40562  1.0000
  H   H965      1.0  0.41668  0.16397  0.41338  1.0000
  H   H966      1.0  0.44614  0.12576  0.43105  1.0000
  H   H967      1.0  0.44092  0.12847  0.41092  1.0000
  H   H968      1.0  0.44457  0.14589  0.41625  1.0000
  H   H969      1.0  0.43298  0.16502  0.43205  1.0000
  H   H970      1.0  0.40152  0.12928  0.46286  1.0000
  H   H971      1.0  0.42881  0.17689  0.45662  1.0000
  H   H972      1.0  0.39782  0.14164  0.48678  1.0000
  H   H973      1.0  0.41138  0.16527  0.48410  1.0000
  N   N57       1.0  0.07764  0.28035  0.45758  1.0000
  C   C818      1.0  0.08814  0.26877  0.46959  1.0000
  C   C819      1.0  0.06664  0.27078  0.45452  1.0000
  C   C820      1.0  0.08970  0.28543  0.44140  1.0000
  C   C821      1.0  0.06658  0.29531  0.46411  1.0000
  C   C822      1.0  0.06145  0.29525  0.48169  1.0000
  C   C823      1.0  0.05967  0.31014  0.45301  1.0000
  C   C824      1.0  0.05063  0.30934  0.48763  1.0000
  C   C825      1.0  0.04898  0.32422  0.45906  1.0000
  C   C826      1.0  0.04444  0.32381  0.47634  1.0000
  H   H974      1.0  0.09740  0.25831  0.46402  1.0000
  H   H975      1.0  0.09553  0.27566  0.47359  1.0000
  H   H976      1.0  0.07440  0.25983  0.44877  1.0000
  H   H977      1.0  0.05828  0.27885  0.44574  1.0000
  H   H978      1.0  0.05824  0.26552  0.46649  1.0000
  H   H979      1.0  0.09688  0.29432  0.44253  1.0000
  H   H980      1.0  0.09919  0.27428  0.43731  1.0000
  H   H981      1.0  0.08317  0.29140  0.43066  1.0000
  H   H982      1.0  0.06565  0.28443  0.49117  1.0000
  H   H983      1.0  0.04716  0.30901  0.50110  1.0000
  H   H984      1.0  0.03612  0.33475  0.48094  1.0000
  H   H985      1.0  0.38006  0.15464  0.56157  1.0000
  S   S231      1.0  0.04826  0.21657  0.40480  1.0000
  H   H986      1.0  0.46096  0.14972  0.50719  1.0000
  H   H987      1.0  0.21526  0.01788  0.55830  1.0000
  C   C827      1.0  0.45869  0.28287  0.46301  1.0000
  C   C828      1.0  0.46773  0.39591  0.55068  1.0000
  C   C829      1.0  0.49696  0.14859  0.47202  1.0000
  H   H988      1.0  0.38083  0.39661  0.55412  1.0000
  C   C830      1.0  0.11174  0.15588  0.57711  1.0000
  C   C831      1.0  0.06553  0.07022  0.39879  1.0000
  H   H989      1.0  0.45196  0.23478  0.51498  1.0000
  H   H990      1.0  0.30067  0.46315  0.46377  1.0000
  S   S232      1.0  0.31039  0.06568  0.39043  1.0000
  C   C832      1.0  0.05199  0.31444  0.54964  1.0000
  C   C833      1.0  0.06559  0.11293  0.42539  1.0000
  C   C834      1.0  0.19822  0.13107  0.45590  1.0000
  S   S233      1.0  0.27903  0.11166  0.55507  1.0000
  H   H991      1.0  0.09949  0.46025  0.54680  1.0000
  S   S234      1.0  0.05759  0.20529  0.55829  1.0000
  H   H992      1.0  0.21338  0.01295  0.39246  1.0000
  C   C835      1.0  0.23652  0.07012  0.47707  1.0000
  H   H993      1.0  0.32838  0.48560  0.54609  1.0000
  H   H994      1.0  0.18510  0.47486  0.54089  1.0000
  H   H995      1.0  0.12951  0.00767  0.38971  1.0000
  C   C836      1.0  0.08368  0.06158  0.41895  1.0000
  C   C837      1.0  0.05279  0.29691  0.55420  1.0000
  H   H996      1.0  0.19116  0.04981  0.53562  1.0000
  H   H997      1.0  0.18040  0.15038  0.52054  1.0000
  H   H998      1.0  0.28277  0.44964  0.48961  1.0000
  H   H999      1.0  0.13993  0.01244  0.47274  1.0000
  C   C838      1.0  0.48201  0.19867  0.54623  1.0000
  C   C839      1.0  0.18502  0.04029  0.53491  1.0000
  C   C840      1.0  0.38272  0.14092  0.56465  1.0000
  C   C841      1.0  0.04280  0.26476  0.40957  1.0000
  H   H1000     1.0  0.07983  0.22574  0.40317  1.0000
  C   C842      1.0  0.37536  0.11484  0.56554  1.0000
  C   C843      1.0  0.08275  0.07854  0.41855  1.0000
  H   H1001     1.0  0.35978  0.13942  0.55852  1.0000
  N   N58       1.0  0.35862  0.31398  0.54629  1.0000
  C   C844      1.0  0.32571  0.46659  0.56916  1.0000
  C   C845      1.0  0.38607  0.24283  0.38799  1.0000
  H   H1002     1.0  0.07386  0.34020  0.41571  1.0000
  C   C846      1.0  0.14795  0.16774  0.49961  1.0000
  H   H1003     1.0  0.42832  0.27124  0.55138  1.0000
  H   H1004     1.0  0.49812  0.39349  0.57987  1.0000
  H   H1005     1.0  0.48133  0.24663  0.53374  1.0000
  C   C847      1.0  0.48201  0.29813  0.48769  1.0000
  H   H1006     1.0  0.08861  0.46892  0.57246  1.0000
  H   H1007     1.0  0.12755  0.30762  0.55849  1.0000
  C   C848      1.0  0.47538  0.26537  0.50345  1.0000
  H   H1008     1.0  0.08720  0.39653  0.40623  1.0000
  C   C849      1.0  0.15235  0.11536  0.46041  1.0000
  H   H1009     1.0  0.14041  0.03766  0.48150  1.0000
  H   H1010     1.0  0.34789  0.34883  0.49497  1.0000
  C   C850      1.0  0.16177  0.15581  0.50532  1.0000
  C   C851      1.0  0.37983  0.18969  0.46028  1.0000
  C   C852      1.0  0.31245  0.02700  0.51189  1.0000
  H   H1011     1.0  0.24290  0.11525  0.56129  1.0000
  C   C853      1.0  0.26666  0.10156  0.54862  1.0000
  C   C854      1.0  0.16717  0.04334  0.53797  1.0000
  C   C855      1.0  0.47398  0.42240  0.57507  1.0000
  C   C856      1.0  0.16725  0.12087  0.45889  1.0000
  H   H1012     1.0  0.14214  0.16523  0.49077  1.0000
  C   C857      1.0  0.18236  0.06558  0.46248  1.0000
  C   C858      1.0  0.16914  0.01546  0.53346  1.0000
  H   H1013     1.0  0.46572  0.43223  0.56713  1.0000
  C   C859      1.0  0.13904  0.00534  0.41176  1.0000
  C   C860      1.0  0.46690  0.29637  0.49961  1.0000
  N   N59       1.0  0.46314  0.32814  0.44011  1.0000
  C   C861      1.0  0.24877  0.10603  0.55345  1.0000
  S   S235      1.0  0.16906  0.13631  0.49908  1.0000
  S   S236      1.0  0.18965  0.08953  0.51782  1.0000
  C   C862      1.0  0.14155  0.14159  0.44236  1.0000
  H   H1014     1.0  0.14542  0.03317  0.53986  1.0000
  H   H1015     1.0  0.12169  0.19465  0.56645  1.0000
  H   H1016     1.0  0.11558  0.42583  0.57275  1.0000
  C   C863      1.0  0.13071  0.99836  0.49815  1.0000
  C   C864      1.0  0.31398  0.99710  0.51615  1.0000
  H   H1017     1.0  0.46888  0.21511  0.58149  1.0000
  H   H1018     1.0  0.12174  0.05890  0.56934  1.0000
  C   C865      1.0  0.39021  0.10560  0.57119  1.0000
  H   H1019     1.0  0.47989  0.34912  0.50125  1.0000
  Fe  Fe124     1.0  0.12515  0.39713  0.39903  1.0000
  H   H1020     1.0  0.38754  0.19914  0.45692  1.0000
  C   C866      1.0  0.27416  0.08952  0.53859  1.0000
  Fe  Fe125     1.0  0.26739  0.45735  0.39689  1.0000
  S   S237      1.0  0.15466  0.06304  0.54145  1.0000
  H   H1021     1.0  0.48795  0.18847  0.47837  1.0000
  H   H1022     1.0  0.34196  0.31880  0.56994  1.0000
  C   C867      1.0  0.48041  0.32332  0.42949  1.0000
  H   H1023     1.0  0.31369  0.17207  0.39347  1.0000
  H   H1024     1.0  0.36804  0.43638  0.56732  1.0000
  C   C868      1.0  0.07506  0.05744  0.40911  1.0000
  H   H1025     1.0  0.44974  0.17030  0.49824  1.0000
  H   H1026     1.0  0.38439  0.18671  0.43480  1.0000
  H   H1027     1.0  0.12792  0.12158  0.45365  1.0000
  S   S238      1.0  0.42645  0.20698  0.55908  1.0000
  H   H1028     1.0  0.49157  0.32773  0.50170  1.0000
  H   H1029     1.0  0.07050  0.42160  0.57521  1.0000
  S   S239      1.0  0.02346  0.31385  0.39265  1.0000
  H   H1030     1.0  0.10408  0.34283  0.41009  1.0000
  C   C869      1.0  0.25199  0.03140  0.53974  1.0000
  H   H1031     1.0  0.43437  0.11079  0.55860  1.0000
  C   C870      1.0  0.35747  0.31655  0.52847  1.0000
  C   C871      1.0  0.35225  0.33312  0.51897  1.0000
  H   H1032     1.0  0.13292  0.16537  0.54806  1.0000
  C   C872      1.0  0.44352  0.18279  0.39515  1.0000
  Fe  Fe126     1.0  0.17677  0.11591  0.52093  1.0000
  C   C873      1.0  0.23839  0.09870  0.54818  1.0000
  H   H1033     1.0  0.22463  0.10225  0.55204  1.0000
  H   H1034     1.0  0.20617  0.15070  0.42645  1.0000
  H   H1035     1.0  0.32238  0.47103  0.40579  1.0000
  C   C874      1.0  0.46867  0.16338  0.46743  1.0000
  H   H1036     1.0  0.08050  0.31631  0.58031  1.0000
  H   H1037     1.0  0.35889  0.44838  0.49406  1.0000
  H   H1038     1.0  0.33834  0.33541  0.55215  1.0000
  C   C875      1.0  0.47159  0.20296  0.56119  1.0000
  H   H1039     1.0  0.42046  0.41933  0.56322  1.0000
  H   H1040     1.0  0.04549  0.29150  0.56629  1.0000
  Fe  Fe127     1.0  0.17011  0.08144  0.54075  1.0000
  C   C876      1.0  0.24583  0.08676  0.53809  1.0000
  C   C877      1.0  0.26374  0.08203  0.53347  1.0000
  S   S240      1.0  0.05902  0.36699  0.56003  1.0000
  Fe  Fe128     1.0  0.15454  0.41586  0.38654  1.0000
  C   C878      1.0  0.01276  0.29709  0.46876  1.0000
  C   C879      1.0  0.46407  0.34035  0.44953  1.0000
  S   S241      1.0  0.15586  0.10788  0.54230  1.0000
  H   H1041     1.0  0.15497  0.48024  0.58014  1.0000
  Fe  Fe129     1.0  0.20461  0.08952  0.53642  1.0000
  H   H1042     1.0  0.03169  0.45233  0.57239  1.0000
  H   H1043     1.0  0.08981  0.12665  0.40138  1.0000
  C   C880      1.0  0.13697  0.12005  0.38585  1.0000
  H   H1044     1.0  0.26955  0.07269  0.52579  1.0000
  H   H1045     1.0  0.20922  0.45754  0.42345  1.0000
  H   H1046     1.0  0.42181  0.30495  0.48324  1.0000
  C   C881      1.0  0.35613  0.32249  0.49391  1.0000
  H   H1047     1.0  0.32533  0.35260  0.40023  1.0000
  S   S242      1.0  0.19331  0.11681  0.53754  1.0000
  S   S243      1.0  0.23300  0.07816  0.53053  1.0000
  H   H1048     1.0  0.10952  0.18712  0.55659  1.0000
  H   H1049     1.0  0.00833  0.33068  0.55168  1.0000
  H   H1050     1.0  0.36560  0.28994  0.52609  1.0000
  N   N60       1.0  0.09074  0.44180  0.57912  1.0000
  H   H1051     1.0  0.11536  0.44798  0.56615  1.0000
  C   C882      1.0  0.17867  0.13874  0.39034  1.0000
  H   H1052     1.0  0.45290  0.22773  0.40391  1.0000
  H   H1053     1.0  0.13151  0.14967  0.43605  1.0000
  H   H1054     1.0  0.35025  0.41072  0.56776  1.0000
  C   C883      1.0  0.07523  0.43027  0.56391  1.0000
  H   H1055     1.0  0.44427  0.25701  0.51298  1.0000
  H   H1056     1.0  0.11372  0.47603  0.45961  1.0000
  H   H1057     1.0  0.36586  0.47523  0.49395  1.0000
  C   C884      1.0  0.11526  0.31399  0.56573  1.0000
  C   C885      1.0  0.45124  0.33691  0.42860  1.0000
  C   C886      1.0  0.08578  0.44111  0.56374  1.0000
  H   H1058     1.0  0.45306  0.24543  0.41135  1.0000
  H   H1059     1.0  0.31567  0.03733  0.51495  1.0000
  H   H1060     1.0  0.13972  0.10935  0.39662  1.0000
  H   H1061     1.0  0.46868  0.33260  0.50445  1.0000
  C   C887      1.0  0.10745  0.09611  0.58222  1.0000
  C   C888      1.0  0.10430  0.32573  0.54024  1.0000
  H   H1062     1.0  0.24785  0.46909  0.45054  1.0000
  H   H1063     1.0  0.35584  0.32479  0.48065  1.0000
  H   H1064     1.0  0.11696  0.32651  0.56625  1.0000
  N   N61       1.0  0.41639  0.10445  0.58192  1.0000
  S   S244      1.0  0.48874  0.21639  0.44700  1.0000
  C   C889      1.0  0.47588  0.18542  0.48693  1.0000
  H   H1065     1.0  0.34832  0.42707  0.38756  1.0000
  H   H1066     1.0  0.45889  0.34191  0.54682  1.0000
  H   H1067     1.0  0.11375  0.32280  0.49861  1.0000
  H   H1068     1.0  0.11408  0.35308  0.49420  1.0000
  N   N62       1.0  0.10085  0.31569  0.55779  1.0000
  H   H1069     1.0  0.31936  0.31951  0.39954  1.0000
  H   H1070     1.0  0.36408  0.29435  0.56808  1.0000
  C   C890      1.0  0.37606  0.42567  0.56142  1.0000
  H   H1071     1.0  0.29191  0.28679  0.39027  1.0000
  C   C891      1.0  0.30965  0.47859  0.40906  1.0000
  H   H1072     1.0  0.05274  0.10985  0.43081  1.0000
  H   H1073     1.0  0.08828  0.29883  0.55286  1.0000
  H   H1074     1.0  0.37242  0.40273  0.53563  1.0000
  C   C892      1.0  0.49068  0.26762  0.49119  1.0000
  H   H1075     1.0  0.34052  0.17568  0.39793  1.0000
  H   H1076     1.0  0.14633  0.17273  0.55651  1.0000
  H   H1077     1.0  0.07404  0.10531  0.43421  1.0000
  C   C893      1.0  0.23475  0.03171  0.54700  1.0000
  H   H1078     1.0  0.43131  0.12396  0.57327  1.0000
  H   H1079     1.0  0.09887  0.10503  0.40973  1.0000
  C   C894      1.0  0.13749  0.16392  0.55974  1.0000
  H   H1080     1.0  0.13222  0.13191  0.39068  1.0000
  C   C895      1.0  0.28768  0.38120  0.39771  1.0000
  C   C896      1.0  0.06946  0.23645  0.40531  1.0000
  C   C897      1.0  0.33255  0.45803  0.58344  1.0000
  H   H1081     1.0  0.37714  0.41433  0.57202  1.0000
  N   N63       1.0  0.32534  0.29107  0.38690  1.0000
  H   H1082     1.0  0.46996  0.35093  0.44095  1.0000
  C   C898      1.0  0.42034  0.08590  0.58285  1.0000
  S   S245      1.0  0.37366  0.47863  0.57538  1.0000
  H   H1083     1.0  0.35309  0.18600  0.56345  1.0000
  H   H1084     1.0  0.26479  0.32984  0.41124  1.0000
  H   H1085     1.0  0.11099  0.10817  0.57993  1.0000
  S   S246      1.0  0.49778  0.25817  0.41412  1.0000
  H   H1086     1.0  0.49225  0.33399  0.54308  1.0000
  H   H1087     1.0  0.22599  0.04374  0.54836  1.0000
  H   H1088     1.0  0.45123  0.34655  0.45592  1.0000
  H   H1089     1.0  0.48993  0.14087  0.43711  1.0000
  C   C899      1.0  0.30783  0.31571  0.39989  1.0000
  H   H1090     1.0  0.37373  0.47853  0.51901  1.0000
  S   S247      1.0  0.39362  0.33211  0.39435  1.0000
  H   H1091     1.0  0.16387  0.47636  0.55297  1.0000
  C   C900      1.0  0.48105  0.15943  0.47744  1.0000
  C   C901      1.0  0.43203  0.11086  0.57225  1.0000
  C   C902      1.0  0.35552  0.47338  0.57310  1.0000
  H   H1092     1.0  0.09530  0.11112  0.38874  1.0000
  C   C903      1.0  0.34003  0.41783  0.39030  1.0000
  H   H1093     1.0  0.09202  0.45888  0.52125  1.0000
  H   H1094     1.0  0.26680  0.98926  0.54229  1.0000
  H   H1095     1.0  0.05808  0.17140  0.57745  1.0000
  H   H1096     1.0  0.36679  0.10833  0.56338  1.0000
  H   H1097     1.0  0.06809  0.21712  0.58238  1.0000
  C   C904      1.0  0.24652  0.47985  0.45578  1.0000
  H   H1098     1.0  0.20791  0.99443  0.55507  1.0000
  H   H1099     1.0  0.01388  0.29336  0.50959  1.0000
  C   C905      1.0  0.30858  0.30128  0.39381  1.0000
  H   H1100     1.0  0.49001  0.31667  0.43740  1.0000
  S   S248      1.0  0.05426  0.33244  0.39059  1.0000
  H   H1101     1.0  0.40537  0.13910  0.57256  1.0000
  H   H1102     1.0  0.41356  0.36832  0.58364  1.0000
  C   C906      1.0  0.03425  0.42552  0.58280  1.0000
  H   H1103     1.0  0.06106  0.13552  0.39713  1.0000
  H   H1104     1.0  0.47010  0.16997  0.39199  1.0000
  H   H1105     1.0  0.32809  0.27567  0.41144  1.0000
  H   H1106     1.0  0.37332  0.01673  0.58023  1.0000
  C   C907      1.0  0.10482  0.48378  0.39438  1.0000
  H   H1107     1.0  0.12874  0.08687  0.56342  1.0000
  H   H1108     1.0  0.36909  0.40353  0.40307  1.0000
  H   H1109     1.0  0.17733  0.14992  0.39504  1.0000
  C   C908      1.0  0.00940  0.29803  0.49786  1.0000
  C   C909      1.0  0.27887  0.48229  0.41394  1.0000
  H   H1110     1.0  0.29107  0.47743  0.44696  1.0000
  C   C910      1.0  0.10967  0.43829  0.57637  1.0000
  H   H1111     1.0  0.32100  0.15011  0.57747  1.0000
  H   H1112     1.0  0.48718  0.23503  0.49261  1.0000
  C   C911      1.0  0.11360  0.06827  0.57643  1.0000
  C   C912      1.0  0.19383  0.12643  0.38995  1.0000
  S   S249      1.0  0.12737  0.08159  0.39014  1.0000
  H   H1113     1.0  0.20531  0.47880  0.38624  1.0000
  H   H1114     1.0  0.28920  0.48394  0.46592  1.0000
  H   H1115     1.0  0.11324  0.30644  0.57897  1.0000
  H   H1116     1.0  0.33158  0.17439  0.55738  1.0000
  C   C913      1.0  0.09388  0.47935  0.48161  1.0000
  N   N64       1.0  0.45012  0.25149  0.38545  1.0000
  H   H1117     1.0  0.10180  0.18888  0.57810  1.0000
  H   H1118     1.0  0.48463  0.31058  0.48167  1.0000
  H   H1119     1.0  0.11845  0.14258  0.58152  1.0000
  S   S250      1.0  0.16127  0.11918  0.58094  1.0000
  H   H1120     1.0  0.08626  0.33612  0.57050  1.0000
  C   C914      1.0  0.08351  0.45893  0.58277  1.0000
  H   H1121     1.0  0.43080  0.27299  0.39213  1.0000
  H   H1122     1.0  0.45162  0.27280  0.39431  1.0000
  C   C915      1.0  0.44468  0.26965  0.38636  1.0000
  C   C916      1.0  0.49833  0.20243  0.54049  1.0000
  H   H1123     1.0  0.30218  0.98936  0.50113  1.0000
  H   H1124     1.0  0.12136  0.98978  0.52549  1.0000
  N   N65       1.0  0.20475  0.98971  0.39723  1.0000
  H   H1125     1.0  0.15369  0.14663  0.38515  1.0000
  H   H1126     1.0  0.99856  0.27402  0.38579  1.0000
  H   H1127     1.0  0.34223  0.02219  0.58496  1.0000
  C   C917      1.0  0.21120  0.00444  0.38551  1.0000
  H   H1128     1.0  0.04230  0.11116  0.74108  1.0000
  H   H1129     1.0  0.07688  0.01582  0.75424  1.0000
  H   H1130     1.0  0.37760  0.02901  0.64623  1.0000
  H   H1131     1.0  0.08431  0.11842  0.69888  1.0000
  Fe  Fe130     1.0  0.43679  0.07555  0.77242  1.0000
  S   S251      1.0  0.44117  0.08033  0.74413  1.0000
  S   S252      1.0  0.09767  0.48282  0.61483  1.0000
  Fe  Fe131     1.0  0.41730  0.43888  0.73283  1.0000
  S   S253      1.0  0.43174  0.44746  0.74682  1.0000
  S   S254      1.0  0.43058  0.43603  0.70604  1.0000
  Fe  Fe132     1.0  0.38531  0.44106  0.76100  1.0000
  H   H1132     1.0  0.48594  0.44799  0.64752  1.0000
  Fe  Fe133     1.0  0.40763  0.46683  0.75219  1.0000
  H   H1133     1.0  0.43203  0.39354  0.65191  1.0000
  C   C918      1.0  0.43855  0.13104  0.60599  1.0000
  S   S255      1.0  0.39372  0.45927  0.73702  1.0000
  S   S256      1.0  0.40767  0.41971  0.75556  1.0000
  H   H1134     1.0  0.35254  0.45488  0.59655  1.0000
  H   H1135     1.0  0.05976  0.11178  0.76058  1.0000
  H   H1136     1.0  0.45133  0.40619  0.59647  1.0000
  H   H1137     1.0  0.38636  0.99948  0.66331  1.0000
  C   C919      1.0  0.11638  0.16929  0.60465  1.0000
  H   H1138     1.0  0.03687  0.00000  0.76122  1.0000
  C   C920      1.0  0.34749  0.46136  0.58539  1.0000
  C   C921      1.0  0.33589  0.14834  0.59552  1.0000
  C   C922      1.0  0.00333  0.42856  0.73807  1.0000
  H   H1139     1.0  0.46607  0.46365  0.77987  1.0000
  C   C923      1.0  0.35525  0.03107  0.61661  1.0000
  H   H1140     1.0  0.10171  0.02610  0.71990  1.0000
  H   H1141     1.0  0.38899  0.02988  0.69938  1.0000
  C   C924      1.0  0.34274  0.04596  0.61952  1.0000
  C   C925      1.0  0.01075  0.17593  0.64690  1.0000
  H   H1142     1.0  0.48561  0.08996  0.76981  1.0000
  Fe  Fe134     1.0  0.05829  0.11798  0.67708  1.0000
  S   S257      1.0  0.05870  0.09802  0.66370  1.0000
  S   S258      1.0  0.04998  0.11211  0.70568  1.0000
  Fe  Fe135     1.0  0.06616  0.14348  0.64391  1.0000
  S   S259      1.0  0.06737  0.12550  0.62817  1.0000
  S   S260      1.0  0.06976  0.17026  0.63200  1.0000
  Fe  Fe136     1.0  0.04394  0.11900  0.64694  1.0000
  S   S261      1.0  0.02375  0.11514  0.63587  1.0000
  Fe  Fe137     1.0  0.08202  0.10619  0.64616  1.0000
  S   S262      1.0  0.10361  0.08644  0.63578  1.0000
  S   S263      1.0  0.04150  0.13849  0.66157  1.0000
  S   S264      1.0  0.08291  0.12461  0.66070  1.0000
  C   C926      1.0  0.39147  0.00245  0.68599  1.0000
  H   H1143     1.0  0.33101  0.13751  0.60355  1.0000
  S   S265      1.0  0.02229  0.48026  0.64365  1.0000
  Fe  Fe138     1.0  0.42508  0.45115  0.60013  1.0000
  S   S266      1.0  0.42052  0.42772  0.61958  1.0000
  S   S267      1.0  0.45078  0.45795  0.59293  1.0000
  H   H1144     1.0  0.00702  0.16384  0.65438  1.0000
  S   S268      1.0  0.38197  0.43713  0.61184  1.0000
  H   H1145     1.0  0.36405  0.17367  0.58913  1.0000
  Fe  Fe139     1.0  0.39505  0.44402  0.62840  1.0000
  S   S269      1.0  0.38281  0.44420  0.65581  1.0000
  Fe  Fe140     1.0  0.40812  0.42315  0.60109  1.0000
  S   S270      1.0  0.41236  0.39700  0.59628  1.0000
  S   S271      1.0  0.40045  0.46794  0.61008  1.0000
  H   H1146     1.0  0.33308  0.05180  0.61212  1.0000
  N   N66       1.0  0.10165  0.05914  0.75697  1.0000
  H   H1147     1.0  0.12673  0.46628  0.59361  1.0000
  H   H1148     1.0  0.48159  0.39453  0.59843  1.0000
  Fe  Fe141     1.0  0.42194  0.08495  0.64608  1.0000
  S   S272      1.0  0.39526  0.09451  0.65975  1.0000
  S   S273      1.0  0.44017  0.10208  0.63098  1.0000
  Fe  Fe142     1.0  0.41673  0.04884  0.65385  1.0000
  S   S274      1.0  0.38937  0.05596  0.66709  1.0000
  S   S275      1.0  0.42838  0.02111  0.65550  1.0000
  Fe  Fe143     1.0  0.38787  0.07907  0.64606  1.0000
  S   S276      1.0  0.36542  0.09250  0.63387  1.0000
  Fe  Fe144     1.0  0.39952  0.07050  0.67946  1.0000
  S   S277      1.0  0.39065  0.06642  0.70785  1.0000
  S   S278      1.0  0.41435  0.07050  0.63145  1.0000
  S   S279      1.0  0.42705  0.06229  0.66714  1.0000
  H   H1149     1.0  0.14196  0.16029  0.63267  1.0000
  Fe  Fe145     1.0  0.06971  0.48311  0.62556  1.0000
  H   H1150     1.0  0.00088  0.43378  0.59966  1.0000
  H   H1151     1.0  0.38411  0.05807  0.59077  1.0000
  C   C927      1.0  0.36096  0.07686  0.58764  1.0000
  C   C928      1.0  0.04732  0.03827  0.75444  1.0000
  Fe  Fe146     1.0  0.04499  0.46742  0.65546  1.0000
  H   H1152     1.0  0.32624  0.44886  0.59307  1.0000
  S   S280      1.0  0.04210  0.44961  0.68103  1.0000
  C   C929      1.0  0.39161  0.99570  0.70339  1.0000
  H   H1153     1.0  0.47990  0.99020  0.64919  1.0000
  Fe  Fe147     1.0  0.03952  0.47369  0.61966  1.0000
  S   S281      1.0  0.03171  0.46742  0.59884  1.0000
  H   H1154     1.0  0.08780  0.05105  0.70090  1.0000
  S   S282      1.0  0.06125  0.45855  0.63201  1.0000
  H   H1155     1.0  0.45141  0.12532  0.60027  1.0000
  S   S283      1.0  0.02835  0.43457  0.77676  1.0000
  S   S284      1.0  0.44784  0.09260  0.78083  1.0000
  C   C930      1.0  0.11915  0.47596  0.58554  1.0000
  H   H1156     1.0  0.48701  0.43256  0.67587  1.0000
  H   H1157     1.0  0.02347  0.02098  0.75834  1.0000
  C   C931      1.0  0.03370  0.44618  0.59845  1.0000
  C   C932      1.0  0.03556  0.43319  0.61274  1.0000
  C   C933      1.0  0.03663  0.41639  0.61205  1.0000
  H   H1158     1.0  0.05148  0.05020  0.72730  1.0000
  H   H1159     1.0  0.47332  0.08439  0.72148  1.0000
  C   C934      1.0  0.45881  0.48386  0.63027  1.0000
  H   H1160     1.0  0.03600  0.43609  0.62435  1.0000
  H   H1161     1.0  0.03789  0.40637  0.62319  1.0000
  H   H1162     1.0  0.02057  0.15051  0.63016  1.0000
  C   C935      1.0  0.09337  0.09235  0.59502  1.0000
  H   H1163     1.0  0.43343  0.48097  0.64396  1.0000
  H   H1164     1.0  0.37759  0.01395  0.62523  1.0000
  H   H1165     1.0  0.46683  0.04729  0.74272  1.0000
  C   C936      1.0  0.44349  0.47859  0.63313  1.0000
  C   C937      1.0  0.06713  0.20403  0.58751  1.0000
  C   C938      1.0  0.03910  0.47013  0.72703  1.0000
  C   C939      1.0  0.45385  0.40909  0.67089  1.0000
  C   C940      1.0  0.03860  0.47517  0.69724  1.0000
  C   C941      1.0  0.04182  0.45772  0.69833  1.0000
  C   C942      1.0  0.04371  0.44651  0.71379  1.0000
  C   C943      1.0  0.04234  0.45269  0.72812  1.0000
  C   C944      1.0  0.04553  0.06865  0.74194  1.0000
  H   H1166     1.0  0.32898  0.02879  0.60372  1.0000
  H   H1167     1.0  0.04631  0.43299  0.71465  1.0000
  H   H1168     1.0  0.04397  0.44393  0.73993  1.0000
  C   C945      1.0  0.36407  0.08627  0.61607  1.0000
  C   C946      1.0  0.35025  0.09457  0.60827  1.0000
  C   C947      1.0  0.47189  0.48038  0.61639  1.0000
  H   H1169     1.0  0.33000  0.14471  0.63150  1.0000
  H   H1170     1.0  0.48378  0.37938  0.58594  1.0000
  C   C948      1.0  0.37629  0.07309  0.60974  1.0000
  H   H1171     1.0  0.34050  0.10444  0.61334  1.0000
  C   C949      1.0  0.09952  0.06439  0.58914  1.0000
  H   H1172     1.0  0.00480  0.46109  0.73347  1.0000
  H   H1173     1.0  0.38677  0.06634  0.61593  1.0000
  C   C950      1.0  0.41336  0.15399  0.60478  1.0000
  C   C951      1.0  0.40540  0.14587  0.62070  1.0000
  C   C952      1.0  0.41370  0.13014  0.62897  1.0000
  C   C953      1.0  0.43023  0.12256  0.62157  1.0000
  H   H1174     1.0  0.46455  0.43370  0.68002  1.0000
  H   H1175     1.0  0.34494  0.00244  0.62161  1.0000
  H   H1176     1.0  0.39275  0.15170  0.62668  1.0000
  H   H1177     1.0  0.40740  0.12402  0.64120  1.0000
  H   H1178     1.0  0.45434  0.40213  0.62712  1.0000
  H   H1179     1.0  0.46370  0.44829  0.65017  1.0000
  C   C954      1.0  0.41265  0.99761  0.62088  1.0000
  C   C955      1.0  0.41239  0.01500  0.61675  1.0000
  C   C956      1.0  0.41688  0.02238  0.62753  1.0000
  C   C957      1.0  0.42222  0.01226  0.64213  1.0000
  H   H1180     1.0  0.40850  0.02282  0.60532  1.0000
  H   H1181     1.0  0.41652  0.03581  0.62436  1.0000
  C   C958      1.0  0.48832  0.08973  0.73586  1.0000
  H   H1182     1.0  0.05878  0.09708  0.61189  1.0000
  H   H1183     1.0  0.36016  0.15525  0.63532  1.0000
  H   H1184     1.0  0.09992  0.15865  0.58687  1.0000
  H   H1185     1.0  0.05800  0.07670  0.59499  1.0000
  C   C959      1.0  0.36797  0.10229  0.75553  1.0000
  H   H1186     1.0  0.40702  0.48347  0.66524  1.0000
  H   H1187     1.0  0.08657  0.10200  0.60212  1.0000
  H   H1188     1.0  0.40191  0.00253  0.73772  1.0000
  H   H1189     1.0  0.16416  0.15497  0.60715  1.0000
  C   C960      1.0  0.44121  0.47001  0.62205  1.0000
  C   C961      1.0  0.45409  0.46703  0.60786  1.0000
  C   C962      1.0  0.46949  0.47207  0.60514  1.0000
  H   H1190     1.0  0.39599  0.01392  0.67937  1.0000
  H   H1191     1.0  0.45327  0.39019  0.58552  1.0000
  H   H1192     1.0  0.41051  0.46937  0.70109  1.0000
  H   H1193     1.0  0.47947  0.46981  0.59416  1.0000
  H   H1194     1.0  0.41589  0.48712  0.70457  1.0000
  H   H1195     1.0  0.41014  0.12062  0.59964  1.0000
  C   C963      1.0  0.11359  0.07087  0.75118  1.0000
  H   H1196     1.0  0.41241  0.47637  0.78040  1.0000
  S   S285      1.0  0.09517  0.11515  0.75412  1.0000
  C   C964      1.0  0.41307  0.48217  0.69487  1.0000
  H   H1197     1.0  0.07619  0.05878  0.77200  1.0000
  H   H1198     1.0  0.48268  0.11160  0.75780  1.0000
  C   C965      1.0  0.08587  0.06678  0.76802  1.0000
  H   H1199     1.0  0.08651  0.45990  0.59455  1.0000
  C   C966      1.0  0.14551  0.10973  0.59624  1.0000
  H   H1200     1.0  0.09029  0.06065  0.63058  1.0000
  C   C967      1.0  0.13159  0.08598  0.60941  1.0000
  C   C968      1.0  0.11982  0.09536  0.62072  1.0000
  C   C969      1.0  0.12092  0.11189  0.61979  1.0000
  C   C970      1.0  0.13395  0.11890  0.60782  1.0000
  H   H1201     1.0  0.37050  0.12604  0.60512  1.0000
  H   H1202     1.0  0.01110  0.20439  0.62124  1.0000
  H   H1203     1.0  0.11198  0.11916  0.62856  1.0000
  H   H1204     1.0  0.13502  0.13146  0.60756  1.0000
  H   H1205     1.0  0.36102  0.09867  0.74836  1.0000
  H   H1206     1.0  0.07028  0.05404  0.63650  1.0000
  H   H1207     1.0  0.10784  0.02896  0.74545  1.0000
  C   C971      1.0  0.12869  0.16621  0.58979  1.0000
  C   C972      1.0  0.06415  0.17034  0.60109  1.0000
  C   C973      1.0  0.06773  0.17937  0.61094  1.0000
  H   H1208     1.0  0.42488  0.48029  0.68483  1.0000
  C   C974      1.0  0.46648  0.41178  0.64098  1.0000
  C   C975      1.0  0.08571  0.06831  0.71641  1.0000
  H   H1209     1.0  0.06322  0.15730  0.60605  1.0000
  H   H1210     1.0  0.07228  0.20323  0.61152  1.0000
  C   C976      1.0  0.41603  0.00519  0.70498  1.0000
  H   H1211     1.0  0.07188  0.08955  0.62756  1.0000
  H   H1212     1.0  0.48973  0.99079  0.66552  1.0000
  C   C977      1.0  0.15081  0.15924  0.60638  1.0000
  H   H1213     1.0  0.00042  0.41131  0.59061  1.0000
  H   H1214     1.0  0.08555  0.08286  0.73345  1.0000
  C   C978      1.0  0.34269  0.05414  0.63196  1.0000
  H   H1215     1.0  0.10136  0.03420  0.77288  1.0000
  C   C979      1.0  0.04320  0.04239  0.77053  1.0000
  C   C980      1.0  0.34146  0.02931  0.59462  1.0000
  C   C981      1.0  0.49194  0.10084  0.76367  1.0000
  H   H1216     1.0  0.05609  0.00465  0.73498  1.0000
  Fe  Fe148     1.0  0.08847  0.10712  0.78268  1.0000
  C   C982      1.0  0.10157  0.04027  0.73782  1.0000
  C   C983      1.0  0.35411  0.16859  0.58751  1.0000
  S   S286      1.0  0.05716  0.45071  0.78382  1.0000
  C   C984      1.0  0.36766  0.03353  0.63900  1.0000
  C   C985      1.0  0.47732  0.42591  0.67537  1.0000
  H   H1217     1.0  0.47918  0.41352  0.68451  1.0000
  C   C986      1.0  0.08892  0.07632  0.59883  1.0000
  C   C987      1.0  0.47437  0.02089  0.75411  1.0000
  H   H1218     1.0  0.38359  0.01813  0.59567  1.0000
  H   H1219     1.0  0.38089  0.14324  0.60185  1.0000
  H   H1220     1.0  0.08721  0.04573  0.62064  1.0000
  H   H1221     1.0  0.00810  0.12969  0.66542  1.0000
  C   C988      1.0  0.08915  0.07027  0.73102  1.0000
  C   C989      1.0  0.41707  0.43867  0.69219  1.0000
  C   C990      1.0  0.39995  0.43744  0.69838  1.0000
  C   C991      1.0  0.38955  0.43916  0.68710  1.0000
  C   C992      1.0  0.39620  0.44206  0.66960  1.0000
  C   C993      1.0  0.41322  0.44366  0.66339  1.0000
  C   C994      1.0  0.42354  0.44219  0.67466  1.0000
  H   H1222     1.0  0.39480  0.43484  0.71188  1.0000
  H   H1223     1.0  0.37635  0.43800  0.69197  1.0000
  H   H1224     1.0  0.41841  0.44602  0.64992  1.0000
  H   H1225     1.0  0.43659  0.44364  0.66977  1.0000
  H   H1226     1.0  0.03290  0.01230  0.77655  1.0000
  H   H1227     1.0  0.01492  0.43189  0.72879  1.0000
  C   C995      1.0  0.06409  0.08577  0.62097  1.0000
  C   C996      1.0  0.04154  0.07216  0.75798  1.0000
  C   C997      1.0  0.34872  0.08991  0.59410  1.0000
  H   H1228     1.0  0.33790  0.09626  0.58834  1.0000
  H   H1229     1.0  0.06299  0.00975  0.77426  1.0000
  H   H1230     1.0  0.47571  0.41572  0.62969  1.0000
  C   C998      1.0  0.42727  0.07571  0.73446  1.0000
  C   C999      1.0  0.41368  0.06802  0.74394  1.0000
  C   C1000     1.0  0.40250  0.06503  0.73572  1.0000
  C   C1001     1.0  0.40497  0.06969  0.71802  1.0000
  C   C1002     1.0  0.41867  0.07720  0.70861  1.0000
  C   C1003     1.0  0.42980  0.08018  0.71681  1.0000
  H   H1231     1.0  0.41166  0.06469  0.75755  1.0000
  H   H1232     1.0  0.39186  0.05927  0.74305  1.0000
  H   H1233     1.0  0.42056  0.08098  0.69499  1.0000
  H   H1234     1.0  0.44027  0.08617  0.70943  1.0000
  C   C1004     1.0  0.08192  0.11555  0.74075  1.0000
  C   C1005     1.0  0.08866  0.11768  0.72327  1.0000
  C   C1006     1.0  0.07888  0.11705  0.71228  1.0000
  C   C1007     1.0  0.06223  0.11441  0.71872  1.0000
  C   C1008     1.0  0.05535  0.11269  0.73615  1.0000
  C   C1009     1.0  0.06517  0.11315  0.74717  1.0000
  H   H1235     1.0  0.10159  0.11962  0.71821  1.0000
  H   H1236     1.0  0.34309  0.12546  0.62519  1.0000
  H   H1237     1.0  0.00852  0.45512  0.70791  1.0000
  H   H1238     1.0  0.42096  0.39078  0.78159  1.0000
  H   H1239     1.0  0.38377  0.99499  0.73781  1.0000
  H   H1240     1.0  0.46806  0.47821  0.75982  1.0000
  C   C1010     1.0  0.35604  0.00402  0.61080  1.0000
  C   C1011     1.0  0.03594  0.41251  0.59709  1.0000
  H   H1241     1.0  0.49316  0.15140  0.60939  1.0000
  C   C1012     1.0  0.39531  0.48638  0.67505  1.0000
  H   H1242     1.0  0.49463  0.10484  0.77410  1.0000
  C   C1013     1.0  0.14423  0.09328  0.59696  1.0000
  C   C1014     1.0  0.38591  0.99434  0.67667  1.0000
  H   H1243     1.0  0.34474  0.17052  0.62437  1.0000
  H   H1244     1.0  0.39115  0.47412  0.68063  1.0000
  N   N67       1.0  0.07429  0.07171  0.61247  1.0000
  C   C1015     1.0  0.39712  0.99573  0.73093  1.0000
  H   H1245     1.0  0.11134  0.16928  0.63112  1.0000
  C   C1016     1.0  0.09736  0.05639  0.74209  1.0000
  H   H1246     1.0  0.12562  0.06569  0.74276  1.0000
  H   H1247     1.0  0.33329  0.06568  0.63373  1.0000
  H   H1248     1.0  0.10289  0.17303  0.60471  1.0000
  C   C1017     1.0  0.09023  0.05242  0.71243  1.0000
  C   C1018     1.0  0.43009  0.14666  0.59755  1.0000
  S   S287      1.0  0.40168  0.17277  0.59404  1.0000
  H   H1249     1.0  0.07990  0.07969  0.76181  1.0000
  S   S288      1.0  0.39686  0.45062  0.77669  1.0000
  N   N68       1.0  0.01325  0.17736  0.62842  1.0000
  H   H1250     1.0  0.04304  0.02518  0.72931  1.0000
  H   H1251     1.0  0.02574  0.19308  0.60584  1.0000
  C   C1019     1.0  0.34332  0.13721  0.62867  1.0000
  H   H1252     1.0  0.05294  0.08212  0.63088  1.0000
  H   H1253     1.0  0.39112  0.10079  0.73623  1.0000
  H   H1254     1.0  0.39154  0.02862  0.71992  1.0000
  C   C1020     1.0  0.12113  0.16721  0.61989  1.0000
  H   H1255     1.0  0.40756  0.10808  0.75262  1.0000
  C   C1021     1.0  0.48603  0.08489  0.72212  1.0000
  C   C1022     1.0  0.47691  0.44075  0.64675  1.0000
  C   C1023     1.0  0.35672  0.16063  0.62274  1.0000
  H   H1256     1.0  0.12230  0.03723  0.76027  1.0000
  H   H1257     1.0  0.40086  0.10233  0.60715  1.0000
  C   C1024     1.0  0.06538  0.01035  0.76045  1.0000
  N   N69       1.0  0.39792  0.00437  0.71287  1.0000
  C   C1025     1.0  0.39417  0.10768  0.75785  1.0000
  H   H1258     1.0  0.36729  0.16698  0.61495  1.0000
  C   C1026     1.0  0.36763  0.02508  0.62683  1.0000
  H   H1259     1.0  0.09719  0.05182  0.59152  1.0000
  H   H1260     1.0  0.15312  0.08608  0.58811  1.0000
  C   C1027     1.0  0.37150  0.13606  0.61096  1.0000
  C   C1028     1.0  0.06941  0.19618  0.60401  1.0000
  H   H1261     1.0  0.43657  0.15302  0.58554  1.0000
  H   H1262     1.0  0.49251  0.46651  0.78271  1.0000
  N   N70       1.0  0.35461  0.14736  0.61530  1.0000
  C   C1029     1.0  0.10992  0.04337  0.76751  1.0000
  H   H1263     1.0  0.34799  0.13254  0.64069  1.0000
  C   C1030     1.0  0.34785  0.15498  0.59970  1.0000
  H   H1264     1.0  0.02280  0.17584  0.65040  1.0000
  C   C1031     1.0  0.04037  0.05907  0.77224  1.0000
  C   C1032     1.0  0.03526  0.01318  0.76270  1.0000
  Fe  Fe149     1.0  0.03551  0.45988  0.77009  1.0000
  H   H1265     1.0  0.49249  0.26008  0.61528  1.0000
  H   H1266     1.0  0.00155  0.46431  0.68018  1.0000
  H   H1267     1.0  0.37991  0.48053  0.70697  1.0000
  C   C1033     1.0  0.00225  0.12318  0.64494  1.0000
  H   H1268     1.0  0.03784  0.16034  0.62820  1.0000
  C   C1034     1.0  0.02071  0.19247  0.61961  1.0000
  S   S289      1.0  0.03681  0.47832  0.74486  1.0000
  H   H1269     1.0  0.47693  0.09266  0.74540  1.0000
  C   C1035     1.0  0.44160  0.40155  0.66905  1.0000
  H   H1270     1.0  0.47928  0.44031  0.63322  1.0000
  H   H1271     1.0  0.45266  0.41089  0.68343  1.0000
  H   H1272     1.0  0.03689  0.48391  0.68546  1.0000
  H   H1273     1.0  0.35541  0.05478  0.65078  1.0000
  H   H1274     1.0  0.34141  0.04269  0.58765  1.0000
  H   H1275     1.0  0.48366  0.48454  0.61399  1.0000
  C   C1036     1.0  0.45432  0.40400  0.63934  1.0000
  C   C1037     1.0  0.14616  0.16124  0.59106  1.0000
  H   H1276     1.0  0.41760  0.01283  0.69182  1.0000
  C   C1038     1.0  0.09805  0.03841  0.72315  1.0000
  C   C1039     1.0  0.38497  0.10342  0.74866  1.0000
  H   H1277     1.0  0.08859  0.06825  0.77971  1.0000
  C   C1040     1.0  0.02578  0.16209  0.62401  1.0000
  C   C1041     1.0  0.37466  0.06831  0.59560  1.0000
  H   H1278     1.0  0.46337  0.02126  0.76461  1.0000
  C   C1042     1.0  0.06246  0.06649  0.60545  1.0000
  H   H1279     1.0  0.35543  0.99721  0.60140  1.0000
  C   C1043     1.0  0.38625  0.11132  0.77377  1.0000
  H   H1280     1.0  0.39397  0.11452  0.78043  1.0000
  H   H1281     1.0  0.04633  0.07898  0.73087  1.0000
  C   C1044     1.0  0.44178  0.39907  0.65331  1.0000
  H   H1282     1.0  0.48439  0.99467  0.76276  1.0000
  H   H1283     1.0  0.42934  0.46603  0.62429  1.0000
  S   S290      1.0  0.03671  0.39145  0.59677  1.0000
  H   H1284     1.0  0.49175  0.04658  0.71864  1.0000
  H   H1285     1.0  0.08859  0.43015  0.60571  1.0000
  H   H1286     1.0  0.36788  0.99709  0.61547  1.0000
  C   C1045     1.0  0.03732  0.48135  0.71155  1.0000
  H   H1287     1.0  0.10799  0.08345  0.74400  1.0000
  Fe  Fe150     1.0  0.38959  0.45969  0.59275  1.0000
  H   H1288     1.0  0.37694  0.12948  0.62237  1.0000
  H   H1289     1.0  0.42142  0.01116  0.71206  1.0000
  H   H1290     1.0  0.36037  0.46778  0.77618  1.0000
  S   S291      1.0  0.35906  0.43545  0.77133  1.0000
  H   H1291     1.0  0.00089  0.18674  0.65117  1.0000
  C   C1046     1.0  0.10385  0.48586  0.59275  1.0000
  H   H1292     1.0  0.07963  0.07927  0.70807  1.0000
  H   H1293     1.0  0.11703  0.07345  0.76198  1.0000
  C   C1047     1.0  0.04844  0.05196  0.74009  1.0000
  H   H1294     1.0  0.43163  0.39802  0.67985  1.0000
  N   N71       1.0  0.47908  0.42366  0.65802  1.0000
  C   C1048     1.0  0.13833  0.16216  0.62077  1.0000
  C   C1049     1.0  0.05398  0.01823  0.73547  1.0000
  N   N72       1.0  0.05043  0.02040  0.75313  1.0000
  H   H1295     1.0  0.05091  0.06371  0.61525  1.0000
  C   C1050     1.0  0.48648  0.00575  0.75292  1.0000
  H   H1296     1.0  0.42330  0.10030  0.60578  1.0000
  H   H1297     1.0  0.06863  0.99699  0.75894  1.0000
  Fe  Fe151     1.0  0.41978  0.43030  0.77002  1.0000
  H   H1298     1.0  0.03922  0.08507  0.75939  1.0000
  C   C1051     1.0  0.41250  0.10703  0.59937  1.0000
  C   C1052     1.0  0.35992  0.10583  0.77149  1.0000
  H   H1299     1.0  0.11296  0.04601  0.77853  1.0000
  C   C1053     1.0  0.36881  0.11072  0.78102  1.0000
  H   H1300     1.0  0.00702  0.42360  0.75057  1.0000
  C   C1054     1.0  0.38759  0.02189  0.71238  1.0000
  C   C1055     1.0  0.46650  0.41475  0.65679  1.0000
  C   C1056     1.0  0.47629  0.03557  0.74179  1.0000
  C   C1057     1.0  0.35517  0.04800  0.64161  1.0000
  H   H1301     1.0  0.37374  0.02193  0.71743  1.0000
  H   H1302     1.0  0.02922  0.16270  0.61017  1.0000
  H   H1303     1.0  0.07033  0.43180  0.59775  1.0000
  C   C1058     1.0  0.08077  0.05739  0.62558  1.0000
  H   H1304     1.0  0.06579  0.02255  0.72772  1.0000
  H   H1305     1.0  0.03191  0.19244  0.62449  1.0000
  H   H1306     1.0  0.34672  0.10476  0.77599  1.0000
  C   C1059     1.0  0.49034  0.03516  0.72823  1.0000
  H   H1307     1.0  0.06849  0.05483  0.60043  1.0000
  H   H1308     1.0  0.13073  0.07320  0.61005  1.0000
  N   N73       1.0  0.35602  0.02222  0.60332  1.0000
  C   C1060     1.0  0.42271  0.99485  0.64615  1.0000
  H   H1309     1.0  0.44896  0.48130  0.77629  1.0000
  C   C1061     1.0  0.08455  0.42938  0.59441  1.0000
  C   C1062     1.0  0.48960  0.48041  0.77735  1.0000
  H   H1310     1.0  0.40332  0.04328  0.78195  1.0000
  H   H1311     1.0  0.49573  0.48254  0.76366  1.0000
  H   H1312     1.0  0.04202  0.03270  0.78195  1.0000
  H   H1313     1.0  0.42407  0.99227  0.70457  1.0000
  H   H1314     1.0  0.49616  0.48589  0.78372  1.0000
  C   C1063     1.0  0.46316  0.47733  0.77365  1.0000
  H   H1315     1.0  0.00834  0.18431  0.59600  1.0000
  H   H1316     1.0  0.49263  0.14119  0.63964  1.0000
  H   H1317     1.0  0.38112  0.06978  0.78123  1.0000
  H   H1318     1.0  0.11389  0.43812  0.58790  1.0000
  H   H1319     1.0  0.46992  0.42497  0.58803  1.0000
  H   H1320     1.0  0.43186  0.07928  0.58825  1.0000
  H   H1321     1.0  0.45877  0.99312  0.68308  1.0000
  H   H1322     1.0  0.08967  0.41614  0.59261  1.0000
  C   C1064     1.0  0.37199  0.02355  0.59029  1.0000
  H   H1323     1.0  0.00036  0.41802  0.73450  1.0000
  C   C1065     1.0  0.49670  0.41397  0.65264  1.0000
  H   H1324     1.0  0.49381  0.17793  0.58837  1.0000
  S   S292      1.0  0.49719  0.46714  0.66562  1.0000
  H   H1325     1.0  0.40978  0.07989  0.59134  1.0000
  H   H1326     1.0  0.49608  0.23137  0.63360  1.0000
  H   H1327     1.0  0.49808  0.07706  0.69859  1.0000
  N   N74       1.0  0.47090  0.48762  0.78011  1.0000
  H   H1328     1.0  0.45253  0.99034  0.66549  1.0000
  H   H1329     1.0  0.03715  0.06187  0.78471  1.0000
  C   C1066     1.0  0.48454  0.39256  0.58530  1.0000
  C   C1067     1.0  0.12707  0.39208  0.83594  1.0000
  H   H1330     1.0  0.04663  0.02203  0.84912  1.0000
  H   H1331     1.0  0.47438  0.11343  0.81826  1.0000
  Fe  Fe152     1.0  0.04201  0.19516  0.90180  1.0000
  S   S293      1.0  0.05859  0.20714  0.87822  1.0000
  S   S294      1.0  0.05339  0.17334  0.92061  1.0000
  Fe  Fe153     1.0  0.03939  0.23138  0.88163  1.0000
  S   S295      1.0  0.06547  0.40092  0.79829  1.0000
  Fe  Fe154     1.0  0.04072  0.20245  0.86513  1.0000
  S   S296      1.0  0.05106  0.19373  0.84055  1.0000
  S   S297      1.0  0.02529  0.18897  0.88844  1.0000
  Fe  Fe155     1.0  0.08734  0.07541  0.81051  1.0000
  H   H1332     1.0  0.11228  0.01623  0.83197  1.0000
  H   H1333     1.0  0.25365  0.48634  0.90806  1.0000
  Fe  Fe156     1.0  0.06606  0.10954  0.81743  1.0000
  H   H1334     1.0  0.00652  0.19071  0.84796  1.0000
  S   S298      1.0  0.04282  0.12321  0.83366  1.0000
  C   C1068     1.0  0.48138  0.00184  0.81476  1.0000
  Fe  Fe157     1.0  0.10433  0.10231  0.81336  1.0000
  S   S299      1.0  0.12542  0.10886  0.82095  1.0000
  S   S300      1.0  0.04284  0.46915  0.82542  1.0000
  S   S301      1.0  0.08434  0.08894  0.83113  1.0000
  Fe  Fe158     1.0  0.14808  0.13505  0.91380  1.0000
  S   S302      1.0  0.13899  0.11130  0.92838  1.0000
  S   S303      1.0  0.13300  0.16172  0.91407  1.0000
  Fe  Fe159     1.0  0.18197  0.11587  0.89681  1.0000
  S   S304      1.0  0.17562  0.09052  0.90943  1.0000
  S   S305      1.0  0.20667  0.11887  0.87816  1.0000
  Fe  Fe160     1.0  0.14953  0.10258  0.90388  1.0000
  S   S306      1.0  0.13348  0.08866  0.89712  1.0000
  Fe  Fe161     1.0  0.16570  0.10141  0.93269  1.0000
  S   S307      1.0  0.15676  0.12705  0.88900  1.0000
  S   S308      1.0  0.17399  0.12599  0.92043  1.0000
  N   N75       1.0  0.36127  0.40001  0.82814  1.0000
  S   S309      1.0  0.43781  0.07054  0.81948  1.0000
  H   H1335     1.0  0.36126  0.37912  0.81781  1.0000
  C   C1069     1.0  0.36307  0.05871  0.80217  1.0000
  H   H1336     1.0  0.35129  0.18066  0.82041  1.0000
  H   H1337     1.0  0.13255  0.03487  0.93295  1.0000
  H   H1338     1.0  0.49141  0.20779  0.85851  1.0000
  H   H1339     1.0  0.36448  0.43798  0.85800  1.0000
  H   H1340     1.0  0.00846  0.28881  0.89593  1.0000
  Fe  Fe162     1.0  0.41452  0.16403  0.87208  1.0000
  S   S310      1.0  0.39501  0.18576  0.86173  1.0000
  S   S311      1.0  0.43481  0.14725  0.85653  1.0000
  Fe  Fe163     1.0  0.40175  0.17024  0.90762  1.0000
  S   S312      1.0  0.38113  0.19261  0.90042  1.0000
  S   S313      1.0  0.40483  0.16040  0.93445  1.0000
  Fe  Fe164     1.0  0.37675  0.17639  0.88537  1.0000
  S   S314      1.0  0.34977  0.17440  0.88746  1.0000
  Fe  Fe165     1.0  0.40127  0.19997  0.87760  1.0000
  S   S315      1.0  0.40590  0.22623  0.86486  1.0000
  S   S316      1.0  0.39576  0.15340  0.89447  1.0000
  S   S317      1.0  0.42239  0.17885  0.88608  1.0000
  Fe  Fe166     1.0  0.33571  0.07461  0.87767  1.0000
  S   S318      1.0  0.33859  0.08413  0.84980  1.0000
  S   S319      1.0  0.35832  0.05609  0.88664  1.0000
  Fe  Fe167     1.0  0.29854  0.09464  0.88472  1.0000
  S   S320      1.0  0.29925  0.10543  0.85698  1.0000
  S   S321      1.0  0.27469  0.09851  0.90541  1.0000
  Fe  Fe168     1.0  0.31274  0.07896  0.85382  1.0000
  S   S322      1.0  0.30823  0.06343  0.83798  1.0000
  Fe  Fe169     1.0  0.32520  0.10920  0.85649  1.0000
  S   S323      1.0  0.33798  0.13100  0.84249  1.0000
  S   S324      1.0  0.31035  0.06803  0.88157  1.0000
  S   S325      1.0  0.32383  0.09997  0.88430  1.0000
  H   H1341     1.0  0.46211  0.00347  0.85565  1.0000
  H   H1342     1.0  0.01923  0.44762  0.86020  1.0000
  C   C1070     1.0  0.47408  0.37827  0.82246  1.0000
  H   H1343     1.0  0.49314  0.37511  0.86441  1.0000
  H   H1344     1.0  0.33751  0.41893  0.83020  1.0000
  H   H1345     1.0  0.30181  0.47747  0.96015  1.0000
  H   H1346     1.0  0.46802  0.28741  0.97788  1.0000
  Fe  Fe170     1.0  0.40130  0.30863  0.89099  1.0000
  S   S326      1.0  0.40731  0.32148  0.90811  1.0000
  S   S327      1.0  0.39425  0.28355  0.90516  1.0000
  Fe  Fe171     1.0  0.40918  0.33710  0.86025  1.0000
  S   S328      1.0  0.41614  0.35154  0.87520  1.0000
  Fe  Fe172     1.0  0.42988  0.32613  0.88734  1.0000
  S   S329      1.0  0.45568  0.31835  0.89408  1.0000
  Fe  Fe173     1.0  0.39274  0.34544  0.89436  1.0000
  S   S330      1.0  0.37527  0.36588  0.90754  1.0000
  S   S331      1.0  0.42490  0.31191  0.87086  1.0000
  S   S332      1.0  0.38485  0.33233  0.87876  1.0000
  Fe  Fe174     1.0  0.30081  0.45951  0.88655  1.0000
  S   S333      1.0  0.28389  0.44074  0.89496  1.0000
  S   S334      1.0  0.31242  0.46807  0.90314  1.0000
  Fe  Fe175     1.0  0.30196  0.46373  0.84934  1.0000
  S   S335      1.0  0.28496  0.44545  0.85415  1.0000
  H   H1347     1.0  0.48510  0.20637  0.90216  1.0000
  Fe  Fe176     1.0  0.26927  0.45803  0.87553  1.0000
  S   S336      1.0  0.24043  0.46716  0.88288  1.0000
  Fe  Fe177     1.0  0.30085  0.42967  0.87310  1.0000
  S   S337      1.0  0.31073  0.40169  0.87484  1.0000
  S   S338      1.0  0.28500  0.47779  0.86899  1.0000
  S   S339      1.0  0.31906  0.44688  0.86641  1.0000
  C   C1071     1.0  0.09847  0.03012  0.85953  1.0000
  C   C1072     1.0  0.47041  0.29869  0.96853  1.0000
  Fe  Fe178     1.0  0.16050  0.45312  0.86135  1.0000
  S   S340      1.0  0.14461  0.45794  0.88647  1.0000
  S   S341      1.0  0.18889  0.44152  0.85693  1.0000
  Fe  Fe179     1.0  0.12936  0.46480  0.84480  1.0000
  S   S342      1.0  0.11142  0.47059  0.86860  1.0000
  S   S343      1.0  0.12028  0.46897  0.82076  1.0000
  C   C1073     1.0  0.05864  0.17642  0.97940  1.0000
  C   C1074     1.0  0.48122  0.14705  0.85626  1.0000
  Fe  Fe180     1.0  0.12591  0.44597  0.88134  1.0000
  S   S344      1.0  0.11092  0.42832  0.90144  1.0000
  S   S345      1.0  0.14895  0.47796  0.84615  1.0000
  S   S346      1.0  0.14274  0.43935  0.85725  1.0000
  Fe  Fe181     1.0  0.03741  0.45875  0.80585  1.0000
  C   C1075     1.0  0.15069  0.00465  0.97083  1.0000
  H   H1348     1.0  0.21033  0.48207  0.92906  1.0000
  H   H1349     1.0  0.14759  0.05612  0.92123  1.0000
  C   C1076     1.0  0.14962  0.40779  0.82362  1.0000
  Fe  Fe182     1.0  0.08253  0.35145  0.89774  1.0000
  S   S347      1.0  0.05832  0.37136  0.90028  1.0000
  S   S348      1.0  0.10766  0.35960  0.88625  1.0000
  Fe  Fe183     1.0  0.06386  0.32236  0.91123  1.0000
  S   S349      1.0  0.06551  0.29403  0.91941  1.0000
  Fe  Fe184     1.0  0.04827  0.35526  0.88970  1.0000
  Fe  Fe185     1.0  0.05053  0.35442  0.92539  1.0000
  S   S350      1.0  0.07314  0.33656  0.88491  1.0000
  S   S351      1.0  0.07560  0.33555  0.92378  1.0000
  C   C1077     1.0  0.05594  0.38936  0.81766  1.0000
  C   C1078     1.0  0.03812  0.39250  0.82295  1.0000
  C   C1079     1.0  0.03051  0.38542  0.83945  1.0000
  C   C1080     1.0  0.04066  0.37491  0.85066  1.0000
  C   C1081     1.0  0.05846  0.37099  0.84513  1.0000
  C   C1082     1.0  0.06608  0.37809  0.82854  1.0000
  H   H1350     1.0  0.03020  0.40063  0.81435  1.0000
  H   H1351     1.0  0.01675  0.38849  0.84372  1.0000
  H   H1352     1.0  0.07984  0.37522  0.82424  1.0000
  C   C1083     1.0  0.00264  0.36163  0.84031  1.0000
  H   H1353     1.0  0.35851  0.14176  0.78663  1.0000
  H   H1354     1.0  0.36363  0.00470  0.85448  1.0000
  C   C1084     1.0  0.09877  0.46873  0.82237  1.0000
  C   C1085     1.0  0.09367  0.46809  0.80805  1.0000
  C   C1086     1.0  0.07661  0.46793  0.80891  1.0000
  C   C1087     1.0  0.06446  0.46871  0.82405  1.0000
  H   H1355     1.0  0.28555  0.04157  0.91970  1.0000
  C   C1088     1.0  0.08664  0.46934  0.83754  1.0000
  C   C1089     1.0  0.48283  0.18183  0.96531  1.0000
  H   H1356     1.0  0.41025  0.27180  0.95679  1.0000
  H   H1357     1.0  0.37182  0.27833  0.93985  1.0000
  H   H1358     1.0  0.38207  0.15143  0.96725  1.0000
  C   C1090     1.0  0.10948  0.40971  0.89659  1.0000
  C   C1091     1.0  0.12071  0.40359  0.88282  1.0000
  C   C1092     1.0  0.12027  0.38805  0.87996  1.0000
  C   C1093     1.0  0.10805  0.37891  0.89036  1.0000
  C   C1094     1.0  0.09648  0.38521  0.90388  1.0000
  C   C1095     1.0  0.09743  0.40042  0.90717  1.0000
  H   H1359     1.0  0.13007  0.41053  0.87469  1.0000
  H   H1360     1.0  0.12950  0.38302  0.86978  1.0000
  H   H1361     1.0  0.08718  0.37810  0.91216  1.0000
  H   H1362     1.0  0.08890  0.40489  0.91805  1.0000
  Fe  Fe186     1.0  0.45962  0.06868  0.79699  1.0000
  H   H1363     1.0  0.34273  0.48468  0.79728  1.0000
  C   C1096     1.0  0.48286  0.20136  0.85623  1.0000
  C   C1097     1.0  0.22627  0.45982  0.87565  1.0000
  C   C1098     1.0  0.20852  0.46533  0.88108  1.0000
  C   C1099     1.0  0.19691  0.45979  0.87549  1.0000
  C   C1100     1.0  0.20299  0.44879  0.86431  1.0000
  C   C1101     1.0  0.22072  0.44324  0.85895  1.0000
  C   C1102     1.0  0.23233  0.44875  0.86457  1.0000
  H   H1364     1.0  0.47837  0.18014  0.92686  1.0000
  H   H1365     1.0  0.18328  0.46395  0.87990  1.0000
  H   H1366     1.0  0.22554  0.43468  0.85035  1.0000
  H   H1367     1.0  0.24596  0.44439  0.86031  1.0000
  C   C1103     1.0  0.29947  0.47043  0.92293  1.0000
  C   C1104     1.0  0.30646  0.47345  0.93491  1.0000
  C   C1105     1.0  0.05691  0.01700  0.81065  1.0000
  C   C1106     1.0  0.27909  0.47447  0.95473  1.0000
  C   C1107     1.0  0.27204  0.47165  0.94266  1.0000
  C   C1108     1.0  0.28234  0.46926  0.92689  1.0000
  H   H1368     1.0  0.44766  0.18623  0.94116  1.0000
  H   H1369     1.0  0.45291  0.02478  0.82209  1.0000
  C   C1109     1.0  0.44427  0.27278  0.90025  1.0000
  H   H1370     1.0  0.27704  0.46660  0.91776  1.0000
  C   C1110     1.0  0.35720  0.37594  0.89866  1.0000
  C   C1111     1.0  0.35011  0.36693  0.89164  1.0000
  C   C1112     1.0  0.33590  0.37500  0.88435  1.0000
  C   C1113     1.0  0.32862  0.39216  0.88404  1.0000
  C   C1114     1.0  0.33559  0.40124  0.89118  1.0000
  C   C1115     1.0  0.34981  0.39310  0.89857  1.0000
  H   H1371     1.0  0.35525  0.35360  0.89218  1.0000
  H   H1372     1.0  0.33044  0.36788  0.87902  1.0000
  H   H1373     1.0  0.33005  0.41450  0.89095  1.0000
  H   H1374     1.0  0.35529  0.40016  0.90393  1.0000
  H   H1375     1.0  0.37565  0.33228  0.93511  1.0000
  C   C1116     1.0  0.33281  0.44200  0.79810  1.0000
  C   C1117     1.0  0.32314  0.45133  0.81037  1.0000
  C   C1118     1.0  0.32672  0.46674  0.81008  1.0000
  C   C1119     1.0  0.34008  0.47269  0.79766  1.0000
  H   H1376     1.0  0.17435  0.04292  0.93229  1.0000
  H   H1377     1.0  0.32984  0.43024  0.79813  1.0000
  H   H1378     1.0  0.37659  0.13221  0.79645  1.0000
  C   C1120     1.0  0.22250  0.48625  0.92227  1.0000
  H   H1379     1.0  0.07364  0.41390  0.82805  1.0000
  C   C1121     1.0  0.34223  0.14336  0.98036  1.0000
  H   H1380     1.0  0.29626  0.42187  0.97036  1.0000
  C   C1122     1.0  0.47725  0.36133  0.89749  1.0000
  C   C1123     1.0  0.46144  0.36500  0.89295  1.0000
  C   C1124     1.0  0.45488  0.35191  0.89144  1.0000
  C   C1125     1.0  0.46409  0.33516  0.89455  1.0000
  C   C1126     1.0  0.48014  0.33164  0.89850  1.0000
  C   C1127     1.0  0.48677  0.34470  0.89992  1.0000
  H   H1381     1.0  0.45424  0.37795  0.89068  1.0000
  H   H1382     1.0  0.44270  0.35481  0.88797  1.0000
  H   H1383     1.0  0.48740  0.31878  0.90058  1.0000
  H   H1384     1.0  0.33738  0.40201  0.82143  1.0000
  C   C1128     1.0  0.36287  0.42090  0.84380  1.0000
  H   H1385     1.0  0.35225  0.22664  0.88002  1.0000
  S   S352      1.0  0.03068  0.36759  0.87163  1.0000
  C   C1129     1.0  0.31250  0.04189  0.84815  1.0000
  C   C1130     1.0  0.32312  0.03641  0.85974  1.0000
  C   C1131     1.0  0.32610  0.01950  0.86849  1.0000
  C   C1132     1.0  0.31879  0.00776  0.86548  1.0000
  C   C1133     1.0  0.30852  0.01302  0.85349  1.0000
  C   C1134     1.0  0.30537  0.03012  0.84482  1.0000
  H   H1386     1.0  0.32939  0.04512  0.86181  1.0000
  H   H1387     1.0  0.33413  0.01552  0.87766  1.0000
  H   H1388     1.0  0.49132  0.26567  0.97156  1.0000
  H   H1389     1.0  0.29731  0.03423  0.83569  1.0000
  C   C1135     1.0  0.40278  0.24183  0.87643  1.0000
  C   C1136     1.0  0.40618  0.25777  0.86769  1.0000
  C   C1137     1.0  0.40357  0.27066  0.87638  1.0000
  C   C1138     1.0  0.39752  0.26767  0.89390  1.0000
  C   C1139     1.0  0.39432  0.25165  0.90270  1.0000
  C   C1140     1.0  0.39693  0.23874  0.89399  1.0000
  H   H1390     1.0  0.41069  0.26023  0.85410  1.0000
  H   H1391     1.0  0.40603  0.28297  0.86949  1.0000
  H   H1392     1.0  0.38975  0.24922  0.91628  1.0000
  H   H1393     1.0  0.39434  0.22647  0.90085  1.0000
  C   C1141     1.0  0.40655  0.17634  0.94323  1.0000
  C   C1142     1.0  0.40696  0.17280  0.96038  1.0000
  C   C1143     1.0  0.40643  0.18584  0.96803  1.0000
  C   C1144     1.0  0.40611  0.20232  0.95840  1.0000
  C   C1145     1.0  0.40658  0.20571  0.94106  1.0000
  C   C1146     1.0  0.40660  0.19276  0.93351  1.0000
  H   H1394     1.0  0.40725  0.16006  0.96787  1.0000
  H   H1395     1.0  0.39834  0.01764  0.80223  1.0000
  H   H1396     1.0  0.40647  0.21844  0.93355  1.0000
  H   H1397     1.0  0.40645  0.19552  0.92022  1.0000
  C   C1147     1.0  0.34718  0.16157  0.87534  1.0000
  C   C1148     1.0  0.33271  0.15442  0.88043  1.0000
  C   C1149     1.0  0.33003  0.14462  0.87066  1.0000
  C   C1150     1.0  0.34155  0.14238  0.85547  1.0000
  C   C1151     1.0  0.35598  0.14959  0.85033  1.0000
  C   C1152     1.0  0.35898  0.15891  0.86039  1.0000
  H   H1398     1.0  0.32351  0.15648  0.89195  1.0000
  H   H1399     1.0  0.31876  0.13925  0.87464  1.0000
  H   H1400     1.0  0.36482  0.14797  0.83853  1.0000
  H   H1401     1.0  0.37009  0.16452  0.85628  1.0000
  C   C1153     1.0  0.48946  0.18608  0.85081  1.0000
  C   C1154     1.0  0.40152  0.04020  0.84320  1.0000
  C   C1155     1.0  0.39838  0.02876  0.85870  1.0000
  C   C1156     1.0  0.38529  0.03377  0.87207  1.0000
  C   C1157     1.0  0.37519  0.05021  0.86997  1.0000
  C   C1158     1.0  0.37883  0.06183  0.85469  1.0000
  C   C1159     1.0  0.39198  0.05687  0.84133  1.0000
  H   H1402     1.0  0.40588  0.01591  0.86028  1.0000
  H   H1403     1.0  0.38273  0.02480  0.88394  1.0000
  H   H1404     1.0  0.37168  0.07471  0.85325  1.0000
  H   H1405     1.0  0.39451  0.06585  0.82949  1.0000
  C   C1160     1.0  0.41612  0.12558  0.82229  1.0000
  C   C1161     1.0  0.40593  0.13981  0.82848  1.0000
  C   C1162     1.0  0.41147  0.14648  0.83912  1.0000
  C   C1163     1.0  0.42756  0.13934  0.84306  1.0000
  C   C1164     1.0  0.43800  0.12551  0.83637  1.0000
  C   C1165     1.0  0.43219  0.11844  0.82623  1.0000
  H   H1406     1.0  0.39364  0.14555  0.82520  1.0000
  H   H1407     1.0  0.40338  0.15722  0.84412  1.0000
  H   H1408     1.0  0.45037  0.11989  0.83954  1.0000
  H   H1409     1.0  0.44009  0.10744  0.82157  1.0000
  S   S353      1.0  0.03818  0.33999  0.91503  1.0000
  C   C1166     1.0  0.22475  0.11512  0.88671  1.0000
  C   C1167     1.0  0.22479  0.10677  0.90355  1.0000
  C   C1168     1.0  0.24005  0.10228  0.90947  1.0000
  C   C1169     1.0  0.25520  0.10629  0.89862  1.0000
  C   C1170     1.0  0.25483  0.11546  0.88210  1.0000
  C   C1171     1.0  0.23972  0.11965  0.87610  1.0000
  H   H1410     1.0  0.21326  0.10322  0.91181  1.0000
  H   H1411     1.0  0.24024  0.09517  0.92227  1.0000
  H   H1412     1.0  0.26624  0.11913  0.87383  1.0000
  H   H1413     1.0  0.23967  0.12630  0.86314  1.0000
  H   H1414     1.0  0.33503  0.12498  0.79324  1.0000
  C   C1172     1.0  0.12761  0.10278  0.84215  1.0000
  C   C1173     1.0  0.14003  0.10814  0.84660  1.0000
  C   C1174     1.0  0.14186  0.10395  0.86344  1.0000
  C   C1175     1.0  0.13146  0.09411  0.87590  1.0000
  C   C1176     1.0  0.11919  0.08853  0.87144  1.0000
  C   C1177     1.0  0.11718  0.09296  0.85463  1.0000
  H   H1415     1.0  0.14823  0.11561  0.83698  1.0000
  H   H1416     1.0  0.15148  0.10816  0.86667  1.0000
  H   H1417     1.0  0.11112  0.08090  0.88103  1.0000
  H   H1418     1.0  0.10765  0.08870  0.85133  1.0000
  C   C1178     1.0  0.04820  0.26823  0.88746  1.0000
  C   C1179     1.0  0.05820  0.28449  0.90725  1.0000
  C   C1180     1.0  0.05649  0.26757  0.91319  1.0000
  C   C1181     1.0  0.05132  0.25950  0.90340  1.0000
  H   H1419     1.0  0.05920  0.26070  0.92539  1.0000
  H   H1420     1.0  0.05004  0.24647  0.90809  1.0000
  C   C1182     1.0  0.07559  0.17013  0.91795  1.0000
  C   C1183     1.0  0.08523  0.15371  0.92228  1.0000
  C   C1184     1.0  0.10295  0.15097  0.92070  1.0000
  C   C1185     1.0  0.11100  0.16471  0.91530  1.0000
  C   C1186     1.0  0.10133  0.18115  0.91101  1.0000
  C   C1187     1.0  0.08366  0.18384  0.91215  1.0000
  H   H1421     1.0  0.11028  0.13829  0.92404  1.0000
  H   H1422     1.0  0.10752  0.19178  0.90698  1.0000
  H   H1423     1.0  0.07612  0.19652  0.90917  1.0000
  C   C1188     1.0  0.04858  0.17404  0.83911  1.0000
  C   C1189     1.0  0.03993  0.16356  0.85281  1.0000
  C   C1190     1.0  0.03834  0.14788  0.85115  1.0000
  C   C1191     1.0  0.04536  0.14262  0.83579  1.0000
  C   C1192     1.0  0.05379  0.15322  0.82209  1.0000
  C   C1193     1.0  0.05546  0.16881  0.82377  1.0000
  H   H1424     1.0  0.03443  0.16751  0.86466  1.0000
  H   H1425     1.0  0.03173  0.13976  0.86178  1.0000
  H   H1426     1.0  0.05862  0.14966  0.81000  1.0000
  H   H1427     1.0  0.06198  0.17692  0.81305  1.0000
  H   H1428     1.0  0.49497  0.32683  0.97354  1.0000
  H   H1429     1.0  0.46329  0.16073  0.83271  1.0000
  H   H1430     1.0  0.09702  0.00228  0.88567  1.0000
  C   C1194     1.0  0.47471  0.18166  0.93983  1.0000
  H   H1431     1.0  0.37219  0.25817  0.95371  1.0000
  C   C1195     1.0  0.03786  0.36811  0.97893  1.0000
  C   C1196     1.0  0.34194  0.11561  0.80265  1.0000
  H   H1432     1.0  0.10409  0.42541  0.97718  1.0000
  C   C1197     1.0  0.45432  0.19983  0.85627  1.0000
  H   H1433     1.0  0.00837  0.40620  0.87798  1.0000
  Fe  Fe187     1.0  0.42491  0.09285  0.80227  1.0000
  S   S354      1.0  0.02954  0.43395  0.81577  1.0000
  N   N76       1.0  0.14936  0.05053  0.94746  1.0000
  C   C1198     1.0  0.16803  0.04990  0.94263  1.0000
  C   C1199     1.0  0.14184  0.06121  0.93292  1.0000
  C   C1200     1.0  0.14173  0.05913  0.96188  1.0000
  C   C1201     1.0  0.14644  0.03306  0.95242  1.0000
  C   C1202     1.0  0.35072  0.16969  0.97970  1.0000
  C   C1203     1.0  0.15278  0.02138  0.96620  1.0000
  H   H1434     1.0  0.47122  0.28385  0.93359  1.0000
  H   H1435     1.0  0.47021  0.00055  0.81070  1.0000
  C   C1204     1.0  0.45289  0.18664  0.96472  1.0000
  H   H1436     1.0  0.32560  0.42517  0.96400  1.0000
  H   H1437     1.0  0.17077  0.06281  0.93811  1.0000
  H   H1438     1.0  0.09908  0.01306  0.80913  1.0000
  H   H1439     1.0  0.29509  0.01309  0.91289  1.0000
  H   H1440     1.0  0.14417  0.07427  0.92960  1.0000
  H   H1441     1.0  0.12770  0.06268  0.93568  1.0000
  H   H1442     1.0  0.14827  0.05334  0.97262  1.0000
  H   H1443     1.0  0.14273  0.07268  0.95821  1.0000
  C   C1205     1.0  0.36301  0.13211  0.79740  1.0000
  H   H1444     1.0  0.12792  0.05884  0.96663  1.0000
  H   H1445     1.0  0.48574  0.35408  0.85908  1.0000
  H   H1446     1.0  0.01046  0.28224  0.87073  1.0000
  H   H1447     1.0  0.43251  0.24863  0.89115  1.0000
  H   H1448     1.0  0.17168  0.14085  0.97977  1.0000
  N   N77       1.0  0.35266  0.22628  0.85429  1.0000
  C   C1206     1.0  0.35257  0.21387  0.84475  1.0000
  C   C1207     1.0  0.33842  0.20602  0.84884  1.0000
  C   C1208     1.0  0.36629  0.20916  0.83133  1.0000
  C   C1209     1.0  0.33795  0.19433  0.84002  1.0000
  C   C1210     1.0  0.36572  0.19737  0.82265  1.0000
  C   C1211     1.0  0.35156  0.19004  0.82693  1.0000
  H   H1449     1.0  0.38005  0.22286  0.85011  1.0000
  H   H1450     1.0  0.37016  0.24015  0.83523  1.0000
  H   H1451     1.0  0.33834  0.24690  0.83873  1.0000
  H   H1452     1.0  0.32773  0.20856  0.85917  1.0000
  H   H1453     1.0  0.37773  0.21421  0.82743  1.0000
  H   H1454     1.0  0.32723  0.18811  0.84373  1.0000
  H   H1455     1.0  0.34539  0.13221  0.97449  1.0000
  H   H1456     1.0  0.46619  0.26435  0.86196  1.0000
  N   N78       1.0  0.16945  0.39640  0.89133  1.0000
  C   C1212     1.0  0.17243  0.39896  0.87266  1.0000
  C   C1213     1.0  0.16197  0.41328  0.89564  1.0000
  C   C1214     1.0  0.18619  0.38995  0.89637  1.0000
  C   C1215     1.0  0.15845  0.38395  0.89983  1.0000
  C   C1216     1.0  0.16245  0.36805  0.89522  1.0000
  C   C1217     1.0  0.14378  0.38700  0.91298  1.0000
  C   C1218     1.0  0.15187  0.35639  0.90259  1.0000
  C   C1219     1.0  0.13344  0.37514  0.92041  1.0000
  C   C1220     1.0  0.13733  0.35999  0.91507  1.0000
  H   H1457     1.0  0.16013  0.40213  0.86849  1.0000
  H   H1458     1.0  0.17921  0.40947  0.86592  1.0000
  H   H1459     1.0  0.18056  0.38768  0.86785  1.0000
  H   H1460     1.0  0.14906  0.41855  0.89264  1.0000
  H   H1461     1.0  0.17007  0.42264  0.88846  1.0000
  H   H1462     1.0  0.16084  0.41278  0.90923  1.0000
  H   H1463     1.0  0.19302  0.37770  0.89269  1.0000
  H   H1464     1.0  0.19480  0.39906  0.89028  1.0000
  H   H1465     1.0  0.18453  0.38784  0.91032  1.0000
  H   H1466     1.0  0.17366  0.36456  0.88574  1.0000
  H   H1467     1.0  0.13958  0.39870  0.91739  1.0000
  H   H1468     1.0  0.15474  0.34460  0.89843  1.0000
  C   C1221     1.0  0.44415  0.23984  0.89374  1.0000
  H   H1469     1.0  0.49116  0.26951  0.92750  1.0000
  N   N79       1.0  0.38298  0.27479  0.96141  1.0000
  C   C1222     1.0  0.40044  0.26976  0.95129  1.0000
  C   C1223     1.0  0.38191  0.26329  0.97840  1.0000
  H   H1470     1.0  0.00918  0.41183  0.89678  1.0000
  C   C1224     1.0  0.37956  0.29294  0.96187  1.0000
  C   C1225     1.0  0.37906  0.30561  0.94676  1.0000
  H   H1471     1.0  0.35587  0.13652  0.80920  1.0000
  H   H1472     1.0  0.04567  0.44631  0.86265  1.0000
  H   H1473     1.0  0.36362  0.41646  0.97894  1.0000
  C   C1226     1.0  0.46816  0.34956  0.84751  1.0000
  H   H1474     1.0  0.07171  0.27703  0.97281  1.0000
  H   H1475     1.0  0.47316  0.26648  0.96314  1.0000
  H   H1476     1.0  0.48576  0.23612  0.89544  1.0000
  C   C1227     1.0  0.40869  0.37517  0.94523  1.0000
  H   H1477     1.0  0.22923  0.47742  0.91365  1.0000
  H   H1478     1.0  0.44220  0.36377  0.94362  1.0000
  H   H1479     1.0  0.47561  0.38924  0.81235  1.0000
  C   C1228     1.0  0.08570  0.01902  0.80973  1.0000
  S   S355      1.0  0.04209  0.00539  0.81096  1.0000
  C   C1229     1.0  0.07432  0.00959  0.80926  1.0000
  C   C1230     1.0  0.16004  0.09208  0.97529  1.0000
  C   C1231     1.0  0.37736  0.39166  0.85202  1.0000
  C   C1232     1.0  0.38271  0.39601  0.86433  1.0000
  C   C1233     1.0  0.37807  0.41263  0.86650  1.0000
  H   H1480     1.0  0.38135  0.37852  0.85113  1.0000
  H   H1481     1.0  0.39023  0.38633  0.87248  1.0000
  H   H1482     1.0  0.38204  0.41583  0.87626  1.0000
  N   N80       1.0  0.25799  0.06460  0.87447  1.0000
  C   C1234     1.0  0.26716  0.07871  0.86826  1.0000
  C   C1235     1.0  0.25553  0.06043  0.85937  1.0000
  C   C1236     1.0  0.24084  0.07061  0.88463  1.0000
  C   C1237     1.0  0.26771  0.05017  0.88514  1.0000
  C   C1238     1.0  0.27306  0.03357  0.88186  1.0000
  C   C1239     1.0  0.27205  0.05248  0.89944  1.0000
  H   H1483     1.0  0.40881  0.38750  0.93598  1.0000
  C   C1240     1.0  0.28183  0.03926  0.90929  1.0000
  C   C1241     1.0  0.28716  0.02325  0.90551  1.0000
  H   H1484     1.0  0.28008  0.07469  0.86062  1.0000
  H   H1485     1.0  0.26017  0.08990  0.86030  1.0000
  H   H1486     1.0  0.26904  0.08323  0.87864  1.0000
  H   H1487     1.0  0.26809  0.05609  0.85105  1.0000
  H   H1488     1.0  0.24851  0.07169  0.85149  1.0000
  H   H1489     1.0  0.24787  0.05052  0.86296  1.0000
  C   C1242     1.0  0.41510  0.36631  0.82156  1.0000
  H   H1490     1.0  0.23347  0.06041  0.88957  1.0000
  H   H1491     1.0  0.24167  0.07492  0.89566  1.0000
  C   C1243     1.0  0.23521  0.11883  0.95906  1.0000
  H   H1492     1.0  0.26825  0.06467  0.90294  1.0000
  H   H1493     1.0  0.14686  0.48669  0.89658  1.0000
  C   C1244     1.0  0.48731  0.18020  0.94848  1.0000
  C   C1245     1.0  0.32631  0.42632  0.95036  1.0000
  C   C1246     1.0  0.29725  0.42271  0.95672  1.0000
  C   C1247     1.0  0.08711  0.00668  0.85705  1.0000
  C   C1248     1.0  0.49478  0.39932  0.82488  1.0000
  H   H1494     1.0  0.35336  0.07032  0.80203  1.0000
  S   S356      1.0  0.43244  0.41539  0.79175  1.0000
  C   C1249     1.0  0.13776  0.02698  0.94365  1.0000
  H   H1495     1.0  0.42719  0.39970  0.82716  1.0000
  C   C1250     1.0  0.46436  0.02605  0.82567  1.0000
  H   H1496     1.0  0.38097  0.30230  0.93472  1.0000
  C   C1251     1.0  0.37218  0.02845  0.81454  1.0000
  H   H1497     1.0  0.14159  0.15023  0.83050  1.0000
  C   C1252     1.0  0.41050  0.34215  0.96666  1.0000
  H   H1498     1.0  0.07134  0.43352  0.90346  1.0000
  C   C1253     1.0  0.36887  0.40943  0.81132  1.0000
  H   H1499     1.0  0.09419  0.41456  0.86253  1.0000
  H   H1500     1.0  0.40195  0.27707  0.93799  1.0000
  H   H1501     1.0  0.07893  0.99644  0.80838  1.0000
  C   C1254     1.0  0.13737  0.42279  0.82124  1.0000
  H   H1502     1.0  0.09710  0.38503  0.85930  1.0000
  H   H1503     1.0  0.38312  0.40614  0.80888  1.0000
  C   C1255     1.0  0.06247  0.04353  0.81219  1.0000
  H   H1504     1.0  0.07399  0.41822  0.85693  1.0000
  C   C1256     1.0  0.06927  0.17174  0.96473  1.0000
  S   S357      1.0  0.01622  0.46984  0.79161  1.0000
  H   H1505     1.0  0.00662  0.44286  0.88130  1.0000
  C   C1257     1.0  0.41093  0.32619  0.97747  1.0000
  C   C1258     1.0  0.36607  0.38172  0.82776  1.0000
  C   C1259     1.0  0.08769  0.41860  0.85167  1.0000
  C   C1260     1.0  0.08464  0.15998  0.96561  1.0000
  C   C1261     1.0  0.47859  0.17732  0.84767  1.0000
  C   C1262     1.0  0.21340  0.12594  0.94289  1.0000
  H   H1506     1.0  0.30291  0.00401  0.85102  1.0000
  H   H1507     1.0  0.29211  0.43626  0.95139  1.0000
  H   H1508     1.0  0.13182  0.16405  0.87821  1.0000
  H   H1509     1.0  0.23313  0.08163  0.87711  1.0000
  C   C1263     1.0  0.48158  0.29813  0.95242  1.0000
  N   N81       1.0  0.45862  0.26403  0.88857  1.0000
  C   C1264     1.0  0.42901  0.31297  0.95484  1.0000
  H   H1510     1.0  0.44436  0.28645  0.89806  1.0000
  C   C1265     1.0  0.32090  0.39228  0.97195  1.0000
  H   H1511     1.0  0.25868  0.47108  0.94562  1.0000
  C   C1266     1.0  0.09181  0.39052  0.84772  1.0000
  Fe  Fe188     1.0  0.04791  0.42639  0.79288  1.0000
  H   H1512     1.0  0.04296  0.42616  0.84937  1.0000
  C   C1267     1.0  0.33371  0.36925  0.95075  1.0000
  S   S358      1.0  0.41699  0.03341  0.82614  1.0000
  C   C1268     1.0  0.43746  0.36352  0.93255  1.0000
  C   C1269     1.0  0.07170  0.01834  0.85398  1.0000
  N   N82       1.0  0.09783  0.23634  0.86875  1.0000
  C   C1270     1.0  0.08709  0.23164  0.88575  1.0000
  C   C1271     1.0  0.11602  0.23214  0.87021  1.0000
  C   C1272     1.0  0.09306  0.25503  0.86274  1.0000
  C   C1273     1.0  0.09517  0.22689  0.85749  1.0000
  C   C1274     1.0  0.08290  0.23396  0.84713  1.0000
  C   C1275     1.0  0.10369  0.20968  0.85774  1.0000
  C   C1276     1.0  0.07999  0.22461  0.83715  1.0000
  C   C1277     1.0  0.10079  0.20054  0.84755  1.0000
  C   C1278     1.0  0.08901  0.20800  0.83725  1.0000
  H   H1513     1.0  0.09079  0.21792  0.89130  1.0000
  H   H1514     1.0  0.08803  0.23883  0.89468  1.0000
  H   H1515     1.0  0.07338  0.23427  0.88517  1.0000
  H   H1516     1.0  0.11991  0.21911  0.87763  1.0000
  H   H1517     1.0  0.11850  0.24054  0.87708  1.0000
  H   H1518     1.0  0.12476  0.23346  0.85750  1.0000
  H   H1519     1.0  0.09960  0.25909  0.84936  1.0000
  H   H1520     1.0  0.07904  0.25970  0.86381  1.0000
  H   H1521     1.0  0.09631  0.26201  0.87053  1.0000
  H   H1522     1.0  0.07496  0.24652  0.84692  1.0000
  H   H1523     1.0  0.11235  0.20293  0.86605  1.0000
  H   H1524     1.0  0.07030  0.23010  0.82962  1.0000
  H   H1525     1.0  0.10747  0.18748  0.84784  1.0000
  H   H1526     1.0  0.08647  0.20076  0.82968  1.0000
  H   H1527     1.0  0.33624  0.39861  0.84374  1.0000
  C   C1279     1.0  0.36869  0.10248  0.81096  1.0000
  C   C1280     1.0  0.36717  0.40403  0.84139  1.0000
  S   S359      1.0  0.40815  0.11666  0.81018  1.0000
  H   H1528     1.0  0.05579  0.30639  0.88688  1.0000
  H   H1529     1.0  0.36125  0.20650  0.87428  1.0000
  C   C1281     1.0  0.04967  0.28521  0.88164  1.0000
  H   H1530     1.0  0.08392  0.44033  0.97985  1.0000
  C   C1282     1.0  0.42383  0.39196  0.82073  1.0000
  C   C1283     1.0  0.42020  0.38704  0.79507  1.0000
  H   H1531     1.0  0.12195  0.37800  0.92995  1.0000
  C   C1284     1.0  0.42012  0.31163  0.97161  1.0000
  H   H1532     1.0  0.12763  0.01358  0.84442  1.0000
  C   C1285     1.0  0.22263  0.11864  0.97401  1.0000
  H   H1533     1.0  0.03754  0.03973  0.81324  1.0000
  C   C1286     1.0  0.23059  0.12256  0.94353  1.0000
  H   H1534     1.0  0.43620  0.32927  0.93112  1.0000
  C   C1287     1.0  0.37384  0.32789  0.96184  1.0000
  H   H1535     1.0  0.49386  0.25486  0.95522  1.0000
  H   H1536     1.0  0.04616  0.40449  0.86116  1.0000
  C   C1288     1.0  0.29636  0.47514  0.95093  1.0000
  S   S360      1.0  0.26590  0.47832  0.97399  1.0000
  H   H1537     1.0  0.99998  0.14617  0.85540  1.0000
  H   H1538     1.0  0.48574  0.13462  0.85238  1.0000
  H   H1539     1.0  0.34098  0.02027  0.82977  1.0000
  C   C1289     1.0  0.47997  0.09029  0.80960  1.0000
  H   H1540     1.0  0.40079  0.35809  0.92632  1.0000
  H   H1541     1.0  0.33077  0.48149  0.85234  1.0000
  N   N83       1.0  0.38594  0.10309  0.87315  1.0000
  C   C1290     1.0  0.37851  0.08879  0.88458  1.0000
  C   C1291     1.0  0.37759  0.11835  0.88038  1.0000
  C   C1292     1.0  0.38141  0.10648  0.85648  1.0000
  C   C1293     1.0  0.40479  0.09859  0.87115  1.0000
  C   C1294     1.0  0.41388  0.10772  0.87629  1.0000
  C   C1295     1.0  0.41463  0.08442  0.86418  1.0000
  C   C1296     1.0  0.43166  0.10290  0.87449  1.0000
  C   C1297     1.0  0.43241  0.07982  0.86229  1.0000
  C   C1298     1.0  0.44092  0.08907  0.86740  1.0000
  H   H1542     1.0  0.38168  0.08575  0.89724  1.0000
  H   H1543     1.0  0.36431  0.09159  0.88645  1.0000
  H   H1544     1.0  0.38333  0.07704  0.87961  1.0000
  H   H1545     1.0  0.37966  0.11650  0.89333  1.0000
  H   H1546     1.0  0.36346  0.12153  0.88144  1.0000
  H   H1547     1.0  0.38244  0.12969  0.87224  1.0000
  H   H1548     1.0  0.36731  0.10923  0.85766  1.0000
  H   H1549     1.0  0.38616  0.11757  0.84777  1.0000
  H   H1550     1.0  0.38697  0.09571  0.85006  1.0000
  H   H1551     1.0  0.40768  0.11885  0.88143  1.0000
  H   H1552     1.0  0.40864  0.07678  0.86006  1.0000
  H   H1553     1.0  0.43835  0.11036  0.87805  1.0000
  H   H1554     1.0  0.43965  0.06913  0.85669  1.0000
  H   H1555     1.0  0.45474  0.08571  0.86561  1.0000
  H   H1556     1.0  0.03511  0.40516  0.90587  1.0000
  H   H1557     1.0  0.47702  0.39310  0.85799  1.0000
  C   C1299     1.0  0.48409  0.10248  0.81535  1.0000
  C   C1300     1.0  0.41897  0.37667  0.82986  1.0000
  H   H1558     1.0  0.45661  0.28479  0.86695  1.0000
  H   H1559     1.0  0.99948  0.38106  0.80798  1.0000
  H   H1560     1.0  0.48294  0.14975  0.82262  1.0000
  H   H1561     1.0  0.05567  0.41055  0.91809  1.0000
  H   H1562     1.0  0.14132  0.43476  0.81558  1.0000
  C   C1301     1.0  0.48370  0.31392  0.94142  1.0000
  H   H1563     1.0  0.05779  0.05654  0.81355  1.0000
  N   N84       1.0  0.10204  0.01199  0.85877  1.0000
  H   H1564     1.0  0.15961  0.02506  0.97337  1.0000
  H   H1565     1.0  0.44660  0.35344  0.92645  1.0000
  H   H1566     1.0  0.02416  0.36909  0.98258  1.0000
  S   S361      1.0  0.06690  0.09457  0.79845  1.0000
  C   C1302     1.0  0.46582  0.99857  0.84386  1.0000
  H   H1567     1.0  0.41850  0.37288  0.84323  1.0000
  H   H1568     1.0  0.06558  0.17722  0.95264  1.0000
  H   H1569     1.0  0.36677  0.20465  0.97533  1.0000
  C   C1303     1.0  0.41372  0.36109  0.92263  1.0000
  H   H1570     1.0  0.15403  0.38079  0.83271  1.0000
  H   H1571     1.0  0.37182  0.18049  0.96251  1.0000
  C   C1304     1.0  0.37699  0.29859  0.97702  1.0000
  N   N85       1.0  0.49478  0.38292  0.83736  1.0000
  H   H1572     1.0  0.43939  0.18925  0.97042  1.0000
  C   C1305     1.0  0.35443  0.16003  0.95399  1.0000
  H   H1573     1.0  0.08761  0.03314  0.87016  1.0000
  C   C1306     1.0  0.48256  0.37357  0.83616  1.0000
  C   C1307     1.0  0.01351  0.43755  0.86991  1.0000
  H   H1574     1.0  0.04928  0.99191  0.84977  1.0000
  H   H1575     1.0  0.34784  0.04510  0.82322  1.0000
  H   H1576     1.0  0.23016  0.48439  0.93185  1.0000
  Fe  Fe189     1.0  0.42729  0.05532  0.80829  1.0000
  S   S362      1.0  0.31457  0.47887  0.82498  1.0000
  H   H1577     1.0  0.31009  0.43470  0.92473  1.0000
  H   H1578     1.0  0.20371  0.47381  0.88975  1.0000
  C   C1308     1.0  0.35007  0.46312  0.78573  1.0000
  H   H1579     1.0  0.44347  0.27018  0.86964  1.0000
  H   H1580     1.0  0.44493  0.26689  0.91366  1.0000
  H   H1581     1.0  0.36313  0.10568  0.82362  1.0000
  C   C1309     1.0  0.47944  0.35875  0.84853  1.0000
  H   H1582     1.0  0.20990  0.12858  0.93076  1.0000
  H   H1583     1.0  0.48178  0.40774  0.82622  1.0000
  H   H1584     1.0  0.00811  0.26150  0.89773  1.0000
  H   H1585     1.0  0.45762  0.34128  0.96569  1.0000
  C   C1310     1.0  0.44406  0.22257  0.89780  1.0000
  C   C1311     1.0  0.04662  0.36598  0.96259  1.0000
  C   C1312     1.0  0.46536  0.20834  0.85870  1.0000
  S   S363      1.0  0.40955  0.34670  0.83239  1.0000
  C   C1313     1.0  0.08751  0.41416  0.82455  1.0000
  H   H1586     1.0  0.04728  0.29204  0.86931  1.0000
  H   H1587     1.0  0.46720  0.14857  0.86151  1.0000
  H   H1588     1.0  0.40351  0.25612  0.95070  1.0000
  H   H1589     1.0  0.48588  0.26303  0.88027  1.0000
  H   H1590     1.0  0.31269  0.44679  0.81980  1.0000
  C   C1314     1.0  0.07315  0.36587  0.96944  1.0000
  N   N86       1.0  0.08886  0.14475  0.86785  1.0000
  C   C1315     1.0  0.07510  0.15942  0.87212  1.0000
  C   C1316     1.0  0.08453  0.13892  0.85468  1.0000
  C   C1317     1.0  0.08890  0.13074  0.88306  1.0000
  C   C1318     1.0  0.10568  0.14962  0.86254  1.0000
  C   C1319     1.0  0.11695  0.14797  0.84669  1.0000
  C   C1320     1.0  0.11145  0.15579  0.87362  1.0000
  C   C1321     1.0  0.13304  0.15204  0.84247  1.0000
  C   C1322     1.0  0.12755  0.15981  0.86928  1.0000
  C   C1323     1.0  0.13838  0.15783  0.85377  1.0000
  H   H1591     1.0  0.07631  0.16360  0.88311  1.0000
  H   H1592     1.0  0.07509  0.17048  0.86121  1.0000
  H   H1593     1.0  0.06222  0.15636  0.87564  1.0000
  H   H1594     1.0  0.08391  0.14900  0.84295  1.0000
  H   H1595     1.0  0.07180  0.13542  0.85899  1.0000
  H   H1596     1.0  0.09394  0.12740  0.85135  1.0000
  H   H1597     1.0  0.09040  0.13459  0.89410  1.0000
  H   H1598     1.0  0.07675  0.12613  0.88706  1.0000
  H   H1599     1.0  0.09964  0.11979  0.88059  1.0000
  H   H1600     1.0  0.11389  0.14312  0.83748  1.0000
  H   H1601     1.0  0.10364  0.15725  0.88589  1.0000
  H   H1602     1.0  0.37644  0.19372  0.81268  1.0000
  H   H1603     1.0  0.32833  0.41806  0.92159  1.0000
  H   H1604     1.0  0.07283  0.46769  0.79774  1.0000
  C   C1324     1.0  0.47380  0.23303  0.89599  1.0000
  H   H1605     1.0  0.15105  0.16051  0.85063  1.0000
  C   C1325     1.0  0.05914  0.44128  0.88228  1.0000
  H   H1606     1.0  0.27046  0.03050  0.87131  1.0000
  S   S364      1.0  0.40509  0.21881  0.96785  1.0000
  H   H1607     1.0  0.45115  0.34753  0.83324  1.0000
  H   H1608     1.0  0.36484  0.16679  0.94660  1.0000
  C   C1326     1.0  0.45878  0.21055  0.90088  1.0000
  C   C1327     1.0  0.37183  0.14441  0.97426  1.0000
  S   S365      1.0  0.08604  0.12356  0.80060  1.0000
  H   H1609     1.0  0.46028  0.22030  0.86266  1.0000
  H   H1610     1.0  0.43153  0.27249  0.89864  1.0000
  N   N87       1.0  0.48520  0.16115  0.84186  1.0000
  H   H1611     1.0  0.09029  0.47002  0.84861  1.0000
  C   C1328     1.0  0.03638  0.41634  0.85845  1.0000
  C   C1329     1.0  0.01711  0.40846  0.88470  1.0000
  C   C1330     1.0  0.35199  0.00986  0.82671  1.0000
  H   H1612     1.0  0.48954  0.29169  0.92047  1.0000
  C   C1331     1.0  0.32107  0.39844  0.95444  1.0000
  C   C1332     1.0  0.06948  0.46966  0.83827  1.0000
  C   C1333     1.0  0.10780  0.00175  0.87443  1.0000
  H   H1613     1.0  0.46709  0.09181  0.80817  1.0000
  N   N88       1.0  0.02647  0.42187  0.87426  1.0000
  C   C1334     1.0  0.07978  0.03596  0.81132  1.0000
  H   H1614     1.0  0.36486  0.42338  0.81007  1.0000
  S   S366      1.0  0.48743  0.06140  0.79789  1.0000
  H   H1615     1.0  0.38428  0.24982  0.97759  1.0000
  S   S367      1.0  0.48502  0.37754  0.90016  1.0000
  C   C1335     1.0  0.49520  0.02598  0.83450  1.0000
  H   H1616     1.0  0.46571  0.47199  0.80522  1.0000
  C   C1336     1.0  0.37613  0.32282  0.94682  1.0000
  Fe  Fe190     1.0  0.00909  0.21472  0.89085  1.0000
  H   H1617     1.0  0.35708  0.27644  0.96004  1.0000
  H   H1618     1.0  0.00128  0.31113  0.91168  1.0000
  H   H1619     1.0  0.33993  0.42168  0.94444  1.0000
  H   H1620     1.0  0.34204  0.16864  0.95185  1.0000
  H   H1621     1.0  0.30698  0.41409  0.92639  1.0000
  H   H1622     1.0  0.35788  0.02716  0.84711  1.0000
  H   H1623     1.0  0.45956  0.03242  0.83655  1.0000
  C   C1337     1.0  0.33317  0.36363  0.96803  1.0000
  H   H1624     1.0  0.37985  0.01697  0.84547  1.0000
  H   H1625     1.0  0.45873  0.19716  0.90385  1.0000
  C   C1338     1.0  0.47362  0.21577  0.89990  1.0000
  N   N89       1.0  0.35459  0.15462  0.97229  1.0000
  C   C1339     1.0  0.06212  0.43128  0.89779  1.0000
  S   S368      1.0  0.10893  0.08721  0.79377  1.0000
  H   H1626     1.0  0.09548  0.03867  0.84754  1.0000
  H   H1627     1.0  0.38262  0.10184  0.80854  1.0000
  C   C1340     1.0  0.04147  0.41536  0.89872  1.0000
  H   H1628     1.0  0.01601  0.17297  0.82989  1.0000
  H   H1629     1.0  0.04671  0.18564  0.97860  1.0000
  C   C1341     1.0  0.20495  0.12238  0.97382  1.0000
  H   H1630     1.0  0.43624  0.30166  0.95029  1.0000
  H   H1631     1.0  0.35225  0.00816  0.81398  1.0000
  H   H1632     1.0  0.41650  0.48587  0.80416  1.0000
  H   H1633     1.0  0.38019  0.37713  0.82477  1.0000
  C   C1342     1.0  0.47506  0.32929  0.94612  1.0000
  C   C1343     1.0  0.38800  0.02867  0.80259  1.0000
  H   H1634     1.0  0.32276  0.44008  0.94477  1.0000
  H   H1635     1.0  0.06608  0.45129  0.87600  1.0000
  H   H1636     1.0  0.16310  0.40808  0.81977  1.0000
  H   H1637     1.0  0.02263  0.34427  0.85207  1.0000
  H   H1638     1.0  0.12920  0.00575  0.94151  1.0000
  C   C1344     1.0  0.14215  0.99910  0.96198  1.0000
  H   H1639     1.0  0.47826  0.17254  0.81775  1.0000
  C   C1345     1.0  0.47460  0.26807  0.88961  1.0000
  H   H1640     1.0  0.99904  0.24934  0.88970  1.0000
  N   N90       1.0  0.47596  0.00935  0.82992  1.0000
  S   S369      1.0  0.02312  0.22771  0.86622  1.0000
  C   C1346     1.0  0.37419  0.31581  0.97692  1.0000
  C   C1347     1.0  0.42886  0.32888  0.94395  1.0000
  S   S370      1.0  0.45022  0.05156  0.78715  1.0000
  H   H1641     1.0  0.37177  0.34122  0.96179  1.0000
  C   C1348     1.0  0.20069  0.12582  0.95776  1.0000
  C   C1349     1.0  0.11997  0.42252  0.82618  1.0000
  C   C1350     1.0  0.36736  0.01555  0.84433  1.0000
  C   C1351     1.0  0.32769  0.38636  0.94400  1.0000
  C   C1352     1.0  0.03826  0.42520  0.88277  1.0000
  C   C1353     1.0  0.35831  0.19580  0.98033  1.0000
  S   S371      1.0  0.09424  0.04695  0.81299  1.0000
  H   H1642     1.0  0.33916  0.10294  0.80437  1.0000
  C   C1354     1.0  0.45997  0.35460  0.83400  1.0000
  H   H1643     1.0  0.40314  0.35285  0.97213  1.0000
  C   C1355     1.0  0.11424  0.40721  0.83384  1.0000
  H   H1644     1.0  0.17447  0.04378  0.95341  1.0000
  C   C1356     1.0  0.05813  0.01290  0.85180  1.0000
  N   N91       1.0  0.09568  0.40747  0.83937  1.0000
  C   C1357     1.0  0.46379  0.48556  0.79857  1.0000
  H   H1645     1.0  0.12886  0.35117  0.92038  1.0000
  H   H1646     1.0  0.47700  0.34119  0.93748  1.0000
  H   H1647     1.0  0.02794  0.41363  0.85175  1.0000
  C   C1358     1.0  0.39108  0.04345  0.79080  1.0000
  H   H1648     1.0  0.09295  0.15650  0.95414  1.0000
  H   H1649     1.0  0.41311  0.37636  0.95613  1.0000
  C   C1359     1.0  0.13569  0.01022  0.94844  1.0000
  H   H1650     1.0  0.36068  0.37387  0.84004  1.0000
  H   H1651     1.0  0.45157  0.17801  0.85001  1.0000
  C   C1360     1.0  0.46541  0.18485  0.97405  1.0000
  H   H1652     1.0  0.08818  0.43209  0.84593  1.0000
  C   C1361     1.0  0.41552  0.37168  0.80418  1.0000
  N   N92       1.0  0.41975  0.36070  0.93779  1.0000
  H   H1653     1.0  0.42232  0.35186  0.91513  1.0000
  C   C1362     1.0  0.34233  0.40511  0.83099  1.0000
  H   H1654     1.0  0.28676  0.00785  0.88915  1.0000
  H   H1655     1.0  0.11100  0.43447  0.82401  1.0000
  H   H1656     1.0  0.35532  0.43102  0.83607  1.0000
  H   H1657     1.0  0.45678  0.37259  0.81084  1.0000
  C   C1363     1.0  0.05572  0.31910  0.96997  1.0000
  H   H1658     1.0  0.09703  0.38152  0.83910  1.0000
  H   H1659     1.0  0.00379  0.43518  0.86448  1.0000
  H   H1660     1.0  0.24040  0.12269  0.93196  1.0000
  C   C1364     1.0  0.05958  0.99590  0.85219  1.0000
  N   N93       1.0  0.31505  0.41674  0.94770  1.0000
  H   H1661     1.0  0.06996  0.03181  0.85270  1.0000
  H   H1662     1.0  0.07781  0.39108  0.85183  1.0000
  H   H1663     1.0  0.47377  0.28201  0.88683  1.0000
  C   C1365     1.0  0.36817  0.42506  0.85626  1.0000
  C   C1366     1.0  0.05453  0.29335  0.89154  1.0000
  H   H1664     1.0  0.07897  0.14309  0.92688  1.0000
  C   C1367     1.0  0.36848  0.23312  0.84864  1.0000
  H   H1665     1.0  0.28854  0.41515  0.95583  1.0000
  H   H1666     1.0  0.10297  0.46769  0.79624  1.0000
  H   H1667     1.0  0.06635  0.36265  0.85367  1.0000
  C   C1368     1.0  0.46075  0.18440  0.85113  1.0000
  H   H1668     1.0  0.12402  0.37979  0.84170  1.0000
  C   C1369     1.0  0.28252  0.02035  0.89204  1.0000
  C   C1370     1.0  0.33795  0.24082  0.85233  1.0000
  H   H1669     1.0  0.32546  0.23697  0.85772  1.0000
  H   H1670     1.0  0.36498  0.40663  0.80088  1.0000
  S   S372      1.0  0.02430  0.21980  0.90654  1.0000
  N   N94       1.0  0.49062  0.28209  0.94689  1.0000
  H   H1671     1.0  0.09357  0.40646  0.81473  1.0000
  H   H1672     1.0  0.33869  0.21418  0.87835  1.0000
  H   H1673     1.0  0.07114  0.36309  0.94534  1.0000
  H   H1674     1.0  0.18767  0.12836  0.95627  1.0000
  H   H1675     1.0  0.47079  0.03456  0.81465  1.0000
  C   C1371     1.0  0.35109  0.21814  0.87249  1.0000
  S   S373      1.0  0.17256  0.08510  0.95705  1.0000
  S   S374      1.0  0.03520  0.36488  0.94829  1.0000
  H   H1676     1.0  0.35644  0.14903  0.94818  1.0000
  H   H1677     1.0  0.08838  0.42751  0.81844  1.0000
  H   H1678     1.0  0.36842  0.24210  0.85629  1.0000
  H   H1679     1.0  0.33793  0.25068  0.85890  1.0000
  C   C1372     1.0  0.05104  0.03400  0.81202  1.0000
  C   C1373     1.0  0.49132  0.01035  0.83498  1.0000
  H   H1680     1.0  0.06004  0.47087  0.84984  1.0000
  H   H1681     1.0  0.14272  0.11210  0.96225  1.0000
  C   C1374     1.0  0.06431  0.36471  0.95792  1.0000
  H   H1682     1.0  0.08682  0.36511  0.96567  1.0000
  C   C1375     1.0  0.14603  0.10575  0.97432  1.0000
  H   H1683     1.0  0.32896  0.15014  0.97917  1.0000
  S   S375      1.0  0.04357  0.25820  0.87388  1.0000
  H   H1684     1.0  0.43831  0.37580  0.92336  1.0000
  C   C1376     1.0  0.45609  0.27113  0.87104  1.0000
  H   H1685     1.0  0.36708  0.08954  0.81185  1.0000
  H   H1686     1.0  0.33609  0.11941  0.81500  1.0000
  H   H1687     1.0  0.47740  0.26291  0.90246  1.0000
  H   H1688     1.0  0.02602  0.39599  0.88764  1.0000
  N   N95       1.0  0.36850  0.01305  0.82729  1.0000
  H   H1689     1.0  0.24864  0.11599  0.95947  1.0000
  C   C1377     1.0  0.06067  0.30342  0.96551  1.0000
  C   C1378     1.0  0.36118  0.18184  0.97314  1.0000
  H   H1690     1.0  0.38351  0.99498  0.81208  1.0000
  H   H1691     1.0  0.44066  0.20517  0.85848  1.0000
  C   C1379     1.0  0.32680  0.37514  0.97860  1.0000
  C   C1380     1.0  0.48701  0.26670  0.95982  1.0000
  C   C1381     1.0  0.37046  0.27187  0.95343  1.0000
  H   H1692     1.0  0.49328  0.18067  0.97116  1.0000
  C   C1382     1.0  0.45751  0.18501  0.94789  1.0000
  H   H1693     1.0  0.41280  0.37374  0.91382  1.0000
  H   H1694     1.0  0.05882  0.30230  0.95362  1.0000
  H   H1695     1.0  0.41246  0.36381  0.79765  1.0000
  C   C1383     1.0  0.06797  0.28921  0.97636  1.0000
  C   C1384     1.0  0.42464  0.39709  0.80327  1.0000
  H   H1696     1.0  0.33880  0.36034  0.94246  1.0000
  C   C1385     1.0  0.45894  0.24564  0.89292  1.0000
  H   H1697     1.0  0.10974  0.03365  0.86129  1.0000
  C   C1386     1.0  0.31514  0.42096  0.92933  1.0000
  H   H1698     1.0  0.00271  0.33075  0.87619  1.0000
  C   C1387     1.0  0.49068  0.38667  0.85445  1.0000
  C   C1388     1.0  0.04738  0.43835  0.87483  1.0000
  C   C1389     1.0  0.46310  0.36878  0.82142  1.0000
  H   H1699     1.0  0.15600  0.99581  0.98115  1.0000
  H   H1700     1.0  0.31975  0.47433  0.93185  1.0000
  Fe  Fe191     1.0  0.13179  0.48197  0.87099  1.0000
  Fe  Fe192     1.0  0.01053  0.44382  0.79920  1.0000
  C   C1390     1.0  0.11627  0.00923  0.84404  1.0000
  C   C1391     1.0  0.46187  0.31413  0.97313  1.0000
  H   H1701     1.0  0.39437  0.99830  0.82648  1.0000
  H   H1702     1.0  0.31625  0.40070  0.98068  1.0000
  H   H1703     1.0  0.43255  0.21849  0.89839  1.0000
  C   C1392     1.0  0.05329  0.41838  0.90600  1.0000
  C   C1393     1.0  0.41955  0.34399  0.94953  1.0000
  C   C1394     1.0  0.48537  0.28179  0.93150  1.0000
  C   C1395     1.0  0.37862  0.05840  0.79048  1.0000
  H   H1704     1.0  0.32838  0.38976  0.93054  1.0000
  H   H1705     1.0  0.39507  0.37395  0.94957  1.0000
  S   S376      1.0  0.41269  0.07766  0.79256  1.0000
  H   H1706     1.0  0.04993  0.33012  0.96154  1.0000
  C   C1396     1.0  0.46416  0.32938  0.96195  1.0000
  H   H1707     1.0  0.33766  0.35034  0.97327  1.0000
  H   H1708     1.0  0.48704  0.03809  0.83060  1.0000
  H   H1709     1.0  0.37507  0.13268  0.96928  1.0000
  H   H1710     1.0  0.12069  0.99563  0.84343  1.0000
  C   C1397     1.0  0.00893  0.34839  0.85279  1.0000
  C   C1398     1.0  0.47706  0.16118  0.82816  1.0000
  H   H1711     1.0  0.40631  0.18310  0.98134  1.0000
  C   C1399     1.0  0.35994  0.04405  0.81416  1.0000
  H   H1712     1.0  0.11825  0.00624  0.87666  1.0000
  H   H1713     1.0  0.34891  0.99831  0.83617  1.0000
  C   C1400     1.0  0.38180  0.99748  0.82484  1.0000
  C   C1401     1.0  0.14448  0.39247  0.83090  1.0000
  H   H1714     1.0  0.00301  0.17748  0.81475  1.0000
  H   H1715     1.0  0.01078  0.15596  0.82507  1.0000
  H   H1716     1.0  0.10131  0.14352  0.98115  1.0000
  H   H1717     1.0  0.45387  0.99803  0.84062  1.0000
  H   H1718     1.0  0.00163  0.27033  0.86214  1.0000
  C   C1402     1.0  0.08933  0.15267  0.98118  1.0000
  N   N96       1.0  0.36062  0.11512  0.79769  1.0000
  H   H1719     1.0  0.46579  0.33843  0.85724  1.0000
  H   H1720     1.0  0.48734  0.14631  0.86673  1.0000
  H   H1721     1.0  0.01211  0.36688  0.83012  1.0000
  H   H1722     1.0  0.00299  0.16396  0.86112  1.0000
  C   C1403     1.0  0.34642  0.44778  0.78591  1.0000
  H   H1723     1.0  0.48883  0.00978  0.80396  1.0000
  C   C1404     1.0  0.00553  0.16917  0.82699  1.0000
  H   H1724     1.0  0.17100  0.11919  0.98112  1.0000
  H   H1725     1.0  0.49219  0.31448  0.92910  1.0000
  C   C1405     1.0  0.49255  0.07628  0.80559  1.0000
  H   H1726     1.0  0.42045  0.29934  0.98018  1.0000
  H   H1727     1.0  0.99858  0.39535  0.82107  1.0000
  C   C1406     1.0  0.08798  0.98941  0.85772  1.0000
  H   H1728     1.0  0.39167  0.26392  0.98487  1.0000
  S   S377      1.0  0.38754  0.38455  0.98466  1.0000
  S   S378      1.0  0.19550  0.92250  0.03383  1.0000
  Fe  Fe193     1.0  0.18181  0.91666  0.01725  1.0000
  S   S379      1.0  0.17397  0.89163  0.02466  1.0000
  Fe  Fe194     1.0  0.21279  0.93233  0.00973  1.0000
  S   S380      1.0  0.24143  0.92705  0.00539  1.0000
  S   S381      1.0  0.16353  0.94187  0.01425  1.0000
  Fe  Fe195     1.0  0.05602  0.86102  0.03525  1.0000
  S   S382      1.0  0.06282  0.83870  0.05599  1.0000
  S   S383      1.0  0.02984  0.87235  0.02988  1.0000
  Fe  Fe196     1.0  0.09106  0.86954  0.02565  1.0000
  S   S384      1.0  0.10091  0.84788  0.04533  1.0000
  S   S385      1.0  0.10384  0.89077  0.00959  1.0000
  Fe  Fe197     1.0  0.08730  0.83282  0.03694  1.0000
  S   S386      1.0  0.10195  0.80680  0.03264  1.0000
  Fe  Fe198     1.0  0.07568  0.85578  0.06237  1.0000
  S   S387      1.0  0.07450  0.85802  0.08880  1.0000
  S   S388      1.0  0.07951  0.85408  0.01563  1.0000
  S   S389      1.0  0.06681  0.87840  0.04326  1.0000
  Fe  Fe199     1.0  0.10570  0.93160  0.12939  1.0000
  S   S390      1.0  0.13294  0.91942  0.11914  1.0000
  Fe  Fe200     1.0  0.07473  0.93205  0.15877  1.0000
  S   S391      1.0  0.05728  0.95124  0.14301  1.0000
  Fe  Fe201     1.0  0.07043  0.93600  0.12294  1.0000
  S   S392      1.0  0.05840  0.93141  0.10384  1.0000
  S   S393      1.0  0.08598  0.91568  0.13954  1.0000
  S   S394      1.0  0.09613  0.94603  0.15015  1.0000
  H   H1729     1.0  0.07880  0.50563  0.11448  1.0000
  H   H1730     1.0  0.27534  0.92718  0.00751  1.0000
  Fe  Fe202     1.0  0.41084  0.93562  0.11566  1.0000
  S   S395      1.0  0.40148  0.91406  0.13500  1.0000
  S   S396      1.0  0.39433  0.95546  0.09935  1.0000
  Fe  Fe203     1.0  0.44595  0.92451  0.12443  1.0000
  S   S397      1.0  0.43912  0.90218  0.14457  1.0000
  S   S398      1.0  0.47278  0.92841  0.11768  1.0000
  Fe  Fe204     1.0  0.42702  0.89836  0.12537  1.0000
  S   S399      1.0  0.42948  0.87254  0.12051  1.0000
  Fe  Fe205     1.0  0.41437  0.92043  0.15190  1.0000
  H   H1731     1.0  0.38156  0.63189  0.99427  1.0000
  S   S400      1.0  0.43549  0.91959  0.10481  1.0000
  S   S401      1.0  0.42226  0.94307  0.13306  1.0000
  Fe  Fe206     1.0  0.43513  0.84431  0.03990  1.0000
  S   S402      1.0  0.41315  0.83403  0.05777  1.0000
  S   S403      1.0  0.44795  0.86196  0.04534  1.0000
  H   H1732     1.0  0.37031  0.97230  0.07782  1.0000
  S   S404      1.0  0.41274  0.81586  0.02783  1.0000
  Fe  Fe207     1.0  0.40166  0.84114  0.03490  1.0000
  S   S405      1.0  0.37351  0.85260  0.03764  1.0000
  Fe  Fe208     1.0  0.42637  0.80985  0.04899  1.0000
  S   S406      1.0  0.42940  0.78425  0.06652  1.0000
  S   S407      1.0  0.42270  0.85340  0.01754  1.0000
  S   S408      1.0  0.44943  0.81954  0.03299  1.0000
  Fe  Fe209     1.0  0.32605  0.94671  0.06101  1.0000
  S   S409      1.0  0.33473  0.93191  0.08480  1.0000
  Fe  Fe210     1.0  0.33190  0.94481  0.02476  1.0000
  C   C1407     1.0  0.48440  0.64643  0.99745  1.0000
  S   S410      1.0  0.31465  0.93359  0.04828  1.0000
  H   H1733     1.0  0.42590  0.63007  0.05357  1.0000
  Fe  Fe211     1.0  0.45532  0.70093  0.03797  1.0000
  S   S411      1.0  0.46946  0.68158  0.02246  1.0000
  S   S412      1.0  0.45942  0.72712  0.02452  1.0000
  Fe  Fe212     1.0  0.44197  0.67456  0.06752  1.0000
  S   S413      1.0  0.45533  0.65318  0.05438  1.0000
  S   S414      1.0  0.42619  0.66778  0.09365  1.0000
  Fe  Fe213     1.0  0.47739  0.66601  0.04628  1.0000
  H   H1734     1.0  0.09739  0.78912  0.99766  1.0000
  Fe  Fe214     1.0  0.44602  0.67066  0.03198  1.0000
  S   S415      1.0  0.43759  0.65824  0.01600  1.0000
  S   S416      1.0  0.46493  0.68604  0.06135  1.0000
  S   S417      1.0  0.43089  0.69145  0.04555  1.0000
  Fe  Fe215     1.0  0.42670  0.54185  0.14491  1.0000
  H   H1735     1.0  0.20494  0.91330  0.10027  1.0000
  S   S418      1.0  0.43262  0.51450  0.14315  1.0000
  Fe  Fe216     1.0  0.43601  0.57582  0.13913  1.0000
  S   S419      1.0  0.41213  0.58585  0.15687  1.0000
  S   S420      1.0  0.45577  0.59129  0.12482  1.0000
  N   N97       1.0  0.14294  0.62458  0.99377  1.0000
  Fe  Fe217     1.0  0.39937  0.57432  0.14381  1.0000
  S   S421      1.0  0.37475  0.58880  0.13580  1.0000
  S   S422      1.0  0.44236  0.55091  0.15719  1.0000
  S   S423      1.0  0.42297  0.56582  0.12503  1.0000
  Fe  Fe218     1.0  0.35277  0.60870  0.01565  1.0000
  S   S424      1.0  0.33592  0.63376  0.01944  1.0000
  H   H1736     1.0  0.30165  0.58936  0.00272  1.0000
  Fe  Fe219     1.0  0.35091  0.59515  0.05322  1.0000
  S   S425      1.0  0.33366  0.61902  0.06008  1.0000
  S   S426      1.0  0.36151  0.57250  0.07186  1.0000
  Fe  Fe220     1.0  0.31990  0.61844  0.04079  1.0000
  S   S427      1.0  0.29129  0.62633  0.04315  1.0000
  Fe  Fe221     1.0  0.35132  0.63196  0.03815  1.0000
  S   S428      1.0  0.35940  0.65451  0.04053  1.0000
  S   S429      1.0  0.33567  0.59336  0.03563  1.0000
  S   S430      1.0  0.36961  0.60811  0.03263  1.0000
  Fe  Fe222     1.0  0.22213  0.57579  0.06451  1.0000
  S   S431      1.0  0.21200  0.57377  0.04328  1.0000
  S   S432      1.0  0.25039  0.56801  0.06369  1.0000
  Fe  Fe223     1.0  0.18640  0.58321  0.08674  1.0000
  S   S433      1.0  0.17341  0.58101  0.06759  1.0000
  S   S434      1.0  0.17148  0.59096  0.11106  1.0000
  Fe  Fe224     1.0  0.19510  0.55864  0.06364  1.0000
  S   S435      1.0  0.19682  0.53266  0.06027  1.0000
  Fe  Fe225     1.0  0.19156  0.59639  0.04926  1.0000
  S   S436      1.0  0.18186  0.61817  0.02936  1.0000
  S   S437      1.0  0.20632  0.55939  0.08466  1.0000
  S   S438      1.0  0.20345  0.59991  0.06860  1.0000
  H   H1737     1.0  0.23680  0.50131  0.98812  1.0000
  Fe  Fe226     1.0  0.06620  0.60699  0.15973  1.0000
  S   S439      1.0  0.06996  0.63380  0.14961  1.0000
  S   S440      1.0  0.06946  0.58833  0.14383  1.0000
  Fe  Fe227     1.0  0.09576  0.68824  0.02212  1.0000
  S   S441      1.0  0.10909  0.70760  0.02348  1.0000
  H   H1738     1.0  0.12340  0.91639  0.99973  1.0000
  Fe  Fe228     1.0  0.07537  0.68552  0.05866  1.0000
  S   S442      1.0  0.08676  0.70468  0.06339  1.0000
  S   S443      1.0  0.05650  0.67035  0.07643  1.0000
  Fe  Fe229     1.0  0.08320  0.71957  0.03742  1.0000
  S   S444      1.0  0.06933  0.74717  0.03129  1.0000
  Fe  Fe230     1.0  0.11153  0.69120  0.04919  1.0000
  S   S445      1.0  0.13533  0.68096  0.05966  1.0000
  S   S446      1.0  0.06970  0.70134  0.03387  1.0000
  S   S447      1.0  0.10032  0.67101  0.04660  1.0000
  C   C1408     1.0  0.22386  0.60243  0.12391  1.0000
  N   N98       1.0  0.22929  0.60191  0.10570  1.0000
  H   H1739     1.0  0.42166  0.58931  0.03511  1.0000
  C   C1409     1.0  0.41864  0.49425  0.13266  1.0000
  H   H1740     1.0  0.41797  0.74860  0.00530  1.0000
  C   C1410     1.0  0.06621  0.64375  0.12924  1.0000
  C   C1411     1.0  0.07282  0.65815  0.12037  1.0000
  C   C1412     1.0  0.07013  0.66625  0.10405  1.0000
  C   C1413     1.0  0.06038  0.66027  0.09673  1.0000
  C   C1414     1.0  0.05350  0.64606  0.10573  1.0000
  C   C1415     1.0  0.05667  0.63762  0.12183  1.0000
  H   H1741     1.0  0.08011  0.66302  0.12609  1.0000
  H   H1742     1.0  0.07530  0.67732  0.09725  1.0000
  H   H1743     1.0  0.04588  0.64144  0.10014  1.0000
  H   H1744     1.0  0.05144  0.62658  0.12860  1.0000
  C   C1416     1.0  0.17741  0.52751  0.06157  1.0000
  C   C1417     1.0  0.16236  0.53997  0.06101  1.0000
  C   C1418     1.0  0.14716  0.53554  0.06134  1.0000
  C   C1419     1.0  0.14703  0.51865  0.06230  1.0000
  H   H1745     1.0  0.27973  0.64231  0.98988  1.0000
  C   C1420     1.0  0.17723  0.51066  0.06260  1.0000
  H   H1746     1.0  0.16247  0.55298  0.06022  1.0000
  H   H1747     1.0  0.13549  0.54516  0.06091  1.0000
  H   H1748     1.0  0.46956  0.86333  0.99409  1.0000
  C   C1421     1.0  0.24019  0.51177  0.04533  1.0000
  C   C1422     1.0  0.16908  0.63573  0.03775  1.0000
  C   C1423     1.0  0.16864  0.63667  0.05422  1.0000
  C   C1424     1.0  0.15864  0.65083  0.06066  1.0000
  C   C1425     1.0  0.14844  0.66379  0.05098  1.0000
  C   C1426     1.0  0.14857  0.66274  0.03465  1.0000
  C   C1427     1.0  0.15917  0.64892  0.02792  1.0000
  H   H1749     1.0  0.17610  0.62660  0.06196  1.0000
  H   H1750     1.0  0.15855  0.65165  0.07327  1.0000
  H   H1751     1.0  0.14078  0.67277  0.02707  1.0000
  H   H1752     1.0  0.15965  0.64853  0.01509  1.0000
  C   C1428     1.0  0.15455  0.58055  0.12142  1.0000
  C   C1429     1.0  0.15293  0.56670  0.11623  1.0000
  C   C1430     1.0  0.13923  0.55863  0.12464  1.0000
  C   C1431     1.0  0.12689  0.56465  0.13796  1.0000
  H   H1753     1.0  0.16238  0.56202  0.10592  1.0000
  H   H1754     1.0  0.13821  0.54776  0.12076  1.0000
  C   C1432     1.0  0.26051  0.95434  0.03435  1.0000
  C   C1433     1.0  0.01260  0.59312  0.14092  1.0000
  C   C1434     1.0  0.24055  0.61974  0.99683  1.0000
  H   H1755     1.0  0.02312  0.59903  0.13944  1.0000
  C   C1435     1.0  0.46943  0.59798  0.17079  1.0000
  H   H1756     1.0  0.28577  0.94158  0.02363  1.0000
  C   C1436     1.0  0.48674  0.67965  0.13570  1.0000
  C   C1437     1.0  0.24869  0.93798  0.01619  1.0000
  C   C1438     1.0  0.21555  0.50620  0.00933  1.0000
  C   C1439     1.0  0.27987  0.61011  0.04963  1.0000
  C   C1440     1.0  0.26259  0.61408  0.04876  1.0000
  C   C1441     1.0  0.25332  0.60126  0.05331  1.0000
  C   C1442     1.0  0.26142  0.58440  0.05850  1.0000
  C   C1443     1.0  0.27864  0.58044  0.05952  1.0000
  C   C1444     1.0  0.28785  0.59328  0.05515  1.0000
  H   H1757     1.0  0.25640  0.62709  0.04438  1.0000
  H   H1758     1.0  0.24003  0.60442  0.05246  1.0000
  H   H1759     1.0  0.28484  0.56741  0.06378  1.0000
  H   H1760     1.0  0.30111  0.59016  0.05608  1.0000
  C   C1445     1.0  0.37112  0.58403  0.11815  1.0000
  C   C1446     1.0  0.35794  0.59460  0.11034  1.0000
  C   C1447     1.0  0.35496  0.59123  0.09607  1.0000
  C   C1448     1.0  0.36500  0.57713  0.08966  1.0000
  C   C1449     1.0  0.37801  0.56644  0.09761  1.0000
  C   C1450     1.0  0.38119  0.56995  0.11172  1.0000
  H   H1761     1.0  0.35006  0.60547  0.11531  1.0000
  H   H1762     1.0  0.34472  0.59941  0.09023  1.0000
  H   H1763     1.0  0.38578  0.55555  0.09269  1.0000
  H   H1764     1.0  0.39125  0.56159  0.11777  1.0000
  C   C1451     1.0  0.41589  0.65707  0.02287  1.0000
  C   C1452     1.0  0.40997  0.64517  0.01835  1.0000
  C   C1453     1.0  0.39269  0.64410  0.02387  1.0000
  C   C1454     1.0  0.38121  0.65514  0.03365  1.0000
  C   C1455     1.0  0.38710  0.66716  0.03797  1.0000
  C   C1456     1.0  0.40440  0.66803  0.03269  1.0000
  H   H1765     1.0  0.41877  0.63672  0.01065  1.0000
  H   H1766     1.0  0.38827  0.63483  0.02045  1.0000
  H   H1767     1.0  0.37824  0.67580  0.04545  1.0000
  H   H1768     1.0  0.40874  0.67741  0.03603  1.0000
  C   C1457     1.0  0.43459  0.64693  0.10323  1.0000
  C   C1458     1.0  0.42393  0.63741  0.11580  1.0000
  C   C1459     1.0  0.43025  0.62024  0.12235  1.0000
  C   C1460     1.0  0.44734  0.61265  0.11660  1.0000
  C   C1461     1.0  0.45808  0.62235  0.10440  1.0000
  C   C1462     1.0  0.45173  0.63943  0.09771  1.0000
  H   H1769     1.0  0.41066  0.64320  0.12014  1.0000
  H   H1770     1.0  0.42182  0.61294  0.13172  1.0000
  H   H1771     1.0  0.47121  0.61653  0.09981  1.0000
  H   H1772     1.0  0.46008  0.64681  0.08822  1.0000
  H   H1773     1.0  0.37767  0.64189  0.07073  1.0000
  C   C1463     1.0  0.42152  0.51053  0.13017  1.0000
  C   C1464     1.0  0.41598  0.52335  0.11705  1.0000
  C   C1465     1.0  0.40795  0.51982  0.10619  1.0000
  H   H1774     1.0  0.25517  0.58963  0.10858  1.0000
  H   H1775     1.0  0.41835  0.53587  0.11493  1.0000
  H   H1776     1.0  0.40428  0.52957  0.09565  1.0000
  H   H1777     1.0  0.01647  0.87952  0.07420  1.0000
  H   H1778     1.0  0.37253  0.51258  0.12959  1.0000
  S   S448      1.0  0.39513  0.49971  0.09461  1.0000
  H   H1779     1.0  0.28847  0.50229  0.03649  1.0000
  H   H1780     1.0  0.49526  0.90723  0.18321  1.0000
  C   C1466     1.0  0.02477  0.74031  0.05473  1.0000
  C   C1467     1.0  0.21739  0.64160  0.07206  1.0000
  H   H1781     1.0  0.34123  0.96151  0.16867  1.0000
  H   H1782     1.0  0.39473  0.79316  0.00908  1.0000
  H   H1783     1.0  0.22879  0.54992  0.99907  1.0000
  C   C1468     1.0  0.13611  0.94922  0.09602  1.0000
  H   H1784     1.0  0.35347  0.49933  0.07806  1.0000
  H   H1785     1.0  0.34739  0.57724  0.00648  1.0000
  C   C1469     1.0  0.22604  0.58624  0.10347  1.0000
  C   C1470     1.0  0.23705  0.94883  0.02610  1.0000
  C   C1471     1.0  0.43901  0.76800  0.05540  1.0000
  C   C1472     1.0  0.44821  0.77163  0.03873  1.0000
  C   C1473     1.0  0.45515  0.75876  0.02961  1.0000
  C   C1474     1.0  0.45268  0.74228  0.03704  1.0000
  C   C1475     1.0  0.44398  0.73850  0.05388  1.0000
  C   C1476     1.0  0.43727  0.75135  0.06311  1.0000
  H   H1786     1.0  0.44979  0.78440  0.03277  1.0000
  H   H1787     1.0  0.46195  0.76170  0.01660  1.0000
  H   H1788     1.0  0.44204  0.72578  0.05968  1.0000
  H   H1789     1.0  0.43022  0.74848  0.07604  1.0000
  C   C1477     1.0  0.36708  0.87410  0.02846  1.0000
  C   C1478     1.0  0.35026  0.88255  0.03397  1.0000
  C   C1479     1.0  0.34476  0.89979  0.02710  1.0000
  C   C1480     1.0  0.35602  0.90862  0.01457  1.0000
  C   C1481     1.0  0.37279  0.90013  0.00886  1.0000
  C   C1482     1.0  0.37832  0.88288  0.01580  1.0000
  H   H1790     1.0  0.34147  0.87577  0.04365  1.0000
  H   H1791     1.0  0.33169  0.90612  0.03127  1.0000
  H   H1792     1.0  0.43148  0.78413  0.01190  1.0000
  H   H1793     1.0  0.39123  0.87639  0.01129  1.0000
  C   C1483     1.0  0.49310  0.85976  0.10739  1.0000
  H   H1794     1.0  0.12634  0.95549  0.10511  1.0000
  C   C1484     1.0  0.33462  0.57337  0.98918  1.0000
  H   H1795     1.0  0.47727  0.62562  0.14744  1.0000
  C   C1485     1.0  0.28288  0.51513  0.03097  1.0000
  C   C1486     1.0  0.43369  0.87013  0.09949  1.0000
  C   C1487     1.0  0.43896  0.88274  0.08580  1.0000
  C   C1488     1.0  0.44333  0.88010  0.06926  1.0000
  C   C1489     1.0  0.44200  0.86499  0.06621  1.0000
  C   C1490     1.0  0.43630  0.85249  0.07983  1.0000
  C   C1491     1.0  0.43237  0.85498  0.09644  1.0000
  H   H1796     1.0  0.43993  0.89448  0.08787  1.0000
  H   H1797     1.0  0.44764  0.88986  0.05877  1.0000
  H   H1798     1.0  0.43522  0.84077  0.07766  1.0000
  H   H1799     1.0  0.42829  0.84514  0.10695  1.0000
  C   C1492     1.0  0.37806  0.94874  0.09489  1.0000
  C   C1493     1.0  0.36791  0.95981  0.08387  1.0000
  C   C1494     1.0  0.35469  0.95467  0.08048  1.0000
  C   C1495     1.0  0.35145  0.93855  0.08833  1.0000
  C   C1496     1.0  0.36155  0.92754  0.09935  1.0000
  C   C1497     1.0  0.37493  0.93255  0.10246  1.0000
  C   C1498     1.0  0.26629  0.93558  0.01513  1.0000
  H   H1800     1.0  0.35915  0.91501  0.10533  1.0000
  H   H1801     1.0  0.38289  0.92374  0.11056  1.0000
  C   C1499     1.0  0.48742  0.94110  0.16046  1.0000
  C   C1500     1.0  0.11569  0.53056  0.10055  1.0000
  C   C1501     1.0  0.46564  0.93803  0.14791  1.0000
  C   C1502     1.0  0.47816  0.93410  0.13380  1.0000
  H   H1802     1.0  0.25355  0.49192  0.07136  1.0000
  H   H1803     1.0  0.99889  0.61456  0.12534  1.0000
  H   H1804     1.0  0.45242  0.93816  0.14870  1.0000
  H   H1805     1.0  0.36248  0.64128  0.98624  1.0000
  C   C1503     1.0  0.40590  0.92569  0.06896  1.0000
  C   C1504     1.0  0.09210  0.79023  0.03375  1.0000
  C   C1505     1.0  0.10212  0.77371  0.03450  1.0000
  C   C1506     1.0  0.09508  0.76030  0.03442  1.0000
  C   C1507     1.0  0.07802  0.76337  0.03323  1.0000
  C   C1508     1.0  0.06799  0.77991  0.03238  1.0000
  C   C1509     1.0  0.07493  0.79327  0.03286  1.0000
  H   H1806     1.0  0.11542  0.77127  0.03515  1.0000
  H   H1807     1.0  0.10295  0.74764  0.03499  1.0000
  H   H1808     1.0  0.05482  0.78242  0.03131  1.0000
  H   H1809     1.0  0.06712  0.80596  0.03214  1.0000
  C   C1510     1.0  0.06240  0.91079  0.10034  1.0000
  C   C1511     1.0  0.07110  0.89674  0.11040  1.0000
  C   C1512     1.0  0.07460  0.88058  0.10685  1.0000
  C   C1513     1.0  0.06969  0.87841  0.09306  1.0000
  C   C1514     1.0  0.06079  0.89242  0.08313  1.0000
  C   C1515     1.0  0.05706  0.90852  0.08684  1.0000
  H   H1810     1.0  0.07499  0.89827  0.12102  1.0000
  H   H1811     1.0  0.08123  0.86976  0.11478  1.0000
  H   H1812     1.0  0.05635  0.89084  0.07290  1.0000
  H   H1813     1.0  0.04987  0.91924  0.07934  1.0000
  H   H1814     1.0  0.03668  0.83588  0.03969  1.0000
  C   C1516     1.0  0.14176  0.93162  0.09985  1.0000
  C   C1517     1.0  0.15469  0.92362  0.08820  1.0000
  C   C1518     1.0  0.16160  0.93316  0.07256  1.0000
  H   H1815     1.0  0.15914  0.91002  0.09118  1.0000
  H   H1816     1.0  0.17126  0.92684  0.06355  1.0000
  C   C1519     1.0  0.15470  0.89145  0.02001  1.0000
  C   C1520     1.0  0.14816  0.87671  0.02610  1.0000
  C   C1521     1.0  0.13258  0.87636  0.02290  1.0000
  C   C1522     1.0  0.12357  0.89070  0.01347  1.0000
  C   C1523     1.0  0.13028  0.90532  0.00712  1.0000
  C   C1524     1.0  0.14577  0.90575  0.01046  1.0000
  C   C1525     1.0  0.42554  0.75757  0.00550  1.0000
  H   H1817     1.0  0.12771  0.86491  0.02755  1.0000
  H   H1818     1.0  0.12926  0.50805  0.12556  1.0000
  H   H1819     1.0  0.15078  0.91710  0.00559  1.0000
  H   H1820     1.0  0.18882  0.50100  0.06329  1.0000
  C   C1526     1.0  0.01221  0.73103  0.05814  1.0000
  C   C1527     1.0  0.02300  0.84063  0.04134  1.0000
  C   C1528     1.0  0.01627  0.85802  0.03717  1.0000
  H   H1821     1.0  0.03855  0.86906  0.07368  1.0000
  N   N99       1.0  0.12729  0.89133  0.07882  1.0000
  C   C1529     1.0  0.12501  0.88705  0.09753  1.0000
  C   C1530     1.0  0.11608  0.88319  0.07408  1.0000
  C   C1531     1.0  0.14533  0.88382  0.07165  1.0000
  C   C1532     1.0  0.12256  0.90993  0.07277  1.0000
  C   C1533     1.0  0.10640  0.91924  0.07982  1.0000
  C   C1534     1.0  0.13349  0.91932  0.05972  1.0000
  C   C1535     1.0  0.10173  0.93682  0.07469  1.0000
  C   C1536     1.0  0.12877  0.93698  0.05489  1.0000
  C   C1537     1.0  0.11306  0.94572  0.06253  1.0000
  H   H1822     1.0  0.11138  0.89003  0.10419  1.0000
  H   H1823     1.0  0.12970  0.87330  0.10245  1.0000
  H   H1824     1.0  0.13204  0.89417  0.10171  1.0000
  H   H1825     1.0  0.10233  0.88781  0.07945  1.0000
  H   H1826     1.0  0.11885  0.86918  0.07883  1.0000
  H   H1827     1.0  0.11776  0.88567  0.06010  1.0000
  H   H1828     1.0  0.15443  0.88958  0.07463  1.0000
  H   H1829     1.0  0.14867  0.86992  0.07679  1.0000
  H   H1830     1.0  0.14778  0.88543  0.05769  1.0000
  H   H1831     1.0  0.09728  0.91304  0.08960  1.0000
  H   H1832     1.0  0.14596  0.91342  0.05337  1.0000
  H   H1833     1.0  0.08938  0.94357  0.08056  1.0000
  H   H1834     1.0  0.13763  0.94402  0.04561  1.0000
  H   H1835     1.0  0.10974  0.95944  0.05918  1.0000
  H   H1836     1.0  0.49800  0.58802  0.10736  1.0000
  H   H1837     1.0  0.38690  0.94868  0.03649  1.0000
  H   H1838     1.0  0.20404  0.54392  0.02227  1.0000
  Fe  Fe231     1.0  0.18381  0.94967  0.99178  1.0000
  N   N100      1.0  0.20905  0.93571  0.08120  1.0000
  C   C1538     1.0  0.19848  0.92305  0.09074  1.0000
  C   C1539     1.0  0.20959  0.94552  0.09323  1.0000
  C   C1540     1.0  0.20039  0.94767  0.06799  1.0000
  C   C1541     1.0  0.22620  0.92711  0.07310  1.0000
  H   H1839     1.0  0.31662  0.56456  0.03822  1.0000
  H   H1840     1.0  0.32952  0.56299  0.99806  1.0000
  H   H1841     1.0  0.03167  0.83336  0.08739  1.0000
  N   N101      1.0  0.02050  0.85766  0.09439  1.0000
  H   H1842     1.0  0.37266  0.94480  0.13244  1.0000
  C   C1542     1.0  0.10901  0.95393  0.98660  1.0000
  H   H1843     1.0  0.18569  0.92907  0.09753  1.0000
  H   H1844     1.0  0.03748  0.86771  0.10254  1.0000
  H   H1845     1.0  0.21599  0.93723  0.10353  1.0000
  H   H1846     1.0  0.19649  0.95148  0.09939  1.0000
  H   H1847     1.0  0.21637  0.95606  0.08668  1.0000
  H   H1848     1.0  0.06466  0.65206  0.18179  1.0000
  H   H1849     1.0  0.18760  0.95478  0.07354  1.0000
  H   H1850     1.0  0.20809  0.95713  0.06018  1.0000
  N   N102      1.0  0.25399  0.51463  0.05155  1.0000
  H   H1851     1.0  0.24195  0.93747  0.08329  1.0000
  H   H1852     1.0  0.37243  0.62476  0.08793  1.0000
  H   H1853     1.0  0.10505  0.50220  0.17621  1.0000
  H   H1854     1.0  0.38742  0.60037  0.08054  1.0000
  C   C1543     1.0  0.49323  0.82485  0.00957  1.0000
  N   N103      1.0  0.38599  0.89219  0.06312  1.0000
  C   C1544     1.0  0.38938  0.87961  0.07876  1.0000
  C   C1545     1.0  0.36742  0.89515  0.06361  1.0000
  C   C1546     1.0  0.39588  0.88457  0.04850  1.0000
  C   C1547     1.0  0.39093  0.90838  0.06122  1.0000
  C   C1548     1.0  0.40105  0.91037  0.07143  1.0000
  C   C1549     1.0  0.38631  0.92256  0.04830  1.0000
  H   H1855     1.0  0.10543  0.50464  0.09631  1.0000
  H   H1856     1.0  0.36501  0.54289  0.17486  1.0000
  H   H1857     1.0  0.46581  0.63133  0.17503  1.0000
  H   H1858     1.0  0.38273  0.88486  0.09023  1.0000
  H   H1859     1.0  0.38490  0.86785  0.08020  1.0000
  H   H1860     1.0  0.40331  0.87543  0.07863  1.0000
  H   H1861     1.0  0.36311  0.88307  0.06620  1.0000
  H   H1862     1.0  0.36397  0.90247  0.05142  1.0000
  H   H1863     1.0  0.35960  0.90224  0.07356  1.0000
  H   H1864     1.0  0.40991  0.88187  0.04787  1.0000
  H   H1865     1.0  0.39242  0.87245  0.04921  1.0000
  H   H1866     1.0  0.39352  0.89312  0.03632  1.0000
  H   H1867     1.0  0.03821  0.73405  0.05257  1.0000
  H   H1868     1.0  0.37902  0.92195  0.03972  1.0000
  C   C1550     1.0  0.25988  0.53999  0.02841  1.0000
  C   C1551     1.0  0.22947  0.51020  0.99595  1.0000
  H   H1869     1.0  0.41330  0.92707  0.07711  1.0000
  H   H1870     1.0  0.02996  0.76475  0.05152  1.0000
  C   C1552     1.0  0.28704  0.63177  0.99810  1.0000
  C   C1553     1.0  0.22513  0.53786  0.00186  1.0000
  H   H1871     1.0  0.23227  0.52384  0.03963  1.0000
  H   H1872     1.0  0.38151  0.90693  0.99912  1.0000
  H   H1873     1.0  0.10967  0.53447  0.08936  1.0000
  C   C1554     1.0  0.42856  0.78637  0.99925  1.0000
  H   H1874     1.0  0.15391  0.58079  0.04009  1.0000
  H   H1875     1.0  0.35075  0.96168  0.12067  1.0000
  H   H1876     1.0  0.33574  0.98493  0.10238  1.0000
  C   C1555     1.0  0.24609  0.52536  0.06426  1.0000
  H   H1877     1.0  0.16214  0.49323  0.06342  1.0000
  H   H1878     1.0  0.25601  0.52905  0.06827  1.0000
  H   H1879     1.0  0.45837  0.79425  0.06997  1.0000
  H   H1880     1.0  0.27323  0.49914  0.06542  1.0000
  C   C1556     1.0  0.37084  0.51897  0.13970  1.0000
  C   C1557     1.0  0.02168  0.86181  0.98937  1.0000
  H   H1881     1.0  0.08950  0.75083  0.98745  1.0000
  H   H1882     1.0  0.47090  0.90747  0.17439  1.0000
  H   H1883     1.0  0.07387  0.70709  0.99403  1.0000
  S   S449      1.0  0.20086  0.92387  0.99349  1.0000
  H   H1884     1.0  0.48971  0.74186  0.09999  1.0000
  H   H1885     1.0  0.40257  0.49318  0.17049  1.0000
  S   S450      1.0  0.36292  0.60583  0.98871  1.0000
  H   H1886     1.0  0.03466  0.78139  0.98812  1.0000
  N   N104      1.0  0.47877  0.76673  0.08662  1.0000
  C   C1558     1.0  0.46147  0.76531  0.09708  1.0000
  C   C1559     1.0  0.48125  0.76050  0.07107  1.0000
  C   C1560     1.0  0.49143  0.75520  0.09645  1.0000
  C   C1561     1.0  0.48040  0.78467  0.08191  1.0000
  H   H1887     1.0  0.13977  0.56801  0.00057  1.0000
  C   C1562     1.0  0.49368  0.79005  0.08533  1.0000
  H   H1888     1.0  0.19359  0.49869  0.99593  1.0000
  H   H1889     1.0  0.48689  0.78668  0.00780  1.0000
  H   H1890     1.0  0.10922  0.50455  0.13935  1.0000
  H   H1891     1.0  0.45116  0.77195  0.09003  1.0000
  H   H1892     1.0  0.46010  0.75188  0.10147  1.0000
  H   H1893     1.0  0.36804  0.52140  0.05744  1.0000
  H   H1894     1.0  0.47152  0.76783  0.06348  1.0000
  H   H1895     1.0  0.48018  0.74701  0.07407  1.0000
  H   H1896     1.0  0.35617  0.88432  0.98846  1.0000
  C   C1563     1.0  0.02005  0.75765  0.05417  1.0000
  C   C1564     1.0  0.44532  0.49783  0.18161  1.0000
  C   C1565     1.0  0.09150  0.79820  0.98790  1.0000
  H   H1897     1.0  0.24464  0.90113  0.04478  1.0000
  S   S451      1.0  0.08483  0.59049  0.17568  1.0000
  H   H1898     1.0  0.06226  0.98073  0.16303  1.0000
  S   S452      1.0  0.49286  0.94434  0.17790  1.0000
  C   C1566     1.0  0.41003  0.49088  0.12214  1.0000
  S   S453      1.0  0.39803  0.92491  0.17718  1.0000
  C   C1567     1.0  0.24169  0.92932  0.07548  1.0000
  H   H1899     1.0  0.31309  0.60527  0.00062  1.0000
  H   H1900     1.0  0.19202  0.65483  0.06871  1.0000
  C   C1568     1.0  0.01201  0.82928  0.04746  1.0000
  C   C1569     1.0  0.48146  0.59679  0.18047  1.0000
  C   C1570     1.0  0.24914  0.59489  0.01762  1.0000
  H   H1901     1.0  0.06174  0.55977  0.13359  1.0000
  H   H1902     1.0  0.43537  0.60340  0.17799  1.0000
  C   C1571     1.0  0.35468  0.96292  0.16619  1.0000
  N   N105      1.0  0.11896  0.62746  0.09545  1.0000
  C   C1572     1.0  0.11686  0.62715  0.11360  1.0000
  C   C1573     1.0  0.13651  0.61822  0.08905  1.0000
  C   C1574     1.0  0.11739  0.64542  0.08618  1.0000
  C   C1575     1.0  0.10623  0.61918  0.09350  1.0000
  C   C1576     1.0  0.09365  0.62772  0.08373  1.0000
  C   C1577     1.0  0.10600  0.60202  0.10177  1.0000
  C   C1578     1.0  0.08155  0.61960  0.08255  1.0000
  C   C1579     1.0  0.09384  0.59403  0.10051  1.0000
  C   C1580     1.0  0.08158  0.60283  0.09097  1.0000
  H   H1903     1.0  0.10359  0.63342  0.11898  1.0000
  H   H1904     1.0  0.11925  0.61409  0.12132  1.0000
  H   H1905     1.0  0.12584  0.63375  0.11559  1.0000
  H   H1906     1.0  0.13919  0.60481  0.09595  1.0000
  H   H1907     1.0  0.14646  0.62401  0.09043  1.0000
  H   H1908     1.0  0.13858  0.61821  0.07541  1.0000
  H   H1909     1.0  0.11957  0.64661  0.07230  1.0000
  H   H1910     1.0  0.10463  0.65331  0.09056  1.0000
  H   H1911     1.0  0.12697  0.65138  0.08805  1.0000
  H   H1912     1.0  0.09259  0.64082  0.07711  1.0000
  H   H1913     1.0  0.11513  0.59471  0.10947  1.0000
  H   H1914     1.0  0.07184  0.62658  0.07533  1.0000
  H   H1915     1.0  0.09378  0.58103  0.10718  1.0000
  H   H1916     1.0  0.07198  0.59672  0.09021  1.0000
  H   H1917     1.0  0.23180  0.59195  0.13166  1.0000
  H   H1918     1.0  0.22493  0.61463  0.12594  1.0000
  H   H1919     1.0  0.25146  0.61226  0.10204  1.0000
  H   H1920     1.0  0.23811  0.51874  0.07575  1.0000
  H   H1921     1.0  0.01625  0.88020  0.10394  1.0000
  H   H1922     1.0  0.33680  0.55679  0.05680  1.0000
  C   C1581     1.0  0.23646  0.60608  0.00969  1.0000
  C   C1582     1.0  0.47002  0.58306  0.16558  1.0000
  H   H1923     1.0  0.18484  0.49588  0.02702  1.0000
  C   C1583     1.0  0.22778  0.91653  0.06194  1.0000
  C   C1584     1.0  0.02531  0.86694  0.07668  1.0000
  H   H1924     1.0  0.09959  0.97855  0.15963  1.0000
  C   C1585     1.0  0.00584  0.85708  0.99524  1.0000
  H   H1925     1.0  0.39750  0.58345  0.05910  1.0000
  C   C1586     1.0  0.37601  0.50990  0.15472  1.0000
  C   C1587     1.0  0.14388  0.60677  0.00320  1.0000
  H   H1926     1.0  0.46810  0.61347  0.13915  1.0000
  C   C1588     1.0  0.15012  0.58455  0.02803  1.0000
  H   H1927     1.0  0.11826  0.61985  0.17038  1.0000
  H   H1928     1.0  0.39160  0.77225  0.01114  1.0000
  H   H1929     1.0  0.23121  0.50507  0.05575  1.0000
  H   H1930     1.0  0.46732  0.88978  0.16939  1.0000
  H   H1931     1.0  0.19554  0.51720  0.02891  1.0000
  H   H1932     1.0  0.48397  0.62332  0.02421  1.0000
  C   C1589     1.0  0.27066  0.54828  0.01467  1.0000
  H   H1933     1.0  0.44119  0.60485  0.15545  1.0000
  H   H1934     1.0  0.35692  0.55817  0.14839  1.0000
  C   C1590     1.0  0.36509  0.94604  0.14532  1.0000
  H   H1935     1.0  0.15511  0.86554  0.03336  1.0000
  H   H1936     1.0  0.04882  0.51852  0.12268  1.0000
  H   H1937     1.0  0.27491  0.58848  0.01994  1.0000
  C   C1591     1.0  0.25868  0.91105  0.05637  1.0000
  H   H1938     1.0  0.39437  0.60598  0.10298  1.0000
  H   H1939     1.0  0.11426  0.52512  0.13374  1.0000
  C   C1592     1.0  0.36396  0.53630  0.13747  1.0000
  H   H1940     1.0  0.04556  0.84130  0.09458  1.0000
  H   H1941     1.0  0.43866  0.49510  0.09181  1.0000
  N   N106      1.0  0.08077  0.93108  0.03486  1.0000
  C   C1593     1.0  0.09256  0.91740  0.04408  1.0000
  C   C1594     1.0  0.07267  0.94425  0.04503  1.0000
  C   C1595     1.0  0.06695  0.92364  0.03371  1.0000
  C   C1596     1.0  0.09050  0.93858  0.01817  1.0000
  C   C1597     1.0  0.08761  0.93764  0.00258  1.0000
  C   C1598     1.0  0.10348  0.94709  0.01717  1.0000
  H   H1942     1.0  0.05220  0.70439  0.99733  1.0000
  C   C1599     1.0  0.11254  0.95465  0.00160  1.0000
  C   C1600     1.0  0.13161  0.63632  0.00459  1.0000
  H   H1943     1.0  0.08581  0.91185  0.05695  1.0000
  H   H1944     1.0  0.09836  0.90695  0.03719  1.0000
  H   H1945     1.0  0.10325  0.92193  0.04563  1.0000
  H   H1946     1.0  0.08218  0.94937  0.04802  1.0000
  H   H1947     1.0  0.06478  0.93918  0.05748  1.0000
  H   H1948     1.0  0.06416  0.95509  0.03824  1.0000
  H   H1949     1.0  0.05742  0.93330  0.02710  1.0000
  H   H1950     1.0  0.07222  0.91302  0.02694  1.0000
  H   H1951     1.0  0.05981  0.91822  0.04644  1.0000
  H   H1952     1.0  0.07853  0.93089  0.00196  1.0000
  H   H1953     1.0  0.10678  0.94787  0.02843  1.0000
  N   N107      1.0  0.49063  0.87838  0.10453  1.0000
  C   C1601     1.0  0.26261  0.49794  0.06045  1.0000
  H   H1954     1.0  0.44094  0.78413  0.98998  1.0000
  H   H1955     1.0  0.02091  0.86037  0.11905  1.0000
  C   C1602     1.0  0.49529  0.93384  0.13296  1.0000
  H   H1956     1.0  0.30004  0.63440  0.99569  1.0000
  H   H1957     1.0  0.46324  0.88431  0.11392  1.0000
  C   C1603     1.0  0.16033  0.62817  0.98869  1.0000
  C   C1604     1.0  0.14678  0.57257  0.02145  1.0000
  H   H1958     1.0  0.22339  0.60429  0.01360  1.0000
  C   C1605     1.0  0.04003  0.76897  0.98519  1.0000
  C   C1606     1.0  0.11533  0.51377  0.12883  1.0000
  H   H1959     1.0  0.49414  0.89641  0.11660  1.0000
  C   C1607     1.0  0.11116  0.62117  0.18301  1.0000
  C   C1608     1.0  0.40074  0.93947  0.05649  1.0000
  H   H1960     1.0  0.01725  0.81581  0.05072  1.0000
  H   H1961     1.0  0.35857  0.50501  0.09477  1.0000
  C   C1609     1.0  0.14220  0.57736  0.00582  1.0000
  C   C1610     1.0  0.10956  0.96014  0.17992  1.0000
  H   H1962     1.0  0.42261  0.80005  0.99593  1.0000
  S   S454      1.0  0.06555  0.56026  0.17979  1.0000
  H   H1963     1.0  0.22347  0.95068  0.02705  1.0000
  H   H1964     1.0  0.00133  0.85411  0.00877  1.0000
  H   H1965     1.0  0.26598  0.56115  0.00833  1.0000
  C   C1611     1.0  0.40541  0.61707  0.06931  1.0000
  C   C1612     1.0  0.04427  0.75498  0.99790  1.0000
  N   N108      1.0  0.49169  0.88552  0.17643  1.0000
  H   H1966     1.0  0.48058  0.63515  0.99633  1.0000
  H   H1967     1.0  0.29582  0.54646  0.99837  1.0000
  C   C1613     1.0  0.16210  0.50624  0.06285  1.0000
  C   C1614     1.0  0.35347  0.97690  0.13693  1.0000
  C   C1615     1.0  0.23424  0.52574  0.99239  1.0000
  S   S455      1.0  0.40198  0.54962  0.16254  1.0000
  C   C1616     1.0  0.38019  0.63464  0.08336  1.0000
  C   C1617     1.0  0.40128  0.61650  0.09901  1.0000
  C   C1618     1.0  0.42520  0.60995  0.04341  1.0000
  H   H1968     1.0  0.38745  0.96654  0.13187  1.0000
  H   H1969     1.0  0.41508  0.61066  0.09872  1.0000
  H   H1970     1.0  0.45870  0.77076  0.10844  1.0000
  C   C1619     1.0  0.33942  0.98743  0.11273  1.0000
  C   C1620     1.0  0.40371  0.59361  0.05810  1.0000
  C   C1621     1.0  0.48673  0.66411  0.14730  1.0000
  C   C1622     1.0  0.36195  0.54459  0.15034  1.0000
  H   H1971     1.0  0.43567  0.61262  0.03283  1.0000
  H   H1972     1.0  0.28080  0.63252  0.01148  1.0000
  C   C1623     1.0  0.05128  0.73893  0.99420  1.0000
  H   H1973     1.0  0.49444  0.86723  0.00058  1.0000
  N   N109      1.0  0.34626  0.52607  0.07771  1.0000
  C   C1624     1.0  0.36320  0.52901  0.06737  1.0000
  C   C1625     1.0  0.34031  0.53671  0.09050  1.0000
  C   C1626     1.0  0.34883  0.50808  0.08694  1.0000
  C   C1627     1.0  0.33379  0.53064  0.06670  1.0000
  C   C1628     1.0  0.32463  0.51904  0.06569  1.0000
  C   C1629     1.0  0.33045  0.54723  0.05654  1.0000
  C   C1630     1.0  0.31313  0.52374  0.05496  1.0000
  C   C1631     1.0  0.31890  0.55182  0.04589  1.0000
  C   C1632     1.0  0.31022  0.54011  0.04513  1.0000
  H   H1974     1.0  0.42674  0.75523  0.01885  1.0000
  H   H1975     1.0  0.13062  0.64980  0.99773  1.0000
  H   H1976     1.0  0.27107  0.90532  0.04963  1.0000
  H   H1977     1.0  0.33874  0.55044  0.08465  1.0000
  H   H1978     1.0  0.34965  0.53389  0.09873  1.0000
  H   H1979     1.0  0.32774  0.53467  0.09871  1.0000
  H   H1980     1.0  0.36288  0.54251  0.06102  1.0000
  H   H1981     1.0  0.48936  0.85407  0.02104  1.0000
  C   C1633     1.0  0.38064  0.96621  0.14531  1.0000
  H   H1982     1.0  0.32611  0.50622  0.07306  1.0000
  H   H1983     1.0  0.03996  0.54571  0.13210  1.0000
  H   H1984     1.0  0.30651  0.51455  0.05427  1.0000
  H   H1985     1.0  0.19576  0.91636  0.08239  1.0000
  H   H1986     1.0  0.30119  0.54375  0.03696  1.0000
  C   C1634     1.0  0.40731  0.64173  0.07901  1.0000
  H   H1987     1.0  0.01599  0.71749  0.05864  1.0000
  H   H1988     1.0  0.21041  0.60102  0.12931  1.0000
  H   H1989     1.0  0.09223  0.54724  0.12588  1.0000
  H   H1990     1.0  0.42121  0.63723  0.07901  1.0000
  H   H1991     1.0  0.40188  0.64940  0.08890  1.0000
  H   H1992     1.0  0.40575  0.65057  0.06674  1.0000
  S   S456      1.0  0.34908  0.93005  0.00549  1.0000
  Fe  Fe232     1.0  0.43483  0.82751  0.01233  1.0000
  H   H1993     1.0  0.47192  0.90171  0.10029  1.0000
  H   H1994     1.0  0.48289  0.81627  0.99292  1.0000
  C   C1635     1.0  0.34815  0.97407  0.12343  1.0000
  H   H1995     1.0  0.48443  0.65084  0.10191  1.0000
  H   H1996     1.0  0.48397  0.83240  0.06849  1.0000
  C   C1636     1.0  0.14877  0.60137  0.01907  1.0000
  H   H1997     1.0  0.21664  0.91455  0.05917  1.0000
  C   C1637     1.0  0.29350  0.52348  0.01714  1.0000
  S   S457      1.0  0.44808  0.82199  0.98672  1.0000
  H   H1998     1.0  0.08797  0.81848  0.00040  1.0000
  C   C1638     1.0  0.03193  0.84058  0.09656  1.0000
  C   C1639     1.0  0.00274  0.76581  0.05716  1.0000
  C   C1640     1.0  0.06543  0.51804  0.16777  1.0000
  C   C1641     1.0  0.24378  0.90868  0.05370  1.0000
  N   N110      1.0  0.21089  0.48956  0.01289  1.0000
  C   C1642     1.0  0.46993  0.81436  0.06861  1.0000
  H   H1999     1.0  0.06977  0.95434  0.18315  1.0000
  H   H2000     1.0  0.47668  0.65025  0.00939  1.0000
  H   H2001     1.0  0.15186  0.61008  0.02457  1.0000
  C   C1643     1.0  0.26589  0.59744  0.01294  1.0000
  H   H2002     1.0  0.35451  0.97452  0.17015  1.0000
  H   H2003     1.0  0.08604  0.52946  0.16673  1.0000
  H   H2004     1.0  0.49414  0.76139  0.06291  1.0000
  H   H2005     1.0  0.11512  0.54214  0.10480  1.0000
  C   C1644     1.0  0.99898  0.56915  0.15250  1.0000
  H   H2006     1.0  0.12244  0.96101  0.00114  1.0000
  S   S458      1.0  0.02913  0.56537  0.16134  1.0000
  N   N111      1.0  0.49057  0.84283  0.00042  1.0000
  C   C1645     1.0  0.48850  0.81268  0.00390  1.0000
  C   C1646     1.0  0.40088  0.77947  0.01148  1.0000
  C   C1647     1.0  0.47748  0.89646  0.16837  1.0000
  C   C1648     1.0  0.48097  0.56771  0.17081  1.0000
  C   C1649     1.0  0.08172  0.51773  0.16947  1.0000
  H   H2007     1.0  0.22363  0.64986  0.06121  1.0000
  H   H2008     1.0  0.04228  0.75656  0.01073  1.0000
  S   S459      1.0  0.12786  0.51313  0.06334  1.0000
  C   C1650     1.0  0.39098  0.93791  0.04615  1.0000
  C   C1651     1.0  0.36679  0.53559  0.16555  1.0000
  H   H2009     1.0  0.19818  0.94116  0.05919  1.0000
  N   N112      1.0  0.36323  0.96319  0.14818  1.0000
  H   H2010     1.0  0.47831  0.86248  0.16907  1.0000
  C   C1652     1.0  0.48302  0.81921  0.07220  1.0000
  H   H2011     1.0  0.45627  0.63389  0.14288  1.0000
  H   H2012     1.0  0.47487  0.65980  0.15271  1.0000
  C   C1653     1.0  0.49071  0.79567  0.01236  1.0000
  C   C1654     1.0  0.34460  0.58151  0.99400  1.0000
  N   N113      1.0  0.45755  0.61412  0.16539  1.0000
  H   H2013     1.0  0.48233  0.90156  0.15470  1.0000
  C   C1655     1.0  0.25764  0.92132  0.06725  1.0000
  N   N114      1.0  0.10732  0.51800  0.11406  1.0000
  C   C1656     1.0  0.08620  0.81506  0.98955  1.0000
  H   H2014     1.0  0.41560  0.67765  0.98720  1.0000
  H   H2015     1.0  0.16600  0.62626  0.99978  1.0000
  C   C1657     1.0  0.08879  0.52526  0.11909  1.0000
  C   C1658     1.0  0.07586  0.51738  0.11858  1.0000
  C   C1659     1.0  0.08318  0.54068  0.12481  1.0000
  C   C1660     1.0  0.05847  0.52470  0.12326  1.0000
  C   C1661     1.0  0.06578  0.54796  0.12930  1.0000
  C   C1662     1.0  0.05345  0.54001  0.12850  1.0000
  C   C1663     1.0  0.27043  0.61143  0.00005  1.0000
  H   H2016     1.0  0.43377  0.91367  0.17958  1.0000
  H   H2017     1.0  0.43101  0.62328  0.16325  1.0000
  H   H2018     1.0  0.23397  0.96536  0.04280  1.0000
  H   H2019     1.0  0.00005  0.77926  0.05662  1.0000
  H   H2020     1.0  0.43313  0.52338  0.18444  1.0000
  Fe  Fe233     1.0  0.17856  0.94834  0.02909  1.0000
  H   H2021     1.0  0.37297  0.52555  0.07524  1.0000
  C   C1664     1.0  0.01264  0.57671  0.15068  1.0000
  C   C1665     1.0  0.24809  0.60082  0.10070  1.0000
  H   H2022     1.0  0.34691  0.96324  0.07194  1.0000
  H   H2023     1.0  0.12506  0.49761  0.10322  1.0000
  C   C1666     1.0  0.27220  0.94373  0.02423  1.0000
  Fe  Fe234     1.0  0.41728  0.56011  0.17377  1.0000
  H   H2024     1.0  0.43883  0.75404  0.99812  1.0000
  S   S460      1.0  0.09909  0.67442  0.00166  1.0000
  N   N115      1.0  0.28785  0.61494  0.99512  1.0000
  H   H2025     1.0  0.12953  0.52525  0.09601  1.0000
  S   S461      1.0  0.09084  0.95105  0.11174  1.0000
  Fe  Fe235     1.0  0.07940  0.96428  0.13329  1.0000
  S   S462      1.0  0.34443  0.95655  0.03776  1.0000
  C   C1667     1.0  0.40488  0.50365  0.10874  1.0000
  C   C1668     1.0  0.47963  0.85160  0.10911  1.0000
  H   H2026     1.0  0.24093  0.62660  0.07755  1.0000
  H   H2027     1.0  0.49021  0.75902  0.10845  1.0000
  C   C1669     1.0  0.21119  0.53449  0.01487  1.0000
  C   C1670     1.0  0.49182  0.56681  0.18115  1.0000
  S   S463      1.0  0.19710  0.95880  0.00624  1.0000
  N   N116      1.0  0.41728  0.77546  0.99923  1.0000
  H   H2028     1.0  0.40278  0.77626  0.02470  1.0000
  H   H2029     1.0  0.05698  0.53011  0.16400  1.0000
  C   C1671     1.0  0.47026  0.94164  0.16116  1.0000
  H   H2030     1.0  0.49325  0.84045  0.15308  1.0000
  C   C1672     1.0  0.49564  0.64977  0.09109  1.0000
  H   H2031     1.0  0.25330  0.59927  0.08743  1.0000
  C   C1673     1.0  0.28745  0.54004  0.00904  1.0000
  C   C1674     1.0  0.08735  0.76419  0.98857  1.0000
  H   H2032     1.0  0.13623  0.63533  0.01606  1.0000
  H   H2033     1.0  0.33685  0.50500  0.09574  1.0000
  C   C1675     1.0  0.24297  0.95707  0.03507  1.0000
  H   H2034     1.0  0.26930  0.92360  0.06882  1.0000
  C   C1676     1.0  0.46510  0.62215  0.14795  1.0000
  H   H2035     1.0  0.47490  0.68721  0.13225  1.0000
  C   C1677     1.0  0.11105  0.50233  0.10755  1.0000
  H   H2036     1.0  0.24592  0.58439  0.02780  1.0000
  C   C1678     1.0  0.41730  0.59688  0.04463  1.0000
  Fe  Fe236     1.0  0.29601  0.95844  0.04359  1.0000
  C   C1679     1.0  0.00248  0.85601  0.09807  1.0000
  H   H2037     1.0  0.40412  0.95145  0.05503  1.0000
  H   H2038     1.0  0.37495  0.64338  0.09226  1.0000
  S   S464      1.0  0.26740  0.96390  0.04669  1.0000
  C   C1680     1.0  0.15592  0.95076  0.06869  1.0000
  C   C1681     1.0  0.14330  0.95880  0.08052  1.0000
  H   H2039     1.0  0.07333  0.76899  0.99243  1.0000
  C   C1682     1.0  0.41939  0.61997  0.05551  1.0000
  H   H2040     1.0  0.11837  0.63400  0.00877  1.0000
  H   H2041     1.0  0.46217  0.58305  0.15731  1.0000
  H   H2042     1.0  0.40524  0.90037  0.08154  1.0000
  C   C1683     1.0  0.37477  0.64371  0.98687  1.0000
  H   H2043     1.0  0.24549  0.50387  0.03566  1.0000
  H   H2044     1.0  0.46459  0.84912  0.01401  1.0000
  N   N117      1.0  0.39876  0.62740  0.08236  1.0000
  C   C1684     1.0  0.19958  0.64445  0.07628  1.0000
  H   H2045     1.0  0.22986  0.58548  0.08992  1.0000
  H   H2046     1.0  0.39649  0.62376  0.10923  1.0000
  H   H2047     1.0  0.02825  0.83289  0.10950  1.0000
  S   S465      1.0  0.16464  0.96298  0.04930  1.0000
  S   S466      1.0  0.31212  0.96847  0.01874  1.0000
  S   S467      1.0  0.30565  0.97044  0.05887  1.0000
  C   C1685     1.0  0.21938  0.61684  0.09571  1.0000
  H   H2048     1.0  0.45126  0.50243  0.16864  1.0000
  C   C1686     1.0  0.09677  0.94525  0.98708  1.0000
  C   C1687     1.0  0.22722  0.62806  0.08161  1.0000
  H   H2049     1.0  0.23340  0.57462  0.11057  1.0000
  C   C1688     1.0  0.44062  0.61120  0.16561  1.0000
  C   C1689     1.0  0.10161  0.97623  0.17235  1.0000
  H   H2050     1.0  0.17767  0.63588  0.09331  1.0000
  Fe  Fe237     1.0  0.04813  0.57870  0.16382  1.0000
  Fe  Fe238     1.0  0.08655  0.57131  0.16088  1.0000
  S   S468      1.0  0.10981  0.55442  0.14837  1.0000
  H   H2051     1.0  0.40568  0.51197  0.17395  1.0000
  C   C1690     1.0  0.14229  0.58646  0.13482  1.0000
  H   H2052     1.0  0.21228  0.58558  0.10783  1.0000
  H   H2053     1.0  0.19430  0.61207  0.11001  1.0000
  H   H2054     1.0  0.37207  0.93597  0.15429  1.0000
  C   C1691     1.0  0.20642  0.51892  0.01862  1.0000
  H   H2055     1.0  0.46077  0.82384  0.06208  1.0000
  C   C1692     1.0  0.39791  0.60346  0.07030  1.0000
  N   N118      1.0  0.37999  0.50804  0.18381  1.0000
  C   C1693     1.0  0.12835  0.57870  0.14291  1.0000
  C   C1694     1.0  0.20121  0.62022  0.09971  1.0000
  H   H2056     1.0  0.05443  0.72872  0.00465  1.0000
  C   C1695     1.0  0.25725  0.62241  0.99203  1.0000
  H   H2057     1.0  0.14351  0.59714  0.13889  1.0000
  C   C1696     1.0  0.49648  0.85384  0.00777  1.0000
  C   C1697     1.0  0.39875  0.50147  0.17970  1.0000
  C   C1698     1.0  0.06433  0.70557  0.98781  1.0000
  H   H2058     1.0  0.11897  0.58335  0.15323  1.0000
  H   H2059     1.0  0.47195  0.82805  0.11315  1.0000
  C   C1699     1.0  0.19152  0.63382  0.09013  1.0000
  H   H2060     1.0  0.14787  0.55952  0.02838  1.0000
  H   H2061     1.0  0.04727  0.50414  0.16905  1.0000
  C   C1700     1.0  0.47208  0.84980  0.00078  1.0000
  C   C1701     1.0  0.46864  0.79737  0.07327  1.0000
  H   H2062     1.0  0.29605  0.60214  0.01844  1.0000
  C   C1702     1.0  0.45433  0.62626  0.17646  1.0000
  C   C1703     1.0  0.14085  0.59415  0.99675  1.0000
  H   H2063     1.0  0.48385  0.88001  0.13069  1.0000
  H   H2064     1.0  0.15623  0.85938  0.98995  1.0000
  C   C1704     1.0  0.09245  0.50234  0.17474  1.0000
  H   H2065     1.0  0.41346  0.84166  0.98921  1.0000
  H   H2066     1.0  0.23065  0.62842  0.99066  1.0000
  H   H2067     1.0  0.46675  0.85853  0.10837  1.0000
  C   C1705     1.0  0.48246  0.83395  0.11190  1.0000
  H   H2068     1.0  0.10627  0.49178  0.11737  1.0000
  H   H2069     1.0  0.48040  0.65699  0.98698  1.0000
  H   H2070     1.0  0.38850  0.95605  0.15340  1.0000
  H   H2071     1.0  0.24692  0.54682  0.03219  1.0000
  H   H2072     1.0  0.49634  0.66283  0.08367  1.0000
  H   H2073     1.0  0.36146  0.95216  0.17482  1.0000
  H   H2074     1.0  0.35245  0.94297  0.14703  1.0000
  H   H2075     1.0  0.47002  0.88540  0.09139  1.0000
  C   C1706     1.0  0.49494  0.80707  0.08043  1.0000
  C   C1707     1.0  0.30011  0.60231  0.00469  1.0000
  C   C1708     1.0  0.49386  0.88276  0.11913  1.0000
  H   H2076     1.0  0.48269  0.60762  0.18424  1.0000
  S   S469      1.0  0.04301  0.59910  0.17821  1.0000
  C   C1709     1.0  0.26571  0.52319  0.03713  1.0000
  H   H2077     1.0  0.44423  0.63767  0.17325  1.0000
  H   H2078     1.0  0.23724  0.53719  0.05948  1.0000
  H   H2079     1.0  0.49279  0.64331  0.08260  1.0000
  H   H2080     1.0  0.48128  0.55655  0.16651  1.0000
  C   C1710     1.0  0.47316  0.88777  0.10245  1.0000
  H   H2081     1.0  0.30654  0.51697  0.01268  1.0000
  H   H2082     1.0  0.11395  0.94999  0.17311  1.0000
  C   C1711     1.0  0.37415  0.51792  0.16814  1.0000
  H   H2083     1.0  0.38047  0.97835  0.14826  1.0000
  H   H2084     1.0  0.36039  0.54338  0.12564  1.0000
  H   H2085     1.0  0.46054  0.94455  0.17211  1.0000
  H   H2086     1.0  0.13890  0.97242  0.07763  1.0000
  Fe  Fe239     1.0  0.32287  0.97919  0.03421  1.0000
  H   H2087     1.0  0.46669  0.84288  0.99466  1.0000
  H   H2088     1.0  0.37138  0.65365  0.99434  1.0000
  H   H2089     1.0  0.00644  0.84194  0.07850  1.0000
  C   C1712     1.0  0.02378  0.86691  0.10551  1.0000
  H   H2090     1.0  0.09301  0.76347  0.99934  1.0000
  H   H2091     1.0  0.99901  0.55642  0.15996  1.0000
  H   H2092     1.0  0.02855  0.86256  0.99832  1.0000
  C   C1713     1.0  0.49197  0.86110  0.16434  1.0000
  H   H2093     1.0  0.02498  0.85994  0.06737  1.0000
  H   H2094     1.0  0.49480  0.60064  0.04599  1.0000
  H   H2095     1.0  0.08729  0.62941  0.17556  1.0000
  C   C1714     1.0  0.05996  0.50292  0.17085  1.0000
  H   H2096     1.0  0.38175  0.49657  0.15561  1.0000
  H   H2097     1.0  0.49471  0.73049  0.01566  1.0000
  H   H2098     1.0  0.12827  0.87468  0.98513  1.0000
  C   C1715     1.0  0.49763  0.62017  0.02331  1.0000
  C   C1716     1.0  0.49776  0.79024  0.02665  1.0000
  C   C1717     1.0  0.99889  0.60189  0.13295  1.0000
  C   C1718     1.0  0.99856  0.86405  0.03902  1.0000
  C   C1719     1.0  0.09571  0.98920  0.18131  1.0000
  C   C1720     1.0  0.49536  0.51067  0.20257  1.0000
  S   S470      1.0  0.41260  0.55329  0.20230  1.0000
  C   C1721     1.0  0.38743  0.58827  0.37143  1.0000
  S   S471      1.0  0.15862  0.94024  0.36430  1.0000
  Fe  Fe240     1.0  0.14085  0.92483  0.36344  1.0000
  S   S472      1.0  0.13399  0.92218  0.34037  1.0000
  H   H2099     1.0  0.48054  0.68523  0.30041  1.0000
  H   H2100     1.0  0.43117  0.49396  0.26992  1.0000
  C   C1722     1.0  0.48468  0.64099  0.27117  1.0000
  Fe  Fe241     1.0  0.05646  0.94919  0.26793  1.0000
  S   S473      1.0  0.04256  0.96991  0.28188  1.0000
  S   S474      1.0  0.06752  0.95924  0.24040  1.0000
  Fe  Fe242     1.0  0.04864  0.92179  0.29959  1.0000
  S   S475      1.0  0.03409  0.94057  0.31570  1.0000
  S   S476      1.0  0.05330  0.89363  0.31056  1.0000
  Fe  Fe243     1.0  0.05552  0.95418  0.30288  1.0000
  S   S477      1.0  0.06559  0.96618  0.31820  1.0000
  S   S478      1.0  0.03559  0.93456  0.27782  1.0000
  S   S479      1.0  0.07105  0.93443  0.28814  1.0000
  C   C1723     1.0  0.21535  0.97054  0.37647  1.0000
  H   H2101     1.0  0.02014  0.57200  0.20033  1.0000
  H   H2102     1.0  0.10412  0.51476  0.31466  1.0000
  H   H2103     1.0  0.06521  0.53989  0.22712  1.0000
  H   H2104     1.0  0.01118  0.92622  0.25846  1.0000
  C   C1724     1.0  0.47595  0.58467  0.34437  1.0000
  C   C1725     1.0  0.42030  0.98845  0.28829  1.0000
  H   H2105     1.0  0.49033  0.53954  0.33767  1.0000
  S   S480      1.0  0.33138  0.56939  0.34795  1.0000
  Fe  Fe244     1.0  0.42459  0.59798  0.29706  1.0000
  S   S481      1.0  0.43192  0.57528  0.31706  1.0000
  S   S482      1.0  0.41006  0.62232  0.30491  1.0000
  Fe  Fe245     1.0  0.44150  0.57941  0.26823  1.0000
  S   S483      1.0  0.44991  0.55515  0.28605  1.0000
  S   S484      1.0  0.45175  0.58096  0.24018  1.0000
  Fe  Fe246     1.0  0.42374  0.56147  0.30239  1.0000
  S   S485      1.0  0.40913  0.54124  0.31694  1.0000
  Fe  Fe247     1.0  0.45714  0.57142  0.29882  1.0000
  H   H2106     1.0  0.36721  0.85821  0.30449  1.0000
  S   S486      1.0  0.41452  0.58447  0.28342  1.0000
  S   S487      1.0  0.45059  0.59533  0.28000  1.0000
  H   H2107     1.0  0.48122  0.88254  0.36182  1.0000
  S   S488      1.0  0.43646  0.79648  0.37580  1.0000
  H   H2108     1.0  0.47763  0.88790  0.20162  1.0000
  C   C1726     1.0  0.00739  0.57860  0.20549  1.0000
  C   C1727     1.0  0.09884  0.54523  0.25254  1.0000
  H   H2109     1.0  0.32196  0.87784  0.34936  1.0000
  C   C1728     1.0  0.47185  0.49624  0.21371  1.0000
  H   H2110     1.0  0.10850  0.55152  0.24361  1.0000
  Fe  Fe248     1.0  0.41155  0.81360  0.37122  1.0000
  S   S489      1.0  0.40651  0.82528  0.34519  1.0000
  H   H2111     1.0  0.45867  0.62998  0.27139  1.0000
  H   H2112     1.0  0.41691  0.86684  0.26697  1.0000
  C   C1729     1.0  0.44727  0.66571  0.31894  1.0000
  H   H2113     1.0  0.00151  0.61594  0.36861  1.0000
  H   H2114     1.0  0.49622  0.92472  0.23497  1.0000
  Fe  Fe249     1.0  0.41709  0.95156  0.27982  1.0000
  S   S490      1.0  0.40062  0.94924  0.26380  1.0000
  Fe  Fe250     1.0  0.42052  0.91427  0.29833  1.0000
  S   S491      1.0  0.40479  0.90933  0.28321  1.0000
  S   S492      1.0  0.43172  0.89441  0.31887  1.0000
  Fe  Fe251     1.0  0.41954  0.92487  0.26079  1.0000
  S   S493      1.0  0.43479  0.91691  0.23648  1.0000
  Fe  Fe252     1.0  0.38765  0.93409  0.28804  1.0000
  S   S494      1.0  0.35924  0.93529  0.29743  1.0000
  S   S495      1.0  0.43668  0.92796  0.27567  1.0000
  S   S496      1.0  0.40278  0.93829  0.30428  1.0000
  H   H2115     1.0  0.12982  0.60843  0.36637  1.0000
  H   H2116     1.0  0.05520  0.50131  0.25624  1.0000
  H   H2117     1.0  0.35720  0.49791  0.19355  1.0000
  C   C1730     1.0  0.39585  0.49622  0.28136  1.0000
  H   H2118     1.0  0.46808  0.52333  0.18873  1.0000
  H   H2119     1.0  0.36039  0.61365  0.37404  1.0000
  H   H2120     1.0  0.49447  0.53167  0.35865  1.0000
  S   S497      1.0  0.05272  0.57588  0.22153  1.0000
  C   C1731     1.0  0.42712  0.50538  0.20748  1.0000
  Fe  Fe253     1.0  0.09759  0.57050  0.33097  1.0000
  S   S498      1.0  0.07284  0.56547  0.34788  1.0000
  S   S499      1.0  0.12215  0.56479  0.34010  1.0000
  Fe  Fe254     1.0  0.08241  0.58210  0.29902  1.0000
  S   S500      1.0  0.05626  0.57824  0.31380  1.0000
  S   S501      1.0  0.09079  0.59001  0.27051  1.0000
  Fe  Fe255     1.0  0.06097  0.59027  0.33267  1.0000
  S   S502      1.0  0.04048  0.60844  0.34715  1.0000
  Fe  Fe256     1.0  0.07070  0.55410  0.32753  1.0000
  S   S503      1.0  0.06776  0.52718  0.33352  1.0000
  S   S504      1.0  0.08610  0.59598  0.31672  1.0000
  S   S505      1.0  0.09649  0.55718  0.31173  1.0000
  H   H2121     1.0  0.36114  0.50390  0.26427  1.0000
  H   H2122     1.0  0.45421  0.68690  0.32300  1.0000
  H   H2123     1.0  0.02303  0.90948  0.33229  1.0000
  C   C1732     1.0  0.05525  0.52117  0.32336  1.0000
  C   C1733     1.0  0.04244  0.53291  0.31589  1.0000
  C   C1734     1.0  0.03250  0.52739  0.30822  1.0000
  C   C1735     1.0  0.03562  0.51023  0.30775  1.0000
  C   C1736     1.0  0.37185  0.50633  0.26758  1.0000
  C   C1737     1.0  0.05822  0.50405  0.32296  1.0000
  H   H2124     1.0  0.04007  0.54615  0.31621  1.0000
  H   H2125     1.0  0.02251  0.53645  0.30255  1.0000
  C   C1738     1.0  0.47044  0.96041  0.27235  1.0000
  H   H2126     1.0  0.08237  0.53580  0.29471  1.0000
  C   C1739     1.0  0.05905  0.64819  0.36166  1.0000
  C   C1740     1.0  0.03673  0.63338  0.36432  1.0000
  C   C1741     1.0  0.04756  0.62397  0.35249  1.0000
  C   C1742     1.0  0.06403  0.62685  0.34528  1.0000
  C   C1743     1.0  0.06970  0.63893  0.34975  1.0000
  H   H2127     1.0  0.07244  0.61988  0.33613  1.0000
  H   H2128     1.0  0.08244  0.64112  0.34392  1.0000
  H   H2129     1.0  0.13360  0.61328  0.19360  1.0000
  C   C1744     1.0  0.12227  0.56070  0.36175  1.0000
  C   C1745     1.0  0.13787  0.55794  0.36651  1.0000
  H   H2130     1.0  0.09516  0.56220  0.37077  1.0000
  H   H2131     1.0  0.14949  0.55864  0.35688  1.0000
  C   C1746     1.0  0.38178  0.49337  0.27737  1.0000
  H   H2132     1.0  0.34053  0.51075  0.36753  1.0000
  C   C1747     1.0  0.04251  0.64539  0.36901  1.0000
  C   C1748     1.0  0.06351  0.57989  0.23492  1.0000
  C   C1749     1.0  0.05578  0.57873  0.25213  1.0000
  C   C1750     1.0  0.06407  0.58164  0.26322  1.0000
  C   C1751     1.0  0.08009  0.58589  0.25713  1.0000
  C   C1752     1.0  0.08782  0.58703  0.23992  1.0000
  C   C1753     1.0  0.07959  0.58402  0.22882  1.0000
  H   H2133     1.0  0.04329  0.57566  0.25695  1.0000
  H   H2134     1.0  0.05802  0.58070  0.27646  1.0000
  H   H2135     1.0  0.10040  0.58989  0.23526  1.0000
  H   H2136     1.0  0.08579  0.58473  0.21564  1.0000
  H   H2137     1.0  0.03419  0.65251  0.37820  1.0000
  N   N119      1.0  0.48041  0.64828  0.36191  1.0000
  N   N120      1.0  0.48098  0.94988  0.22870  1.0000
  C   C1754     1.0  0.10964  0.88879  0.34508  1.0000
  C   C1755     1.0  0.09834  0.85595  0.31401  1.0000
  C   C1756     1.0  0.13861  0.55404  0.38366  1.0000
  H   H2138     1.0  0.05273  0.94066  0.34813  1.0000
  H   H2139     1.0  0.48291  0.65327  0.33497  1.0000
  H   H2140     1.0  0.48108  0.70275  0.36623  1.0000
  C   C1757     1.0  0.08257  0.60076  0.37884  1.0000
  C   C1758     1.0  0.33721  0.94022  0.35253  1.0000
  C   C1759     1.0  0.35173  0.94656  0.34323  1.0000
  C   C1760     1.0  0.35863  0.94490  0.32643  1.0000
  C   C1761     1.0  0.35100  0.93704  0.31869  1.0000
  C   C1762     1.0  0.33642  0.93073  0.32796  1.0000
  C   C1763     1.0  0.32962  0.93219  0.34488  1.0000
  H   H2141     1.0  0.35757  0.95294  0.34898  1.0000
  H   H2142     1.0  0.36942  0.95040  0.31931  1.0000
  H   H2143     1.0  0.33030  0.92479  0.32203  1.0000
  H   H2144     1.0  0.31831  0.92744  0.35183  1.0000
  H   H2145     1.0  0.36323  0.90772  0.34478  1.0000
  C   C1764     1.0  0.33952  0.49818  0.36643  1.0000
  H   H2146     1.0  0.45143  0.90623  0.33372  1.0000
  N   N121      1.0  0.10535  0.61287  0.38376  1.0000
  C   C1765     1.0  0.01714  0.93070  0.24498  1.0000
  H   H2147     1.0  0.10496  0.53183  0.36201  1.0000
  H   H2148     1.0  0.41961  0.49285  0.30045  1.0000
  H   H2149     1.0  0.11630  0.97794  0.33853  1.0000
  C   C1766     1.0  0.40001  0.51243  0.27623  1.0000
  C   C1767     1.0  0.41463  0.84382  0.33693  1.0000
  C   C1768     1.0  0.42689  0.84677  0.34368  1.0000
  C   C1769     1.0  0.43205  0.86231  0.33802  1.0000
  C   C1770     1.0  0.42516  0.87492  0.32542  1.0000
  C   C1771     1.0  0.41310  0.87183  0.31848  1.0000
  C   C1772     1.0  0.40793  0.85628  0.32417  1.0000
  H   H2150     1.0  0.43254  0.83703  0.35318  1.0000
  H   H2151     1.0  0.44137  0.86450  0.34351  1.0000
  H   H2152     1.0  0.40771  0.88137  0.30882  1.0000
  H   H2153     1.0  0.39852  0.85387  0.31900  1.0000
  H   H2154     1.0  0.42642  0.51035  0.30202  1.0000
  H   H2155     1.0  0.43334  0.69396  0.36426  1.0000
  H   H2156     1.0  0.06026  0.64236  0.22853  1.0000
  H   H2157     1.0  0.07956  0.51926  0.22938  1.0000
  H   H2158     1.0  0.36082  0.90558  0.26202  1.0000
  H   H2159     1.0  0.39340  0.86584  0.29175  1.0000
  H   H2160     1.0  0.11693  0.94415  0.20256  1.0000
  H   H2161     1.0  0.43580  0.66632  0.32895  1.0000
  H   H2162     1.0  0.11821  0.63375  0.37651  1.0000
  C   C1773     1.0  0.35298  0.56142  0.33949  1.0000
  C   C1774     1.0  0.36157  0.54542  0.34676  1.0000
  C   C1775     1.0  0.37877  0.53922  0.33967  1.0000
  C   C1776     1.0  0.38757  0.54917  0.32556  1.0000
  C   C1777     1.0  0.37900  0.56520  0.31834  1.0000
  C   C1778     1.0  0.36167  0.57120  0.32515  1.0000
  H   H2163     1.0  0.35490  0.53764  0.35761  1.0000
  H   H2164     1.0  0.38533  0.52678  0.34525  1.0000
  H   H2165     1.0  0.38560  0.57290  0.30737  1.0000
  H   H2166     1.0  0.35504  0.58354  0.31941  1.0000
  C   C1779     1.0  0.10548  0.96973  0.20563  1.0000
  C   C1780     1.0  0.10508  0.63127  0.37982  1.0000
  H   H2167     1.0  0.45364  0.89718  0.35497  1.0000
  C   C1781     1.0  0.48182  0.67757  0.36406  1.0000
  H   H2168     1.0  0.00107  0.97272  0.24362  1.0000
  Fe  Fe257     1.0  0.06190  0.58114  0.19301  1.0000
  C   C1782     1.0  0.09682  0.54408  0.26977  1.0000
  C   C1783     1.0  0.43508  0.51010  0.19062  1.0000
  H   H2169     1.0  0.48744  0.62155  0.30200  1.0000
  H   H2170     1.0  0.00997  0.90051  0.36261  1.0000
  C   C1784     1.0  0.42654  0.63074  0.34893  1.0000
  C   C1785     1.0  0.43646  0.61814  0.34024  1.0000
  C   C1786     1.0  0.43130  0.61528  0.32692  1.0000
  C   C1787     1.0  0.41632  0.62532  0.32198  1.0000
  C   C1788     1.0  0.40644  0.63808  0.33053  1.0000
  C   C1789     1.0  0.41148  0.64070  0.34408  1.0000
  H   H2171     1.0  0.44819  0.61062  0.34381  1.0000
  H   H2172     1.0  0.43918  0.60561  0.32022  1.0000
  H   H2173     1.0  0.39489  0.64596  0.32668  1.0000
  H   H2174     1.0  0.40384  0.65063  0.35049  1.0000
  C   C1790     1.0  0.47287  0.57827  0.33199  1.0000
  H   H2175     1.0  0.46656  0.58541  0.35608  1.0000
  H   H2176     1.0  0.46114  0.57400  0.33420  1.0000
  H   H2177     1.0  0.48829  0.90181  0.35223  1.0000
  H   H2178     1.0  0.39201  0.53801  0.26134  1.0000
  C   C1791     1.0  0.37637  0.51799  0.19699  1.0000
  H   H2179     1.0  0.49407  0.93143  0.21330  1.0000
  C   C1792     1.0  0.40863  0.92360  0.19313  1.0000
  C   C1793     1.0  0.45488  0.67267  0.36270  1.0000
  S   S506      1.0  0.06708  0.66320  0.36661  1.0000
  S   S507      1.0  0.48357  0.56521  0.30351  1.0000
  H   H2180     1.0  0.38367  0.89415  0.33898  1.0000
  H   H2181     1.0  0.07124  0.52429  0.36602  1.0000
  C   C1794     1.0  0.12956  0.50684  0.31955  1.0000
  C   C1795     1.0  0.48564  0.96429  0.27247  1.0000
  C   C1796     1.0  0.08530  0.90121  0.33241  1.0000
  H   H2182     1.0  0.44520  0.63371  0.29086  1.0000
  C   C1797     1.0  0.11519  0.93502  0.33431  1.0000
  C   C1798     1.0  0.10451  0.94730  0.34310  1.0000
  C   C1799     1.0  0.08942  0.95709  0.33792  1.0000
  C   C1800     1.0  0.08485  0.95439  0.32416  1.0000
  C   C1801     1.0  0.09564  0.94223  0.31537  1.0000
  C   C1802     1.0  0.11076  0.93261  0.32039  1.0000
  H   H2183     1.0  0.10792  0.94931  0.35378  1.0000
  H   H2184     1.0  0.08113  0.96656  0.34473  1.0000
  H   H2185     1.0  0.09259  0.94044  0.30445  1.0000
  H   H2186     1.0  0.11911  0.92332  0.31339  1.0000
  C   C1803     1.0  0.02873  0.89758  0.33959  1.0000
  C   C1804     1.0  0.04329  0.88718  0.33187  1.0000
  C   C1805     1.0  0.05012  0.87144  0.34133  1.0000
  C   C1806     1.0  0.04288  0.86643  0.35859  1.0000
  H   H2187     1.0  0.06119  0.86317  0.33539  1.0000
  C   C1807     1.0  0.42307  0.56197  0.21234  1.0000
  C   C1808     1.0  0.43750  0.56860  0.20353  1.0000
  C   C1809     1.0  0.44609  0.57466  0.21214  1.0000
  C   C1810     1.0  0.44019  0.57427  0.22949  1.0000
  C   C1811     1.0  0.42560  0.56791  0.23821  1.0000
  C   C1812     1.0  0.41716  0.56162  0.22968  1.0000
  H   H2188     1.0  0.46994  0.86933  0.34730  1.0000
  H   H2189     1.0  0.45740  0.57951  0.20543  1.0000
  H   H2190     1.0  0.42081  0.56794  0.25150  1.0000
  H   H2191     1.0  0.40585  0.55673  0.23643  1.0000
  C   C1813     1.0  0.39906  0.92855  0.20818  1.0000
  C   C1814     1.0  0.40706  0.92702  0.22140  1.0000
  C   C1815     1.0  0.42462  0.92028  0.21969  1.0000
  H   H2192     1.0  0.38541  0.93346  0.20968  1.0000
  H   H2193     1.0  0.39960  0.93074  0.23302  1.0000
  H   H2194     1.0  0.30035  0.51191  0.35645  1.0000
  H   H2195     1.0  0.10760  0.82892  0.31891  1.0000
  H   H2196     1.0  0.49473  0.86943  0.20058  1.0000
  C   C1816     1.0  0.06607  0.93131  0.20126  1.0000
  C   C1817     1.0  0.06397  0.92323  0.21843  1.0000
  C   C1818     1.0  0.06446  0.93167  0.23054  1.0000
  C   C1819     1.0  0.06677  0.94833  0.22556  1.0000
  C   C1820     1.0  0.06851  0.95650  0.20845  1.0000
  C   C1821     1.0  0.06831  0.94798  0.19631  1.0000
  H   H2197     1.0  0.06227  0.91030  0.22230  1.0000
  H   H2198     1.0  0.06325  0.92521  0.24369  1.0000
  H   H2199     1.0  0.06997  0.96947  0.20450  1.0000
  N   N122      1.0  0.32665  0.49956  0.35663  1.0000
  C   C1822     1.0  0.45155  0.65334  0.30939  1.0000
  C   C1823     1.0  0.47593  0.62203  0.29740  1.0000
  C   C1824     1.0  0.37136  0.49355  0.19132  1.0000
  C   C1825     1.0  0.33270  0.50766  0.33876  1.0000
  C   C1826     1.0  0.33589  0.49945  0.32516  1.0000
  C   C1827     1.0  0.33588  0.52424  0.33458  1.0000
  C   C1828     1.0  0.36611  0.61203  0.36082  1.0000
  C   C1829     1.0  0.34195  0.53207  0.31788  1.0000
  H   H2200     1.0  0.04838  0.85437  0.36582  1.0000
  C   C1830     1.0  0.47239  0.63703  0.37716  1.0000
  H   H2201     1.0  0.49139  0.49599  0.26485  1.0000
  H   H2202     1.0  0.47503  0.87042  0.19504  1.0000
  H   H2203     1.0  0.03194  0.95348  0.22086  1.0000
  H   H2204     1.0  0.40399  0.51089  0.30696  1.0000
  H   H2205     1.0  0.41069  0.96952  0.30908  1.0000
  H   H2206     1.0  0.33468  0.89787  0.30427  1.0000
  C   C1831     1.0  0.48521  0.50310  0.24028  1.0000
  H   H2207     1.0  0.44215  0.56881  0.19018  1.0000
  H   H2208     1.0  0.35392  0.58458  0.37894  1.0000
  H   H2209     1.0  0.33372  0.53133  0.34420  1.0000
  H   H2210     1.0  0.02016  0.50116  0.24759  1.0000
  H   H2211     1.0  0.34432  0.54474  0.31509  1.0000
  C   C1832     1.0  0.40410  0.73909  0.37969  1.0000
  H   H2212     1.0  0.08884  0.50135  0.35132  1.0000
  H   H2213     1.0  0.43110  0.51387  0.25550  1.0000
  C   C1833     1.0  0.47572  0.51512  0.22885  1.0000
  H   H2214     1.0  0.47290  0.49351  0.20122  1.0000
  H   H2215     1.0  0.46439  0.94058  0.21915  1.0000
  H   H2216     1.0  0.06374  0.52433  0.28508  1.0000
  H   H2217     1.0  0.99876  0.87914  0.32611  1.0000
  H   H2218     1.0  0.45019  0.62022  0.19001  1.0000
  H   H2219     1.0  0.45843  0.49676  0.22096  1.0000
  H   H2220     1.0  0.15420  0.49618  0.32481  1.0000
  S   S508      1.0  0.06546  0.92046  0.18632  1.0000
  H   H2221     1.0  0.11895  0.89063  0.33273  1.0000
  H   H2222     1.0  0.45616  0.54360  0.25439  1.0000
  H   H2223     1.0  0.44263  0.50794  0.27232  1.0000
  H   H2224     1.0  0.10759  0.85293  0.35749  1.0000
  H   H2225     1.0  0.46572  0.61916  0.30878  1.0000
  C   C1834     1.0  0.35640  0.86838  0.30051  1.0000
  C   C1835     1.0  0.37467  0.88568  0.27965  1.0000
  C   C1836     1.0  0.21593  0.52286  0.38397  1.0000
  H   H2226     1.0  0.02984  0.92449  0.35713  1.0000
  H   H2227     1.0  0.38072  0.51003  0.20863  1.0000
  H   H2228     1.0  0.46347  0.93317  0.24130  1.0000
  H   H2229     1.0  0.39321  0.60105  0.33748  1.0000
  C   C1837     1.0  0.47687  0.66386  0.29332  1.0000
  C   C1838     1.0  0.47770  0.64460  0.34667  1.0000
  H   H2230     1.0  0.08232  0.91246  0.33809  1.0000
  H   H2231     1.0  0.49703  0.63988  0.27456  1.0000
  H   H2232     1.0  0.46586  0.90255  0.30669  1.0000
  C   C1839     1.0  0.46485  0.94438  0.23070  1.0000
  C   C1840     1.0  0.38964  0.52539  0.26618  1.0000
  C   C1841     1.0  0.40211  0.88615  0.25082  1.0000
  C   C1842     1.0  0.48159  0.96491  0.21454  1.0000
  H   H2233     1.0  0.37499  0.62084  0.35498  1.0000
  C   C1843     1.0  0.46662  0.52598  0.20138  1.0000
  C   C1844     1.0  0.11064  0.61925  0.21223  1.0000
  C   C1845     1.0  0.09385  0.49562  0.36303  1.0000
  C   C1846     1.0  0.41626  0.50690  0.29813  1.0000
  H   H2234     1.0  0.48766  0.86934  0.32937  1.0000
  N   N123      1.0  0.00837  0.94801  0.23770  1.0000
  N   N124      1.0  0.47725  0.51220  0.21189  1.0000
  C   C1847     1.0  0.11674  0.60594  0.36912  1.0000
  H   H2235     1.0  0.48853  0.66383  0.28371  1.0000
  H   H2236     1.0  0.34714  0.91122  0.28844  1.0000
  H   H2237     1.0  0.00074  0.49980  0.27518  1.0000
  C   C1848     1.0  0.38618  0.89676  0.24966  1.0000
  S   S509      1.0  0.42532  0.97646  0.27283  1.0000
  H   H2238     1.0  0.41269  0.88666  0.23991  1.0000
  H   H2239     1.0  0.36816  0.53230  0.25414  1.0000
  H   H2240     1.0  0.09366  0.90443  0.31971  1.0000
  H   H2241     1.0  0.34144  0.97873  0.31603  1.0000
  H   H2242     1.0  0.09112  0.59545  0.36849  1.0000
  C   C1849     1.0  0.38492  0.87500  0.37004  1.0000
  H   H2243     1.0  0.06254  0.76905  0.38221  1.0000
  H   H2244     1.0  0.08942  0.88232  0.31203  1.0000
  C   C1850     1.0  0.36067  0.87557  0.35798  1.0000
  C   C1851     1.0  0.34377  0.88227  0.35526  1.0000
  C   C1852     1.0  0.36884  0.85940  0.35425  1.0000
  C   C1853     1.0  0.33528  0.87292  0.35013  1.0000
  C   C1854     1.0  0.36041  0.85032  0.34873  1.0000
  C   C1855     1.0  0.34354  0.85691  0.34701  1.0000
  H   H2245     1.0  0.11911  0.51360  0.35485  1.0000
  H   H2246     1.0  0.37455  0.59694  0.33427  1.0000
  C   C1856     1.0  0.41252  0.59215  0.37884  1.0000
  H   H2247     1.0  0.39919  0.74435  0.36826  1.0000
  H   H2248     1.0  0.00204  0.93091  0.30169  1.0000
  H   H2249     1.0  0.12976  0.97868  0.35123  1.0000
  H   H2250     1.0  0.35571  0.89061  0.31986  1.0000
  C   C1857     1.0  0.14296  0.49313  0.32334  1.0000
  H   H2251     1.0  0.39528  0.87051  0.35966  1.0000
  H   H2252     1.0  0.11842  0.59196  0.37158  1.0000
  H   H2253     1.0  0.38157  0.85320  0.35603  1.0000
  S   S510      1.0  0.15371  0.90141  0.37935  1.0000
  H   H2254     1.0  0.36686  0.83774  0.34655  1.0000
  H   H2255     1.0  0.33671  0.84942  0.34370  1.0000
  H   H2256     1.0  0.02164  0.96076  0.24755  1.0000
  H   H2257     1.0  0.11619  0.87815  0.35385  1.0000
  H   H2258     1.0  0.21058  0.52599  0.37245  1.0000
  C   C1858     1.0  0.37582  0.52228  0.26192  1.0000
  C   C1859     1.0  0.42630  0.91737  0.19120  1.0000
  C   C1860     1.0  0.06302  0.92909  0.37056  1.0000
  C   C1861     1.0  0.48498  0.91495  0.28961  1.0000
  H   H2259     1.0  0.08984  0.54105  0.23319  1.0000
  C   C1862     1.0  0.46419  0.53219  0.25052  1.0000
  H   H2260     1.0  0.07711  0.89459  0.36491  1.0000
  H   H2261     1.0  0.11167  0.61177  0.35740  1.0000
  H   H2262     1.0  0.30502  0.50413  0.37722  1.0000
  S   S511      1.0  0.32886  0.94285  0.37350  1.0000
  N   N125      1.0  0.06467  0.63366  0.20549  1.0000
  C   C1863     1.0  0.06008  0.65121  0.19568  1.0000
  C   C1864     1.0  0.05740  0.62246  0.19975  1.0000
  C   C1865     1.0  0.05628  0.63338  0.22356  1.0000
  C   C1866     1.0  0.08355  0.62810  0.20254  1.0000
  H   H2263     1.0  0.45648  0.95338  0.25884  1.0000
  H   H2264     1.0  0.38063  0.90732  0.35362  1.0000
  H   H2265     1.0  0.37173  0.90029  0.30444  1.0000
  C   C1867     1.0  0.44695  0.68937  0.36409  1.0000
  H   H2266     1.0  0.33923  0.89588  0.28282  1.0000
  C   C1868     1.0  0.05160  0.93159  0.36017  1.0000
  H   H2267     1.0  0.04596  0.65608  0.19788  1.0000
  C   C1869     1.0  0.45540  0.63848  0.28042  1.0000
  H   H2268     1.0  0.06168  0.60897  0.20578  1.0000
  C   C1870     1.0  0.48730  0.88990  0.34955  1.0000
  H   H2269     1.0  0.04316  0.62550  0.20284  1.0000
  C   C1871     1.0  0.47375  0.69427  0.36536  1.0000
  H   H2270     1.0  0.04209  0.63716  0.22547  1.0000
  H   H2271     1.0  0.05928  0.62040  0.23157  1.0000
  H   H2272     1.0  0.46118  0.91625  0.34370  1.0000
  C   C1872     1.0  0.40446  0.87504  0.26607  1.0000
  H   H2273     1.0  0.38437  0.90524  0.23771  1.0000
  H   H2274     1.0  0.10675  0.96611  0.21863  1.0000
  C   C1873     1.0  0.45764  0.67724  0.31564  1.0000
  S   S512      1.0  0.39566  0.70979  0.37966  1.0000
  H   H2275     1.0  0.47951  0.96254  0.20296  1.0000
  H   H2276     1.0  0.10045  0.52464  0.34627  1.0000
  H   H2277     1.0  0.13080  0.51971  0.31821  1.0000
  C   C1874     1.0  0.48526  0.90276  0.31966  1.0000
  S   S513      1.0  0.43372  0.63396  0.36536  1.0000
  C   C1875     1.0  0.21265  0.96041  0.36715  1.0000
  H   H2278     1.0  0.31145  0.52280  0.36411  1.0000
  C   C1876     1.0  0.35759  0.89291  0.37807  1.0000
  C   C1877     1.0  0.10835  0.83955  0.33915  1.0000
  H   H2279     1.0  0.44308  0.64475  0.31247  1.0000
  H   H2280     1.0  0.48112  0.57038  0.25945  1.0000
  H   H2281     1.0  0.38327  0.52858  0.19262  1.0000
  N   N126      1.0  0.41522  0.51509  0.28026  1.0000
  H   H2282     1.0  0.13416  0.98795  0.32896  1.0000
  C   C1878     1.0  0.45635  0.70012  0.36548  1.0000
  H   H2283     1.0  0.47267  0.52187  0.27396  1.0000
  H   H2284     1.0  0.46399  0.64566  0.34713  1.0000
  C   C1879     1.0  0.07787  0.51854  0.37672  1.0000
  C   C1880     1.0  0.10729  0.55988  0.37428  1.0000
  H   H2285     1.0  0.46614  0.87855  0.32666  1.0000
  H   H2286     1.0  0.07812  0.52914  0.38212  1.0000
  N   N127      1.0  0.36072  0.88533  0.29500  1.0000
  C   C1881     1.0  0.47254  0.66620  0.36275  1.0000
  H   H2287     1.0  0.35302  0.86501  0.29010  1.0000
  C   C1882     1.0  0.40059  0.59713  0.36855  1.0000
  C   C1883     1.0  0.08413  0.53647  0.28131  1.0000
  H   H2288     1.0  0.45970  0.96138  0.28306  1.0000
  C   C1884     1.0  0.46015  0.90373  0.34245  1.0000
  H   H2289     1.0  0.44788  0.91060  0.20309  1.0000
  C   C1885     1.0  0.47245  0.67626  0.30291  1.0000
  H   H2290     1.0  0.41697  0.53978  0.26430  1.0000
  C   C1886     1.0  0.11454  0.50412  0.31746  1.0000
  H   H2291     1.0  0.11736  0.61630  0.22241  1.0000
  C   C1887     1.0  0.11138  0.95688  0.19652  1.0000
  H   H2292     1.0  0.07284  0.93639  0.36605  1.0000
  H   H2293     1.0  0.36241  0.52324  0.20081  1.0000
  C   C1888     1.0  0.46511  0.52979  0.23448  1.0000
  H   H2294     1.0  0.22345  0.95333  0.35951  1.0000
  H   H2295     1.0  0.01304  0.96649  0.21434  1.0000
  H   H2296     1.0  0.06117  0.62361  0.18585  1.0000
  C   C1889     1.0  0.09779  0.87033  0.33600  1.0000
  N   N128      1.0  0.09529  0.50861  0.37121  1.0000
  C   C1890     1.0  0.10487  0.85428  0.34528  1.0000
  H   H2297     1.0  0.40371  0.49384  0.19111  1.0000
  H   H2298     1.0  0.41103  0.76217  0.37943  1.0000
  H   H2299     1.0  0.22842  0.97119  0.37534  1.0000
  H   H2300     1.0  0.34405  0.50092  0.29832  1.0000
  H   H2301     1.0  0.23343  0.89879  0.37779  1.0000
  H   H2302     1.0  0.40171  0.60808  0.35834  1.0000
  C   C1891     1.0  0.07339  0.53006  0.27565  1.0000
  H   H2303     1.0  0.47036  0.53830  0.19902  1.0000
  C   C1892     1.0  0.02126  0.89241  0.35673  1.0000
  C   C1893     1.0  0.31018  0.51005  0.36388  1.0000
  C   C1894     1.0  0.43425  0.91564  0.20451  1.0000
  H   H2304     1.0  0.41917  0.51497  0.21436  1.0000
  H   H2305     1.0  0.48404  0.63138  0.34534  1.0000
  C   C1895     1.0  0.41303  0.98220  0.30516  1.0000
  C   C1896     1.0  0.06584  0.59826  0.38300  1.0000
  H   H2306     1.0  0.01699  0.92139  0.23782  1.0000
  Fe  Fe258     1.0  0.02267  0.95435  0.29313  1.0000
  H   H2307     1.0  0.01409  0.57994  0.22793  1.0000
  C   C1897     1.0  0.08188  0.88289  0.35990  1.0000
  H   H2308     1.0  0.37642  0.87814  0.31364  1.0000
  C   C1898     1.0  0.49774  0.95857  0.24448  1.0000
  H   H2309     1.0  0.09559  0.85658  0.30194  1.0000
  H   H2310     1.0  0.49025  0.55900  0.23273  1.0000
  H   H2311     1.0  0.35567  0.61654  0.35367  1.0000
  C   C1899     1.0  0.47519  0.87701  0.33482  1.0000
  H   H2312     1.0  0.48688  0.96806  0.28333  1.0000
  C   C1900     1.0  0.08795  0.53911  0.24673  1.0000
  S   S514      1.0  0.02393  0.50355  0.29726  1.0000
  N   N129      1.0  0.37476  0.59411  0.36051  1.0000
  C   C1901     1.0  0.43074  0.50745  0.26900  1.0000
  S   S515      1.0  0.39039  0.66612  0.37830  1.0000
  C   C1902     1.0  0.36641  0.88867  0.30881  1.0000
  C   C1903     1.0  0.00686  0.52589  0.23664  1.0000
  C   C1904     1.0  0.34491  0.52369  0.30484  1.0000
  C   C1905     1.0  0.00841  0.95975  0.24805  1.0000
  C   C1906     1.0  0.19615  0.95881  0.36814  1.0000
  C   C1907     1.0  0.48550  0.57634  0.31737  1.0000
  C   C1908     1.0  0.34478  0.89812  0.29243  1.0000
  C   C1909     1.0  0.03869  0.92251  0.36521  1.0000
  C   C1910     1.0  0.47763  0.90635  0.30553  1.0000
  H   H2313     1.0  0.00195  0.58494  0.33253  1.0000
  H   H2314     1.0  0.45744  0.53965  0.22673  1.0000
  H   H2315     1.0  0.49416  0.96864  0.21095  1.0000
  H   H2316     1.0  0.48729  0.63108  0.26373  1.0000
  H   H2317     1.0  0.07047  0.87891  0.35912  1.0000
  C   C1911     1.0  0.34184  0.50744  0.30847  1.0000
  H   H2318     1.0  0.34953  0.52985  0.29191  1.0000
  H   H2319     1.0  0.36427  0.89871  0.38409  1.0000
  H   H2320     1.0  0.45008  0.71304  0.36663  1.0000
  C   C1912     1.0  0.41525  0.53326  0.27782  1.0000
  H   H2321     1.0  0.34709  0.90338  0.37394  1.0000
  S   S516      1.0  0.19731  0.90580  0.38097  1.0000
  N   N130      1.0  0.47725  0.89350  0.33636  1.0000
  H   H2322     1.0  0.08799  0.87294  0.36956  1.0000
  H   H2323     1.0  0.47152  0.97601  0.21788  1.0000
  H   H2324     1.0  0.47749  0.62339  0.37668  1.0000
  H   H2325     1.0  0.09879  0.63809  0.36899  1.0000
  H   H2326     1.0  0.03076  0.93011  0.24461  1.0000
  H   H2327     1.0  0.02009  0.94456  0.21220  1.0000
  C   C1913     1.0  0.46635  0.65211  0.29615  1.0000
  N   N131      1.0  0.06279  0.52490  0.25262  1.0000
  C   C1914     1.0  0.06647  0.52641  0.23404  1.0000
  C   C1915     1.0  0.06354  0.50673  0.26073  1.0000
  C   C1916     1.0  0.04510  0.53453  0.25771  1.0000
  C   C1917     1.0  0.07482  0.53130  0.25819  1.0000
  H   H2328     1.0  0.02401  0.63120  0.37008  1.0000
  C   C1918     1.0  0.47355  0.52004  0.26148  1.0000
  C   C1919     1.0  0.01867  0.95339  0.22050  1.0000
  C   C1920     1.0  0.10504  0.84038  0.32356  1.0000
  C   C1921     1.0  0.48402  0.50549  0.25637  1.0000
  H   H2329     1.0  0.07295  0.89985  0.33075  1.0000
  H   H2330     1.0  0.05734  0.52132  0.23030  1.0000
  C   C1922     1.0  0.10545  0.52008  0.35811  1.0000
  H   H2331     1.0  0.06210  0.59145  0.37584  1.0000
  H   H2332     1.0  0.12347  0.85938  0.37947  1.0000
  H   H2333     1.0  0.07684  0.49910  0.25807  1.0000
  H   H2334     1.0  0.03563  0.53003  0.25385  1.0000
  H   H2335     1.0  0.04096  0.53325  0.27163  1.0000
  H   H2336     1.0  0.04399  0.54827  0.25188  1.0000
  C   C1923     1.0  0.37444  0.89924  0.34971  1.0000
  H   H2337     1.0  0.00653  0.60636  0.34435  1.0000
  H   H2338     1.0  0.05900  0.50460  0.27469  1.0000
  C   C1924     1.0  0.00398  0.58305  0.22102  1.0000
  C   C1925     1.0  0.11979  0.61750  0.19604  1.0000
  H   H2339     1.0  0.06813  0.49499  0.32870  1.0000
  H   H2340     1.0  0.44963  0.65137  0.27388  1.0000
  H   H2341     1.0  0.44696  0.66475  0.36187  1.0000
  C   C1926     1.0  0.36124  0.58409  0.36579  1.0000
  C   C1927     1.0  0.22915  0.49417  0.38200  1.0000
  H   H2342     1.0  0.36670  0.57061  0.36494  1.0000
  C   C1928     1.0  0.04853  0.49860  0.31506  1.0000
  H   H2343     1.0  0.47907  0.61149  0.29065  1.0000
  C   C1929     1.0  0.02849  0.87697  0.36635  1.0000
  H   H2344     1.0  0.47892  0.91745  0.27903  1.0000
  C   C1930     1.0  0.03710  0.91097  0.38069  1.0000
  C   C1931     1.0  0.09280  0.62448  0.21552  1.0000
  H   H2345     1.0  0.45334  0.95471  0.23284  1.0000
  H   H2346     1.0  0.45273  0.52753  0.20739  1.0000
  C   C1932     1.0  0.48248  0.95437  0.24398  1.0000
  H   H2347     1.0  0.08912  0.98542  0.23300  1.0000
  H   H2348     1.0  0.22552  0.49574  0.36978  1.0000
  C   C1933     1.0  0.49539  0.93580  0.22413  1.0000
  Fe  Fe259     1.0  0.32309  0.56062  0.37605  1.0000
  N   N132      1.0  0.36932  0.88541  0.36390  1.0000
  H   H2349     1.0  0.39059  0.57965  0.34217  1.0000
  H   H2350     1.0  0.40318  0.53998  0.28506  1.0000
  C   C1934     1.0  0.38366  0.59289  0.34289  1.0000
  N   N133      1.0  0.09368  0.88562  0.34310  1.0000
  H   H2351     1.0  0.45834  0.63925  0.37858  1.0000
  H   H2352     1.0  0.33671  0.89456  0.35759  1.0000
  H   H2353     1.0  0.24196  0.49737  0.37895  1.0000
  H   H2354     1.0  0.00914  0.63342  0.34038  1.0000
  H   H2355     1.0  0.47449  0.98387  0.34311  1.0000
  C   C1935     1.0  0.46877  0.95566  0.25830  1.0000
  H   H2356     1.0  0.36777  0.98009  0.29375  1.0000
  H   H2357     1.0  0.10481  0.54953  0.27412  1.0000
  H   H2358     1.0  0.08659  0.62526  0.22844  1.0000
  H   H2359     1.0  0.10720  0.90037  0.35011  1.0000
  C   C1936     1.0  0.39093  0.87466  0.28024  1.0000
  H   H2360     1.0  0.19418  0.95053  0.36127  1.0000
  H   H2361     1.0  0.35174  0.58896  0.35753  1.0000
  N   N134      1.0  0.47060  0.63872  0.28636  1.0000
  H   H2362     1.0  0.49691  0.51014  0.18916  1.0000
  H   H2363     1.0  0.11349  0.82743  0.34666  1.0000
  H   H2364     1.0  0.48155  0.65347  0.26246  1.0000
  H   H2365     1.0  0.34534  0.86789  0.31149  1.0000
  H   H2366     1.0  0.09562  0.91692  0.37496  1.0000
  C   C1937     1.0  0.09482  0.87076  0.32002  1.0000
  C   C1938     1.0  0.37264  0.89671  0.26382  1.0000
  H   H2367     1.0  0.42597  0.53498  0.28227  1.0000
  C   C1939     1.0  0.48445  0.87797  0.19417  1.0000
  C   C1940     1.0  0.34831  0.98859  0.31426  1.0000
  H   H2368     1.0  0.16944  0.96610  0.37915  1.0000
  H   H2369     1.0  0.00264  0.95558  0.26165  1.0000
  H   H2370     1.0  0.06580  0.65999  0.19913  1.0000
  C   C1941     1.0  0.18227  0.96744  0.37835  1.0000
  C   C1942     1.0  0.12372  0.98617  0.34039  1.0000
  C   C1943     1.0  0.09335  0.62652  0.18614  1.0000
  H   H2371     1.0  0.09294  0.89559  0.38459  1.0000
  H   H2372     1.0  0.01553  0.52638  0.22436  1.0000
  C   C1944     1.0  0.00948  0.51176  0.24970  1.0000
  S   S517      1.0  0.29268  0.91728  0.38074  1.0000
  C   C1945     1.0  0.09763  0.98640  0.19819  1.0000
  H   H2373     1.0  0.00403  0.86704  0.34577  1.0000
  C   C1946     1.0  0.49140  0.58955  0.34186  1.0000
  H   H2374     1.0  0.39061  0.88232  0.37544  1.0000
  Fe  Fe260     1.0  0.41428  0.64793  0.38409  1.0000
  H   H2375     1.0  0.33624  0.49088  0.37962  1.0000
  H   H2376     1.0  0.49737  0.57845  0.22397  1.0000
  H   H2377     1.0  0.22898  0.52562  0.38005  1.0000
  H   H2378     1.0  0.35246  0.49170  0.36049  1.0000
  H   H2379     1.0  0.42229  0.59934  0.37649  1.0000
  H   H2380     1.0  0.49141  0.58768  0.24921  1.0000
  Fe  Fe261     1.0  0.16930  0.91759  0.38280  1.0000
  H   H2381     1.0  0.38192  0.86380  0.38013  1.0000
  H   H2382     1.0  0.49520  0.73224  0.37772  1.0000
  S   S518      1.0  0.49596  0.59609  0.35782  1.0000
  H   H2383     1.0  0.49747  0.90534  0.38167  1.0000
  H   H2384     1.0  0.49370  0.49172  0.23682  1.0000
  C   C1947     1.0  0.49365  0.57418  0.25615  1.0000
  H   H2385     1.0  0.49198  0.54709  0.27844  1.0000
  H   H2386     1.0  0.49736  0.57406  0.26793  1.0000
  H   H2387     1.0  0.49534  0.67392  0.36406  1.0000
  H   H2388     1.0  0.40296  0.98769  0.33004  1.0000
  C   C1948     1.0  0.49241  0.58138  0.18558  1.0000
  H   H2389     1.0  0.34247  0.84297  0.38229  1.0000
  H   H2390     1.0  0.02697  0.90396  0.38463  1.0000
  H   H2391     1.0  0.99868  0.65235  0.34768  1.0000
  H   H2392     1.0  0.49842  0.55186  0.34629  1.0000
  S   S519      1.0  0.12052  0.93291  0.38496  1.0000
  Fe  Fe262     1.0  0.03568  0.85154  0.40437  1.0000
  S   S520      1.0  0.34197  0.54370  0.39116  1.0000
  Fe  Fe263     1.0  0.04403  0.84427  0.43926  1.0000
  S   S521      1.0  0.06406  0.82103  0.43472  1.0000
  S   S522      1.0  0.03593  0.85001  0.46532  1.0000
  Fe  Fe264     1.0  0.07161  0.83669  0.40874  1.0000
  H   H2393     1.0  0.14407  0.95691  0.41758  1.0000
  Fe  Fe265     1.0  0.04507  0.81493  0.42397  1.0000
  S   S523      1.0  0.03771  0.78939  0.43504  1.0000
  S   S524      1.0  0.05328  0.86057  0.41424  1.0000
  H   H2394     1.0  0.14198  0.86042  0.46808  1.0000
  S   S525      1.0  0.11961  0.89234  0.42101  1.0000
  H   H2395     1.0  0.26292  0.49672  0.47888  1.0000
  H   H2396     1.0  0.09402  0.53472  0.49546  1.0000
  Fe  Fe266     1.0  0.30529  0.50087  0.51018  1.0000
  Fe  Fe267     1.0  0.07336  0.87289  0.55345  1.0000
  C   C1949     1.0  0.18168  0.89343  0.45742  1.0000
  Fe  Fe268     1.0  0.08597  0.87187  0.51634  1.0000
  S   S526      1.0  0.10982  0.85264  0.52086  1.0000
  S   S527      1.0  0.08376  0.88177  0.48907  1.0000
  Fe  Fe269     1.0  0.09244  0.83960  0.54300  1.0000
  Fe  Fe270     1.0  0.11120  0.86784  0.53832  1.0000
  S   S528      1.0  0.13559  0.87168  0.54198  1.0000
  S   S529      1.0  0.06830  0.85796  0.53738  1.0000
  S   S530      1.0  0.08900  0.88839  0.53179  1.0000
  H   H2397     1.0  0.07847  0.94022  0.38941  1.0000
  H   H2398     1.0  0.47461  0.63894  0.38888  1.0000
  S   S531      1.0  0.16759  0.93591  0.50508  1.0000
  C   C1950     1.0  0.12082  0.66540  0.58303  1.0000
  H   H2399     1.0  0.10738  0.52012  0.50941  1.0000
  H   H2400     1.0  0.19059  0.89490  0.46395  1.0000
  Fe  Fe271     1.0  0.40575  0.65248  0.42032  1.0000
  S   S532      1.0  0.38110  0.67116  0.41724  1.0000
  S   S533      1.0  0.41402  0.64361  0.44517  1.0000
  Fe  Fe272     1.0  0.37762  0.65300  0.40374  1.0000
  S   S534      1.0  0.35234  0.64574  0.40768  1.0000
  S   S535      1.0  0.40125  0.63361  0.40857  1.0000
  C   C1951     1.0  0.27671  0.63140  0.54878  1.0000
  H   H2401     1.0  0.12480  0.95816  0.50223  1.0000
  H   H2402     1.0  0.35834  0.86281  0.45232  1.0000
  C   C1952     1.0  0.09573  0.69541  0.43315  1.0000
  S   S536      1.0  0.34880  0.56879  0.41994  1.0000
  H   H2403     1.0  0.07616  0.81440  0.46882  1.0000
  S   S537      1.0  0.26718  0.57535  0.41826  1.0000
  S   S538      1.0  0.31094  0.54615  0.42474  1.0000
  C   C1953     1.0  0.21777  0.97964  0.40725  1.0000
  Fe  Fe273     1.0  0.42694  0.69142  0.53326  1.0000
  S   S539      1.0  0.40313  0.70513  0.54819  1.0000
  S   S540      1.0  0.44909  0.67513  0.54486  1.0000
  Fe  Fe274     1.0  0.41291  0.70216  0.50126  1.0000
  S   S541      1.0  0.38777  0.71621  0.51394  1.0000
  S   S542      1.0  0.41680  0.70501  0.47315  1.0000
  Fe  Fe275     1.0  0.40377  0.72616  0.52499  1.0000
  S   S543      1.0  0.39636  0.75418  0.52485  1.0000
  Fe  Fe276     1.0  0.38964  0.69386  0.53571  1.0000
  S   S544      1.0  0.36856  0.68105  0.55238  1.0000
  S   S545      1.0  0.42891  0.71345  0.51096  1.0000
  S   S546      1.0  0.41343  0.67881  0.52210  1.0000
  S   S547      1.0  0.36325  0.58153  0.55142  1.0000
  Fe  Fe277     1.0  0.31376  0.58690  0.56372  1.0000
  S   S548      1.0  0.32800  0.58978  0.53670  1.0000
  S   S549      1.0  0.16189  0.97295  0.52463  1.0000
  Fe  Fe278     1.0  0.34692  0.56694  0.54643  1.0000
  S   S550      1.0  0.35870  0.54422  0.53480  1.0000
  Fe  Fe279     1.0  0.34310  0.60422  0.54378  1.0000
  S   S551      1.0  0.35136  0.62652  0.52447  1.0000
  C   C1954     1.0  0.25352  0.55007  0.41530  1.0000
  H   H2404     1.0  0.23838  0.51961  0.47406  1.0000
  C   C1955     1.0  0.06152  0.74463  0.45746  1.0000
  H   H2405     1.0  0.11131  0.97380  0.51365  1.0000
  S   S552      1.0  0.30946  0.52735  0.49942  1.0000
  C   C1956     1.0  0.06389  0.71636  0.47474  1.0000
  Fe  Fe280     1.0  0.27203  0.92432  0.40295  1.0000
  S   S553      1.0  0.28779  0.93740  0.41094  1.0000
  S   S554      1.0  0.24410  0.93771  0.40577  1.0000
  Fe  Fe281     1.0  0.30154  0.89356  0.39924  1.0000
  S   S555      1.0  0.31889  0.90417  0.40765  1.0000
  H   H2406     1.0  0.21162  0.97405  0.56863  1.0000
  Fe  Fe282     1.0  0.29582  0.91199  0.42718  1.0000
  S   S556      1.0  0.29406  0.90571  0.45518  1.0000
  S   S557      1.0  0.27916  0.89924  0.42025  1.0000
  C   C1957     1.0  0.13243  0.88554  0.48563  1.0000
  S   S558      1.0  0.02452  0.83742  0.42999  1.0000
  C   C1958     1.0  0.04954  0.75117  0.40140  1.0000
  Fe  Fe283     1.0  0.44255  0.81507  0.54168  1.0000
  S   S559      1.0  0.45368  0.83413  0.52013  1.0000
  S   S560      1.0  0.44961  0.78850  0.53720  1.0000
  Fe  Fe284     1.0  0.42878  0.84060  0.56444  1.0000
  S   S561      1.0  0.43880  0.86148  0.54448  1.0000
  C   C1959     1.0  0.36010  0.85772  0.46511  1.0000
  Fe  Fe285     1.0  0.42883  0.85205  0.52742  1.0000
  S   S562      1.0  0.41488  0.87077  0.50828  1.0000
  Fe  Fe286     1.0  0.46247  0.84141  0.53938  1.0000
  H   H2407     1.0  0.03089  0.78097  0.53716  1.0000
  S   S563      1.0  0.41695  0.83249  0.54773  1.0000
  S   S564      1.0  0.45319  0.82108  0.56064  1.0000
  Fe  Fe287     1.0  0.29982  0.94569  0.51772  1.0000
  S   S565      1.0  0.29252  0.92136  0.53349  1.0000
  S   S566      1.0  0.29056  0.96108  0.49415  1.0000
  Fe  Fe288     1.0  0.32335  0.94526  0.53971  1.0000
  S   S567      1.0  0.31796  0.92113  0.55741  1.0000
  S   S568      1.0  0.34262  0.95825  0.54209  1.0000
  Fe  Fe289     1.0  0.32047  0.91223  0.53392  1.0000
  S   S569      1.0  0.33421  0.88536  0.53231  1.0000
  Fe  Fe290     1.0  0.29059  0.93245  0.55540  1.0000
  H   H2408     1.0  0.15305  0.98480  0.47248  1.0000
  S   S570      1.0  0.32798  0.93555  0.51621  1.0000
  S   S571      1.0  0.29578  0.95755  0.53974  1.0000
  Fe  Fe291     1.0  0.17862  0.55653  0.42827  1.0000
  S   S572      1.0  0.15923  0.54109  0.44396  1.0000
  H   H2409     1.0  0.08053  0.73405  0.41056  1.0000
  Fe  Fe292     1.0  0.15186  0.58920  0.42453  1.0000
  S   S573      1.0  0.13051  0.57656  0.43990  1.0000
  S   S574      1.0  0.14620  0.61700  0.41257  1.0000
  Fe  Fe293     1.0  0.14851  0.56274  0.45710  1.0000
  S   S575      1.0  0.13729  0.56004  0.48489  1.0000
  Fe  Fe294     1.0  0.14302  0.55625  0.42530  1.0000
  S   S576      1.0  0.12474  0.54577  0.41766  1.0000
  S   S577      1.0  0.16906  0.57710  0.44301  1.0000
  C   C1960     1.0  0.03775  0.67194  0.47255  1.0000
  C   C1961     1.0  0.49153  0.69360  0.40314  1.0000
  C   C1962     1.0  0.34327  0.84522  0.39404  1.0000
  H   H2410     1.0  0.07905  0.69618  0.46323  1.0000
  H   H2411     1.0  0.04278  0.79698  0.56406  1.0000
  H   H2412     1.0  0.42104  0.57431  0.40017  1.0000
  Fe  Fe295     1.0  0.05933  0.67554  0.42233  1.0000
  S   S578      1.0  0.07391  0.65960  0.44228  1.0000
  H   H2413     1.0  0.10398  0.73484  0.42196  1.0000
  Fe  Fe296     1.0  0.20852  0.59724  0.53704  1.0000
  S   S579      1.0  0.20263  0.57441  0.55683  1.0000
  S   S580      1.0  0.23604  0.59882  0.52492  1.0000
  Fe  Fe297     1.0  0.17099  0.61083  0.53388  1.0000
  S   S581      1.0  0.16239  0.58869  0.55298  1.0000
  S   S582      1.0  0.15064  0.62909  0.52097  1.0000
  Fe  Fe298     1.0  0.17940  0.59254  0.56755  1.0000
  Fe  Fe299     1.0  0.18631  0.57300  0.54020  1.0000
  S   S583      1.0  0.18966  0.54954  0.53072  1.0000
  S   S584      1.0  0.18670  0.61575  0.54912  1.0000
  S   S585      1.0  0.19347  0.59478  0.51976  1.0000
  C   C1963     1.0  0.35168  0.86644  0.47842  1.0000
  C   C1964     1.0  0.13617  0.98157  0.40233  1.0000
  C   C1965     1.0  0.00175  0.69490  0.52548  1.0000
  H   H2414     1.0  0.21775  0.49717  0.50287  1.0000
  C   C1966     1.0  0.14147  0.64811  0.52800  1.0000
  C   C1967     1.0  0.12523  0.65712  0.52527  1.0000
  C   C1968     1.0  0.11768  0.67239  0.53070  1.0000
  S   S586      1.0  0.19784  0.94654  0.53092  1.0000
  C   C1969     1.0  0.21451  0.96526  0.49009  1.0000
  C   C1970     1.0  0.15016  0.65444  0.53613  1.0000
  H   H2415     1.0  0.11847  0.65231  0.51894  1.0000
  H   H2416     1.0  0.10527  0.67939  0.52834  1.0000
  H   H2417     1.0  0.16274  0.64768  0.53815  1.0000
  H   H2418     1.0  0.42383  0.68828  0.57223  1.0000
  C   C1971     1.0  0.19428  0.61187  0.43338  1.0000
  H   H2419     1.0  0.17458  0.62668  0.42006  1.0000
  H   H2420     1.0  0.11938  0.86972  0.47138  1.0000
  Fe  Fe300     1.0  0.33067  0.56119  0.40910  1.0000
  C   C1972     1.0  0.15210  0.55715  0.49733  1.0000
  C   C1973     1.0  0.14637  0.56183  0.51300  1.0000
  C   C1974     1.0  0.15801  0.55997  0.52304  1.0000
  C   C1975     1.0  0.17530  0.55283  0.51770  1.0000
  C   C1976     1.0  0.18102  0.54785  0.50216  1.0000
  C   C1977     1.0  0.16947  0.55032  0.49181  1.0000
  H   H2421     1.0  0.13294  0.56710  0.51730  1.0000
  H   H2422     1.0  0.15352  0.56369  0.53510  1.0000
  H   H2423     1.0  0.19439  0.54222  0.49806  1.0000
  H   H2424     1.0  0.17394  0.54664  0.47972  1.0000
  Fe  Fe301     1.0  0.32050  0.53052  0.40506  1.0000
  H   H2425     1.0  0.03301  0.75424  0.52909  1.0000
  C   C1978     1.0  0.13227  0.87192  0.46418  1.0000
  H   H2426     1.0  0.34452  0.89239  0.49530  1.0000
  Fe  Fe302     1.0  0.39752  0.81523  0.40798  1.0000
  C   C1979     1.0  0.12613  0.62865  0.42103  1.0000
  C   C1980     1.0  0.11677  0.62251  0.43706  1.0000
  C   C1981     1.0  0.10082  0.63212  0.44360  1.0000
  C   C1982     1.0  0.09396  0.64772  0.43396  1.0000
  C   C1983     1.0  0.10332  0.65380  0.41792  1.0000
  C   C1984     1.0  0.11942  0.64438  0.41155  1.0000
  H   H2427     1.0  0.12187  0.61044  0.44449  1.0000
  H   H2428     1.0  0.09368  0.62736  0.45604  1.0000
  H   H2429     1.0  0.09839  0.66592  0.41051  1.0000
  H   H2430     1.0  0.48584  0.67724  0.54224  1.0000
  S   S587      1.0  0.09969  0.81121  0.54529  1.0000
  C   C1985     1.0  0.11711  0.53186  0.46665  1.0000
  C   C1986     1.0  0.35856  0.95778  0.56667  1.0000
  C   C1987     1.0  0.34412  0.95510  0.56315  1.0000
  H   H2431     1.0  0.00971  0.78162  0.48731  1.0000
  H   H2432     1.0  0.04874  0.62015  0.41426  1.0000
  H   H2433     1.0  0.45501  0.81715  0.44826  1.0000
  H   H2434     1.0  0.36830  0.96254  0.55641  1.0000
  C   C1988     1.0  0.13444  0.51207  0.48538  1.0000
  C   C1989     1.0  0.39250  0.87489  0.51530  1.0000
  C   C1990     1.0  0.38419  0.86187  0.52499  1.0000
  C   C1991     1.0  0.36629  0.86523  0.53013  1.0000
  C   C1992     1.0  0.35663  0.88167  0.52592  1.0000
  C   C1993     1.0  0.36493  0.89472  0.51628  1.0000
  C   C1994     1.0  0.38282  0.89127  0.51079  1.0000
  H   H2435     1.0  0.39148  0.84913  0.52817  1.0000
  H   H2436     1.0  0.35991  0.85506  0.53739  1.0000
  H   H2437     1.0  0.35760  0.90742  0.51287  1.0000
  H   H2438     1.0  0.38919  0.90137  0.50324  1.0000
  H   H2439     1.0  0.35169  0.88310  0.38807  1.0000
  S   S588      1.0  0.32571  0.50217  0.41046  1.0000
  H   H2440     1.0  0.13229  0.87296  0.45074  1.0000
  C   C1995     1.0  0.01139  0.70745  0.52080  1.0000
  Fe  Fe303     1.0  0.17343  0.94558  0.52485  1.0000
  H   H2441     1.0  0.49442  0.80000  0.39546  1.0000
  C   C1996     1.0  0.05828  0.61449  0.40456  1.0000
  C   C1997     1.0  0.15886  0.88964  0.44053  1.0000
  C   C1998     1.0  0.48071  0.87070  0.54868  1.0000
  H   H2442     1.0  0.04063  0.60371  0.39848  1.0000
  C   C1999     1.0  0.00635  0.74890  0.39297  1.0000
  H   H2443     1.0  0.46862  0.87323  0.54503  1.0000
  C   C2000     1.0  0.29154  0.92225  0.46515  1.0000
  C   C2001     1.0  0.28559  0.91947  0.48268  1.0000
  C   C2002     1.0  0.28456  0.93179  0.49137  1.0000
  C   C2003     1.0  0.28963  0.94692  0.48267  1.0000
  C   C2004     1.0  0.29477  0.95016  0.46499  1.0000
  C   C2005     1.0  0.29575  0.93777  0.45619  1.0000
  H   H2444     1.0  0.28196  0.90764  0.48964  1.0000
  H   H2445     1.0  0.27975  0.92957  0.50485  1.0000
  H   H2446     1.0  0.29864  0.96191  0.45819  1.0000
  H   H2447     1.0  0.30031  0.94000  0.44261  1.0000
  C   C2006     1.0  0.48374  0.88174  0.55685  1.0000
  C   C2007     1.0  0.27674  0.49803  0.41778  1.0000
  H   H2448     1.0  0.38278  0.82195  0.48634  1.0000
  C   C2008     1.0  0.01417  0.66442  0.49438  1.0000
  H   H2449     1.0  0.31424  0.57983  0.47423  1.0000
  H   H2450     1.0  0.13365  0.89710  0.48877  1.0000
  C   C2009     1.0  0.00855  0.67843  0.53348  1.0000
  C   C2010     1.0  0.27225  0.58932  0.56037  1.0000
  C   C2011     1.0  0.27875  0.59003  0.54308  1.0000
  C   C2012     1.0  0.26756  0.59267  0.53232  1.0000
  C   C2013     1.0  0.24987  0.59453  0.53880  1.0000
  C   C2014     1.0  0.24344  0.59334  0.55615  1.0000
  C   C2015     1.0  0.25462  0.59077  0.56690  1.0000
  H   H2451     1.0  0.29233  0.58882  0.53795  1.0000
  H   H2452     1.0  0.27264  0.59337  0.51894  1.0000
  H   H2453     1.0  0.22981  0.59472  0.56126  1.0000
  C   C2016     1.0  0.15133  0.52682  0.58140  1.0000
  C   C2017     1.0  0.34566  0.53988  0.52395  1.0000
  C   C2018     1.0  0.33228  0.55245  0.51826  1.0000
  C   C2019     1.0  0.32149  0.54861  0.51031  1.0000
  C   C2020     1.0  0.32372  0.53203  0.50850  1.0000
  C   C2021     1.0  0.33709  0.51942  0.51417  1.0000
  C   C2022     1.0  0.34826  0.52344  0.52157  1.0000
  H   H2454     1.0  0.33029  0.56518  0.51981  1.0000
  H   H2455     1.0  0.31115  0.55838  0.50595  1.0000
  H   H2456     1.0  0.33898  0.50663  0.51262  1.0000
  H   H2457     1.0  0.35875  0.51375  0.52573  1.0000
  C   C2023     1.0  0.41123  0.76360  0.52829  1.0000
  C   C2024     1.0  0.40562  0.77941  0.53285  1.0000
  C   C2025     1.0  0.41724  0.78716  0.53574  1.0000
  C   C2026     1.0  0.43459  0.77932  0.53367  1.0000
  C   C2027     1.0  0.44025  0.76374  0.52868  1.0000
  C   C2028     1.0  0.42859  0.75579  0.52620  1.0000
  H   H2458     1.0  0.39218  0.78547  0.53452  1.0000
  H   H2459     1.0  0.41273  0.79906  0.53980  1.0000
  H   H2460     1.0  0.45370  0.75773  0.52682  1.0000
  H   H2461     1.0  0.43304  0.74369  0.52254  1.0000
  C   C2029     1.0  0.36452  0.66555  0.54455  1.0000
  C   C2030     1.0  0.37009  0.66502  0.52743  1.0000
  C   C2031     1.0  0.36621  0.65281  0.52137  1.0000
  C   C2032     1.0  0.35715  0.64087  0.53249  1.0000
  C   C2033     1.0  0.35203  0.64112  0.54969  1.0000
  C   C2034     1.0  0.35551  0.65358  0.55567  1.0000
  H   H2462     1.0  0.37704  0.67425  0.51879  1.0000
  H   H2463     1.0  0.37018  0.65271  0.50804  1.0000
  H   H2464     1.0  0.34489  0.63208  0.55831  1.0000
  H   H2465     1.0  0.35119  0.65398  0.56893  1.0000
  N   N135      1.0  0.21617  0.50493  0.39292  1.0000
  C   C2035     1.0  0.44348  0.66659  0.56667  1.0000
  H   H2466     1.0  0.01482  0.80564  0.46794  1.0000
  H   H2467     1.0  0.46271  0.64357  0.56547  1.0000
  H   H2468     1.0  0.39726  0.94720  0.54670  1.0000
  C   C2036     1.0  0.25038  0.56641  0.41809  1.0000
  N   N136      1.0  0.48483  0.70406  0.53306  1.0000
  H   H2469     1.0  0.11915  0.88387  0.49192  1.0000
  C   C2037     1.0  0.30295  0.67115  0.56181  1.0000
  C   C2038     1.0  0.21968  0.56820  0.42315  1.0000
  C   C2039     1.0  0.23345  0.57547  0.42193  1.0000
  S   S589      1.0  0.03928  0.69917  0.42578  1.0000
  H   H2470     1.0  0.20667  0.57528  0.42608  1.0000
  H   H2471     1.0  0.23103  0.58814  0.42397  1.0000
  C   C2040     1.0  0.41384  0.66060  0.45357  1.0000
  C   C2041     1.0  0.40991  0.67719  0.44437  1.0000
  C   C2042     1.0  0.41039  0.69075  0.45076  1.0000
  C   C2043     1.0  0.41468  0.68782  0.46643  1.0000
  C   C2044     1.0  0.41825  0.67124  0.47585  1.0000
  C   C2045     1.0  0.41790  0.65762  0.46937  1.0000
  H   H2472     1.0  0.40657  0.67953  0.43229  1.0000
  H   H2473     1.0  0.40730  0.70354  0.44361  1.0000
  H   H2474     1.0  0.42169  0.66887  0.48791  1.0000
  H   H2475     1.0  0.42093  0.64477  0.47654  1.0000
  C   C2046     1.0  0.35218  0.62434  0.40964  1.0000
  C   C2047     1.0  0.36551  0.61127  0.41470  1.0000
  C   C2048     1.0  0.36436  0.59430  0.41771  1.0000
  C   C2049     1.0  0.35019  0.59023  0.41505  1.0000
  C   C2050     1.0  0.33716  0.60327  0.40930  1.0000
  C   C2051     1.0  0.33802  0.62027  0.40691  1.0000
  H   H2476     1.0  0.37646  0.61418  0.41687  1.0000
  H   H2477     1.0  0.37450  0.58430  0.42213  1.0000
  H   H2478     1.0  0.32623  0.60037  0.40702  1.0000
  C   C2052     1.0  0.48356  0.68894  0.54707  1.0000
  H   H2479     1.0  0.00822  0.77007  0.40152  1.0000
  H   H2480     1.0  0.37710  0.83532  0.45773  1.0000
  H   H2481     1.0  0.32069  0.86784  0.42387  1.0000
  Fe  Fe304     1.0  0.18476  0.97317  0.53351  1.0000
  C   C2053     1.0  0.07147  0.90203  0.41307  1.0000
  C   C2054     1.0  0.22834  0.92921  0.56280  1.0000
  C   C2055     1.0  0.24488  0.93057  0.56278  1.0000
  C   C2056     1.0  0.33018  0.85685  0.40190  1.0000
  C   C2057     1.0  0.12648  0.67885  0.53862  1.0000
  Fe  Fe305     1.0  0.29418  0.56300  0.40715  1.0000
  H   H2482     1.0  0.25355  0.93433  0.55097  1.0000
  S   S590      1.0  0.07444  0.73040  0.53546  1.0000
  C   C2058     1.0  0.14373  0.88995  0.53169  1.0000
  C   C2059     1.0  0.13604  0.90273  0.51976  1.0000
  C   C2060     1.0  0.14355  0.91674  0.51124  1.0000
  C   C2061     1.0  0.15832  0.91827  0.51523  1.0000
  C   C2062     1.0  0.16561  0.90575  0.52754  1.0000
  C   C2063     1.0  0.15852  0.89150  0.53551  1.0000
  C   C2064     1.0  0.15335  0.88917  0.45815  1.0000
  H   H2483     1.0  0.13780  0.92646  0.50179  1.0000
  H   H2484     1.0  0.17703  0.90681  0.53064  1.0000
  H   H2485     1.0  0.16456  0.88158  0.54464  1.0000
  H   H2486     1.0  0.49090  0.80576  0.53287  1.0000
  C   C2065     1.0  0.21316  0.93297  0.40458  1.0000
  C   C2066     1.0  0.22282  0.55179  0.42055  1.0000
  H   H2487     1.0  0.20744  0.94262  0.41189  1.0000
  C   C2067     1.0  0.12255  0.87340  0.39776  1.0000
  N   N137      1.0  0.01878  0.67587  0.47777  1.0000
  C   C2068     1.0  0.12463  0.96947  0.50679  1.0000
  C   C2069     1.0  0.05371  0.60520  0.39574  1.0000
  N   N138      1.0  0.23424  0.98450  0.55719  1.0000
  S   S591      1.0  0.09816  0.83930  0.39463  1.0000
  H   H2488     1.0  0.35471  0.49138  0.54948  1.0000
  C   C2070     1.0  0.04191  0.77509  0.42172  1.0000
  C   C2071     1.0  0.03611  0.75988  0.42807  1.0000
  C   C2072     1.0  0.03994  0.74793  0.41796  1.0000
  S   S592      1.0  0.20595  0.54201  0.42241  1.0000
  C   C2073     1.0  0.00346  0.85819  0.56719  1.0000
  C   C2074     1.0  0.04820  0.86047  0.47138  1.0000
  C   C2075     1.0  0.06052  0.86860  0.45959  1.0000
  C   C2076     1.0  0.07071  0.87598  0.46514  1.0000
  C   C2077     1.0  0.06916  0.87460  0.48243  1.0000
  C   C2078     1.0  0.05645  0.86700  0.49412  1.0000
  C   C2079     1.0  0.04586  0.86014  0.48859  1.0000
  H   H2489     1.0  0.06222  0.86916  0.44626  1.0000
  H   H2490     1.0  0.08002  0.88257  0.45610  1.0000
  H   H2491     1.0  0.05473  0.86640  0.50743  1.0000
  H   H2492     1.0  0.03611  0.85418  0.49773  1.0000
  C   C2080     1.0  0.00031  0.76190  0.56323  1.0000
  C   C2081     1.0  0.09838  0.85515  0.41902  1.0000
  C   C2082     1.0  0.10372  0.86654  0.42490  1.0000
  C   C2083     1.0  0.11540  0.87612  0.41414  1.0000
  H   H2493     1.0  0.19060  0.96268  0.48704  1.0000
  H   H2494     1.0  0.02072  0.87052  0.57130  1.0000
  H   H2495     1.0  0.08897  0.84816  0.42728  1.0000
  H   H2496     1.0  0.09856  0.86812  0.43770  1.0000
  C   C2084     1.0  0.07633  0.79102  0.50911  1.0000
  H   H2497     1.0  0.20424  0.61172  0.42197  1.0000
  H   H2498     1.0  0.05587  0.79006  0.40011  1.0000
  H   H2499     1.0  0.39499  0.93088  0.57519  1.0000
  N   N139      1.0  0.36772  0.62596  0.47018  1.0000
  C   C2085     1.0  0.35157  0.63713  0.47689  1.0000
  C   C2086     1.0  0.38131  0.62658  0.47825  1.0000
  C   C2087     1.0  0.37295  0.63306  0.45179  1.0000
  C   C2088     1.0  0.36503  0.60845  0.47398  1.0000
  C   C2089     1.0  0.36361  0.60084  0.46139  1.0000
  C   C2090     1.0  0.36294  0.59871  0.49081  1.0000
  C   C2091     1.0  0.36098  0.58432  0.46538  1.0000
  C   C2092     1.0  0.36048  0.58215  0.49463  1.0000
  C   C2093     1.0  0.35955  0.57494  0.48195  1.0000
  H   H2500     1.0  0.34722  0.63286  0.49077  1.0000
  H   H2501     1.0  0.35308  0.65040  0.47456  1.0000
  H   H2502     1.0  0.34112  0.63732  0.47088  1.0000
  H   H2503     1.0  0.37756  0.62393  0.49227  1.0000
  H   H2504     1.0  0.38445  0.63935  0.47453  1.0000
  H   H2505     1.0  0.39340  0.61743  0.47445  1.0000
  H   H2506     1.0  0.36267  0.63496  0.44486  1.0000
  H   H2507     1.0  0.37593  0.64575  0.44939  1.0000
  H   H2508     1.0  0.38475  0.62480  0.44591  1.0000
  H   H2509     1.0  0.36454  0.60740  0.44836  1.0000
  H   H2510     1.0  0.36315  0.60380  0.50121  1.0000
  H   H2511     1.0  0.36020  0.57870  0.45550  1.0000
  H   H2512     1.0  0.35937  0.57484  0.50753  1.0000
  H   H2513     1.0  0.35772  0.56205  0.48501  1.0000
  N   N140      1.0  0.43131  0.82550  0.48502  1.0000
  C   C2094     1.0  0.43463  0.84223  0.47481  1.0000
  C   C2095     1.0  0.41958  0.82842  0.50122  1.0000
  C   C2096     1.0  0.44790  0.81455  0.48842  1.0000
  C   C2097     1.0  0.42352  0.81695  0.47678  1.0000
  C   C2098     1.0  0.42020  0.80059  0.48483  1.0000
  C   C2099     1.0  0.41891  0.82441  0.46088  1.0000
  C   C2100     1.0  0.41280  0.79221  0.47740  1.0000
  C   C2101     1.0  0.41159  0.81587  0.45352  1.0000
  C   C2102     1.0  0.40855  0.79982  0.46175  1.0000
  H   H2514     1.0  0.44050  0.84825  0.48145  1.0000
  H   H2515     1.0  0.44376  0.84107  0.46255  1.0000
  H   H2516     1.0  0.42260  0.85141  0.47243  1.0000
  H   H2517     1.0  0.41736  0.81645  0.51024  1.0000
  H   H2518     1.0  0.40692  0.83642  0.49913  1.0000
  H   H2519     1.0  0.42475  0.83513  0.50770  1.0000
  H   H2520     1.0  0.45617  0.81020  0.47692  1.0000
  H   H2521     1.0  0.45547  0.82138  0.49221  1.0000
  H   H2522     1.0  0.44629  0.80319  0.49875  1.0000
  H   H2523     1.0  0.42332  0.79414  0.49697  1.0000
  H   H2524     1.0  0.42103  0.83674  0.45374  1.0000
  H   H2525     1.0  0.41037  0.77973  0.48388  1.0000
  H   H2526     1.0  0.40820  0.82176  0.44134  1.0000
  H   H2527     1.0  0.40287  0.79332  0.45594  1.0000
  C   C2103     1.0  0.06678  0.79195  0.47953  1.0000
  C   C2104     1.0  0.06402  0.77883  0.49356  1.0000
  H   H2528     1.0  0.06298  0.79229  0.46806  1.0000
  H   H2529     1.0  0.08210  0.83721  0.50993  1.0000
  H   H2530     1.0  0.05821  0.76898  0.49300  1.0000
  N   N141      1.0  0.24665  0.55056  0.50913  1.0000
  C   C2105     1.0  0.23090  0.56403  0.51136  1.0000
  C   C2106     1.0  0.24313  0.53497  0.52162  1.0000
  C   C2107     1.0  0.26037  0.55606  0.51309  1.0000
  C   C2108     1.0  0.25215  0.54707  0.49191  1.0000
  C   C2109     1.0  0.24256  0.55509  0.47914  1.0000
  C   C2110     1.0  0.26752  0.53519  0.48750  1.0000
  C   C2111     1.0  0.24843  0.55180  0.46289  1.0000
  C   C2112     1.0  0.27331  0.53204  0.47119  1.0000
  C   C2113     1.0  0.26385  0.54046  0.45885  1.0000
  H   H2531     1.0  0.21973  0.56042  0.50948  1.0000
  H   H2532     1.0  0.22721  0.56639  0.52439  1.0000
  H   H2533     1.0  0.23269  0.57632  0.50266  1.0000
  H   H2534     1.0  0.23307  0.53030  0.51884  1.0000
  H   H2535     1.0  0.23853  0.53712  0.53474  1.0000
  H   H2536     1.0  0.25465  0.52448  0.52165  1.0000
  H   H2537     1.0  0.26387  0.56734  0.50347  1.0000
  H   H2538     1.0  0.25626  0.55970  0.52560  1.0000
  H   H2539     1.0  0.27221  0.54597  0.51359  1.0000
  H   H2540     1.0  0.23047  0.56395  0.48137  1.0000
  H   H2541     1.0  0.27518  0.52819  0.49670  1.0000
  H   H2542     1.0  0.24094  0.55804  0.45335  1.0000
  H   H2543     1.0  0.28524  0.52308  0.46811  1.0000
  H   H2544     1.0  0.26837  0.53808  0.44616  1.0000
  C   C2114     1.0  0.40434  0.63387  0.56031  1.0000
  C   C2115     1.0  0.37900  0.53950  0.57361  1.0000
  C   C2116     1.0  0.46514  0.76383  0.41613  1.0000
  H   H2545     1.0  0.02003  0.74543  0.38811  1.0000
  H   H2546     1.0  0.20824  0.53197  0.39201  1.0000
  H   H2547     1.0  0.46475  0.69275  0.44292  1.0000
  H   H2548     1.0  0.11811  0.97660  0.47658  1.0000
  C   C2117     1.0  0.05745  0.73374  0.47301  1.0000
  H   H2549     1.0  0.17596  0.50257  0.52421  1.0000
  H   H2550     1.0  0.07498  0.74725  0.43185  1.0000
  C   C2118     1.0  0.33099  0.85926  0.41745  1.0000
  C   C2119     1.0  0.02475  0.67464  0.53717  1.0000
  S   S593      1.0  0.01906  0.87115  0.38794  1.0000
  N   N142      1.0  0.23860  0.92824  0.45914  1.0000
  C   C2120     1.0  0.24681  0.91236  0.46948  1.0000
  C   C2121     1.0  0.22680  0.92394  0.45128  1.0000
  C   C2122     1.0  0.25198  0.93495  0.44519  1.0000
  C   C2123     1.0  0.23006  0.94079  0.46987  1.0000
  C   C2124     1.0  0.21198  0.94655  0.47394  1.0000
  C   C2125     1.0  0.23991  0.94742  0.47687  1.0000
  C   C2126     1.0  0.20442  0.95864  0.48389  1.0000
  C   C2127     1.0  0.23221  0.95953  0.48674  1.0000
  H   H2551     1.0  0.12664  0.60554  0.39611  1.0000
  H   H2552     1.0  0.23722  0.90687  0.48014  1.0000
  H   H2553     1.0  0.25365  0.90265  0.46178  1.0000
  H   H2554     1.0  0.25657  0.91440  0.47502  1.0000
  H   H2555     1.0  0.21710  0.91757  0.46093  1.0000
  H   H2556     1.0  0.23382  0.91504  0.44271  1.0000
  H   H2557     1.0  0.22021  0.93541  0.44329  1.0000
  H   H2558     1.0  0.24653  0.94733  0.43753  1.0000
  H   H2559     1.0  0.26265  0.93661  0.44969  1.0000
  H   H2560     1.0  0.25805  0.92615  0.43647  1.0000
  H   H2561     1.0  0.20334  0.94180  0.46980  1.0000
  H   H2562     1.0  0.25367  0.94322  0.47485  1.0000
  C   C2128     1.0  0.29267  0.51261  0.57433  1.0000
  C   C2129     1.0  0.47580  0.50964  0.57425  1.0000
  S   S594      1.0  0.41154  0.83179  0.38626  1.0000
  C   C2130     1.0  0.09643  0.90639  0.56341  1.0000
  Fe  Fe306     1.0  0.13437  0.91030  0.40106  1.0000
  C   C2131     1.0  0.37314  0.89441  0.55343  1.0000
  C   C2132     1.0  0.17527  0.89184  0.43173  1.0000
  H   H2563     1.0  0.15044  0.88849  0.43332  1.0000
  C   C2133     1.0  0.08060  0.76924  0.55516  1.0000
  H   H2564     1.0  0.47066  0.68999  0.55557  1.0000
  S   S595      1.0  0.45880  0.82423  0.38787  1.0000
  H   H2565     1.0  0.01460  0.68062  0.45268  1.0000
  C   C2134     1.0  0.00183  0.77616  0.56779  1.0000
  H   H2566     1.0  0.18884  0.93036  0.40215  1.0000
  H   H2567     1.0  0.19744  0.49417  0.56034  1.0000
  H   H2568     1.0  0.45860  0.70773  0.53097  1.0000
  H   H2569     1.0  0.32457  0.65970  0.52484  1.0000
  C   C2135     1.0  0.18465  0.51193  0.40575  1.0000
  C   C2136     1.0  0.23823  0.97595  0.54287  1.0000
  S   S596      1.0  0.07163  0.69031  0.54991  1.0000
  H   H2570     1.0  0.40974  0.70259  0.40935  1.0000
  N   N143      1.0  0.33956  0.88305  0.47596  1.0000
  C   C2137     1.0  0.01404  0.78197  0.49818  1.0000
  C   C2138     1.0  0.45532  0.82149  0.42182  1.0000
  C   C2139     1.0  0.17757  0.62035  0.43233  1.0000
  N   N144      1.0  0.13051  0.98311  0.49265  1.0000
  C   C2140     1.0  0.39959  0.65124  0.58013  1.0000
  H   H2571     1.0  0.37738  0.84334  0.58484  1.0000
  C   C2141     1.0  0.18665  0.89379  0.44014  1.0000
  C   C2142     1.0  0.08523  0.79758  0.55164  1.0000
  N   N145      1.0  0.13573  0.88723  0.46705  1.0000
  S   S597      1.0  0.09587  0.85324  0.56102  1.0000
  C   C2143     1.0  0.07448  0.80459  0.48013  1.0000
  H   H2572     1.0  0.12206  0.54289  0.46673  1.0000
  H   H2573     1.0  0.14076  0.52203  0.48580  1.0000
  S   S598      1.0  0.11760  0.69820  0.54506  1.0000
  C   C2144     1.0  0.33789  0.89019  0.45812  1.0000
  H   H2574     1.0  0.28946  0.51662  0.41935  1.0000
  C   C2145     1.0  0.16809  0.50907  0.40953  1.0000
  H   H2575     1.0  0.40651  0.62091  0.55810  1.0000
  C   C2146     1.0  0.02757  0.70365  0.52461  1.0000
  S   S599      1.0  0.03946  0.71942  0.51910  1.0000
  H   H2576     1.0  0.07901  0.83731  0.47621  1.0000
  C   C2147     1.0  0.07904  0.72057  0.44490  1.0000
  H   H2577     1.0  0.04649  0.89911  0.40291  1.0000
  H   H2578     1.0  0.32214  0.87723  0.50010  1.0000
  S   S600      1.0  0.12251  0.49519  0.53533  1.0000
  H   H2579     1.0  0.10982  0.90117  0.46646  1.0000
  H   H2580     1.0  0.14128  0.87437  0.49158  1.0000
  S   S601      1.0  0.37576  0.82772  0.42624  1.0000
  H   H2581     1.0  0.11654  0.93288  0.57081  1.0000
  N   N146      1.0  0.11667  0.51930  0.48298  1.0000
  S   S602      1.0  0.24750  0.49464  0.51512  1.0000
  H   H2582     1.0  0.23265  0.96451  0.54646  1.0000
  H   H2583     1.0  0.06638  0.76836  0.51940  1.0000
  H   H2584     1.0  0.00934  0.73607  0.54451  1.0000
  C   C2148     1.0  0.19229  0.50020  0.54870  1.0000
  N   N147      1.0  0.29928  0.58084  0.45648  1.0000
  C   C2149     1.0  0.31391  0.58470  0.46060  1.0000
  C   C2150     1.0  0.30088  0.56224  0.46147  1.0000
  C   C2151     1.0  0.30103  0.58629  0.43789  1.0000
  C   C2152     1.0  0.28229  0.58922  0.46505  1.0000
  C   C2153     1.0  0.28015  0.59894  0.47719  1.0000
  C   C2154     1.0  0.26715  0.58756  0.46147  1.0000
  C   C2155     1.0  0.26384  0.60679  0.48488  1.0000
  C   C2156     1.0  0.25095  0.59556  0.46914  1.0000
  C   C2157     1.0  0.24930  0.60515  0.48084  1.0000
  H   H2585     1.0  0.32643  0.57855  0.45345  1.0000
  H   H2586     1.0  0.31356  0.59854  0.45708  1.0000
  H   H2587     1.0  0.29863  0.55778  0.47546  1.0000
  H   H2588     1.0  0.31387  0.55530  0.45611  1.0000
  H   H2589     1.0  0.29157  0.55813  0.45702  1.0000
  H   H2590     1.0  0.29943  0.60029  0.43366  1.0000
  H   H2591     1.0  0.31376  0.58042  0.43109  1.0000
  H   H2592     1.0  0.29160  0.58254  0.43327  1.0000
  H   H2593     1.0  0.29084  0.60071  0.48095  1.0000
  H   H2594     1.0  0.26774  0.58014  0.45258  1.0000
  H   H2595     1.0  0.26235  0.61415  0.49416  1.0000
  H   H2596     1.0  0.23964  0.59437  0.46592  1.0000
  H   H2597     1.0  0.23672  0.61125  0.48693  1.0000
  N   N148      1.0  0.41066  0.92113  0.55355  1.0000
  C   C2158     1.0  0.40793  0.92311  0.57107  1.0000
  H   H2598     1.0  0.34519  0.85170  0.43720  1.0000
  C   C2159     1.0  0.40919  0.93824  0.54219  1.0000
  C   C2160     1.0  0.39789  0.91207  0.55303  1.0000
  H   H2599     1.0  0.44521  0.81489  0.42388  1.0000
  C   C2161     1.0  0.38222  0.92075  0.54798  1.0000
  N   N149      1.0  0.08802  0.81739  0.49614  1.0000
  C   C2162     1.0  0.00506  0.82903  0.49773  1.0000
  C   C2163     1.0  0.47150  0.72524  0.39198  1.0000
  H   H2600     1.0  0.15717  0.97243  0.49238  1.0000
  C   C2164     1.0  0.41716  0.74243  0.40074  1.0000
  H   H2601     1.0  0.15078  0.55156  0.38716  1.0000
  C   C2165     1.0  0.48921  0.72226  0.38634  1.0000
  H   H2602     1.0  0.01070  0.85716  0.55455  1.0000
  N   N150      1.0  0.00526  0.81381  0.49184  1.0000
  S   S603      1.0  0.07154  0.68718  0.39615  1.0000
  H   H2603     1.0  0.41976  0.94430  0.54159  1.0000
  H   H2604     1.0  0.00978  0.66588  0.40660  1.0000
  C   C2166     1.0  0.09118  0.83018  0.48013  1.0000
  H   H2605     1.0  0.37892  0.93435  0.54384  1.0000
  H   H2606     1.0  0.12520  0.91407  0.46264  1.0000
  C   C2167     1.0  0.46378  0.71249  0.40335  1.0000
  H   H2607     1.0  0.14963  0.67485  0.54733  1.0000
  H   H2608     1.0  0.15232  0.49338  0.40794  1.0000
  N   N151      1.0  0.30209  0.52576  0.57306  1.0000
  C   C2168     1.0  0.12374  0.55264  0.39617  1.0000
  C   C2169     1.0  0.07973  0.80435  0.49495  1.0000
  C   C2170     1.0  0.06869  0.77844  0.50837  1.0000
  H   H2609     1.0  0.36270  0.90900  0.58489  1.0000
  H   H2610     1.0  0.25728  0.96915  0.56555  1.0000
  Fe  Fe307     1.0  0.05376  0.67667  0.38797  1.0000
  H   H2611     1.0  0.31050  0.52931  0.54594  1.0000
  H   H2612     1.0  0.48506  0.78455  0.52394  1.0000
  C   C2171     1.0  0.09169  0.78041  0.55115  1.0000
  C   C2172     1.0  0.14955  0.88607  0.57932  1.0000
  H   H2613     1.0  0.22418  0.49272  0.44544  1.0000
  H   H2614     1.0  0.26652  0.54297  0.41240  1.0000
  H   H2615     1.0  0.09648  0.55486  0.40110  1.0000
  H   H2616     1.0  0.40949  0.93757  0.52908  1.0000
  H   H2617     1.0  0.07797  0.62412  0.40791  1.0000
  H   H2618     1.0  0.28876  0.62148  0.54774  1.0000
  H   H2619     1.0  0.26603  0.62456  0.55279  1.0000
  N   N152      1.0  0.38772  0.75270  0.45373  1.0000
  C   C2173     1.0  0.38452  0.75693  0.43637  1.0000
  C   C2174     1.0  0.40651  0.74816  0.45234  1.0000
  C   C2175     1.0  0.38053  0.73759  0.46321  1.0000
  C   C2176     1.0  0.38013  0.76673  0.46281  1.0000
  C   C2177     1.0  0.38099  0.76426  0.47997  1.0000
  C   C2178     1.0  0.37194  0.78313  0.45505  1.0000
  C   C2179     1.0  0.37356  0.77715  0.48895  1.0000
  C   C2180     1.0  0.36461  0.79595  0.46416  1.0000
  C   C2181     1.0  0.36532  0.79294  0.48109  1.0000
  H   H2620     1.0  0.37059  0.76058  0.43648  1.0000
  H   H2621     1.0  0.39077  0.76733  0.42801  1.0000
  H   H2622     1.0  0.38990  0.74596  0.43010  1.0000
  H   H2623     1.0  0.41245  0.75918  0.44538  1.0000
  H   H2624     1.0  0.41271  0.73775  0.44538  1.0000
  H   H2625     1.0  0.41000  0.74356  0.46491  1.0000
  H   H2626     1.0  0.36631  0.74069  0.46545  1.0000
  H   H2627     1.0  0.38540  0.72706  0.45630  1.0000
  H   H2628     1.0  0.38415  0.73217  0.47567  1.0000
  H   H2629     1.0  0.38737  0.75228  0.48665  1.0000
  H   H2630     1.0  0.37101  0.78647  0.44194  1.0000
  H   H2631     1.0  0.37418  0.77482  0.50213  1.0000
  H   H2632     1.0  0.35833  0.80832  0.45798  1.0000
  H   H2633     1.0  0.35946  0.80286  0.48812  1.0000
  S   S604      1.0  0.28460  0.49803  0.53350  1.0000
  C   C2182     1.0  0.30234  0.65070  0.54089  1.0000
  C   C2183     1.0  0.11565  0.49599  0.47006  1.0000
  C   C2184     1.0  0.09988  0.50117  0.56464  1.0000
  H   H2634     1.0  0.15464  0.50559  0.53720  1.0000
  C   C2185     1.0  0.24332  0.97334  0.57049  1.0000
  H   H2635     1.0  0.41445  0.57180  0.57766  1.0000
  C   C2186     1.0  0.46250  0.73864  0.55787  1.0000
  H   H2636     1.0  0.14013  0.91140  0.56790  1.0000
  C   C2187     1.0  0.16146  0.52076  0.56716  1.0000
  H   H2637     1.0  0.14267  0.50571  0.47507  1.0000
  C   C2188     1.0  0.35744  0.83654  0.40126  1.0000
  H   H2638     1.0  0.12081  0.61543  0.57317  1.0000
  S   S605      1.0  0.04283  0.66358  0.41417  1.0000
  H   H2639     1.0  0.07957  0.79022  0.52092  1.0000
  C   C2189     1.0  0.99969  0.76282  0.40050  1.0000
  C   C2190     1.0  0.41662  0.72566  0.40921  1.0000
  C   C2191     1.0  0.10741  0.52860  0.49667  1.0000
  H   H2640     1.0  0.06117  0.93639  0.40725  1.0000
  H   H2641     1.0  0.06070  0.70799  0.48696  1.0000
  H   H2642     1.0  0.06246  0.81677  0.55672  1.0000
  Fe  Fe308     1.0  0.05005  0.70986  0.39870  1.0000
  C   C2192     1.0  0.34519  0.89560  0.48148  1.0000
  N   N153      1.0  0.46493  0.68314  0.42162  1.0000
  C   C2193     1.0  0.41074  0.74921  0.38603  1.0000
  C   C2194     1.0  0.45583  0.68930  0.43733  1.0000
  H   H2643     1.0  0.04295  0.65836  0.47190  1.0000
  C   C2195     1.0  0.47351  0.69627  0.40934  1.0000
  H   H2644     1.0  0.42124  0.72054  0.42076  1.0000
  Fe  Fe309     1.0  0.34604  0.57974  0.57721  1.0000
  H   H2645     1.0  0.13351  0.63103  0.56271  1.0000
  H   H2646     1.0  0.47011  0.65721  0.43567  1.0000
  H   H2647     1.0  0.48646  0.66844  0.43273  1.0000
  C   C2196     1.0  0.22774  0.90829  0.38534  1.0000
  H   H2648     1.0  0.24002  0.96438  0.49195  1.0000
  H   H2649     1.0  0.11288  0.59072  0.40245  1.0000
  H   H2650     1.0  0.48870  0.80050  0.41771  1.0000
  H   H2651     1.0  0.36758  0.82786  0.39486  1.0000
  C   C2197     1.0  0.45228  0.65050  0.57354  1.0000
  H   H2652     1.0  0.01644  0.89409  0.58109  1.0000
  S   S606      1.0  0.31317  0.86846  0.39193  1.0000
  Fe  Fe310     1.0  0.42038  0.78279  0.39864  1.0000
  H   H2653     1.0  0.41555  0.63927  0.55246  1.0000
  C   C2198     1.0  0.02120  0.76652  0.50779  1.0000
  H   H2654     1.0  0.10176  0.90647  0.39444  1.0000
  C   C2199     1.0  0.07219  0.73821  0.44361  1.0000
  H   H2655     1.0  0.23289  0.98456  0.53202  1.0000
  C   C2200     1.0  0.07504  0.61685  0.40069  1.0000
  H   H2656     1.0  0.21931  0.51829  0.45664  1.0000
  H   H2657     1.0  0.08309  0.92886  0.40939  1.0000
  H   H2658     1.0  0.47355  0.50157  0.56735  1.0000
  C   C2201     1.0  0.14275  0.66987  0.54126  1.0000
  H   H2659     1.0  0.11340  0.80181  0.49155  1.0000
  H   H2660     1.0  0.09729  0.83987  0.48149  1.0000
  S   S607      1.0  0.17235  0.96675  0.56099  1.0000
  C   C2202     1.0  0.16530  0.89118  0.46638  1.0000
  C   C2203     1.0  0.12330  0.90231  0.46042  1.0000
  H   H2661     1.0  0.38371  0.51382  0.55919  1.0000
  C   C2204     1.0  0.29111  0.50433  0.41665  1.0000
  C   C2205     1.0  0.46581  0.72431  0.55113  1.0000
  C   C2206     1.0  0.07693  0.82652  0.50934  1.0000
  H   H2662     1.0  0.12443  0.90171  0.51703  1.0000
  S   S608      1.0  0.05313  0.88808  0.57081  1.0000
  H   H2663     1.0  0.16234  0.89107  0.47973  1.0000
  H   H2664     1.0  0.06379  0.83166  0.50702  1.0000
  H   H2665     1.0  0.27574  0.63945  0.53602  1.0000
  H   H2666     1.0  0.31765  0.87172  0.48275  1.0000
  H   H2667     1.0  0.07574  0.81821  0.52214  1.0000
  C   C2207     1.0  0.11893  0.98783  0.48068  1.0000
  H   H2668     1.0  0.09978  0.82422  0.46968  1.0000
  C   C2208     1.0  0.06188  0.91731  0.38636  1.0000
  H   H2669     1.0  0.00164  0.72873  0.38576  1.0000
  S   S609      1.0  0.39527  0.79828  0.39257  1.0000
  H   H2670     1.0  0.08427  0.68979  0.43652  1.0000
  S   S610      1.0  0.16323  0.56987  0.40834  1.0000
  N   N154      1.0  0.15384  0.61174  0.47833  1.0000
  C   C2209     1.0  0.14014  0.60485  0.47613  1.0000
  C   C2210     1.0  0.15931  0.60137  0.49408  1.0000
  C   C2211     1.0  0.14658  0.62932  0.48076  1.0000
  C   C2212     1.0  0.16793  0.61178  0.46312  1.0000
  C   C2213     1.0  0.18518  0.60337  0.46378  1.0000
  C   C2214     1.0  0.16457  0.62036  0.44692  1.0000
  C   C2215     1.0  0.19808  0.60344  0.44907  1.0000
  H   H2671     1.0  0.14550  0.59240  0.47248  1.0000
  H   H2672     1.0  0.13015  0.60289  0.48795  1.0000
  H   H2673     1.0  0.13337  0.61338  0.46626  1.0000
  H   H2674     1.0  0.16481  0.58793  0.49315  1.0000
  H   H2675     1.0  0.14842  0.60133  0.50528  1.0000
  H   H2676     1.0  0.16883  0.60651  0.49711  1.0000
  H   H2677     1.0  0.15652  0.63497  0.48243  1.0000
  H   H2678     1.0  0.14118  0.63776  0.46991  1.0000
  H   H2679     1.0  0.13608  0.62977  0.49227  1.0000
  H   H2680     1.0  0.18903  0.59652  0.47548  1.0000
  H   H2681     1.0  0.15178  0.62691  0.44533  1.0000
  H   H2682     1.0  0.21109  0.59677  0.44980  1.0000
  C   C2216     1.0  0.35506  0.85828  0.49468  1.0000
  C   C2217     1.0  0.36628  0.84251  0.49744  1.0000
  C   C2218     1.0  0.37425  0.83427  0.48415  1.0000
  H   H2683     1.0  0.15027  0.53979  0.58204  1.0000
  H   H2684     1.0  0.34887  0.86402  0.50545  1.0000
  H   H2685     1.0  0.36863  0.83663  0.51001  1.0000
  H   H2686     1.0  0.09246  0.51104  0.55657  1.0000
  S   S611      1.0  0.42149  0.79865  0.41579  1.0000
  H   H2687     1.0  0.22443  0.93169  0.55099  1.0000
  H   H2688     1.0  0.32511  0.67772  0.54334  1.0000
  C   C2219     1.0  0.32235  0.88118  0.48631  1.0000
  H   H2689     1.0  0.21288  0.50939  0.41781  1.0000
  C   C2220     1.0  0.47668  0.77427  0.41301  1.0000
  C   C2221     1.0  0.10478  0.80925  0.50088  1.0000
  Fe  Fe311     1.0  0.08892  0.70664  0.54991  1.0000
  H   H2690     1.0  0.20142  0.49475  0.53819  1.0000
  H   H2691     1.0  0.12454  0.90421  0.44661  1.0000
  H   H2692     1.0  0.17918  0.89217  0.41823  1.0000
  Fe  Fe312     1.0  0.05568  0.71460  0.53810  1.0000
  C   C2222     1.0  0.09415  0.50124  0.49514  1.0000
  N   N155      1.0  0.07453  0.91451  0.39679  1.0000
  N   N156      1.0  0.38533  0.52146  0.58117  1.0000
  C   C2223     1.0  0.09188  0.90815  0.38719  1.0000
  C   C2224     1.0  0.07427  0.93071  0.40085  1.0000
  H   H2693     1.0  0.13456  0.50252  0.49750  1.0000
  C   C2225     1.0  0.13638  0.89972  0.57489  1.0000
  C   C2226     1.0  0.10875  0.50557  0.48283  1.0000
  S   S612      1.0  0.13009  0.97424  0.38769  1.0000
  C   C2227     1.0  0.22997  0.50781  0.45908  1.0000
  C   C2228     1.0  0.02603  0.78130  0.52631  1.0000
  H   H2694     1.0  0.12554  0.52648  0.45579  1.0000
  H   H2695     1.0  0.45841  0.67553  0.40214  1.0000
  C   C2229     1.0  0.11776  0.86153  0.39208  1.0000
  H   H2696     1.0  0.10536  0.77571  0.54756  1.0000
  H   H2697     1.0  0.10626  0.61015  0.40983  1.0000
  H   H2698     1.0  0.23058  0.97581  0.39920  1.0000
  C   C2230     1.0  0.10807  0.51172  0.39377  1.0000
  H   H2699     1.0  0.39071  0.87184  0.56252  1.0000
  H   H2700     1.0  0.37074  0.54086  0.56470  1.0000
  C   C2231     1.0  0.21557  0.98647  0.56450  1.0000
  C   C2232     1.0  0.02721  0.76620  0.52180  1.0000
  H   H2701     1.0  0.32500  0.51382  0.55743  1.0000
  C   C2233     1.0  0.04848  0.90832  0.39116  1.0000
  C   C2234     1.0  0.25486  0.49537  0.47141  1.0000
  H   H2702     1.0  0.43029  0.90766  0.53629  1.0000
  C   C2235     1.0  0.05134  0.77839  0.40513  1.0000
  H   H2703     1.0  0.11792  0.51374  0.41412  1.0000
  H   H2704     1.0  0.01845  0.80799  0.52104  1.0000
  H   H2705     1.0  0.05871  0.90608  0.42115  1.0000
  H   H2706     1.0  0.03008  0.66190  0.54329  1.0000
  S   S613      1.0  0.04018  0.72027  0.56282  1.0000
  H   H2707     1.0  0.00624  0.72010  0.51438  1.0000
  H   H2708     1.0  0.47211  0.71784  0.51269  1.0000
  C   C2236     1.0  0.06754  0.80355  0.55629  1.0000
  H   H2709     1.0  0.25221  0.97159  0.53825  1.0000
  Fe  Fe313     1.0  0.18425  0.94006  0.55801  1.0000
  C   C2237     1.0  0.35823  0.83886  0.41684  1.0000
  H   H2710     1.0  0.19931  0.89558  0.43316  1.0000
  H   H2711     1.0  0.01926  0.66702  0.50411  1.0000
  H   H2712     1.0  0.49304  0.68691  0.55494  1.0000
  C   C2238     1.0  0.46082  0.82286  0.43564  1.0000
  H   H2713     1.0  0.21395  0.96781  0.41535  1.0000
  H   H2714     1.0  0.26402  0.50545  0.42141  1.0000
  N   N157      1.0  0.27575  0.64163  0.56102  1.0000
  H   H2715     1.0  0.35862  0.89645  0.47500  1.0000
  S   S614      1.0  0.32697  0.60369  0.57001  1.0000
  C   C2239     1.0  0.15439  0.49329  0.57987  1.0000
  H   H2716     1.0  0.15213  0.96807  0.43808  1.0000
  S   S615      1.0  0.16116  0.93637  0.55178  1.0000
  H   H2717     1.0  0.24224  0.53013  0.41449  1.0000
  C   C2240     1.0  0.42845  0.91149  0.54845  1.0000
  H   H2718     1.0  0.41136  0.88671  0.56369  1.0000
  H   H2719     1.0  0.10351  0.80049  0.51351  1.0000
  H   H2720     1.0  0.11138  0.81876  0.50179  1.0000
  H   H2721     1.0  0.47557  0.77395  0.50494  1.0000
  C   C2241     1.0  0.48225  0.83768  0.41658  1.0000
  C   C2242     1.0  0.03414  0.68729  0.53295  1.0000
  H   H2722     1.0  0.48404  0.66122  0.41534  1.0000
  C   C2243     1.0  0.22196  0.50183  0.40886  1.0000
  C   C2244     1.0  0.11439  0.50531  0.40855  1.0000
  C   C2245     1.0  0.06295  0.77518  0.55984  1.0000
  Fe  Fe314     1.0  0.15057  0.96377  0.55187  1.0000
  S   S616      1.0  0.48194  0.83156  0.45026  1.0000
  H   H2723     1.0  0.03512  0.70337  0.46972  1.0000
  H   H2724     1.0  0.09964  0.93782  0.55995  1.0000
  Fe  Fe315     1.0  0.43542  0.81374  0.39233  1.0000
  S   S617      1.0  0.05561  0.73612  0.38859  1.0000
  H   H2725     1.0  0.32901  0.90286  0.45668  1.0000
  H   H2726     1.0  0.23458  0.50523  0.40655  1.0000
  Fe  Fe316     1.0  0.05747  0.69729  0.57463  1.0000
  C   C2246     1.0  0.37110  0.84183  0.46805  1.0000
  H   H2727     1.0  0.01824  0.82998  0.49746  1.0000
  C   C2247     1.0  0.33118  0.94965  0.57644  1.0000
  H   H2728     1.0  0.05639  0.75817  0.45604  1.0000
  H   H2729     1.0  0.49324  0.77196  0.47629  1.0000
  C   C2248     1.0  0.30756  0.49457  0.41230  1.0000
  N   N158      1.0  0.17480  0.49751  0.55102  1.0000
  H   H2730     1.0  0.23838  0.96154  0.57627  1.0000
  H   H2731     1.0  0.18628  0.52242  0.40984  1.0000
  H   H2732     1.0  0.24952  0.59020  0.58028  1.0000
  C   C2249     1.0  0.47182  0.70636  0.52311  1.0000
  H   H2733     1.0  0.09012  0.71446  0.40446  1.0000
  C   C2250     1.0  0.47030  0.74633  0.42104  1.0000
  S   S618      1.0  0.26976  0.93072  0.57894  1.0000
  H   H2734     1.0  0.12700  0.49822  0.46053  1.0000
  H   H2735     1.0  0.10512  0.65212  0.56559  1.0000
  C   C2251     1.0  0.14800  0.97587  0.48395  1.0000
  C   C2252     1.0  0.38824  0.88554  0.55862  1.0000
  S   S619      1.0  0.15091  0.92491  0.40599  1.0000
  S   S620      1.0  0.12195  0.97057  0.55961  1.0000
  C   C2253     1.0  0.36050  0.95412  0.58341  1.0000
  H   H2736     1.0  0.44533  0.70062  0.43520  1.0000
  H   H2737     1.0  0.00013  0.66571  0.49914  1.0000
  H   H2738     1.0  0.20857  0.97458  0.49784  1.0000
  C   C2254     1.0  0.14267  0.97039  0.41592  1.0000
  C   C2255     1.0  0.40382  0.72221  0.38803  1.0000
  C   C2256     1.0  0.13047  0.67610  0.58429  1.0000
  C   C2257     1.0  0.47684  0.83622  0.40277  1.0000
  C   C2258     1.0  0.49762  0.77677  0.48468  1.0000
  H   H2739     1.0  0.01062  0.82793  0.46613  1.0000
  C   C2259     1.0  0.10536  0.85271  0.40255  1.0000
  H   H2740     1.0  0.16267  0.88765  0.57571  1.0000
  C   C2260     1.0  0.00903  0.86591  0.57686  1.0000
  H   H2741     1.0  0.44594  0.66930  0.42305  1.0000
  Fe  Fe317     1.0  0.39659  0.68222  0.39223  1.0000
  S   S621      1.0  0.42154  0.66479  0.39637  1.0000
  H   H2742     1.0  0.08114  0.90039  0.42064  1.0000
  H   H2743     1.0  0.38456  0.57384  0.57622  1.0000
  H   H2744     1.0  0.39862  0.55799  0.40565  1.0000
  H   H2745     1.0  0.43192  0.89991  0.55811  1.0000
  Fe  Fe318     1.0  0.30909  0.92820  0.39026  1.0000
  H   H2746     1.0  0.31284  0.89334  0.48456  1.0000
  C   C2261     1.0  0.34487  0.85010  0.42501  1.0000
  H   H2747     1.0  0.02909  0.81474  0.47365  1.0000
  H   H2748     1.0  0.18367  0.98582  0.41843  1.0000
  H   H2749     1.0  0.33688  0.90849  0.47890  1.0000
  H   H2750     1.0  0.35830  0.91884  0.54410  1.0000
  H   H2751     1.0  0.12665  0.64924  0.39919  1.0000
  C   C2262     1.0  0.23830  0.91520  0.39084  1.0000
  H   H2752     1.0  0.07246  0.88921  0.41102  1.0000
  H   H2753     1.0  0.04667  0.68423  0.53579  1.0000
  H   H2754     1.0  0.25206  0.91104  0.38749  1.0000
  H   H2755     1.0  0.32768  0.63033  0.40292  1.0000
  C   C2263     1.0  0.28987  0.54244  0.57115  1.0000
  H   H2756     1.0  0.08819  0.50752  0.50556  1.0000
  C   C2264     1.0  0.47479  0.74834  0.55384  1.0000
  H   H2757     1.0  0.02876  0.75728  0.44088  1.0000
  S   S622      1.0  0.07573  0.71220  0.57558  1.0000
  H   H2758     1.0  0.26709  0.62173  0.58143  1.0000
  C   C2265     1.0  0.46305  0.52339  0.57853  1.0000
  H   H2759     1.0  0.12634  0.68972  0.58027  1.0000
  H   H2760     1.0  0.13316  0.96485  0.51601  1.0000
  H   H2761     1.0  0.45013  0.74257  0.56587  1.0000
  H   H2762     1.0  0.47402  0.89281  0.55942  1.0000
  H   H2763     1.0  0.03549  0.73624  0.42299  1.0000
  H   H2764     1.0  0.11586  0.71602  0.41475  1.0000
  C   C2266     1.0  0.25001  0.92738  0.57809  1.0000
  C   C2267     1.0  0.10659  0.72076  0.42566  1.0000
  H   H2765     1.0  0.35039  0.89197  0.44960  1.0000
  C   C2268     1.0  0.31482  0.66037  0.53636  1.0000
  H   H2766     1.0  0.39736  0.49864  0.57172  1.0000
  C   C2269     1.0  0.23976  0.54279  0.41657  1.0000
  C   C2270     1.0  0.40026  0.89422  0.55885  1.0000
  H   H2767     1.0  0.02228  0.75471  0.50429  1.0000
  H   H2768     1.0  0.10667  0.52511  0.38857  1.0000
  H   H2769     1.0  0.10590  0.90196  0.55243  1.0000
  H   H2770     1.0  0.21970  0.98688  0.41560  1.0000
  Fe  Fe319     1.0  0.05983  0.73472  0.56105  1.0000
  C   C2271     1.0  0.31516  0.67054  0.54679  1.0000
  C   C2272     1.0  0.08769  0.61019  0.38758  1.0000
  C   C2273     1.0  0.01537  0.81550  0.47419  1.0000
  H   H2771     1.0  0.11304  0.71689  0.43652  1.0000
  C   C2274     1.0  0.37009  0.91196  0.54817  1.0000
  C   C2275     1.0  0.11430  0.96657  0.58155  1.0000
  C   C2276     1.0  0.49392  0.76734  0.41470  1.0000
  H   H2772     1.0  0.04380  0.67450  0.48161  1.0000
  C   C2277     1.0  0.11914  0.89788  0.57886  1.0000
  C   C2278     1.0  0.16794  0.50702  0.53578  1.0000
  N   N159      1.0  0.10495  0.91183  0.57377  1.0000
  C   C2279     1.0  0.20259  0.92605  0.39908  1.0000
  H   H2773     1.0  0.28579  0.51581  0.56386  1.0000
  H   H2774     1.0  0.48066  0.81477  0.58160  1.0000
  C   C2280     1.0  0.48770  0.77789  0.50078  1.0000
  C   C2281     1.0  0.11307  0.60447  0.39869  1.0000
  H   H2775     1.0  0.11363  0.53886  0.49642  1.0000
  H   H2776     1.0  0.49267  0.84392  0.41446  1.0000
  C   C2282     1.0  0.23104  0.92779  0.40016  1.0000
  H   H2777     1.0  0.32987  0.87145  0.57123  1.0000
  H   H2778     1.0  0.45210  0.76933  0.41464  1.0000
  C   C2283     1.0  0.37603  0.62107  0.58301  1.0000
  H   H2779     1.0  0.37767  0.56627  0.38829  1.0000
  H   H2780     1.0  0.16752  0.52080  0.53325  1.0000
  H   H2781     1.0  0.00658  0.64758  0.58090  1.0000
  H   H2782     1.0  0.06966  0.71682  0.41877  1.0000
  S   S623      1.0  0.42611  0.75446  0.40881  1.0000
  S   S624      1.0  0.31324  0.57928  0.39295  1.0000
  H   H2783     1.0  0.29639  0.55307  0.56879  1.0000
  H   H2784     1.0  0.08574  0.75603  0.55474  1.0000
  C   C2284     1.0  0.21711  0.92419  0.57811  1.0000
  C   C2285     1.0  0.46353  0.82795  0.40537  1.0000
  H   H2785     1.0  0.04933  0.73873  0.48379  1.0000
  C   C2286     1.0  0.49137  0.50612  0.57907  1.0000
  C   C2287     1.0  0.49332  0.78409  0.51166  1.0000
  C   C2288     1.0  0.01188  0.67187  0.46518  1.0000
  C   C2289     1.0  0.47694  0.66683  0.42648  1.0000
  C   C2290     1.0  0.47434  0.83088  0.43303  1.0000
  H   H2786     1.0  0.45093  0.52614  0.57478  1.0000
  H   H2787     1.0  0.09078  0.96146  0.58010  1.0000
  H   H2788     1.0  0.30126  0.49999  0.57352  1.0000
  C   C2291     1.0  0.16353  0.50372  0.56604  1.0000
  C   C2292     1.0  0.41183  0.57807  0.39216  1.0000
  S   S625      1.0  0.49010  0.84257  0.53488  1.0000
  H   H2789     1.0  0.45253  0.88399  0.58252  1.0000
  H   H2790     1.0  0.33239  0.88207  0.45346  1.0000
  H   H2791     1.0  0.01325  0.77596  0.57178  1.0000
  S   S626      1.0  0.05457  0.82847  0.39729  1.0000
  C   C2293     1.0  0.08243  0.72012  0.41544  1.0000
  C   C2294     1.0  0.48166  0.71923  0.54013  1.0000
  S   S627      1.0  0.19635  0.92214  0.57877  1.0000
  H   H2792     1.0  0.11989  0.92542  0.55165  1.0000
  H   H2793     1.0  0.01950  0.65085  0.49386  1.0000
  C   C2295     1.0  0.05511  0.76647  0.39501  1.0000
  H   H2794     1.0  0.10308  0.68993  0.44334  1.0000
  H   H2795     1.0  0.32331  0.53574  0.55622  1.0000
  H   H2796     1.0  0.41923  0.50230  0.58019  1.0000
  C   C2296     1.0  0.01139  0.69377  0.47902  1.0000
  H   H2797     1.0  0.10404  0.69095  0.42168  1.0000
  H   H2798     1.0  0.45011  0.71553  0.40756  1.0000
  H   H2799     1.0  0.28385  0.54497  0.56015  1.0000
  H   H2800     1.0  0.04226  0.67930  0.45969  1.0000
  H   H2801     1.0  0.28107  0.66266  0.57813  1.0000
  H   H2802     1.0  0.30321  0.64281  0.53238  1.0000
  H   H2803     1.0  0.13164  0.88049  0.38934  1.0000
  C   C2297     1.0  0.11523  0.49125  0.55742  1.0000
  N   N160      1.0  0.09074  0.71419  0.43014  1.0000
  C   C2298     1.0  0.14716  0.97673  0.42754  1.0000
  C   C2299     1.0  0.28950  0.65126  0.55601  1.0000
  H   H2804     1.0  0.40413  0.51761  0.55836  1.0000
  H   H2805     1.0  0.47173  0.78773  0.40922  1.0000
  H   H2806     1.0  0.01102  0.75121  0.56386  1.0000
  Fe  Fe320     1.0  0.02381  0.68831  0.41501  1.0000
  H   H2807     1.0  0.47201  0.75967  0.55877  1.0000
  C   C2300     1.0  0.09404  0.49829  0.58229  1.0000
  C   C2301     1.0  0.05643  0.79235  0.56039  1.0000
  C   C2302     1.0  0.24087  0.50867  0.46862  1.0000
  H   H2808     1.0  0.45574  0.71735  0.55442  1.0000
  S   S628      1.0  0.04874  0.76147  0.56485  1.0000
  S   S629      1.0  0.03327  0.70055  0.38795  1.0000
  S   S630      1.0  0.28557  0.58776  0.57401  1.0000
  H   H2809     1.0  0.30344  0.67894  0.56997  1.0000
  H   H2810     1.0  0.49125  0.72544  0.42613  1.0000
  C   C2303     1.0  0.10805  0.55579  0.39145  1.0000
  C   C2304     1.0  0.39309  0.51250  0.56701  1.0000
  C   C2305     1.0  0.02144  0.70625  0.47433  1.0000
  H   H2811     1.0  0.44972  0.67952  0.44713  1.0000
  C   C2306     1.0  0.31577  0.52617  0.55751  1.0000
  H   H2812     1.0  0.10411  0.53685  0.46383  1.0000
  H   H2813     1.0  0.47458  0.70458  0.58450  1.0000
  H   H2814     1.0  0.36376  0.88766  0.55344  1.0000
  C   C2307     1.0  0.01886  0.79682  0.51683  1.0000
  C   C2308     1.0  0.49049  0.74368  0.54314  1.0000
  H   H2815     1.0  0.41764  0.92922  0.57249  1.0000
  H   H2816     1.0  0.44474  0.85996  0.57680  1.0000
  H   H2817     1.0  0.15745  0.51744  0.41599  1.0000
  C   C2309     1.0  0.48717  0.73910  0.42256  1.0000
  H   H2818     1.0  0.39307  0.64205  0.55523  1.0000
  H   H2819     1.0  0.06977  0.51042  0.38651  1.0000
  H   H2820     1.0  0.16781  0.52951  0.55703  1.0000
  C   C2310     1.0  0.45226  0.67954  0.41434  1.0000
  H   H2821     1.0  0.40976  0.65753  0.57123  1.0000
  C   C2311     1.0  0.41009  0.71552  0.40283  1.0000
  H   H2822     1.0  0.42954  0.62766  0.57528  1.0000
  C   C2312     1.0  0.12783  0.62392  0.57530  1.0000
  H   H2823     1.0  0.43818  0.91897  0.54688  1.0000
  H   H2824     1.0  0.46119  0.73839  0.42350  1.0000
  H   H2825     1.0  0.44172  0.69071  0.41190  1.0000
  C   C2313     1.0  0.41804  0.62334  0.58390  1.0000
  C   C2314     1.0  0.11058  0.92761  0.56359  1.0000
  S   S631      1.0  0.33158  0.56294  0.57295  1.0000
  C   C2315     1.0  0.07450  0.70976  0.46095  1.0000
  C   C2316     1.0  0.49352  0.85673  0.54484  1.0000
  H   H2826     1.0  0.46365  0.73758  0.38780  1.0000
  H   H2827     1.0  0.14847  0.96419  0.47986  1.0000
  H   H2828     1.0  0.01759  0.65873  0.46327  1.0000
  C   C2317     1.0  0.01268  0.79763  0.50237  1.0000
  H   H2829     1.0  0.40879  0.91068  0.58015  1.0000
  H   H2830     1.0  0.19274  0.51382  0.54550  1.0000
  S   S632      1.0  0.30227  0.54613  0.38853  1.0000
  C   C2318     1.0  0.01391  0.72311  0.47535  1.0000
  H   H2831     1.0  0.09000  0.89580  0.57067  1.0000
  H   H2832     1.0  0.47385  0.69524  0.51744  1.0000
  C   C2319     1.0  0.10135  0.64443  0.57854  1.0000
  C   C2320     1.0  0.19879  0.50148  0.39694  1.0000
  H   H2833     1.0  0.48329  0.84113  0.39004  1.0000
  C   C2321     1.0  0.39925  0.56888  0.39519  1.0000
  H   H2834     1.0  0.48837  0.56138  0.58174  1.0000
  H   H2835     1.0  0.31973  0.94808  0.57384  1.0000
  H   H2836     1.0  0.47328  0.83700  0.57547  1.0000
  H   H2837     1.0  0.49573  0.82817  0.57341  1.0000
  H   H2838     1.0  0.02181  0.73242  0.47162  1.0000
  H   H2839     1.0  0.37103  0.54685  0.58323  1.0000
  H   H2840     1.0  0.35435  0.84696  0.56984  1.0000
  H   H2841     1.0  0.24815  0.64673  0.56568  1.0000
  H   H2842     1.0  0.09448  0.63530  0.57737  1.0000
  C   C2322     1.0  0.20992  0.91394  0.38914  1.0000
  H   H2843     1.0  0.08626  0.91677  0.55849  1.0000
  C   C2323     1.0  0.23275  0.49339  0.45275  1.0000
  H   H2844     1.0  0.99967  0.84099  0.48936  1.0000
  H   H2845     1.0  0.38981  0.54578  0.56647  1.0000
  C   C2324     1.0  0.10316  0.50119  0.38614  1.0000
  H   H2846     1.0  0.00139  0.72755  0.56665  1.0000
  C   C2325     1.0  0.49393  0.72937  0.53636  1.0000
  H   H2847     1.0  0.38710  0.65901  0.57728  1.0000
  H   H2848     1.0  0.37775  0.62153  0.56973  1.0000
  C   C2326     1.0  0.43032  0.67564  0.57725  1.0000
  H   H2849     1.0  0.17347  0.98379  0.39541  1.0000
  Fe  Fe321     1.0  0.13912  0.94659  0.38730  1.0000
  C   C2327     1.0  0.35354  0.85594  0.57728  1.0000
  H   H2850     1.0  0.99950  0.68497  0.58086  1.0000
  H   H2851     1.0  0.13862  0.61548  0.58096  1.0000
  C   C2328     1.0  0.25880  0.65352  0.56250  1.0000
  C   C2329     1.0  0.29026  0.66173  0.56637  1.0000
  C   C2330     1.0  0.48298  0.82714  0.58169  1.0000
  H   H2852     1.0  0.25783  0.66299  0.55042  1.0000
  C   C2331     1.0  0.33971  0.86970  0.57817  1.0000
  H   H2853     1.0  0.31848  0.98417  0.52256  1.0000
  C   C2332     1.0  0.18483  0.97754  0.38778  1.0000
  C   C2333     1.0  0.20154  0.97921  0.38732  1.0000
  H   H2854     1.0  0.09801  0.63740  0.39060  1.0000
  N   N161      1.0  0.40204  0.63355  0.57853  1.0000
  H   H2855     1.0  0.27930  0.54317  0.58255  1.0000
  H   H2856     1.0  0.24177  0.97982  0.58087  1.0000
  C   C2334     1.0  0.16517  0.49553  0.40500  1.0000
  H   H2857     1.0  0.25628  0.66062  0.57260  1.0000
  H   H2858     1.0  0.10942  0.67158  0.57812  1.0000
  C   C2335     1.0  0.27669  0.62984  0.57763  1.0000
  H   H2859     1.0  0.28950  0.62113  0.57722  1.0000
  H   H2860     1.0  0.41959  0.60967  0.58414  1.0000
  H   H2861     1.0  0.36143  0.51447  0.58396  1.0000
  S   S633      1.0  0.29409  0.48955  0.49581  1.0000
  H   H2862     1.0  0.32361  0.49622  0.58478  1.0000
  C   C2336     1.0  0.38719  0.57383  0.38503  1.0000
  Fe  Fe322     1.0  0.44886  0.94322  0.76895  1.0000
  S   S634      1.0  0.44897  0.92476  0.75414  1.0000
  S   S635      1.0  0.47448  0.94847  0.76667  1.0000
  H   H2863     1.0  0.48155  0.88707  0.60790  1.0000
  S   S636      1.0  0.40702  0.93436  0.76491  1.0000
  S   S637      1.0  0.05931  0.96794  0.75068  1.0000
  H   H2864     1.0  0.06983  0.53308  0.73601  1.0000
  Fe  Fe323     1.0  0.42771  0.94468  0.74441  1.0000
  S   S638      1.0  0.42972  0.95542  0.71639  1.0000
  H   H2865     1.0  0.02202  0.92915  0.63575  1.0000
  S   S639      1.0  0.42880  0.96365  0.75811  1.0000
  C   C2337     1.0  0.48070  0.53259  0.71592  1.0000
  C   C2338     1.0  0.49154  0.68589  0.59895  1.0000
  H   H2866     1.0  0.49808  0.97438  0.65372  1.0000
  H   H2867     1.0  0.12527  0.96501  0.61812  1.0000
  H   H2868     1.0  0.35363  0.61067  0.58856  1.0000
  S   S640      1.0  0.43019  0.58923  0.75063  1.0000
  C   C2339     1.0  0.46061  0.54125  0.75777  1.0000
  C   C2340     1.0  0.00902  0.93424  0.63414  1.0000
  H   H2869     1.0  0.05809  0.93209  0.76073  1.0000
  Fe  Fe324     1.0  0.05191  0.92523  0.68312  1.0000
  S   S641      1.0  0.04771  0.91832  0.71183  1.0000
  Fe  Fe325     1.0  0.05932  0.91022  0.65161  1.0000
  S   S642      1.0  0.05717  0.93565  0.63393  1.0000
  S   S643      1.0  0.06710  0.88611  0.64178  1.0000
  Fe  Fe326     1.0  0.07237  0.94130  0.64927  1.0000
  S   S644      1.0  0.07616  0.91517  0.66574  1.0000
  H   H2870     1.0  0.13578  0.93294  0.59970  1.0000
  Fe  Fe327     1.0  0.42756  0.58458  0.66102  1.0000
  S   S645      1.0  0.44566  0.56569  0.64645  1.0000
  S   S646      1.0  0.41473  0.57296  0.68748  1.0000
  Fe  Fe328     1.0  0.43334  0.61435  0.63137  1.0000
  S   S647      1.0  0.45194  0.59780  0.61481  1.0000
  S   S648      1.0  0.42641  0.64272  0.62257  1.0000
  Fe  Fe329     1.0  0.43331  0.58078  0.62485  1.0000
  S   S649      1.0  0.42961  0.56959  0.60512  1.0000
  Fe  Fe330     1.0  0.46261  0.58433  0.63774  1.0000
  C   C2341     1.0  0.47123  0.52169  0.71468  1.0000
  S   S650      1.0  0.41363  0.59825  0.63993  1.0000
  S   S651      1.0  0.44545  0.60237  0.65379  1.0000
  H   H2871     1.0  0.44737  0.50044  0.72855  1.0000
  S   S652      1.0  0.35345  0.57332  0.60241  1.0000
  H   H2872     1.0  0.00687  0.53060  0.60321  1.0000
  Fe  Fe331     1.0  0.39522  0.93521  0.65043  1.0000
  S   S653      1.0  0.41941  0.94065  0.63225  1.0000
  S   S654      1.0  0.39289  0.92544  0.67844  1.0000
  Fe  Fe332     1.0  0.37585  0.94206  0.62250  1.0000
  S   S655      1.0  0.39849  0.94792  0.60214  1.0000
  S   S656      1.0  0.35054  0.94181  0.61769  1.0000
  Fe  Fe333     1.0  0.41370  0.92547  0.61707  1.0000
  H   H2873     1.0  0.07449  0.86313  0.59218  1.0000
  Fe  Fe334     1.0  0.40180  0.96250  0.61922  1.0000
  H   H2874     1.0  0.45449  0.83422  0.60527  1.0000
  S   S657      1.0  0.39082  0.91834  0.63620  1.0000
  S   S658      1.0  0.37792  0.95838  0.63864  1.0000
  S   S659      1.0  0.06901  0.62182  0.76506  1.0000
  N   N162      1.0  0.48372  0.54103  0.60320  1.0000
  H   H2875     1.0  0.47377  0.95470  0.73085  1.0000
  H   H2876     1.0  0.01538  0.65904  0.61775  1.0000
  H   H2877     1.0  0.00102  0.92585  0.69920  1.0000
  C   C2342     1.0  0.32902  0.50165  0.60569  1.0000
  H   H2878     1.0  0.45525  0.54372  0.59127  1.0000
  H   H2879     1.0  0.48370  0.60179  0.68136  1.0000
  C   C2343     1.0  0.45777  0.98337  0.67693  1.0000
  C   C2344     1.0  0.33452  0.90457  0.60851  1.0000
  H   H2880     1.0  0.05005  0.51020  0.73286  1.0000
  H   H2881     1.0  0.03480  0.49487  0.71063  1.0000
  H   H2882     1.0  0.33213  0.91279  0.59618  1.0000
  S   S660      1.0  0.04593  0.67688  0.59433  1.0000
  Fe  Fe335     1.0  0.07649  0.57834  0.69397  1.0000
  S   S661      1.0  0.05742  0.60088  0.68402  1.0000
  S   S662      1.0  0.07596  0.56825  0.72194  1.0000
  Fe  Fe336     1.0  0.09326  0.57117  0.65877  1.0000
  S   S663      1.0  0.07500  0.59264  0.64627  1.0000
  S   S664      1.0  0.11304  0.55593  0.64126  1.0000
  Fe  Fe337     1.0  0.07932  0.60722  0.66276  1.0000
  S   S665      1.0  0.08509  0.63326  0.65210  1.0000
  Fe  Fe338     1.0  0.05491  0.58413  0.66852  1.0000
  S   S666      1.0  0.02826  0.58447  0.66705  1.0000
  S   S667      1.0  0.09889  0.58616  0.67413  1.0000
  S   S668      1.0  0.07265  0.56114  0.67963  1.0000
  N   N163      1.0  0.47926  0.90547  0.62242  1.0000
  C   C2345     1.0  0.04922  0.90116  0.59843  1.0000
  S   S669      1.0  0.01504  0.52776  0.63883  1.0000
  C   C2346     1.0  0.02490  0.56778  0.66032  1.0000
  C   C2347     1.0  0.00949  0.56996  0.65552  1.0000
  H   H2883     1.0  0.40524  0.98267  0.73221  1.0000
  C   C2348     1.0  0.01892  0.54245  0.64799  1.0000
  C   C2349     1.0  0.03416  0.53993  0.65332  1.0000
  C   C2350     1.0  0.03721  0.55266  0.65941  1.0000
  H   H2884     1.0  0.13507  0.52081  0.60596  1.0000
  H   H2885     1.0  0.02338  0.60071  0.74112  1.0000
  H   H2886     1.0  0.04360  0.52829  0.65252  1.0000
  H   H2887     1.0  0.04903  0.55082  0.66333  1.0000
  C   C2351     1.0  0.05755  0.66476  0.60981  1.0000
  C   C2352     1.0  0.07008  0.67058  0.61349  1.0000
  C   C2353     1.0  0.07847  0.66091  0.62657  1.0000
  C   C2354     1.0  0.07438  0.64540  0.63593  1.0000
  C   C2355     1.0  0.06207  0.63951  0.63202  1.0000
  C   C2356     1.0  0.05380  0.64909  0.61892  1.0000
  H   H2888     1.0  0.07308  0.68266  0.60650  1.0000
  H   H2889     1.0  0.08808  0.66548  0.62945  1.0000
  H   H2890     1.0  0.05872  0.62766  0.63921  1.0000
  H   H2891     1.0  0.04454  0.64429  0.61580  1.0000
  C   C2357     1.0  0.15403  0.58431  0.60703  1.0000
  C   C2358     1.0  0.14417  0.58937  0.62190  1.0000
  C   C2359     1.0  0.13130  0.58097  0.63217  1.0000
  C   C2360     1.0  0.12864  0.56704  0.62799  1.0000
  C   C2361     1.0  0.13859  0.56187  0.61316  1.0000
  C   C2362     1.0  0.15110  0.57066  0.60253  1.0000
  H   H2892     1.0  0.14648  0.59984  0.62548  1.0000
  H   H2893     1.0  0.12380  0.58502  0.64356  1.0000
  H   H2894     1.0  0.13673  0.55100  0.60995  1.0000
  H   H2895     1.0  0.34449  0.87499  0.63019  1.0000
  H   H2896     1.0  0.05559  0.97255  0.71681  1.0000
  C   C2363     1.0  0.40962  0.87117  0.60673  1.0000
  H   H2897     1.0  0.13715  0.49137  0.60434  1.0000
  C   C2364     1.0  0.13791  0.90302  0.62189  1.0000
  H   H2898     1.0  0.02220  0.51757  0.77597  1.0000
  H   H2899     1.0  0.38572  0.97397  0.72386  1.0000
  Fe  Fe339     1.0  0.41860  0.57868  0.77787  1.0000
  H   H2900     1.0  0.47450  0.93204  0.61081  1.0000
  C   C2365     1.0  0.06930  0.60649  0.75422  1.0000
  C   C2366     1.0  0.07531  0.58920  0.76026  1.0000
  C   C2367     1.0  0.07709  0.57752  0.75036  1.0000
  C   C2368     1.0  0.07290  0.58307  0.73440  1.0000
  C   C2369     1.0  0.06639  0.60028  0.72860  1.0000
  C   C2370     1.0  0.06455  0.61192  0.73853  1.0000
  H   H2901     1.0  0.42873  0.51777  0.62024  1.0000
  H   H2902     1.0  0.08231  0.56427  0.75486  1.0000
  H   H2903     1.0  0.06295  0.60463  0.71643  1.0000
  H   H2904     1.0  0.05968  0.62525  0.73403  1.0000
  H   H2905     1.0  0.37620  0.86371  0.60097  1.0000
  C   C2371     1.0  0.10221  0.95890  0.61673  1.0000
  S   S670      1.0  0.40922  0.49430  0.74629  1.0000
  Fe  Fe340     1.0  0.03444  0.94361  0.65396  1.0000
  H   H2906     1.0  0.44938  0.52621  0.67680  1.0000
  C   C2372     1.0  0.41398  0.88488  0.60982  1.0000
  H   H2907     1.0  0.40541  0.89171  0.61907  1.0000
  H   H2908     1.0  0.39778  0.86744  0.61372  1.0000
  C   C2373     1.0  0.40827  0.57172  0.60426  1.0000
  C   C2374     1.0  0.39524  0.57221  0.61880  1.0000
  C   C2375     1.0  0.37845  0.57265  0.61809  1.0000
  C   C2376     1.0  0.37452  0.57324  0.60274  1.0000
  C   C2377     1.0  0.14893  0.92549  0.60036  1.0000
  H   H2909     1.0  0.47161  0.85588  0.59151  1.0000
  H   H2910     1.0  0.39817  0.57177  0.63068  1.0000
  H   H2911     1.0  0.36845  0.57265  0.62944  1.0000
  C   C2378     1.0  0.45041  0.49947  0.71508  1.0000
  H   H2912     1.0  0.37634  0.97283  0.67705  1.0000
  C   C2379     1.0  0.43360  0.65184  0.60116  1.0000
  C   C2380     1.0  0.49661  0.81712  0.60581  1.0000
  H   H2913     1.0  0.00861  0.91412  0.62315  1.0000
  H   H2914     1.0  0.36691  0.87519  0.62344  1.0000
  H   H2915     1.0  0.41508  0.67531  0.60253  1.0000
  C   C2381     1.0  0.39223  0.52898  0.60517  1.0000
  H   H2916     1.0  0.99988  0.58153  0.65630  1.0000
  H   H2917     1.0  0.07278  0.52988  0.64556  1.0000
  H   H2918     1.0  0.47484  0.58685  0.66494  1.0000
  H   H2919     1.0  0.47386  0.54541  0.62841  1.0000
  H   H2920     1.0  0.01542  0.50254  0.59724  1.0000
  S   S671      1.0  0.00899  0.95936  0.64905  1.0000
  H   H2921     1.0  0.08217  0.50594  0.58776  1.0000
  H   H2922     1.0  0.08030  0.95443  0.61113  1.0000
  H   H2923     1.0  0.14513  0.91761  0.64291  1.0000
  C   C2382     1.0  0.22246  0.92067  0.59331  1.0000
  C   C2383     1.0  0.14511  0.92542  0.62988  1.0000
  C   C2384     1.0  0.47348  0.91302  0.66674  1.0000
  H   H2924     1.0  0.45778  0.92181  0.61210  1.0000
  C   C2385     1.0  0.49777  0.94515  0.71532  1.0000
  H   H2925     1.0  0.42917  0.53062  0.64721  1.0000
  S   S672      1.0  0.09571  0.95286  0.63879  1.0000
  H   H2926     1.0  0.38520  0.49520  0.66861  1.0000
  C   C2386     1.0  0.10204  0.62630  0.72478  1.0000
  C   C2387     1.0  0.00237  0.67550  0.59245  1.0000
  H   H2927     1.0  0.47720  0.91820  0.59680  1.0000
  C   C2388     1.0  0.05218  0.90090  0.61418  1.0000
  C   C2389     1.0  0.06310  0.88697  0.62203  1.0000
  C   C2390     1.0  0.07113  0.87339  0.61399  1.0000
  C   C2391     1.0  0.42000  0.51836  0.61248  1.0000
  H   H2928     1.0  0.42660  0.98703  0.65756  1.0000
  H   H2929     1.0  0.04585  0.91138  0.62032  1.0000
  H   H2930     1.0  0.07950  0.86252  0.62006  1.0000
  N   N164      1.0  0.14989  0.91456  0.61734  1.0000
  C   C2392     1.0  0.42605  0.58404  0.73337  1.0000
  C   C2393     1.0  0.41651  0.57191  0.73560  1.0000
  C   C2394     1.0  0.41318  0.56851  0.72145  1.0000
  C   C2395     1.0  0.41940  0.57719  0.70502  1.0000
  C   C2396     1.0  0.42920  0.58904  0.70283  1.0000
  C   C2397     1.0  0.43255  0.59241  0.71693  1.0000
  H   H2931     1.0  0.41149  0.56534  0.74821  1.0000
  H   H2932     1.0  0.40555  0.55934  0.72327  1.0000
  H   H2933     1.0  0.43394  0.59590  0.69030  1.0000
  H   H2934     1.0  0.43987  0.60185  0.71509  1.0000
  H   H2935     1.0  0.37950  0.53674  0.60784  1.0000
  C   C2398     1.0  0.41484  0.52303  0.77502  1.0000
  H   H2936     1.0  0.00102  0.68272  0.60220  1.0000
  C   C2399     1.0  0.48751  0.58936  0.66111  1.0000
  C   C2400     1.0  0.35889  0.61348  0.61109  1.0000
  C   C2401     1.0  0.10653  0.60829  0.70523  1.0000
  C   C2402     1.0  0.32100  0.50571  0.59208  1.0000
  H   H2937     1.0  0.38315  0.52432  0.69884  1.0000
  H   H2938     1.0  0.49505  0.90886  0.64684  1.0000
  H   H2939     1.0  0.46461  0.82648  0.62312  1.0000
  H   H2940     1.0  0.00159  0.93279  0.72498  1.0000
  H   H2941     1.0  0.15305  0.67774  0.59092  1.0000
  C   C2403     1.0  0.42020  0.94640  0.70581  1.0000
  C   C2404     1.0  0.41117  0.93371  0.71461  1.0000
  C   C2405     1.0  0.40299  0.92723  0.70602  1.0000
  C   C2406     1.0  0.40383  0.93338  0.68864  1.0000
  C   C2407     1.0  0.41315  0.94584  0.67976  1.0000
  C   C2408     1.0  0.42130  0.95235  0.68835  1.0000
  H   H2942     1.0  0.41032  0.92901  0.72806  1.0000
  H   H2943     1.0  0.39584  0.91752  0.71290  1.0000
  H   H2944     1.0  0.41375  0.95072  0.66638  1.0000
  H   H2945     1.0  0.42810  0.96228  0.68152  1.0000
  Fe  Fe341     1.0  0.03382  0.50310  0.63668  1.0000
  C   C2409     1.0  0.38569  0.98039  0.71087  1.0000
  H   H2946     1.0  0.31374  0.53850  0.61931  1.0000
  H   H2947     1.0  0.29961  0.54604  0.59586  1.0000
  N   N165      1.0  0.08278  0.54116  0.61974  1.0000
  C   C2410     1.0  0.48035  0.66140  0.61762  1.0000
  H   H2948     1.0  0.46117  0.60016  0.73307  1.0000
  C   C2411     1.0  0.48133  0.90999  0.65054  1.0000
  S   S673      1.0  0.03534  0.91763  0.67056  1.0000
  C   C2412     1.0  0.48607  0.98220  0.65977  1.0000
  H   H2949     1.0  0.02217  0.85404  0.61349  1.0000
  H   H2950     1.0  0.41834  0.62425  0.59674  1.0000
  H   H2951     1.0  0.39931  0.53534  0.62510  1.0000
  H   H2952     1.0  0.17661  0.91478  0.61365  1.0000
  C   C2413     1.0  0.05181  0.93194  0.72226  1.0000
  C   C2414     1.0  0.05366  0.92603  0.73911  1.0000
  C   C2415     1.0  0.05633  0.93683  0.74789  1.0000
  H   H2953     1.0  0.05324  0.91300  0.74529  1.0000
  H   H2954     1.0  0.44188  0.49168  0.71426  1.0000
  H   H2955     1.0  0.43813  0.50139  0.59783  1.0000
  H   H2956     1.0  0.00412  0.61427  0.65313  1.0000
  H   H2957     1.0  0.10263  0.63414  0.61185  1.0000
  N   N166      1.0  0.44782  0.51650  0.70365  1.0000
  C   C2416     1.0  0.13164  0.87460  0.62948  1.0000
  H   H2958     1.0  0.46024  0.96997  0.70744  1.0000
  N   N167      1.0  0.35105  0.89206  0.60637  1.0000
  H   H2959     1.0  0.36743  0.61727  0.63141  1.0000
  C   C2417     1.0  0.47663  0.58279  0.74987  1.0000
  C   C2418     1.0  0.06588  0.55129  0.61664  1.0000
  C   C2419     1.0  0.14601  0.87023  0.58763  1.0000
  H   H2960     1.0  0.01608  0.66906  0.58904  1.0000
  C   C2420     1.0  0.38002  0.97248  0.70144  1.0000
  H   H2961     1.0  0.09183  0.65287  0.58650  1.0000
  C   C2421     1.0  0.38289  0.49339  0.70214  1.0000
  N   N168      1.0  0.11652  0.63570  0.58609  1.0000
  C   C2422     1.0  0.38022  0.97937  0.68438  1.0000
  H   H2962     1.0  0.46373  0.49204  0.71180  1.0000
  H   H2963     1.0  0.11479  0.92316  0.62181  1.0000
  H   H2964     1.0  0.49417  0.91660  0.78308  1.0000
  H   H2965     1.0  0.15676  0.87882  0.62345  1.0000
  C   C2423     1.0  0.01151  0.57195  0.74703  1.0000
  C   C2424     1.0  0.10839  0.89910  0.62847  1.0000
  C   C2425     1.0  0.42942  0.88961  0.60098  1.0000
  H   H2966     1.0  0.39975  0.65203  0.59305  1.0000
  C   C2426     1.0  0.04342  0.57717  0.61836  1.0000
  H   H2967     1.0  0.13604  0.86095  0.63177  1.0000
  H   H2968     1.0  0.41773  0.97420  0.63902  1.0000
  C   C2427     1.0  0.05945  0.56745  0.62085  1.0000
  H   H2969     1.0  0.00867  0.61352  0.72797  1.0000
  S   S674      1.0  0.41407  0.84637  0.58964  1.0000
  C   C2428     1.0  0.05509  0.95956  0.72310  1.0000
  H   H2970     1.0  0.48429  0.95059  0.66034  1.0000
  C   C2429     1.0  0.46487  0.66856  0.61175  1.0000
  C   C2430     1.0  0.02232  0.92825  0.78346  1.0000
  S   S675      1.0  0.49125  0.57576  0.63415  1.0000
  H   H2971     1.0  0.47671  0.54305  0.77299  1.0000
  H   H2972     1.0  0.49476  0.97300  0.74915  1.0000
  H   H2973     1.0  0.45409  0.63066  0.59586  1.0000
  H   H2974     1.0  0.46452  0.81233  0.61061  1.0000
  C   C2431     1.0  0.05690  0.95368  0.73992  1.0000
  H   H2975     1.0  0.12117  0.61755  0.60902  1.0000
  H   H2976     1.0  0.45029  0.50559  0.75646  1.0000
  C   C2432     1.0  0.40973  0.54297  0.66534  1.0000
  H   H2977     1.0  0.15402  0.93410  0.62707  1.0000
  H   H2978     1.0  0.07887  0.65563  0.71321  1.0000
  C   C2433     1.0  0.05621  0.49954  0.76438  1.0000
  H   H2979     1.0  0.47416  0.50874  0.72149  1.0000
  C   C2434     1.0  0.47394  0.59309  0.73437  1.0000
  H   H2980     1.0  0.48252  0.56737  0.60187  1.0000
  C   C2435     1.0  0.00762  0.64963  0.62187  1.0000
  C   C2436     1.0  0.43608  0.86691  0.58594  1.0000
  H   H2981     1.0  0.41612  0.53587  0.77321  1.0000
  C   C2437     1.0  0.05263  0.94872  0.71428  1.0000
  C   C2438     1.0  0.46293  0.68387  0.59982  1.0000
  S   S676      1.0  0.16996  0.59526  0.59452  1.0000
  C   C2439     1.0  0.11283  0.59426  0.71701  1.0000
  H   H2982     1.0  0.13212  0.93366  0.63020  1.0000
  H   H2983     1.0  0.10501  0.87348  0.63524  1.0000
  H   H2984     1.0  0.11882  0.64228  0.68159  1.0000
  H   H2985     1.0  0.46158  0.89078  0.62223  1.0000
  H   H2986     1.0  0.35247  0.89236  0.63156  1.0000
  C   C2440     1.0  0.11044  0.62569  0.60314  1.0000
  C   C2441     1.0  0.07806  0.63634  0.69332  1.0000
  C   C2442     1.0  0.41766  0.98757  0.63568  1.0000
  H   H2987     1.0  0.02666  0.57157  0.71493  1.0000
  H   H2988     1.0  0.44797  0.97631  0.68536  1.0000
  C   C2443     1.0  0.47199  0.95906  0.66493  1.0000
  C   C2444     1.0  0.12618  0.64748  0.58754  1.0000
  C   C2445     1.0  0.41537  0.51302  0.66596  1.0000
  H   H2989     1.0  0.48114  0.91408  0.67482  1.0000
  H   H2990     1.0  0.01059  0.56035  0.74370  1.0000
  H   H2991     1.0  0.02524  0.59412  0.70766  1.0000
  H   H2992     1.0  0.09475  0.90449  0.63020  1.0000
  C   C2446     1.0  0.45332  0.53050  0.75329  1.0000
  H   H2993     1.0  0.48465  0.55811  0.70895  1.0000
  C   C2447     1.0  0.00147  0.62419  0.64224  1.0000
  H   H2994     1.0  0.03127  0.55056  0.60227  1.0000
  H   H2995     1.0  0.09427  0.56276  0.61473  1.0000
  H   H2996     1.0  0.02381  0.56936  0.75107  1.0000
  C   C2448     1.0  0.36643  0.85390  0.58576  1.0000
  H   H2997     1.0  0.49416  0.85049  0.58995  1.0000
  C   C2449     1.0  0.32632  0.51341  0.61554  1.0000
  C   C2450     1.0  0.49367  0.67051  0.61074  1.0000
  C   C2451     1.0  0.05123  0.54262  0.76654  1.0000
  H   H2998     1.0  0.46660  0.56406  0.59347  1.0000
  C   C2452     1.0  0.12002  0.90968  0.62373  1.0000
  C   C2453     1.0  0.01092  0.63681  0.63598  1.0000
  H   H2999     1.0  0.49435  0.63084  0.61066  1.0000
  C   C2454     1.0  0.11783  0.96402  0.60983  1.0000
  H   H3000     1.0  0.24256  0.92011  0.60519  1.0000
  H   H3001     1.0  0.07739  0.51102  0.73637  1.0000
  H   H3002     1.0  0.10178  0.65209  0.67028  1.0000
  S   S677      1.0  0.40615  0.98881  0.60768  1.0000
  C   C2455     1.0  0.48099  0.95445  0.71802  1.0000
  S   S678      1.0  0.04912  0.49781  0.61156  1.0000
  H   H3003     1.0  0.11653  0.58174  0.71421  1.0000
  C   C2456     1.0  0.02556  0.58346  0.71894  1.0000
  C   C2457     1.0  0.14344  0.88508  0.62472  1.0000
  C   C2458     1.0  0.15101  0.65187  0.59498  1.0000
  C   C2459     1.0  0.10648  0.64094  0.67988  1.0000
  C   C2460     1.0  0.09224  0.91604  0.58905  1.0000
  C   C2461     1.0  0.48770  0.59460  0.72066  1.0000
  H   H3004     1.0  0.36516  0.91069  0.60483  1.0000
  C   C2462     1.0  0.45676  0.51306  0.76015  1.0000
  H   H3005     1.0  0.46308  0.56877  0.69119  1.0000
  C   C2463     1.0  0.46552  0.55555  0.69761  1.0000
  H   H3006     1.0  0.08886  0.52656  0.60056  1.0000
  Fe  Fe342     1.0  0.05955  0.95994  0.77852  1.0000
  H   H3007     1.0  0.33251  0.51020  0.62612  1.0000
  C   C2464     1.0  0.39736  0.52010  0.59186  1.0000
  H   H3008     1.0  0.00088  0.49288  0.70931  1.0000
  C   C2465     1.0  0.33862  0.88143  0.58765  1.0000
  H   H3009     1.0  0.15742  0.93472  0.59665  1.0000
  H   H3010     1.0  0.21392  0.91675  0.60517  1.0000
  H   H3011     1.0  0.42314  0.50255  0.66031  1.0000
  C   C2466     1.0  0.16806  0.90567  0.61685  1.0000
  C   C2467     1.0  0.11384  0.59623  0.73257  1.0000
  C   C2468     1.0  0.01172  0.94975  0.76084  1.0000
  H   H3012     1.0  0.08111  0.92619  0.58575  1.0000
  C   C2469     1.0  0.41425  0.50993  0.58962  1.0000
  C   C2470     1.0  0.41226  0.51773  0.76166  1.0000
  C   C2471     1.0  0.38748  0.57327  0.58810  1.0000
  H   H3013     1.0  0.07923  0.58492  0.77222  1.0000
  H   H3014     1.0  0.05893  0.53337  0.60626  1.0000
  N   N169      1.0  0.00667  0.93912  0.77787  1.0000
  H   H3015     1.0  0.10042  0.65879  0.70366  1.0000
  H   H3016     1.0  0.45809  0.54329  0.61866  1.0000
  C   C2472     1.0  0.45842  0.52752  0.70492  1.0000
  H   H3017     1.0  0.02071  0.57852  0.61013  1.0000
  H   H3018     1.0  0.11829  0.58529  0.74187  1.0000
  H   H3019     1.0  0.41107  0.52669  0.74986  1.0000
  H   H3020     1.0  0.36306  0.52125  0.60175  1.0000
  C   C2473     1.0  0.33291  0.94648  0.59320  1.0000
  H   H3021     1.0  0.10246  0.61715  0.60281  1.0000
  H   H3022     1.0  0.28311  0.51100  0.58651  1.0000
  H   H3023     1.0  0.32272  0.94255  0.60346  1.0000
  C   C2474     1.0  0.08257  0.53733  0.63806  1.0000
  C   C2475     1.0  0.39314  0.52497  0.68751  1.0000
  H   H3024     1.0  0.07866  0.51643  0.62140  1.0000
  C   C2476     1.0  0.02820  0.52745  0.77607  1.0000
  H   H3025     1.0  0.45643  0.64609  0.64278  1.0000
  C   C2477     1.0  0.35152  0.87967  0.59656  1.0000
  C   C2478     1.0  0.40205  0.51055  0.68052  1.0000
  H   H3026     1.0  0.37472  0.50073  0.59794  1.0000
  H   H3027     1.0  0.33433  0.91331  0.61646  1.0000
  C   C2479     1.0  0.14273  0.51619  0.59482  1.0000
  C   C2480     1.0  0.42046  0.86242  0.59450  1.0000
  H   H3028     1.0  0.03766  0.58203  0.72302  1.0000
  H   H3029     1.0  0.08405  0.66635  0.69164  1.0000
  C   C2481     1.0  0.46763  0.63750  0.63649  1.0000
  H   H3030     1.0  0.48024  0.87869  0.63026  1.0000
  C   C2482     1.0  0.30997  0.52170  0.58789  1.0000
  H   H3031     1.0  0.01061  0.90126  0.60023  1.0000
  C   C2483     1.0  0.36556  0.86563  0.59513  1.0000
  H   H3032     1.0  0.48895  0.63580  0.65492  1.0000
  C   C2484     1.0  0.36976  0.61849  0.61786  1.0000
  C   C2485     1.0  0.00655  0.55740  0.64931  1.0000
  C   C2486     1.0  0.04337  0.51872  0.74186  1.0000
  C   C2487     1.0  0.31568  0.52929  0.61173  1.0000
  H   H3033     1.0  0.04394  0.49542  0.77055  1.0000
  C   C2488     1.0  0.14147  0.64107  0.59377  1.0000
  H   H3034     1.0  0.42559  0.53628  0.69861  1.0000
  H   H3035     1.0  0.08051  0.62446  0.68882  1.0000
  C   C2489     1.0  0.45621  0.54470  0.69607  1.0000
  H   H3036     1.0  0.44461  0.50562  0.68455  1.0000
  C   C2490     1.0  0.46574  0.82536  0.60996  1.0000
  C   C2491     1.0  0.07078  0.52029  0.74460  1.0000
  H   H3037     1.0  0.39008  0.55180  0.68543  1.0000
  C   C2492     1.0  0.41146  0.50088  0.76351  1.0000
  C   C2493     1.0  0.10855  0.61221  0.73641  1.0000
  H   H3038     1.0  0.44460  0.53583  0.74472  1.0000
  C   C2494     1.0  0.99981  0.94926  0.63923  1.0000
  H   H3039     1.0  0.10910  0.54355  0.61223  1.0000
  H   H3040     1.0  0.37602  0.96056  0.70726  1.0000
  S   S679      1.0  0.43482  0.90743  0.60354  1.0000
  C   C2495     1.0  0.05532  0.54557  0.60961  1.0000
  C   C2496     1.0  0.42546  0.66832  0.59447  1.0000
  C   C2497     1.0  0.36477  0.90156  0.59759  1.0000
  C   C2498     1.0  0.35386  0.88322  0.62359  1.0000
  C   C2499     1.0  0.38371  0.62498  0.60725  1.0000
  C   C2500     1.0  0.00205  0.50750  0.60228  1.0000
  N   N170      1.0  0.48296  0.64513  0.63010  1.0000
  C   C2501     1.0  0.42532  0.50920  0.59979  1.0000
  H   H3041     1.0  0.01918  0.94210  0.75131  1.0000
  C   C2502     1.0  0.23871  0.92251  0.59331  1.0000
  H   H3042     1.0  0.49188  0.79458  0.60121  1.0000
  C   C2503     1.0  0.44056  0.88041  0.58928  1.0000
  H   H3043     1.0  0.03089  0.51500  0.74800  1.0000
  H   H3044     1.0  0.41243  0.55543  0.65952  1.0000
  H   H3045     1.0  0.42094  0.51603  0.70878  1.0000
  C   C2504     1.0  0.30756  0.53346  0.59815  1.0000
  H   H3046     1.0  0.03234  0.86630  0.59434  1.0000
  H   H3047     1.0  0.10318  0.87933  0.59132  1.0000
  H   H3048     1.0  0.00115  0.57402  0.75834  1.0000
  C   C2505     1.0  0.39698  0.54090  0.67993  1.0000
  C   C2506     1.0  0.47620  0.69257  0.59351  1.0000
  H   H3049     1.0  0.04059  0.91190  0.59253  1.0000
  C   C2507     1.0  0.37049  0.51421  0.59171  1.0000
  H   H3050     1.0  0.46582  0.96516  0.65392  1.0000
  C   C2508     1.0  0.08912  0.65570  0.70146  1.0000
  H   H3051     1.0  0.06659  0.57249  0.62654  1.0000
  H   H3052     1.0  0.10055  0.51739  0.61695  1.0000
  N   N171      1.0  0.00546  0.87666  0.60301  1.0000
  C   C2509     1.0  0.36198  0.61485  0.59372  1.0000
  C   C2510     1.0  0.47334  0.96325  0.70434  1.0000
  C   C2511     1.0  0.49426  0.51629  0.58825  1.0000
  H   H3053     1.0  0.14623  0.62760  0.59767  1.0000
  H   H3054     1.0  0.27434  0.63652  0.58801  1.0000
  C   C2512     1.0  0.08784  0.52475  0.61436  1.0000
  H   H3055     1.0  0.09756  0.63811  0.72897  1.0000
  H   H3056     1.0  0.45098  0.68905  0.59557  1.0000
  C   C2513     1.0  0.34783  0.94812  0.59671  1.0000
  H   H3057     1.0  0.32357  0.89822  0.61478  1.0000
  C   C2514     1.0  0.48191  0.84711  0.59770  1.0000
  H   H3058     1.0  0.07983  0.54895  0.64306  1.0000
  C   C2515     1.0  0.47549  0.88981  0.62070  1.0000
  H   H3059     1.0  0.03021  0.92014  0.77447  1.0000
  S   S680      1.0  0.46145  0.49482  0.64405  1.0000
  H   H3060     1.0  0.06797  0.63545  0.70509  1.0000
  C   C2516     1.0  0.47168  0.53861  0.61982  1.0000
  C   C2517     1.0  0.00137  0.92572  0.62706  1.0000
  C   C2518     1.0  0.47766  0.54956  0.70761  1.0000
  N   N172      1.0  0.09376  0.63925  0.69619  1.0000
  C   C2519     1.0  0.14556  0.66937  0.59018  1.0000
  H   H3061     1.0  0.15302  0.91780  0.59054  1.0000
  H   H3062     1.0  0.46996  0.62545  0.64603  1.0000
  H   H3063     1.0  0.05119  0.95344  0.70135  1.0000
  C   C2520     1.0  0.40345  0.52817  0.61523  1.0000
  H   H3064     1.0  0.10872  0.61360  0.74880  1.0000
  H   H3065     1.0  0.44706  0.54994  0.68803  1.0000
  C   C2521     1.0  0.12400  0.96762  0.59227  1.0000
  C   C2522     1.0  0.11416  0.88160  0.63139  1.0000
  H   H3066     1.0  0.42607  0.52810  0.72053  1.0000
  N   N173      1.0  0.39828  0.49350  0.68808  1.0000
  H   H3067     1.0  0.16984  0.89730  0.62928  1.0000
  H   H3068     1.0  0.10580  0.60608  0.69345  1.0000
  C   C2523     1.0  0.41903  0.52903  0.65843  1.0000
  C   C2524     1.0  0.02255  0.86721  0.60622  1.0000
  N   N174      1.0  0.05367  0.51721  0.75428  1.0000
  H   H3069     1.0  0.45398  0.66265  0.61623  1.0000
  H   H3070     1.0  0.37131  0.50201  0.69797  1.0000
  S   S681      1.0  0.04933  0.95182  0.66771  1.0000
  H   H3071     1.0  0.13615  0.97138  0.58702  1.0000
  C   C2525     1.0  0.11595  0.88170  0.58780  1.0000
  H   H3072     1.0  0.45750  0.55481  0.75273  1.0000
  S   S682      1.0  0.05542  0.49077  0.65008  1.0000
  C   C2526     1.0  0.47188  0.92001  0.61003  1.0000
  C   C2527     1.0  0.10085  0.62474  0.70876  1.0000
  C   C2528     1.0  0.48241  0.96296  0.68739  1.0000
  C   C2529     1.0  0.09618  0.55090  0.61035  1.0000
  C   C2530     1.0  0.38729  0.62645  0.58948  1.0000
  N   N175      1.0  0.47461  0.97182  0.67259  1.0000
  C   C2531     1.0  0.04451  0.52912  0.76560  1.0000
  H   H3073     1.0  0.10921  0.62987  0.67400  1.0000
  N   N176      1.0  0.01021  0.58671  0.73262  1.0000
  H   H3074     1.0  0.49024  0.52785  0.72363  1.0000
  C   C2532     1.0  0.48145  0.53038  0.59291  1.0000
  C   C2533     1.0  0.47159  0.90832  0.63977  1.0000
  C   C2534     1.0  0.47488  0.51722  0.77616  1.0000
  C   C2535     1.0  0.45374  0.90970  0.64632  1.0000
  H   H3075     1.0  0.37765  0.89303  0.59578  1.0000
  C   C2536     1.0  0.44605  0.91275  0.66249  1.0000
  C   C2537     1.0  0.45587  0.91448  0.67266  1.0000
  H   H3076     1.0  0.09517  0.52983  0.64086  1.0000
  C   C2538     1.0  0.09249  0.95800  0.60596  1.0000
  H   H3077     1.0  0.03075  0.93594  0.78464  1.0000
  H   H3078     1.0  0.33741  0.48931  0.60852  1.0000
  H   H3079     1.0  0.44552  0.90851  0.63891  1.0000
  H   H3080     1.0  0.07265  0.64675  0.68352  1.0000
  H   H3081     1.0  0.43234  0.91376  0.66718  1.0000
  H   H3082     1.0  0.44978  0.91683  0.68522  1.0000
  H   H3083     1.0  0.34822  0.60819  0.61932  1.0000
  H   H3084     1.0  0.04076  0.53191  0.73430  1.0000
  N   N177      1.0  0.48212  0.82907  0.59893  1.0000
  C   C2539     1.0  0.14409  0.49954  0.59397  1.0000
  C   C2540     1.0  0.42938  0.52458  0.70802  1.0000
  C   C2541     1.0  0.46572  0.53351  0.58785  1.0000
  C   C2542     1.0  0.49270  0.59752  0.67061  1.0000
  H   H3085     1.0  0.38475  0.49697  0.71322  1.0000
  C   C2543     1.0  0.01082  0.60190  0.73805  1.0000
  C   C2544     1.0  0.49813  0.90358  0.61771  1.0000
  Fe  Fe343     1.0  0.41003  0.95164  0.77950  1.0000
  C   C2545     1.0  0.06840  0.87377  0.59813  1.0000
  H   H3086     1.0  0.08693  0.90499  0.59711  1.0000
  C   C2546     1.0  0.48015  0.55920  0.59466  1.0000
  H   H3087     1.0  0.12648  0.85571  0.59826  1.0000
  C   C2547     1.0  0.46761  0.50588  0.77193  1.0000
  H   H3088     1.0  0.02006  0.95811  0.76092  1.0000
  H   H3089     1.0  0.47956  0.85001  0.61036  1.0000
  H   H3090     1.0  0.15882  0.56660  0.59115  1.0000
  H   H3091     1.0  0.39169  0.62888  0.61306  1.0000
  C   C2548     1.0  0.45208  0.51406  0.68607  1.0000
  C   C2549     1.0  0.03932  0.55544  0.60712  1.0000
  C   C2550     1.0  0.47143  0.53461  0.76914  1.0000
  C   C2551     1.0  0.03335  0.57117  0.61154  1.0000
  C   C2552     1.0  0.09844  0.96202  0.58838  1.0000
  C   C2553     1.0  0.48758  0.64766  0.64494  1.0000
  C   C2554     1.0  0.12922  0.86807  0.59194  1.0000
  H   H3092     1.0  0.47331  0.52497  0.62617  1.0000
  H   H3093     1.0  0.07936  0.51909  0.75316  1.0000
  H   H3094     1.0  0.47764  0.65754  0.65078  1.0000
  C   C2555     1.0  0.99959  0.86788  0.59330  1.0000
  H   H3095     1.0  0.48561  0.60301  0.70876  1.0000
  H   H3096     1.0  0.04769  0.56363  0.77820  1.0000
  C   C2556     1.0  0.00165  0.91664  0.76634  1.0000
  C   C2557     1.0  0.04230  0.55345  0.77758  1.0000
  H   H3097     1.0  0.03854  0.58918  0.62231  1.0000
  H   H3098     1.0  0.17300  0.89808  0.60688  1.0000
  H   H3099     1.0  0.09647  0.55440  0.59656  1.0000
  Fe  Fe344     1.0  0.42860  0.91626  0.77618  1.0000
  H   H3100     1.0  0.09806  0.92053  0.59700  1.0000
  H   H3101     1.0  0.02741  0.87349  0.61347  1.0000
  H   H3102     1.0  0.01403  0.59926  0.78066  1.0000
  H   H3103     1.0  0.49468  0.56666  0.76417  1.0000
  H   H3104     1.0  0.06336  0.54514  0.75885  1.0000
  C   C2558     1.0  0.44730  0.64309  0.59074  1.0000
  H   H3105     1.0  0.46359  0.95092  0.67430  1.0000
  H   H3106     1.0  0.00029  0.95797  0.75607  1.0000
  H   H3107     1.0  0.02089  0.63663  0.64212  1.0000
  C   C2559     1.0  0.00675  0.89403  0.59314  1.0000
  H   H3108     1.0  0.01437  0.91549  0.75833  1.0000
  C   C2560     1.0  0.40438  0.57220  0.58893  1.0000
  H   H3109     1.0  0.00102  0.60407  0.74969  1.0000
  H   H3110     1.0  0.15631  0.85956  0.59054  1.0000
  H   H3111     1.0  0.16277  0.64658  0.59955  1.0000
  H   H3112     1.0  0.46582  0.58190  0.76054  1.0000
  H   H3113     1.0  0.32758  0.89180  0.58766  1.0000
  H   H3114     1.0  0.06363  0.49027  0.75634  1.0000
  H   H3115     1.0  0.00433  0.58408  0.70189  1.0000
  C   C2561     1.0  0.49316  0.57403  0.75174  1.0000
  H   H3116     1.0  0.46591  0.50818  0.68231  1.0000
  H   H3117     1.0  0.37169  0.95611  0.58599  1.0000
  H   H3118     1.0  0.46390  0.63434  0.62615  1.0000
  H   H3119     1.0  0.00785  0.50093  0.67805  1.0000
  C   C2562     1.0  0.05741  0.88765  0.59032  1.0000
  H   H3120     1.0  0.06315  0.49801  0.77448  1.0000
  H   H3121     1.0  0.37378  0.94498  0.78440  1.0000
  C   C2563     1.0  0.49709  0.63270  0.62219  1.0000
  Fe  Fe345     1.0  0.48903  0.48944  0.64571  1.0000
  C   C2564     1.0  0.47704  0.95296  0.78477  1.0000
  C   C2565     1.0  0.41293  0.48942  0.77888  1.0000
  S   S683      1.0  0.03417  0.82398  0.90343  1.0000
  Fe  Fe346     1.0  0.05143  0.85453  0.91846  1.0000
  S   S684      1.0  0.06749  0.83990  0.89894  1.0000
  S   S685      1.0  0.06018  0.87354  0.92663  1.0000
  Fe  Fe347     1.0  0.04391  0.84724  0.88820  1.0000
  S   S686      1.0  0.04671  0.85481  0.85985  1.0000
  Fe  Fe348     1.0  0.05621  0.81816  0.91603  1.0000
  S   S687      1.0  0.07313  0.79238  0.92232  1.0000
  S   S688      1.0  0.04200  0.83225  0.93654  1.0000
  Fe  Fe349     1.0  0.14479  0.90384  0.89638  1.0000
  S   S689      1.0  0.12621  0.92841  0.89887  1.0000
  S   S690      1.0  0.13762  0.87914  0.89857  1.0000
  Fe  Fe350     1.0  0.17583  0.91875  0.89280  1.0000
  S   S691      1.0  0.15969  0.94468  0.89456  1.0000
  S   S692      1.0  0.20427  0.90979  0.89194  1.0000
  Fe  Fe351     1.0  0.14198  0.93078  0.91545  1.0000
  S   S693      1.0  0.13060  0.93624  0.94131  1.0000
  Fe  Fe352     1.0  0.14544  0.93992  0.87762  1.0000
  S   S694      1.0  0.13520  0.95999  0.85668  1.0000
  S   S695      1.0  0.15899  0.90517  0.91487  1.0000
  S   S696      1.0  0.16325  0.91508  0.87394  1.0000
  H   H3122     1.0  0.09076  0.84907  0.91582  1.0000
  H   H3123     1.0  0.05183  0.75005  0.95190  1.0000
  H   H3124     1.0  0.05885  0.76999  0.85678  1.0000
  H   H3125     1.0  0.33072  0.67413  0.86663  1.0000
  H   H3126     1.0  0.05630  0.50508  0.81930  1.0000
  H   H3127     1.0  0.10487  0.53621  0.80708  1.0000
  C   C2566     1.0  0.21365  0.89570  0.96638  1.0000
  H   H3128     1.0  0.12106  0.85155  0.90487  1.0000
  H   H3129     1.0  0.07575  0.97097  0.85514  1.0000
  H   H3130     1.0  0.11507  0.54128  0.82089  1.0000
  H   H3131     1.0  0.04347  0.90470  0.81347  1.0000
  C   C2567     1.0  0.01234  0.58840  0.82302  1.0000
  H   H3132     1.0  0.45044  0.95577  0.79736  1.0000
  Fe  Fe353     1.0  0.40664  0.83558  0.91213  1.0000
  S   S697      1.0  0.39196  0.81851  0.90875  1.0000
  S   S698      1.0  0.39818  0.84580  0.93598  1.0000
  Fe  Fe354     1.0  0.42823  0.83777  0.87623  1.0000
  S   S699      1.0  0.41555  0.82043  0.86999  1.0000
  S   S700      1.0  0.44754  0.85247  0.85828  1.0000
  Fe  Fe355     1.0  0.39131  0.83546  0.88326  1.0000
  S   S701      1.0  0.36721  0.84554  0.87325  1.0000
  Fe  Fe356     1.0  0.41733  0.80471  0.89609  1.0000
  S   S702      1.0  0.42266  0.77614  0.90576  1.0000
  S   S703      1.0  0.40384  0.85377  0.88759  1.0000
  S   S704      1.0  0.43225  0.82076  0.90131  1.0000
  Fe  Fe357     1.0  0.27916  0.95331  0.87936  1.0000
  S   S705      1.0  0.29514  0.95265  0.89724  1.0000
  S   S706      1.0  0.25028  0.96083  0.88660  1.0000
  Fe  Fe358     1.0  0.31022  0.94489  0.85196  1.0000
  S   S707      1.0  0.32879  0.94315  0.86755  1.0000
  Fe  Fe359     1.0  0.31142  0.92920  0.88858  1.0000
  S   S708      1.0  0.32248  0.90661  0.90696  1.0000
  Fe  Fe360     1.0  0.31107  0.96677  0.87459  1.0000
  S   S709      1.0  0.29422  0.92869  0.87242  1.0000
  S   S710      1.0  0.29372  0.96963  0.85735  1.0000
  H   H3133     1.0  0.22739  0.97643  0.93447  1.0000
  H   H3134     1.0  0.07717  0.72917  0.94889  1.0000
  H   H3135     1.0  0.07689  0.63533  0.87150  1.0000
  C   C2568     1.0  0.49345  0.95312  0.78587  1.0000
  C   C2569     1.0  0.10615  0.85235  0.86295  1.0000
  Fe  Fe361     1.0  0.41796  0.69662  0.87532  1.0000
  S   S711      1.0  0.42100  0.68075  0.90100  1.0000
  S   S712      1.0  0.41673  0.72487  0.86555  1.0000
  Fe  Fe362     1.0  0.42001  0.66567  0.86132  1.0000
  S   S713      1.0  0.42339  0.64736  0.88567  1.0000
  S   S714      1.0  0.41904  0.65852  0.83764  1.0000
  Fe  Fe363     1.0  0.40291  0.66673  0.89774  1.0000
  S   S715      1.0  0.38190  0.65748  0.91872  1.0000
  Fe  Fe364     1.0  0.44108  0.66278  0.88668  1.0000
  S   S716      1.0  0.46759  0.65051  0.89089  1.0000
  S   S717      1.0  0.39806  0.68414  0.87323  1.0000
  S   S718      1.0  0.43952  0.67958  0.86119  1.0000
  Fe  Fe365     1.0  0.42357  0.57555  0.81338  1.0000
  H   H3136     1.0  0.17832  0.50100  0.87380  1.0000
  S   S719      1.0  0.43530  0.58181  0.83168  1.0000
  H   H3137     1.0  0.01126  0.63375  0.84548  1.0000
  Fe  Fe366     1.0  0.38837  0.57778  0.80819  1.0000
  S   S720      1.0  0.36071  0.58870  0.81835  1.0000
  S   S721      1.0  0.40438  0.55919  0.82537  1.0000
  Fe  Fe367     1.0  0.28554  0.59914  0.92201  1.0000
  S   S722      1.0  0.29625  0.57175  0.93162  1.0000
  S   S723      1.0  0.25682  0.60770  0.92703  1.0000
  Fe  Fe368     1.0  0.32102  0.60738  0.90876  1.0000
  S   S724      1.0  0.33417  0.58067  0.91799  1.0000
  S   S725      1.0  0.33795  0.62458  0.89116  1.0000
  Fe  Fe369     1.0  0.31581  0.57373  0.90732  1.0000
  S   S726      1.0  0.32626  0.55370  0.89184  1.0000
  Fe  Fe370     1.0  0.31336  0.58151  0.94129  1.0000
  S   S727      1.0  0.30365  0.60040  0.89673  1.0000
  S   S728      1.0  0.30159  0.60903  0.93317  1.0000
  Fe  Fe371     1.0  0.08515  0.59402  0.82259  1.0000
  S   S729      1.0  0.08648  0.61981  0.80582  1.0000
  S   S730      1.0  0.10705  0.57455  0.83207  1.0000
  Fe  Fe372     1.0  0.04696  0.59921  0.82600  1.0000
  S   S731      1.0  0.04499  0.62535  0.80997  1.0000
  S   S732      1.0  0.02372  0.58801  0.83792  1.0000
  C   C2570     1.0  0.41620  0.66806  0.98054  1.0000
  Fe  Fe373     1.0  0.06258  0.62870  0.82428  1.0000
  S   S733      1.0  0.05456  0.65176  0.83580  1.0000
  S   S734      1.0  0.06955  0.58745  0.80822  1.0000
  S   S735      1.0  0.06249  0.60331  0.84186  1.0000
  Fe  Fe374     1.0  0.07017  0.70955  0.90754  1.0000
  S   S736      1.0  0.09565  0.71198  0.89012  1.0000
  S   S737      1.0  0.04861  0.73231  0.91078  1.0000
  Fe  Fe375     1.0  0.08316  0.67226  0.92278  1.0000
  S   S738      1.0  0.10951  0.67230  0.90706  1.0000
  S   S739      1.0  0.07774  0.64885  0.94194  1.0000
  Fe  Fe376     1.0  0.10622  0.69740  0.91306  1.0000
  S   S740      1.0  0.12446  0.70414  0.92426  1.0000
  Fe  Fe377     1.0  0.09591  0.68644  0.88603  1.0000
  S   S741      1.0  0.10651  0.67603  0.86230  1.0000
  S   S742      1.0  0.08074  0.69634  0.93049  1.0000
  S   S743      1.0  0.06950  0.68514  0.90162  1.0000
  Fe  Fe378     1.0  0.19171  0.57587  0.90100  1.0000
  S   S744      1.0  0.18079  0.56099  0.92621  1.0000
  S   S745      1.0  0.22018  0.57397  0.89217  1.0000
  Fe  Fe379     1.0  0.15751  0.58724  0.89026  1.0000
  S   S746      1.0  0.14372  0.57313  0.91444  1.0000
  S   S747      1.0  0.14331  0.60464  0.87068  1.0000
  Fe  Fe380     1.0  0.15846  0.58318  0.92669  1.0000
  S   S748      1.0  0.14497  0.59266  0.95038  1.0000
  Fe  Fe381     1.0  0.16715  0.55233  0.91168  1.0000
  S   S749      1.0  0.16797  0.52456  0.91681  1.0000
  S   S750      1.0  0.17062  0.59904  0.90273  1.0000
  S   S751      1.0  0.17971  0.56548  0.88626  1.0000
  C   C2571     1.0  0.12022  0.69468  0.94591  1.0000
  C   C2572     1.0  0.11354  0.68007  0.95122  1.0000
  C   C2573     1.0  0.49463  0.61256  0.84439  1.0000
  C   C2574     1.0  0.12176  0.70251  0.95801  1.0000
  C   C2575     1.0  0.17757  0.50265  0.86043  1.0000
  H   H3138     1.0  0.12697  0.71380  0.95393  1.0000
  C   C2576     1.0  0.09630  0.63291  0.94390  1.0000
  C   C2577     1.0  0.10970  0.63061  0.92987  1.0000
  C   C2578     1.0  0.12450  0.61791  0.93168  1.0000
  C   C2579     1.0  0.12601  0.60764  0.94761  1.0000
  C   C2580     1.0  0.11241  0.60962  0.96152  1.0000
  C   C2581     1.0  0.09755  0.62216  0.95964  1.0000
  H   H3139     1.0  0.10852  0.63835  0.91757  1.0000
  H   H3140     1.0  0.13484  0.61622  0.92085  1.0000
  H   H3141     1.0  0.11321  0.60137  0.97375  1.0000
  H   H3142     1.0  0.08710  0.62366  0.97046  1.0000
  C   C2582     1.0  0.06938  0.65853  0.84258  1.0000
  C   C2583     1.0  0.08702  0.65199  0.83841  1.0000
  C   C2584     1.0  0.09836  0.65757  0.84435  1.0000
  C   C2585     1.0  0.09210  0.66945  0.85472  1.0000
  C   C2586     1.0  0.07449  0.67592  0.85888  1.0000
  C   C2587     1.0  0.06320  0.67057  0.85273  1.0000
  H   H3143     1.0  0.09192  0.64272  0.83056  1.0000
  H   H3144     1.0  0.11198  0.65258  0.84099  1.0000
  H   H3145     1.0  0.06955  0.68532  0.86655  1.0000
  H   H3146     1.0  0.04959  0.67573  0.85594  1.0000
  C   C2588     1.0  0.11730  0.58277  0.84277  1.0000
  C   C2589     1.0  0.12887  0.57183  0.85245  1.0000
  C   C2590     1.0  0.13679  0.57833  0.86134  1.0000
  C   C2591     1.0  0.13344  0.59582  0.86017  1.0000
  C   C2592     1.0  0.12213  0.60671  0.85023  1.0000
  C   C2593     1.0  0.11389  0.60019  0.84177  1.0000
  H   H3147     1.0  0.13148  0.55836  0.85323  1.0000
  H   H3148     1.0  0.14550  0.56987  0.86899  1.0000
  H   H3149     1.0  0.11970  0.62024  0.84904  1.0000
  H   H3150     1.0  0.10501  0.60871  0.83434  1.0000
  H   H3151     1.0  0.05986  0.62998  0.88921  1.0000
  C   C2594     1.0  0.41419  0.77883  0.98197  1.0000
  C   C2595     1.0  0.01868  0.59395  0.80574  1.0000
  H   H3152     1.0  0.11723  0.51224  0.83944  1.0000
  C   C2596     1.0  0.21389  0.50491  0.85051  1.0000
  C   C2597     1.0  0.36504  0.94913  0.79529  1.0000
  H   H3153     1.0  0.11247  0.67381  0.94202  1.0000
  C   C2598     1.0  0.15484  0.52014  0.90623  1.0000
  C   C2599     1.0  0.14411  0.53329  0.89733  1.0000
  C   C2600     1.0  0.13443  0.52961  0.88807  1.0000
  H   H3154     1.0  0.14348  0.54630  0.89733  1.0000
  H   H3155     1.0  0.12641  0.53979  0.88092  1.0000
  C   C2601     1.0  0.23013  0.58290  0.90250  1.0000
  C   C2602     1.0  0.24801  0.58050  0.89844  1.0000
  C   C2603     1.0  0.25630  0.58788  0.90611  1.0000
  C   C2604     1.0  0.24669  0.59800  0.91762  1.0000
  C   C2605     1.0  0.22879  0.60039  0.92169  1.0000
  C   C2606     1.0  0.22052  0.59265  0.91433  1.0000
  H   H3156     1.0  0.25548  0.57311  0.88918  1.0000
  H   H3157     1.0  0.27010  0.58603  0.90288  1.0000
  H   H3158     1.0  0.22133  0.60819  0.93060  1.0000
  H   H3159     1.0  0.20671  0.59458  0.91749  1.0000
  C   C2607     1.0  0.35110  0.57829  0.83845  1.0000
  C   C2608     1.0  0.35912  0.56235  0.84651  1.0000
  C   C2609     1.0  0.35134  0.55465  0.86280  1.0000
  C   C2610     1.0  0.33558  0.56292  0.87112  1.0000
  C   C2611     1.0  0.32746  0.57870  0.86293  1.0000
  C   C2612     1.0  0.33515  0.58632  0.84664  1.0000
  H   H3160     1.0  0.37120  0.55585  0.84020  1.0000
  H   H3161     1.0  0.35763  0.54237  0.86901  1.0000
  H   H3162     1.0  0.31501  0.58489  0.86897  1.0000
  H   H3163     1.0  0.32873  0.59853  0.84042  1.0000
  C   C2613     1.0  0.37006  0.64756  0.91144  1.0000
  C   C2614     1.0  0.37369  0.64711  0.89434  1.0000
  C   C2615     1.0  0.36401  0.63960  0.88843  1.0000
  C   C2616     1.0  0.35062  0.63249  0.89954  1.0000
  C   C2617     1.0  0.34728  0.63241  0.91678  1.0000
  C   C2618     1.0  0.35696  0.64002  0.92272  1.0000
  H   H3164     1.0  0.38388  0.65267  0.88557  1.0000
  H   H3165     1.0  0.36686  0.63943  0.87518  1.0000
  H   H3166     1.0  0.33702  0.62684  0.92544  1.0000
  H   H3167     1.0  0.35419  0.64023  0.93599  1.0000
  C   C2619     1.0  0.42378  0.63712  0.83628  1.0000
  C   C2620     1.0  0.42152  0.63321  0.82198  1.0000
  C   C2621     1.0  0.42501  0.61630  0.82047  1.0000
  C   C2622     1.0  0.43101  0.60318  0.83315  1.0000
  C   C2623     1.0  0.43362  0.60709  0.84731  1.0000
  C   C2624     1.0  0.42984  0.62400  0.84897  1.0000
  H   H3168     1.0  0.41714  0.64331  0.81197  1.0000
  H   H3169     1.0  0.42345  0.61351  0.80928  1.0000
  H   H3170     1.0  0.43847  0.59701  0.85709  1.0000
  H   H3171     1.0  0.43178  0.62688  0.85996  1.0000
  C   C2625     1.0  0.48205  0.66586  0.93217  1.0000
  C   C2626     1.0  0.46489  0.66608  0.93321  1.0000
  C   C2627     1.0  0.46029  0.66103  0.92078  1.0000
  C   C2628     1.0  0.47289  0.65583  0.90727  1.0000
  H   H3172     1.0  0.21705  0.96317  0.96348  1.0000
  C   C2629     1.0  0.49657  0.68124  0.86564  1.0000
  H   H3173     1.0  0.45511  0.67051  0.94342  1.0000
  H   H3174     1.0  0.44703  0.66126  0.92162  1.0000
  H   H3175     1.0  0.39404  0.85059  0.96925  1.0000
  H   H3176     1.0  0.24833  0.90079  0.92489  1.0000
  C   C2630     1.0  0.49392  0.88409  0.79739  1.0000
  C   C2631     1.0  0.42133  0.76193  0.89438  1.0000
  C   C2632     1.0  0.42332  0.76626  0.87681  1.0000
  C   C2633     1.0  0.42193  0.75472  0.86817  1.0000
  C   C2634     1.0  0.41872  0.73871  0.87698  1.0000
  C   C2635     1.0  0.41679  0.73435  0.89455  1.0000
  C   C2636     1.0  0.41822  0.74589  0.90320  1.0000
  H   H3177     1.0  0.42603  0.77847  0.86984  1.0000
  H   H3178     1.0  0.42344  0.75815  0.85456  1.0000
  H   H3179     1.0  0.41407  0.72213  0.90145  1.0000
  H   H3180     1.0  0.41669  0.74244  0.91680  1.0000
  C   C2637     1.0  0.41193  0.83818  0.95026  1.0000
  C   C2638     1.0  0.40663  0.84292  0.96590  1.0000
  H   H3181     1.0  0.10653  0.62884  0.87521  1.0000
  C   C2639     1.0  0.43400  0.82794  0.97291  1.0000
  C   C2640     1.0  0.43913  0.82270  0.95753  1.0000
  C   C2641     1.0  0.42806  0.82774  0.94625  1.0000
  H   H3182     1.0  0.49649  0.81613  0.91228  1.0000
  C   C2642     1.0  0.20949  0.50535  0.90008  1.0000
  H   H3183     1.0  0.45174  0.81491  0.95422  1.0000
  H   H3184     1.0  0.43222  0.82388  0.93431  1.0000
  C   C2643     1.0  0.35438  0.86222  0.88284  1.0000
  C   C2644     1.0  0.35676  0.86376  0.89813  1.0000
  C   C2645     1.0  0.34679  0.87733  0.90555  1.0000
  C   C2646     1.0  0.33467  0.88963  0.89752  1.0000
  C   C2647     1.0  0.33236  0.88817  0.88217  1.0000
  C   C2648     1.0  0.34201  0.87433  0.87497  1.0000
  H   H3185     1.0  0.36619  0.85440  0.90435  1.0000
  H   H3186     1.0  0.34862  0.87837  0.91742  1.0000
  H   H3187     1.0  0.32299  0.89758  0.87594  1.0000
  H   H3188     1.0  0.34009  0.87317  0.86317  1.0000
  C   C2649     1.0  0.43233  0.87960  0.80763  1.0000
  C   C2650     1.0  0.44391  0.88517  0.81309  1.0000
  C   C2651     1.0  0.44868  0.87675  0.82860  1.0000
  C   C2652     1.0  0.44145  0.86312  0.83893  1.0000
  C   C2653     1.0  0.42959  0.85790  0.83358  1.0000
  C   C2654     1.0  0.42531  0.86590  0.81787  1.0000
  H   H3189     1.0  0.44938  0.89572  0.80522  1.0000
  H   H3190     1.0  0.45782  0.88088  0.83269  1.0000
  H   H3191     1.0  0.42402  0.84740  0.84134  1.0000
  H   H3192     1.0  0.41650  0.86143  0.81364  1.0000
  H   H3193     1.0  0.33310  0.96457  0.83395  1.0000
  C   C2655     1.0  0.24892  0.53412  0.88771  1.0000
  C   C2656     1.0  0.12201  0.87127  0.86552  1.0000
  S   S752      1.0  0.38828  0.96737  0.79505  1.0000
  S   S753      1.0  0.05422  0.95476  0.82697  1.0000
  C   C2657     1.0  0.11571  0.69622  0.97536  1.0000
  S   S754      1.0  0.01877  0.93166  0.82760  1.0000
  H   H3194     1.0  0.37834  0.98605  0.83423  1.0000
  C   C2658     1.0  0.48510  0.90699  0.84538  1.0000
  H   H3195     1.0  0.38916  0.67205  0.98481  1.0000
  H   H3196     1.0  0.24491  0.51918  0.85830  1.0000
  H   H3197     1.0  0.13384  0.87349  0.86674  1.0000
  Fe  Fe382     1.0  0.02069  0.83988  0.92262  1.0000
  C   C2659     1.0  0.21679  0.92408  0.89085  1.0000
  C   C2660     1.0  0.23466  0.91863  0.88789  1.0000
  C   C2661     1.0  0.24506  0.92970  0.88684  1.0000
  C   C2662     1.0  0.23763  0.94633  0.88866  1.0000
  C   C2663     1.0  0.21974  0.95164  0.89213  1.0000
  C   C2664     1.0  0.20933  0.94054  0.89325  1.0000
  H   H3198     1.0  0.24048  0.90583  0.88623  1.0000
  H   H3199     1.0  0.25878  0.92538  0.88454  1.0000
  H   H3200     1.0  0.21391  0.96447  0.89367  1.0000
  H   H3201     1.0  0.19557  0.94481  0.89572  1.0000
  C   C2665     1.0  0.14436  0.94429  0.94793  1.0000
  C   C2666     1.0  0.15303  0.95652  0.93687  1.0000
  C   C2667     1.0  0.16403  0.96279  0.94245  1.0000
  C   C2668     1.0  0.16655  0.95661  0.95900  1.0000
  C   C2669     1.0  0.15815  0.94416  0.96990  1.0000
  C   C2670     1.0  0.14699  0.93808  0.96441  1.0000
  H   H3202     1.0  0.15099  0.96139  0.92412  1.0000
  H   H3203     1.0  0.17053  0.97245  0.93397  1.0000
  C   C2671     1.0  0.07422  0.51546  0.82563  1.0000
  H   H3204     1.0  0.42814  0.75425  0.97572  1.0000
  C   C2672     1.0  0.12577  0.95145  0.84542  1.0000
  C   C2673     1.0  0.12768  0.93392  0.84819  1.0000
  C   C2674     1.0  0.12023  0.92712  0.83922  1.0000
  C   C2675     1.0  0.11009  0.93781  0.82805  1.0000
  C   C2676     1.0  0.10791  0.95537  0.82540  1.0000
  C   C2677     1.0  0.11611  0.96216  0.83375  1.0000
  H   H3205     1.0  0.13511  0.92552  0.85707  1.0000
  H   H3206     1.0  0.12224  0.91354  0.84101  1.0000
  H   H3207     1.0  0.10025  0.96369  0.81664  1.0000
  H   H3208     1.0  0.07558  0.78873  0.87079  1.0000
  C   C2678     1.0  0.06584  0.77533  0.92053  1.0000
  C   C2679     1.0  0.04856  0.77670  0.92106  1.0000
  C   C2680     1.0  0.04322  0.76321  0.91866  1.0000
  C   C2681     1.0  0.05515  0.74842  0.91545  1.0000
  C   C2682     1.0  0.07231  0.74684  0.91556  1.0000
  C   C2683     1.0  0.07761  0.76022  0.91821  1.0000
  H   H3209     1.0  0.03930  0.78817  0.92324  1.0000
  H   H3210     1.0  0.02985  0.76434  0.91907  1.0000
  H   H3211     1.0  0.08160  0.73541  0.91336  1.0000
  H   H3212     1.0  0.09098  0.75902  0.91791  1.0000
  C   C2684     1.0  0.01981  0.90358  0.85355  1.0000
  C   C2685     1.0  0.02584  0.88653  0.86082  1.0000
  C   C2686     1.0  0.03811  0.87599  0.85099  1.0000
  H   H3213     1.0  0.01033  0.91169  0.86122  1.0000
  H   H3214     1.0  0.02090  0.88154  0.87400  1.0000
  C   C2687     1.0  0.08150  0.87522  0.91759  1.0000
  C   C2688     1.0  0.08601  0.89079  0.91487  1.0000
  C   C2689     1.0  0.10308  0.89228  0.90832  1.0000
  C   C2690     1.0  0.11584  0.87811  0.90496  1.0000
  C   C2691     1.0  0.11128  0.86257  0.90752  1.0000
  C   C2692     1.0  0.09412  0.86115  0.91366  1.0000
  H   H3215     1.0  0.07625  0.90173  0.91781  1.0000
  H   H3216     1.0  0.10635  0.90436  0.90614  1.0000
  H   H3217     1.0  0.09859  0.64216  0.89027  1.0000
  H   H3218     1.0  0.08785  0.61537  0.92075  1.0000
  C   C2693     1.0  0.07832  0.62240  0.91288  1.0000
  C   C2694     1.0  0.34414  0.49964  0.83400  1.0000
  C   C2695     1.0  0.07448  0.98416  0.85516  1.0000
  H   H3219     1.0  0.48505  0.83861  0.92659  1.0000
  H   H3220     1.0  0.07450  0.63552  0.91511  1.0000
  Fe  Fe383     1.0  0.06879  0.61402  0.79304  1.0000
  C   C2696     1.0  0.10364  0.57485  0.89925  1.0000
  H   H3221     1.0  0.46735  0.63438  0.86033  1.0000
  H   H3222     1.0  0.27762  0.50754  0.92411  1.0000
  S   S755      1.0  0.03510  0.97022  0.79520  1.0000
  H   H3223     1.0  0.04186  0.81713  0.84932  1.0000
  N   N178      1.0  0.21927  0.50416  0.91282  1.0000
  C   C2697     1.0  0.41771  0.77045  0.95521  1.0000
  S   S756      1.0  0.42644  0.88922  0.78804  1.0000
  C   C2698     1.0  0.23350  0.95192  0.84662  1.0000
  C   C2699     1.0  0.05075  0.81144  0.85813  1.0000
  S   S757      1.0  0.06329  0.93424  0.79585  1.0000
  H   H3224     1.0  0.08473  0.70761  0.95818  1.0000
  H   H3225     1.0  0.44535  0.63883  0.96066  1.0000
  C   C2700     1.0  0.37201  0.67028  0.84508  1.0000
  C   C2701     1.0  0.47314  0.84463  0.92258  1.0000
  H   H3226     1.0  0.19609  0.87414  0.94873  1.0000
  C   C2702     1.0  0.49624  0.95486  0.80087  1.0000
  H   H3227     1.0  0.18867  0.53003  0.82338  1.0000
  C   C2703     1.0  0.35664  0.67662  0.85531  1.0000
  H   H3228     1.0  0.48943  0.90569  0.85680  1.0000
  C   C2704     1.0  0.01933  0.53843  0.78696  1.0000
  H   H3229     1.0  0.00886  0.62637  0.82860  1.0000
  C   C2705     1.0  0.27499  0.92404  0.84092  1.0000
  H   H3230     1.0  0.05463  0.70248  0.96229  1.0000
  C   C2706     1.0  0.47428  0.91155  0.81556  1.0000
  C   C2707     1.0  0.06242  0.78700  0.87740  1.0000
  C   C2708     1.0  0.34351  0.52461  0.84342  1.0000
  C   C2709     1.0  0.02641  0.55134  0.78778  1.0000
  H   H3231     1.0  0.09931  0.97984  0.85981  1.0000
  H   H3232     1.0  0.34641  0.54854  0.81328  1.0000
  H   H3233     1.0  0.26862  0.93267  0.80977  1.0000
  C   C2710     1.0  0.10803  0.86912  0.95112  1.0000
  C   C2711     1.0  0.47053  0.84426  0.90668  1.0000
  H   H3234     1.0  0.28999  0.54989  0.91236  1.0000
  C   C2712     1.0  0.45432  0.85290  0.90291  1.0000
  C   C2713     1.0  0.46020  0.85291  0.93398  1.0000
  C   C2714     1.0  0.44141  0.86096  0.91448  1.0000
  C   C2715     1.0  0.44436  0.86101  0.92997  1.0000
  H   H3235     1.0  0.39542  0.63764  0.94761  1.0000
  C   C2716     1.0  0.00268  0.80107  0.88717  1.0000
  H   H3236     1.0  0.47039  0.68858  0.87661  1.0000
  N   N179      1.0  0.06151  0.71968  0.97303  1.0000
  C   C2717     1.0  0.33097  0.57885  0.97303  1.0000
  C   C2718     1.0  0.27005  0.94310  0.81468  1.0000
  C   C2719     1.0  0.23060  0.89457  0.96692  1.0000
  H   H3237     1.0  0.45064  0.92582  0.82768  1.0000
  H   H3238     1.0  0.47726  0.65206  0.85389  1.0000
  C   C2720     1.0  0.04978  0.75098  0.96488  1.0000
  C   C2721     1.0  0.43205  0.65864  0.97405  1.0000
  H   H3239     1.0  0.28878  0.92450  0.83823  1.0000
  C   C2722     1.0  0.21117  0.93762  0.84849  1.0000
  H   H3240     1.0  0.43422  0.86697  0.93907  1.0000
  N   N180      1.0  0.36076  0.63348  0.83478  1.0000
  C   C2723     1.0  0.35526  0.61982  0.84906  1.0000
  C   C2724     1.0  0.34942  0.63781  0.82268  1.0000
  C   C2725     1.0  0.37837  0.62653  0.82599  1.0000
  C   C2726     1.0  0.35948  0.64863  0.84121  1.0000
  C   C2727     1.0  0.37350  0.65652  0.83806  1.0000
  C   C2728     1.0  0.08164  0.80614  0.96168  1.0000
  Fe  Fe384     1.0  0.05163  0.97867  0.80689  1.0000
  H   H3241     1.0  0.15643  0.53172  0.85333  1.0000
  S   S758      1.0  0.31702  0.56976  0.96779  1.0000
  C   C2729     1.0  0.38794  0.63471  0.96080  1.0000
  H   H3242     1.0  0.35809  0.60753  0.84520  1.0000
  H   H3243     1.0  0.49385  0.85819  0.88230  1.0000
  H   H3244     1.0  0.33577  0.64212  0.82865  1.0000
  H   H3245     1.0  0.35012  0.62665  0.81755  1.0000
  H   H3246     1.0  0.35304  0.64813  0.81179  1.0000
  H   H3247     1.0  0.38757  0.62295  0.83445  1.0000
  H   H3248     1.0  0.37897  0.61493  0.82165  1.0000
  H   H3249     1.0  0.38302  0.63573  0.81445  1.0000
  C   C2730     1.0  0.33457  0.49345  0.84990  1.0000
  H   H3250     1.0  0.46491  0.71872  0.91830  1.0000
  H   H3251     1.0  0.46807  0.61816  0.84124  1.0000
  H   H3252     1.0  0.35307  0.61045  0.95736  1.0000
  N   N181      1.0  0.47145  0.71304  0.89338  1.0000
  H   H3253     1.0  0.38305  0.51363  0.82258  1.0000
  C   C2731     1.0  0.32966  0.50264  0.86256  1.0000
  H   H3254     1.0  0.11861  0.75671  0.96885  1.0000
  H   H3255     1.0  0.29527  0.51169  0.94768  1.0000
  S   S759      1.0  0.07595  0.97008  0.78900  1.0000
  H   H3256     1.0  0.07069  0.83273  0.95388  1.0000
  H   H3257     1.0  0.09086  0.89385  0.96706  1.0000
  C   C2732     1.0  0.00908  0.59494  0.79402  1.0000
  C   C2733     1.0  0.27577  0.54226  0.95649  1.0000
  H   H3258     1.0  0.01957  0.81734  0.87371  1.0000
  H   H3259     1.0  0.10832  0.89689  0.97353  1.0000
  N   N182      1.0  0.38536  0.64852  0.96973  1.0000
  S   S760      1.0  0.10037  0.92877  0.81764  1.0000
  H   H3260     1.0  0.26234  0.95510  0.80849  1.0000
  H   H3261     1.0  0.14365  0.86618  0.93389  1.0000
  H   H3262     1.0  0.17693  0.88663  0.94189  1.0000
  C   C2734     1.0  0.22991  0.50510  0.85267  1.0000
  S   S761      1.0  0.43039  0.93297  0.79198  1.0000
  H   H3263     1.0  0.48023  0.69932  0.91615  1.0000
  C   C2735     1.0  0.08206  0.60013  0.88070  1.0000
  C   C2736     1.0  0.08577  0.58338  0.87887  1.0000
  C   C2737     1.0  0.48912  0.84857  0.87897  1.0000
  C   C2738     1.0  0.46319  0.95559  0.79831  1.0000
  H   H3264     1.0  0.07394  0.60926  0.87284  1.0000
  H   H3265     1.0  0.08065  0.58020  0.86987  1.0000
  H   H3266     1.0  0.34222  0.87226  0.97317  1.0000
  N   N183      1.0  0.15487  0.65049  0.87225  1.0000
  C   C2739     1.0  0.15231  0.64910  0.85591  1.0000
  C   C2740     1.0  0.14187  0.64305  0.88601  1.0000
  C   C2741     1.0  0.15175  0.66885  0.87195  1.0000
  C   C2742     1.0  0.17211  0.64166  0.87540  1.0000
  C   C2743     1.0  0.18350  0.62998  0.86575  1.0000
  C   C2744     1.0  0.17763  0.64388  0.88906  1.0000
  C   C2745     1.0  0.19962  0.62170  0.86919  1.0000
  C   C2746     1.0  0.19382  0.63559  0.89230  1.0000
  C   C2747     1.0  0.20485  0.62466  0.88228  1.0000
  H   H3267     1.0  0.15242  0.63588  0.85581  1.0000
  H   H3268     1.0  0.16219  0.65386  0.84509  1.0000
  H   H3269     1.0  0.14408  0.62918  0.88704  1.0000
  H   H3270     1.0  0.12872  0.64879  0.88376  1.0000
  H   H3271     1.0  0.14210  0.64486  0.89854  1.0000
  H   H3272     1.0  0.15064  0.67138  0.88453  1.0000
  H   H3273     1.0  0.13942  0.67596  0.86824  1.0000
  H   H3274     1.0  0.18012  0.62675  0.85571  1.0000
  H   H3275     1.0  0.16935  0.65181  0.89753  1.0000
  H   H3276     1.0  0.20803  0.61264  0.86188  1.0000
  H   H3277     1.0  0.19779  0.63744  0.90280  1.0000
  H   H3278     1.0  0.21736  0.61818  0.88486  1.0000
  C   C2748     1.0  0.24447  0.56274  0.95038  1.0000
  H   H3279     1.0  0.19792  0.49984  0.90588  1.0000
  H   H3280     1.0  0.22759  0.94245  0.97255  1.0000
  C   C2749     1.0  0.24305  0.89641  0.95203  1.0000
  C   C2750     1.0  0.20851  0.51455  0.92517  1.0000
  H   H3281     1.0  0.26199  0.96680  0.83264  1.0000
  H   H3282     1.0  0.10976  0.50732  0.82387  1.0000
  H   H3283     1.0  0.27137  0.54604  0.90858  1.0000
  H   H3284     1.0  0.45770  0.73908  0.89110  1.0000
  C   C2751     1.0  0.32554  0.92353  0.94213  1.0000
  C   C2752     1.0  0.10537  0.51216  0.83574  1.0000
  H   H3285     1.0  0.16418  0.50270  0.86036  1.0000
  C   C2753     1.0  0.01421  0.77099  0.89126  1.0000
  H   H3286     1.0  0.44366  0.66108  0.97554  1.0000
  H   H3287     1.0  0.19705  0.50940  0.93270  1.0000
  H   H3288     1.0  0.48628  0.71938  0.90755  1.0000
  C   C2754     1.0  0.22323  0.92553  0.84051  1.0000
  C   C2755     1.0  0.25378  0.55132  0.94009  1.0000
  H   H3289     1.0  0.28380  0.94392  0.81032  1.0000
  H   H3290     1.0  0.40631  0.78917  0.93601  1.0000
  H   H3291     1.0  0.22106  0.54420  0.86112  1.0000
  H   H3292     1.0  0.44512  0.71413  0.90684  1.0000
  H   H3293     1.0  0.13264  0.84511  0.86460  1.0000
  C   C2756     1.0  0.46600  0.95743  0.81336  1.0000
  H   H3294     1.0  0.12532  0.89175  0.92930  1.0000
  H   H3295     1.0  0.30829  0.61698  0.97289  1.0000
  N   N184      1.0  0.35946  0.52233  0.81379  1.0000
  H   H3296     1.0  0.01258  0.75807  0.89665  1.0000
  C   C2757     1.0  0.47716  0.64029  0.85028  1.0000
  N   N185      1.0  0.35967  0.88894  0.96127  1.0000
  H   H3297     1.0  0.17822  0.90914  0.97271  1.0000
  H   H3298     1.0  0.08506  0.54912  0.84792  1.0000
  C   C2758     1.0  0.48265  0.95631  0.81483  1.0000
  C   C2759     1.0  0.36629  0.88626  0.97673  1.0000
  C   C2760     1.0  0.20291  0.53314  0.85606  1.0000
  H   H3299     1.0  0.09623  0.77837  0.94601  1.0000
  H   H3300     1.0  0.24504  0.52835  0.98220  1.0000
  C   C2761     1.0  0.13293  0.87196  0.95895  1.0000
  H   H3301     1.0  0.17116  0.91883  0.93812  1.0000
  N   N186      1.0  0.27993  0.52966  0.93091  1.0000
  C   C2762     1.0  0.35115  0.59498  0.98259  1.0000
  C   C2763     1.0  0.48291  0.69088  0.87524  1.0000
  H   H3302     1.0  0.21746  0.49843  0.89008  1.0000
  H   H3303     1.0  0.21586  0.51520  0.93412  1.0000
  C   C2764     1.0  0.40202  0.79847  0.95851  1.0000
  C   C2765     1.0  0.05833  0.51584  0.82268  1.0000
  H   H3304     1.0  0.38370  0.66879  0.94780  1.0000
  C   C2766     1.0  0.48562  0.70269  0.88304  1.0000
  H   H3305     1.0  0.28784  0.53492  0.95947  1.0000
  H   H3306     1.0  0.11107  0.62115  0.89584  1.0000
  H   H3307     1.0  0.21266  0.49366  0.84744  1.0000
  H   H3308     1.0  0.14457  0.62111  0.96874  1.0000
  H   H3309     1.0  0.05825  0.79384  0.88793  1.0000
  C   C2767     1.0  0.37567  0.66413  0.96031  1.0000
  C   C2768     1.0  0.41643  0.51159  0.79035  1.0000
  H   H3310     1.0  0.00037  0.84897  0.90011  1.0000
  H   H3311     1.0  0.20485  0.51869  0.89380  1.0000
  H   H3312     1.0  0.35574  0.68698  0.86108  1.0000
  C   C2769     1.0  0.34387  0.65572  0.85134  1.0000
  H   H3313     1.0  0.38299  0.67584  0.84281  1.0000
  H   H3314     1.0  0.47190  0.81445  0.90059  1.0000
  C   C2770     1.0  0.36897  0.96023  0.80269  1.0000
  C   C2771     1.0  0.40153  0.65174  0.97108  1.0000
  H   H3315     1.0  0.27640  0.52821  0.88043  1.0000
  Fe  Fe385     1.0  0.07732  0.94538  0.80807  1.0000
  H   H3316     1.0  0.10199  0.66274  0.97232  1.0000
  H   H3317     1.0  0.46039  0.92208  0.85399  1.0000
  C   C2772     1.0  0.33906  0.91482  0.97104  1.0000
  C   C2773     1.0  0.36486  0.51089  0.80171  1.0000
  H   H3318     1.0  0.37303  0.51623  0.78957  1.0000
  H   H3319     1.0  0.22197  0.53671  0.89597  1.0000
  H   H3320     1.0  0.33014  0.52551  0.86911  1.0000
  H   H3321     1.0  0.00690  0.53691  0.79488  1.0000
  C   C2774     1.0  0.09142  0.53551  0.84915  1.0000
  H   H3322     1.0  0.30508  0.52893  0.93400  1.0000
  H   H3323     1.0  0.19393  0.50731  0.82786  1.0000
  N   N187      1.0  0.37027  0.78936  0.88475  1.0000
  C   C2775     1.0  0.35678  0.79695  0.87469  1.0000
  C   C2776     1.0  0.38555  0.79643  0.87570  1.0000
  C   C2777     1.0  0.37474  0.77080  0.88551  1.0000
  C   C2778     1.0  0.36480  0.79323  0.90183  1.0000
  C   C2779     1.0  0.37216  0.78256  0.91551  1.0000
  C   C2780     1.0  0.35331  0.80860  0.90491  1.0000
  C   C2781     1.0  0.36746  0.78654  0.93146  1.0000
  C   C2782     1.0  0.34875  0.81250  0.92090  1.0000
  C   C2783     1.0  0.35568  0.80142  0.93418  1.0000
  H   H3324     1.0  0.36024  0.79255  0.86261  1.0000
  H   H3325     1.0  0.34435  0.79363  0.88192  1.0000
  H   H3326     1.0  0.35486  0.81100  0.87073  1.0000
  H   H3327     1.0  0.38244  0.81049  0.87349  1.0000
  H   H3328     1.0  0.39110  0.79292  0.86319  1.0000
  H   H3329     1.0  0.39567  0.79187  0.88320  1.0000
  H   H3330     1.0  0.36431  0.76456  0.89392  1.0000
  H   H3331     1.0  0.37725  0.76783  0.87282  1.0000
  H   H3332     1.0  0.38679  0.76445  0.88995  1.0000
  H   H3333     1.0  0.38198  0.77130  0.91400  1.0000
  H   H3334     1.0  0.34812  0.81811  0.89499  1.0000
  H   H3335     1.0  0.37332  0.77821  0.94165  1.0000
  H   H3336     1.0  0.34013  0.82442  0.92283  1.0000
  H   H3337     1.0  0.35230  0.80460  0.94648  1.0000
  N   N188      1.0  0.09381  0.52923  0.83359  1.0000
  C   C2784     1.0  0.10254  0.54056  0.81902  1.0000
  C   C2785     1.0  0.07710  0.52921  0.83049  1.0000
  C   C2786     1.0  0.06338  0.54361  0.83133  1.0000
  H   H3338     1.0  0.10388  0.53468  0.85223  1.0000
  C   C2787     1.0  0.04757  0.54387  0.82832  1.0000
  C   C2788     1.0  0.40502  0.79494  0.97480  1.0000
  H   H3339     1.0  0.46969  0.91420  0.80406  1.0000
  H   H3340     1.0  0.20684  0.96014  0.85773  1.0000
  H   H3341     1.0  0.06471  0.55489  0.83423  1.0000
  C   C2789     1.0  0.33407  0.51825  0.85930  1.0000
  H   H3342     1.0  0.25618  0.89542  0.95255  1.0000
  C   C2790     1.0  0.34964  0.94343  0.80196  1.0000
  C   C2791     1.0  0.10100  0.62887  0.88882  1.0000
  C   C2792     1.0  0.23416  0.52785  0.89609  1.0000
  C   C2793     1.0  0.21901  0.53320  0.85818  1.0000
  H   H3343     1.0  0.36169  0.61801  0.85958  1.0000
  H   H3344     1.0  0.24841  0.55103  0.92985  1.0000
  H   H3345     1.0  0.10629  0.59417  0.90960  1.0000
  H   H3346     1.0  0.45544  0.95881  0.82409  1.0000
  H   H3347     1.0  0.47277  0.64440  0.83814  1.0000
  H   H3348     1.0  0.13961  0.65654  0.85341  1.0000
  S   S762      1.0  0.18012  0.96452  0.96606  1.0000
  H   H3349     1.0  0.19205  0.91852  0.92549  1.0000
  H   H3350     1.0  0.29158  0.53179  0.90429  1.0000
  H   H3351     1.0  0.35364  0.50874  0.79842  1.0000
  H   H3352     1.0  0.16787  0.53385  0.86751  1.0000
  H   H3353     1.0  0.46237  0.85274  0.94617  1.0000
  N   N189      1.0  0.48394  0.83568  0.89423  1.0000
  H   H3354     1.0  0.39440  0.62234  0.96767  1.0000
  C   C2794     1.0  0.34912  0.51539  0.83035  1.0000
  H   H3355     1.0  0.18164  0.88652  0.97474  1.0000
  H   H3356     1.0  0.11572  0.86459  0.93955  1.0000
  H   H3357     1.0  0.18569  0.92769  0.94373  1.0000
  H   H3358     1.0  0.34273  0.90157  0.93497  1.0000
  N   N190      1.0  0.23683  0.95029  0.94568  1.0000
  C   C2795     1.0  0.22969  0.95409  0.96279  1.0000
  H   H3359     1.0  0.10488  0.90291  0.93841  1.0000
  C   C2796     1.0  0.22380  0.94407  0.94138  1.0000
  C   C2797     1.0  0.25328  0.93765  0.94447  1.0000
  C   C2798     1.0  0.26141  0.93218  0.92912  1.0000
  C   C2799     1.0  0.26192  0.93077  0.95809  1.0000
  C   C2800     1.0  0.27705  0.92047  0.92756  1.0000
  C   C2801     1.0  0.27760  0.91911  0.95638  1.0000
  C   C2802     1.0  0.28515  0.91398  0.94115  1.0000
  H   H3360     1.0  0.23826  0.95990  0.96651  1.0000
  H   H3361     1.0  0.24953  0.97120  0.93597  1.0000
  H   H3362     1.0  0.19311  0.54445  0.85745  1.0000
  N   N191      1.0  0.09486  0.77513  0.97270  1.0000
  H   H3363     1.0  0.09920  0.55784  0.88667  1.0000
  C   C2803     1.0  0.01983  0.86467  0.96061  1.0000
  C   C2804     1.0  0.40114  0.66465  0.97918  1.0000
  H   H3364     1.0  0.21124  0.95327  0.94235  1.0000
  H   H3365     1.0  0.22744  0.94214  0.92821  1.0000
  H   H3366     1.0  0.25585  0.93712  0.91808  1.0000
  H   H3367     1.0  0.25693  0.93424  0.97022  1.0000
  H   H3368     1.0  0.28315  0.91662  0.91565  1.0000
  H   H3369     1.0  0.29522  0.60267  0.97411  1.0000
  H   H3370     1.0  0.29739  0.90507  0.93978  1.0000
  C   C2805     1.0  0.01875  0.80419  0.87817  1.0000
  S   S763      1.0  0.43688  0.56049  0.79329  1.0000
  H   H3371     1.0  0.37265  0.49841  0.80689  1.0000
  C   C2806     1.0  0.45515  0.70715  0.89791  1.0000
  H   H3372     1.0  0.23653  0.96226  0.84972  1.0000
  H   H3373     1.0  0.42893  0.86693  0.91155  1.0000
  H   H3374     1.0  0.36025  0.97434  0.82233  1.0000
  S   S764      1.0  0.48742  0.67307  0.94730  1.0000
  C   C2807     1.0  0.08919  0.79314  0.97403  1.0000
  H   H3375     1.0  0.17201  0.51824  0.82945  1.0000
  H   H3376     1.0  0.26498  0.95260  0.85259  1.0000
  H   H3377     1.0  0.08707  0.72395  0.96669  1.0000
  H   H3378     1.0  0.47830  0.85544  0.87259  1.0000
  H   H3379     1.0  0.30404  0.51186  0.92581  1.0000
  H   H3380     1.0  0.34636  0.53688  0.84139  1.0000
  H   H3381     1.0  0.24324  0.96497  0.92026  1.0000
  C   C2808     1.0  0.07646  0.82301  0.96342  1.0000
  H   H3382     1.0  0.28254  0.95400  0.83472  1.0000
  C   C2809     1.0  0.49004  0.65531  0.90645  1.0000
  C   C2810     1.0  0.37523  0.52548  0.81626  1.0000
  N   N192      1.0  0.05034  0.79335  0.86585  1.0000
  H   H3383     1.0  0.13510  0.64213  0.97168  1.0000
  H   H3384     1.0  0.27462  0.91325  0.83591  1.0000
  H   H3385     1.0  0.10682  0.85774  0.96154  1.0000
  N   N193      1.0  0.07618  0.89560  0.86339  1.0000
  C   C2811     1.0  0.06149  0.89029  0.87652  1.0000
  C   C2812     1.0  0.07808  0.91169  0.86610  1.0000
  C   C2813     1.0  0.07209  0.89923  0.84653  1.0000
  C   C2814     1.0  0.09172  0.88187  0.86410  1.0000
  C   C2815     1.0  0.10743  0.88439  0.86557  1.0000
  C   C2816     1.0  0.09158  0.86545  0.86265  1.0000
  H   H3386     1.0  0.06446  0.88659  0.88932  1.0000
  H   H3387     1.0  0.04975  0.90058  0.87676  1.0000
  H   H3388     1.0  0.05792  0.87934  0.87442  1.0000
  H   H3389     1.0  0.06610  0.92164  0.86575  1.0000
  H   H3390     1.0  0.08815  0.91706  0.85594  1.0000
  H   H3391     1.0  0.08127  0.90982  0.87859  1.0000
  H   H3392     1.0  0.06963  0.88799  0.84391  1.0000
  H   H3393     1.0  0.06056  0.90962  0.84524  1.0000
  H   H3394     1.0  0.08294  0.90303  0.83632  1.0000
  H   H3395     1.0  0.10883  0.89632  0.86689  1.0000
  H   H3396     1.0  0.08020  0.86264  0.86118  1.0000
  N   N194      1.0  0.19082  0.90045  0.94958  1.0000
  C   C2817     1.0  0.18473  0.91706  0.93880  1.0000
  H   H3397     1.0  0.49502  0.83769  0.97550  1.0000
  H   H3398     1.0  0.03724  0.55494  0.82930  1.0000
  C   C2818     1.0  0.20864  0.89900  0.95073  1.0000
  C   C2819     1.0  0.47719  0.82354  0.88927  1.0000
  C   C2820     1.0  0.22170  0.90066  0.93582  1.0000
  C   C2821     1.0  0.03311  0.79064  0.87536  1.0000
  C   C2822     1.0  0.10010  0.59157  0.90113  1.0000
  H   H3399     1.0  0.32147  0.93726  0.97768  1.0000
  C   C2823     1.0  0.19029  0.88679  0.94181  1.0000
  C   C2824     1.0  0.46325  0.91832  0.82902  1.0000
  C   C2825     1.0  0.15342  0.86103  0.97767  1.0000
  H   H3400     1.0  0.19728  0.88834  0.92834  1.0000
  C   C2826     1.0  0.41796  0.64253  0.96434  1.0000
  H   H3401     1.0  0.28397  0.91412  0.96693  1.0000
  C   C2827     1.0  0.41534  0.49479  0.79231  1.0000
  C   C2828     1.0  0.00404  0.85989  0.96635  1.0000
  H   H3402     1.0  0.24040  0.49417  0.85145  1.0000
  H   H3403     1.0  0.34675  0.93470  0.79632  1.0000
  H   H3404     1.0  0.21892  0.90277  0.92349  1.0000
  C   C2829     1.0  0.04500  0.52995  0.82417  1.0000
  H   H3405     1.0  0.09481  0.55376  0.81714  1.0000
  C   C2830     1.0  0.14603  0.49966  0.89677  1.0000
  H   H3406     1.0  0.32039  0.92704  0.93081  1.0000
  H   H3407     1.0  0.14072  0.98607  0.96552  1.0000
  C   C2831     1.0  0.34575  0.90423  0.95909  1.0000
  C   C2832     1.0  0.28328  0.53975  0.91332  1.0000
  H   H3408     1.0  0.10563  0.83989  0.86201  1.0000
  C   C2833     1.0  0.32612  0.92930  0.96845  1.0000
  H   H3409     1.0  0.34125  0.62260  0.85445  1.0000
  H   H3410     1.0  0.39505  0.81088  0.95327  1.0000
  S   S765      1.0  0.12464  0.50872  0.87453  1.0000
  C   C2834     1.0  0.08990  0.77163  0.95853  1.0000
  H   H3411     1.0  0.27895  0.49787  0.89428  1.0000
  H   H3412     1.0  0.25975  0.63327  0.98207  1.0000
  H   H3413     1.0  0.17161  0.85072  0.93947  1.0000
  H   H3414     1.0  0.45697  0.69354  0.90423  1.0000
  C   C2835     1.0  0.47594  0.71259  0.90946  1.0000
  H   H3415     1.0  0.49421  0.67198  0.86026  1.0000
  H   H3416     1.0  0.38590  0.65217  0.83049  1.0000
  H   H3417     1.0  0.24402  0.57372  0.97077  1.0000
  H   H3418     1.0  0.05351  0.87442  0.82609  1.0000
  H   H3419     1.0  0.23411  0.89221  0.97901  1.0000
  C   C2836     1.0  0.37429  0.89037  0.94654  1.0000
  H   H3420     1.0  0.37118  0.67454  0.96729  1.0000
  C   C2837     1.0  0.25170  0.49982  0.90303  1.0000
  C   C2838     1.0  0.04406  0.88252  0.83379  1.0000
  H   H3421     1.0  0.36409  0.66188  0.95777  1.0000
  H   H3422     1.0  0.46688  0.82994  0.88217  1.0000
  H   H3423     1.0  0.47292  0.98524  0.84682  1.0000
  C   C2839     1.0  0.03846  0.89969  0.82665  1.0000
  H   H3424     1.0  0.37254  0.53505  0.82399  1.0000
  H   H3425     1.0  0.33705  0.53695  0.80445  1.0000
  C   C2840     1.0  0.16204  0.85614  0.94934  1.0000
  H   H3426     1.0  0.21917  0.91520  0.83840  1.0000
  H   H3427     1.0  0.06374  0.81312  0.85080  1.0000
  H   H3428     1.0  0.38347  0.53040  0.80401  1.0000
  C   C2841     1.0  0.42063  0.76668  0.97159  1.0000
  C   C2842     1.0  0.14592  0.86498  0.94627  1.0000
  H   H3429     1.0  0.03267  0.53012  0.82206  1.0000
  C   C2843     1.0  0.17852  0.89912  0.96622  1.0000
  S   S766      1.0  0.40695  0.59496  0.79717  1.0000
  H   H3430     1.0  0.04070  0.76296  0.88130  1.0000
  H   H3431     1.0  0.02532  0.86760  0.94717  1.0000
  H   H3432     1.0  0.11993  0.77824  0.95836  1.0000
  C   C2844     1.0  0.40838  0.78627  0.94874  1.0000
  C   C2845     1.0  0.19981  0.51886  0.85229  1.0000
  H   H3433     1.0  0.37096  0.89049  0.93457  1.0000
  H   H3434     1.0  0.04084  0.86943  0.96751  1.0000
  C   C2846     1.0  0.33845  0.90898  0.94461  1.0000
  H   H3435     1.0  0.06949  0.64715  0.88763  1.0000
  C   C2847     1.0  0.12135  0.85526  0.86436  1.0000
  N   N195      1.0  0.37813  0.90236  0.83468  1.0000
  C   C2848     1.0  0.38510  0.90979  0.81675  1.0000
  C   C2849     1.0  0.37694  0.88483  0.83571  1.0000
  C   C2850     1.0  0.36063  0.91260  0.83949  1.0000
  C   C2851     1.0  0.38886  0.90187  0.84633  1.0000
  C   C2852     1.0  0.40587  0.90451  0.84052  1.0000
  C   C2853     1.0  0.38279  0.89757  0.86412  1.0000
  C   C2854     1.0  0.41596  0.90315  0.85187  1.0000
  C   C2855     1.0  0.39287  0.89654  0.87534  1.0000
  C   C2856     1.0  0.40947  0.89922  0.86923  1.0000
  H   H3436     1.0  0.39735  0.90171  0.81150  1.0000
  H   H3437     1.0  0.37633  0.91097  0.80839  1.0000
  H   H3438     1.0  0.38718  0.92271  0.81529  1.0000
  H   H3439     1.0  0.38984  0.87674  0.83219  1.0000
  H   H3440     1.0  0.36903  0.88443  0.82714  1.0000
  H   H3441     1.0  0.37119  0.87868  0.84871  1.0000
  H   H3442     1.0  0.36109  0.92562  0.83987  1.0000
  H   H3443     1.0  0.35263  0.91388  0.83036  1.0000
  H   H3444     1.0  0.35339  0.90689  0.85194  1.0000
  H   H3445     1.0  0.41182  0.90731  0.82725  1.0000
  H   H3446     1.0  0.37033  0.89454  0.86954  1.0000
  H   H3447     1.0  0.42903  0.90480  0.84714  1.0000
  H   H3448     1.0  0.38793  0.89312  0.88884  1.0000
  H   H3449     1.0  0.41745  0.89793  0.87795  1.0000
  N   N196      1.0  0.38700  0.57936  0.88123  1.0000
  C   C2857     1.0  0.39646  0.56146  0.88279  1.0000
  C   C2858     1.0  0.36929  0.58043  0.87984  1.0000
  C   C2859     1.0  0.39563  0.58921  0.86520  1.0000
  C   C2860     1.0  0.38643  0.58545  0.89637  1.0000
  C   C2861     1.0  0.37817  0.57762  0.91260  1.0000
  C   C2862     1.0  0.39360  0.59930  0.89554  1.0000
  C   C2863     1.0  0.37675  0.58354  0.92703  1.0000
  C   C2864     1.0  0.39220  0.60504  0.91008  1.0000
  C   C2865     1.0  0.38368  0.59728  0.92575  1.0000
  H   H3450     1.0  0.40972  0.56009  0.88425  1.0000
  H   H3451     1.0  0.39015  0.55286  0.89383  1.0000
  H   H3452     1.0  0.39745  0.55662  0.87140  1.0000
  H   H3453     1.0  0.36094  0.59301  0.88135  1.0000
  H   H3454     1.0  0.36310  0.57075  0.88965  1.0000
  H   H3455     1.0  0.36889  0.57833  0.86748  1.0000
  H   H3456     1.0  0.39574  0.58454  0.85397  1.0000
  H   H3457     1.0  0.38927  0.60284  0.86310  1.0000
  H   H3458     1.0  0.40930  0.58804  0.86513  1.0000
  H   H3459     1.0  0.37244  0.56703  0.91422  1.0000
  H   H3460     1.0  0.40015  0.60615  0.88383  1.0000
  H   H3461     1.0  0.37004  0.57758  0.93925  1.0000
  H   H3462     1.0  0.39743  0.61586  0.90914  1.0000
  H   H3463     1.0  0.38232  0.60202  0.93690  1.0000
  C   C2866     1.0  0.41761  0.83780  0.97723  1.0000
  C   C2867     1.0  0.10363  0.88737  0.97002  1.0000
  Fe  Fe386     1.0  0.04006  0.94538  0.81346  1.0000
  H   H3464     1.0  0.04921  0.72405  0.95203  1.0000
  H   H3465     1.0  0.42289  0.76115  0.94734  1.0000
  H   H3466     1.0  0.44980  0.49117  0.80124  1.0000
  S   S767      1.0  0.02862  0.86366  0.90645  1.0000
  C   C2868     1.0  0.02634  0.91027  0.83653  1.0000
  C   C2869     1.0  0.10765  0.67376  0.96843  1.0000
  H   H3467     1.0  0.33512  0.59631  0.94895  1.0000
  S   S768      1.0  0.32283  0.98681  0.87721  1.0000
  H   H3468     1.0  0.12377  0.90437  0.94387  1.0000
  C   C2870     1.0  0.07224  0.63412  0.88536  1.0000
  C   C2871     1.0  0.08896  0.60469  0.89213  1.0000
  S   S769      1.0  0.48681  0.95539  0.83435  1.0000
  H   H3469     1.0  0.16214  0.67463  0.86281  1.0000
  C   C2872     1.0  0.02862  0.86568  0.97208  1.0000
  C   C2873     1.0  0.43294  0.64599  0.96586  1.0000
  C   C2874     1.0  0.16914  0.53294  0.85427  1.0000
  N   N197      1.0  0.08512  0.62222  0.89467  1.0000
  C   C2875     1.0  0.26645  0.55393  0.96653  1.0000
  H   H3470     1.0  0.01954  0.55971  0.79636  1.0000
  H   H3471     1.0  0.08404  0.50424  0.82402  1.0000
  C   C2876     1.0  0.05657  0.78396  0.85198  1.0000
  C   C2877     1.0  0.49102  0.90196  0.81672  1.0000
  S   S770      1.0  0.39800  0.56371  0.78715  1.0000
  H   H3472     1.0  0.19787  0.93660  0.85265  1.0000
  H   H3473     1.0  0.09504  0.87531  0.94856  1.0000
  H   H3474     1.0  0.03093  0.59760  0.80139  1.0000
  C   C2878     1.0  0.46831  0.73081  0.88377  1.0000
  H   H3475     1.0  0.11644  0.70251  0.98468  1.0000
  C   C2879     1.0  0.34198  0.96011  0.82325  1.0000
  C   C2880     1.0  0.35730  0.96581  0.81656  1.0000
  H   H3476     1.0  0.17815  0.84696  0.96749  1.0000
  H   H3477     1.0  0.20323  0.52772  0.91895  1.0000
  N   N198      1.0  0.18299  0.51837  0.84981  1.0000
  H   H3478     1.0  0.37155  0.89719  0.97649  1.0000
  H   H3479     1.0  0.16025  0.64148  0.98161  1.0000
  C   C2881     1.0  0.26501  0.52335  0.88711  1.0000
  C   C2882     1.0  0.26640  0.50627  0.89486  1.0000
  H   H3480     1.0  0.35653  0.54391  0.79301  1.0000
  C   C2883     1.0  0.31939  0.93368  0.95402  1.0000
  H   H3481     1.0  0.11843  0.77144  0.98076  1.0000
  H   H3482     1.0  0.14048  0.92846  0.97289  1.0000
  H   H3483     1.0  0.30949  0.94502  0.95197  1.0000
  C   C2884     1.0  0.33820  0.94873  0.81612  1.0000
  C   C2885     1.0  0.25093  0.56428  0.96336  1.0000
  C   C2886     1.0  0.11378  0.77017  0.97006  1.0000
  C   C2887     1.0  0.24618  0.93970  0.83855  1.0000
  H   H3484     1.0  0.24782  0.54740  0.88153  1.0000
  H   H3485     1.0  0.38532  0.87942  0.94812  1.0000
  H   H3486     1.0  0.32235  0.49765  0.87487  1.0000
  H   H3487     1.0  0.25814  0.52309  0.92688  1.0000
  S   S771      1.0  0.31986  0.94020  0.82567  1.0000
  H   H3488     1.0  0.44968  0.70910  0.88665  1.0000
  N   N199      1.0  0.26457  0.94032  0.83335  1.0000
  H   H3489     1.0  0.06900  0.78660  0.84388  1.0000
  H   H3490     1.0  0.26627  0.51011  0.94500  1.0000
  C   C2888     1.0  0.24046  0.92660  0.83545  1.0000
  H   H3491     1.0  0.16517  0.90074  0.96484  1.0000
  C   C2889     1.0  0.16575  0.85408  0.96504  1.0000
  C   C2890     1.0  0.23510  0.51052  0.90416  1.0000
  N   N200      1.0  0.11580  0.88085  0.95552  1.0000
  H   H3492     1.0  0.45146  0.85340  0.89100  1.0000
  C   C2891     1.0  0.00040  0.78452  0.89367  1.0000
  C   C2892     1.0  0.09639  0.57076  0.88822  1.0000
  H   H3493     1.0  0.10138  0.87697  0.98132  1.0000
  H   H3494     1.0  0.33270  0.65034  0.85443  1.0000
  C   C2893     1.0  0.15565  0.50332  0.90612  1.0000
  H   H3495     1.0  0.06686  0.61667  0.91800  1.0000
  Fe  Fe387     1.0  0.41569  0.54630  0.80352  1.0000
  H   H3496     1.0  0.24928  0.91698  0.82919  1.0000
  S   S772      1.0  0.41983  0.51800  0.80716  1.0000
  C   C2894     1.0  0.21627  0.95087  0.85136  1.0000
  C   C2895     1.0  0.23936  0.96641  0.93360  1.0000
  H   H3497     1.0  0.09896  0.50286  0.84587  1.0000
  H   H3498     1.0  0.09372  0.75794  0.95817  1.0000
  H   H3499     1.0  0.11483  0.97571  0.83118  1.0000
  C   C2896     1.0  0.48024  0.60925  0.84077  1.0000
  C   C2897     1.0  0.29678  0.52016  0.93487  1.0000
  H   H3500     1.0  0.11219  0.56503  0.90625  1.0000
  H   H3501     1.0  0.03965  0.77788  0.95874  1.0000
  H   H3502     1.0  0.17135  0.54519  0.84568  1.0000
  H   H3503     1.0  0.46466  0.73171  0.87170  1.0000
  H   H3504     1.0  0.04716  0.78747  0.84373  1.0000
  C   C2898     1.0  0.46871  0.91621  0.84384  1.0000
  C   C2899     1.0  0.26860  0.95404  0.83860  1.0000
  H   H3505     1.0  0.16388  0.49311  0.91308  1.0000
  H   H3506     1.0  0.06347  0.77326  0.88319  1.0000
  C   C2900     1.0  0.33782  0.59207  0.96148  1.0000
  C   C2901     1.0  0.26992  0.54099  0.94257  1.0000
  C   C2902     1.0  0.18447  0.51849  0.83184  1.0000
  H   H3507     1.0  0.41960  0.63257  0.95785  1.0000
  C   C2903     1.0  0.13554  0.51282  0.88759  1.0000
  C   C2904     1.0  0.23862  0.89944  0.93650  1.0000
  H   H3508     1.0  0.22162  0.93190  0.95010  1.0000
  H   H3509     1.0  0.07957  0.80365  0.95054  1.0000
  H   H3510     1.0  0.04734  0.81909  0.86793  1.0000
  C   C2905     1.0  0.48122  0.59409  0.83630  1.0000
  H   H3511     1.0  0.48726  0.81608  0.88075  1.0000
  H   H3512     1.0  0.28742  0.62512  0.96856  1.0000
  C   C2906     1.0  0.11752  0.89557  0.94116  1.0000
  C   C2907     1.0  0.03033  0.77394  0.88233  1.0000
  C   C2908     1.0  0.04282  0.76698  0.96869  1.0000
  C   C2909     1.0  0.34257  0.66942  0.85837  1.0000
  C   C2910     1.0  0.07829  0.72021  0.96118  1.0000
  C   C2911     1.0  0.27004  0.51710  0.93173  1.0000
  H   H3513     1.0  0.11317  0.98820  0.87389  1.0000
  C   C2912     1.0  0.34800  0.60006  0.96623  1.0000
  H   H3514     1.0  0.07440  0.84047  0.97878  1.0000
  H   H3515     1.0  0.34928  0.87419  0.95069  1.0000
  H   H3516     1.0  0.18550  0.49111  0.85594  1.0000
  H   H3517     1.0  0.47012  0.59183  0.83352  1.0000
  C   C2913     1.0  0.10836  0.68200  0.98049  1.0000
  H   H3518     1.0  0.07582  0.77547  0.95953  1.0000
  C   C2914     1.0  0.34942  0.53862  0.80581  1.0000
  H   H3519     1.0  0.23243  0.57087  0.94788  1.0000
  C   C2915     1.0  0.35336  0.87370  0.96237  1.0000
  H   H3520     1.0  0.08386  0.52804  0.86028  1.0000
  H   H3521     1.0  0.37553  0.63278  0.95980  1.0000
  H   H3522     1.0  0.27039  0.92086  0.85489  1.0000
  C   C2916     1.0  0.23247  0.51918  0.85655  1.0000
  H   H3523     1.0  0.47983  0.73632  0.88051  1.0000
  C   C2917     1.0  0.05003  0.71557  0.96465  1.0000
  C   C2918     1.0  0.00315  0.63636  0.83609  1.0000
  H   H3524     1.0  0.36350  0.86192  0.96413  1.0000
  C   C2919     1.0  0.05407  0.73642  0.97753  1.0000
  H   H3525     1.0  0.37884  0.90217  0.94470  1.0000
  H   H3526     1.0  0.03683  0.71646  0.97257  1.0000
  H   H3527     1.0  0.46991  0.49184  0.80466  1.0000
  H   H3528     1.0  0.16020  0.93923  0.98258  1.0000
  H   H3529     1.0  0.13760  0.59685  0.98461  1.0000
  N   N201      1.0  0.49426  0.62859  0.84880  1.0000
  C   C2920     1.0  0.49464  0.66049  0.91876  1.0000
  C   C2921     1.0  0.13724  0.86984  0.97474  1.0000
  H   H3530     1.0  0.49052  0.61799  0.87557  1.0000
  H   H3531     1.0  0.01904  0.91979  0.79607  1.0000
  H   H3532     1.0  0.00465  0.64875  0.82740  1.0000
  H   H3533     1.0  0.20473  0.89391  0.97843  1.0000
  H   H3534     1.0  0.16918  0.61962  0.98048  1.0000
  C   C2922     1.0  0.07861  0.82743  0.97738  1.0000
  C   C2923     1.0  0.13614  0.62853  0.97819  1.0000
  C   C2924     1.0  0.29494  0.61498  0.97691  1.0000
  H   H3535     1.0  0.09455  0.94425  0.97530  1.0000
  H   H3536     1.0  0.48989  0.87404  0.80841  1.0000
  H   H3537     1.0  0.11598  0.95985  0.97453  1.0000
  H   H3538     1.0  0.48229  0.89140  0.79248  1.0000
  H   H3539     1.0  0.34724  0.49189  0.82480  1.0000
  H   H3540     1.0  0.00698  0.95868  0.78988  1.0000
  H   H3541     1.0  0.06962  0.69309  0.98406  1.0000
  H   H3542     1.0  0.12305  0.62604  0.98115  1.0000
  H   H3543     1.0  0.37683  0.87486  0.97806  1.0000
  H   H3544     1.0  0.27160  0.55531  0.97648  1.0000
  H   H3545     1.0  0.40041  0.80509  0.98158  1.0000
  C   C2925     1.0  0.49614  0.89984  0.83212  1.0000
  H   H3546     1.0  0.34368  0.91236  0.98248  1.0000
  C   C2926     1.0  0.49640  0.58183  0.83534  1.0000
  H   H3547     1.0  0.48965  0.98896  0.81706  1.0000
  H   H3548     1.0  0.49710  0.57012  0.83184  1.0000
  H   H3549     1.0  0.48292  0.51278  0.78532  1.0000
  S   S773      1.0  0.86819  0.08682  0.18150  1.0000
  H   H3550     1.0  0.51089  0.42486  0.09731  1.0000
  H   H3551     1.0  0.94802  0.18942  0.11810  1.0000
  H   H3552     1.0  0.58950  0.05888  0.11773  1.0000
  Fe  Fe388     1.0  0.89411  0.08107  0.16445  1.0000
  H   H3553     1.0  0.60118  0.37784  0.03305  1.0000
  S   S774      1.0  0.90848  0.10070  0.14708  1.0000
  H   H3554     1.0  0.74612  0.09261  0.01596  1.0000
  N   N202      1.0  0.65142  0.47613  0.09338  1.0000
  S   S775      1.0  0.83733  0.06748  0.16693  1.0000
  Fe  Fe389     1.0  0.86277  0.06643  0.17237  1.0000
  S   S776      1.0  0.88789  0.06210  0.15400  1.0000
  Fe  Fe390     1.0  0.79430  0.13256  0.05227  1.0000
  S   S777      1.0  0.77220  0.14760  0.06790  1.0000
  S   S778      1.0  0.79793  0.14264  0.02410  1.0000
  Fe  Fe391     1.0  0.80657  0.10920  0.08325  1.0000
  S   S779      1.0  0.78528  0.12219  0.10130  1.0000
  S   S780      1.0  0.82920  0.08929  0.09091  1.0000
  Fe  Fe392     1.0  0.76855  0.12235  0.08421  1.0000
  S   S781      1.0  0.74124  0.11933  0.09472  1.0000
  Fe  Fe393     1.0  0.79076  0.14619  0.08331  1.0000
  S   S782      1.0  0.79147  0.16806  0.09349  1.0000
  S   S783      1.0  0.78942  0.10716  0.06750  1.0000
  S   S784      1.0  0.81329  0.13326  0.06640  1.0000
  Fe  Fe394     1.0  0.87665  0.19275  0.10714  1.0000
  S   S785      1.0  0.88774  0.18289  0.08337  1.0000
  S   S786      1.0  0.86715  0.17609  0.13184  1.0000
  Fe  Fe395     1.0  0.87631  0.22959  0.08875  1.0000
  S   S787      1.0  0.88715  0.22262  0.06359  1.0000
  S   S788      1.0  0.87025  0.25643  0.09223  1.0000
  Fe  Fe396     1.0  0.86897  0.20509  0.07242  1.0000
  S   S789      1.0  0.85378  0.20300  0.05502  1.0000
  Fe  Fe397     1.0  0.90480  0.20137  0.07714  1.0000
  S   S790      1.0  0.93254  0.19739  0.06401  1.0000
  S   S791      1.0  0.85666  0.21370  0.09667  1.0000
  S   S792      1.0  0.89520  0.20949  0.10195  1.0000
  H   H3555     1.0  0.98842  0.12239  0.14889  1.0000
  C   C2927     1.0  0.94116  0.19263  0.09436  1.0000
  N   N203      1.0  0.72921  0.10115  0.99842  1.0000
  C   C2928     1.0  0.97328  0.20065  0.07943  1.0000
  H   H3556     1.0  0.92899  0.18911  0.10018  1.0000
  H   H3557     1.0  0.69299  0.16386  0.00817  1.0000
  C   C2929     1.0  0.79997  0.40148  0.99351  1.0000
  C   C2930     1.0  0.96239  0.20065  0.06930  1.0000
  H   H3558     1.0  0.75640  0.15268  0.99443  1.0000
  H   H3559     1.0  0.97597  0.15892  0.10380  1.0000
  Fe  Fe398     1.0  0.52469  0.15412  0.17402  1.0000
  S   S793      1.0  0.51867  0.13391  0.16539  1.0000
  S   S794      1.0  0.52058  0.18148  0.15999  1.0000
  Fe  Fe399     1.0  0.54449  0.11900  0.16961  1.0000
  S   S795      1.0  0.56227  0.10401  0.15069  1.0000
  C   C2931     1.0  0.64458  0.09506  0.98562  1.0000
  H   H3560     1.0  0.50900  0.20549  0.00707  1.0000
  C   C2932     1.0  0.68339  0.48115  0.02554  1.0000
  Fe  Fe400     1.0  0.53255  0.24337  0.03445  1.0000
  S   S796      1.0  0.54987  0.25416  0.04300  1.0000
  H   H3561     1.0  0.85094  0.05511  0.09522  1.0000
  Fe  Fe401     1.0  0.52423  0.21951  0.06835  1.0000
  S   S797      1.0  0.54061  0.22854  0.07955  1.0000
  S   S798      1.0  0.51175  0.19803  0.08435  1.0000
  Fe  Fe402     1.0  0.52925  0.25462  0.06647  1.0000
  S   S799      1.0  0.51841  0.27577  0.08063  1.0000
  Fe  Fe403     1.0  0.55969  0.22706  0.05514  1.0000
  S   S800      1.0  0.58694  0.21590  0.05801  1.0000
  S   S801      1.0  0.51109  0.24574  0.05717  1.0000
  S   S802      1.0  0.54411  0.21616  0.04462  1.0000
  Fe  Fe404     1.0  0.67195  0.10892  0.05761  1.0000
  S   S803      1.0  0.65685  0.10605  0.04044  1.0000
  S   S804      1.0  0.70074  0.10332  0.04926  1.0000
  Fe  Fe405     1.0  0.64019  0.11997  0.08323  1.0000
  S   S805      1.0  0.62264  0.11775  0.06845  1.0000
  S   S806      1.0  0.62844  0.13041  0.10663  1.0000
  Fe  Fe406     1.0  0.64121  0.09349  0.06442  1.0000
  S   S807      1.0  0.62943  0.07114  0.06823  1.0000
  Fe  Fe407     1.0  0.63969  0.13054  0.04609  1.0000
  S   S808      1.0  0.62657  0.15115  0.02738  1.0000
  S   S809      1.0  0.65747  0.09453  0.08133  1.0000
  S   S810      1.0  0.65619  0.13454  0.06106  1.0000
  Fe  Fe408     1.0  0.51647  0.47425  0.14487  1.0000
  S   S811      1.0  0.53237  0.45414  0.16120  1.0000
  C   C2933     1.0  0.55786  0.43396  0.10433  1.0000
  C   C2934     1.0  0.70687  0.16143  0.00533  1.0000
  Fe  Fe409     1.0  0.55154  0.47081  0.15088  1.0000
  S   S812      1.0  0.57912  0.46020  0.14013  1.0000
  Fe  Fe410     1.0  0.64694  0.47321  0.02398  1.0000
  S   S813      1.0  0.67551  0.46951  0.01612  1.0000
  Fe  Fe411     1.0  0.61674  0.45592  0.03559  1.0000
  S   S814      1.0  0.59726  0.48044  0.03409  1.0000
  S   S815      1.0  0.61047  0.43018  0.04433  1.0000
  H   H3562     1.0  0.70980  0.47135  0.01490  1.0000
  S   S816      1.0  0.63332  0.46369  0.01025  1.0000
  S   S817      1.0  0.63231  0.46289  0.04960  1.0000
  Fe  Fe412     1.0  0.51813  0.38843  0.09571  1.0000
  H   H3563     1.0  0.86032  0.48753  0.14760  1.0000
  H   H3564     1.0  0.71125  0.46788  0.07466  1.0000
  Fe  Fe413     1.0  0.53327  0.36423  0.07142  1.0000
  S   S818      1.0  0.52063  0.38223  0.05103  1.0000
  S   S819      1.0  0.55045  0.34027  0.06401  1.0000
  Fe  Fe414     1.0  0.52866  0.40226  0.05815  1.0000
  S   S820      1.0  0.53819  0.42407  0.03883  1.0000
  H   H3565     1.0  0.83657  0.04974  0.12724  1.0000
  H   H3566     1.0  0.51220  0.21943  0.10597  1.0000
  S   S821      1.0  0.54313  0.38406  0.07708  1.0000
  H   H3567     1.0  0.83581  0.00576  0.16968  1.0000
  C   C2935     1.0  0.87911  0.45462  0.17944  1.0000
  H   H3568     1.0  0.74725  0.17516  0.02361  1.0000
  H   H3569     1.0  0.88110  0.41747  0.03920  1.0000
  C   C2936     1.0  0.89097  0.15823  0.16850  1.0000
  H   H3570     1.0  0.50917  0.43695  0.15220  1.0000
  S   S822      1.0  0.78048  0.46654  0.01131  1.0000
  S   S823      1.0  0.74817  0.47549  0.05477  1.0000
  Fe  Fe415     1.0  0.89420  0.43912  0.11802  1.0000
  S   S824      1.0  0.88391  0.41959  0.13983  1.0000
  S   S825      1.0  0.92232  0.43901  0.10946  1.0000
  Fe  Fe416     1.0  0.85908  0.45730  0.11097  1.0000
  S   S826      1.0  0.84616  0.43942  0.13225  1.0000
  H   H3571     1.0  0.58249  0.45115  0.08703  1.0000
  Fe  Fe417     1.0  0.86371  0.44197  0.14705  1.0000
  C   C2937     1.0  0.56265  0.38709  0.01189  1.0000
  Fe  Fe418     1.0  0.86751  0.41915  0.12267  1.0000
  S   S827      1.0  0.86020  0.39636  0.11961  1.0000
  S   S828      1.0  0.87515  0.46152  0.12635  1.0000
  S   S829      1.0  0.87941  0.43696  0.10035  1.0000
  Fe  Fe419     1.0  0.83107  0.37742  0.03645  1.0000
  S   S830      1.0  0.85143  0.39202  0.02276  1.0000
  S   S831      1.0  0.80476  0.39048  0.04800  1.0000
  Fe  Fe420     1.0  0.85417  0.34370  0.03027  1.0000
  S   S832      1.0  0.87653  0.35572  0.01603  1.0000
  S   S833      1.0  0.85553  0.31649  0.03004  1.0000
  Fe  Fe421     1.0  0.86846  0.37040  0.03675  1.0000
  S   S834      1.0  0.88715  0.37711  0.04762  1.0000
  Fe  Fe422     1.0  0.85738  0.37616  0.00352  1.0000
  S   S835      1.0  0.84757  0.35671  0.05198  1.0000
  S   S836      1.0  0.83554  0.36320  0.01623  1.0000
  C   C2938     1.0  0.82116  0.02081  0.10539  1.0000
  C   C2939     1.0  0.71560  0.15726  0.01846  1.0000
  H   H3572     1.0  0.55542  0.46913  0.09740  1.0000
  C   C2940     1.0  0.78750  0.39921  0.00843  1.0000
  C   C2941     1.0  0.93067  0.44077  0.12574  1.0000
  C   C2942     1.0  0.94779  0.44192  0.12266  1.0000
  C   C2943     1.0  0.95438  0.44380  0.13556  1.0000
  C   C2944     1.0  0.94382  0.44464  0.15151  1.0000
  C   C2945     1.0  0.92683  0.44312  0.15467  1.0000
  C   C2946     1.0  0.92024  0.44122  0.14181  1.0000
  H   H3573     1.0  0.95590  0.44161  0.11024  1.0000
  H   H3574     1.0  0.96748  0.44504  0.13298  1.0000
  H   H3575     1.0  0.70385  0.99018  0.01803  1.0000
  H   H3576     1.0  0.90706  0.44020  0.14429  1.0000
  C   C2947     1.0  0.86794  0.39096  0.09963  1.0000
  C   C2948     1.0  0.88255  0.39589  0.08860  1.0000
  C   C2949     1.0  0.88856  0.39123  0.07284  1.0000
  C   C2950     1.0  0.87976  0.38203  0.06782  1.0000
  C   C2951     1.0  0.86517  0.37710  0.07886  1.0000
  C   C2952     1.0  0.85940  0.38138  0.09479  1.0000
  H   H3577     1.0  0.88938  0.40303  0.09230  1.0000
  H   H3578     1.0  0.89989  0.39502  0.06439  1.0000
  H   H3579     1.0  0.85845  0.36980  0.07524  1.0000
  H   H3580     1.0  0.84823  0.37735  0.10335  1.0000
  C   C2953     1.0  0.78765  0.44560  0.02178  1.0000
  C   C2954     1.0  0.77835  0.43878  0.03756  1.0000
  C   C2955     1.0  0.78380  0.42191  0.04559  1.0000
  C   C2956     1.0  0.79864  0.41178  0.03793  1.0000
  C   C2957     1.0  0.80812  0.41866  0.02226  1.0000
  C   C2958     1.0  0.80258  0.43552  0.01416  1.0000
  H   H3581     1.0  0.76666  0.44630  0.04338  1.0000
  H   H3582     1.0  0.77638  0.41663  0.05766  1.0000
  H   H3583     1.0  0.81937  0.41085  0.01607  1.0000
  H   H3584     1.0  0.80981  0.44075  0.00199  1.0000
  C   C2959     1.0  0.59123  0.01683  0.13335  1.0000
  H   H3585     1.0  0.62858  0.02495  0.99044  1.0000
  H   H3586     1.0  0.71178  0.44989  0.05565  1.0000
  H   H3587     1.0  0.99659  0.16507  0.13081  1.0000
  C   C2960     1.0  0.79909  0.46608  0.10426  1.0000
  C   C2961     1.0  0.81541  0.46687  0.10528  1.0000
  C   C2962     1.0  0.90135  0.16835  0.15636  1.0000
  S   S837      1.0  0.84531  0.47871  0.09341  1.0000
  H   H3588     1.0  0.79188  0.45792  0.11426  1.0000
  H   H3589     1.0  0.82053  0.45948  0.11612  1.0000
  H   H3590     1.0  0.63024  0.01457  0.08621  1.0000
  H   H3591     1.0  0.76500  0.16092  0.01351  1.0000
  C   C2963     1.0  0.59734  0.17754  0.11317  1.0000
  H   H3592     1.0  0.49948  0.35451  0.06744  1.0000
  C   C2964     1.0  0.84543  0.04463  0.09466  1.0000
  C   C2965     1.0  0.55867  0.40998  0.13546  1.0000
  S   S838      1.0  0.66699  0.00928  0.03311  1.0000
  H   H3593     1.0  0.62668  0.08474  0.13802  1.0000
  H   H3594     1.0  0.62105  0.14084  0.99632  1.0000
  C   C2966     1.0  0.65289  0.48532  0.10552  1.0000
  H   H3595     1.0  0.65988  0.99726  0.11665  1.0000
  C   C2967     1.0  0.59076  0.42862  0.04174  1.0000
  C   C2968     1.0  0.57998  0.44252  0.03365  1.0000
  C   C2969     1.0  0.56391  0.44102  0.03255  1.0000
  C   C2970     1.0  0.55863  0.42562  0.03951  1.0000
  C   C2971     1.0  0.56966  0.41166  0.04710  1.0000
  C   C2972     1.0  0.58563  0.41317  0.04829  1.0000
  H   H3596     1.0  0.58396  0.45442  0.02828  1.0000
  H   H3597     1.0  0.55550  0.45185  0.02648  1.0000
  H   H3598     1.0  0.56604  0.39960  0.05184  1.0000
  H   H3599     1.0  0.59401  0.40232  0.05439  1.0000
  C   C2973     1.0  0.59057  0.38027  0.02694  1.0000
  H   H3600     1.0  0.93928  0.15006  0.16800  1.0000
  H   H3601     1.0  0.51620  0.21260  0.13540  1.0000
  H   H3602     1.0  0.50688  0.30292  0.99477  1.0000
  H   H3603     1.0  0.62990  0.11972  0.17534  1.0000
  C   C2974     1.0  0.59336  0.12790  0.18297  1.0000
  C   C2975     1.0  0.71624  0.09506  0.99394  1.0000
  H   H3604     1.0  0.78966  0.38799  0.01836  1.0000
  H   H3605     1.0  0.66764  0.12290  0.98924  1.0000
  H   H3606     1.0  0.87092  0.02086  0.10584  1.0000
  C   C2976     1.0  0.63742  0.00585  0.09568  1.0000
  H   H3607     1.0  0.99129  0.25383  0.06891  1.0000
  C   C2977     1.0  0.59673  0.46379  0.10718  1.0000
  C   C2978     1.0  0.70143  0.09140  0.00627  1.0000
  H   H3608     1.0  0.60100  0.45015  0.11005  1.0000
  C   C2979     1.0  0.52682  0.29413  0.07505  1.0000
  C   C2980     1.0  0.52079  0.30564  0.08576  1.0000
  C   C2981     1.0  0.52767  0.32006  0.08220  1.0000
  C   C2982     1.0  0.54076  0.32297  0.06798  1.0000
  C   C2983     1.0  0.54681  0.31147  0.05724  1.0000
  C   C2984     1.0  0.53969  0.29719  0.06062  1.0000
  H   H3609     1.0  0.94485  0.48060  0.13691  1.0000
  H   H3610     1.0  0.52306  0.32875  0.09066  1.0000
  H   H3611     1.0  0.55702  0.31363  0.04627  1.0000
  H   H3612     1.0  0.54436  0.28848  0.05221  1.0000
  C   C2985     1.0  0.59790  0.19816  0.04910  1.0000
  C   C2986     1.0  0.61278  0.18802  0.05429  1.0000
  C   C2987     1.0  0.62156  0.17359  0.04770  1.0000
  C   C2988     1.0  0.61570  0.16933  0.03565  1.0000
  C   C2989     1.0  0.60097  0.17962  0.03025  1.0000
  C   C2990     1.0  0.59199  0.19391  0.03707  1.0000
  H   H3613     1.0  0.61745  0.19122  0.06356  1.0000
  H   H3614     1.0  0.63297  0.16589  0.05186  1.0000
  H   H3615     1.0  0.59639  0.17647  0.02088  1.0000
  H   H3616     1.0  0.58068  0.20176  0.03279  1.0000
  H   H3617     1.0  0.97218  0.37594  0.08664  1.0000
  H   H3618     1.0  0.84264  0.10298  0.15800  1.0000
  H   H3619     1.0  0.60290  0.08959  0.16145  1.0000
  H   H3620     1.0  0.51500  0.16691  0.10920  1.0000
  H   H3621     1.0  0.95943  0.11733  0.15641  1.0000
  C   C2991     1.0  0.57998  0.11215  0.13763  1.0000
  C   C2992     1.0  0.59094  0.10372  0.12517  1.0000
  C   C2993     1.0  0.60565  0.10951  0.11526  1.0000
  C   C2994     1.0  0.60963  0.12351  0.11809  1.0000
  H   H3622     1.0  0.55085  0.39411  0.12415  1.0000
  H   H3623     1.0  0.84655  0.31147  0.99902  1.0000
  H   H3624     1.0  0.58816  0.09260  0.12329  1.0000
  H   H3625     1.0  0.61419  0.10279  0.10585  1.0000
  C   C2995     1.0  0.51801  0.18584  0.13901  1.0000
  C   C2996     1.0  0.51765  0.17302  0.13150  1.0000
  C   C2997     1.0  0.51527  0.17690  0.11488  1.0000
  C   C2998     1.0  0.51366  0.19358  0.10549  1.0000
  C   C2999     1.0  0.51396  0.20644  0.11295  1.0000
  C   C3000     1.0  0.51610  0.20257  0.12966  1.0000
  C   C3001     1.0  0.50746  0.44415  0.11091  1.0000
  H   H3626     1.0  0.88648  0.44224  0.04590  1.0000
  H   H3627     1.0  0.51083  0.30335  0.09694  1.0000
  H   H3628     1.0  0.65755  0.45593  0.07069  1.0000
  H   H3629     1.0  0.85966  0.99723  0.11408  1.0000
  C   C3002     1.0  0.69976  0.45487  0.06353  1.0000
  H   H3630     1.0  0.58171  0.42788  0.00074  1.0000
  C   C3003     1.0  0.91535  0.48771  0.12523  1.0000
  H   H3631     1.0  0.79787  0.13394  0.14069  1.0000
  H   H3632     1.0  0.54925  0.45259  0.06473  1.0000
  C   C3004     1.0  0.65636  0.02706  0.04197  1.0000
  C   C3005     1.0  0.66443  0.04054  0.03915  1.0000
  C   C3006     1.0  0.65624  0.05439  0.04691  1.0000
  C   C3007     1.0  0.63981  0.05490  0.05715  1.0000
  C   C3008     1.0  0.63151  0.04179  0.05930  1.0000
  C   C3009     1.0  0.63981  0.02783  0.05189  1.0000
  H   H3633     1.0  0.67722  0.04005  0.03139  1.0000
  H   H3634     1.0  0.66272  0.06449  0.04518  1.0000
  H   H3635     1.0  0.61870  0.04229  0.06704  1.0000
  H   H3636     1.0  0.63336  0.01768  0.05382  1.0000
  H   H3637     1.0  0.67779  0.08296  0.01204  1.0000
  H   H3638     1.0  0.55002  0.17967  0.11437  1.0000
  C   C3010     1.0  0.51241  0.41398  0.12326  1.0000
  C   C3011     1.0  0.69943  0.46499  0.07428  1.0000
  H   H3639     1.0  0.51915  0.16012  0.13844  1.0000
  C   C3012     1.0  0.79359  0.10969  0.99110  1.0000
  C   C3013     1.0  0.97223  0.39414  0.14328  1.0000
  C   C3014     1.0  0.58890  0.39368  0.01294  1.0000
  H   H3640     1.0  0.82845  0.03082  0.13618  1.0000
  N   N204      1.0  0.57369  0.41155  0.98986  1.0000
  C   C3015     1.0  0.86719  0.27318  0.07466  1.0000
  C   C3016     1.0  0.86911  0.27002  0.05871  1.0000
  C   C3017     1.0  0.86583  0.28348  0.04507  1.0000
  C   C3018     1.0  0.86080  0.30022  0.04721  1.0000
  C   C3019     1.0  0.85936  0.30349  0.06300  1.0000
  C   C3020     1.0  0.86250  0.28996  0.07673  1.0000
  H   H3641     1.0  0.87290  0.25723  0.05688  1.0000
  H   H3642     1.0  0.86715  0.28091  0.03282  1.0000
  H   H3643     1.0  0.85547  0.31639  0.06475  1.0000
  H   H3644     1.0  0.86105  0.29253  0.08902  1.0000
  C   C3021     1.0  0.61388  0.10528  0.17099  1.0000
  C   C3022     1.0  0.73025  0.11441  0.08216  1.0000
  C   C3023     1.0  0.71230  0.11830  0.08595  1.0000
  C   C3024     1.0  0.70312  0.11480  0.07601  1.0000
  C   C3025     1.0  0.71188  0.10716  0.06237  1.0000
  C   C3026     1.0  0.72983  0.10292  0.05880  1.0000
  C   C3027     1.0  0.73902  0.10670  0.06855  1.0000
  H   H3645     1.0  0.70546  0.12417  0.09653  1.0000
  H   H3646     1.0  0.68928  0.11802  0.07893  1.0000
  H   H3647     1.0  0.73666  0.09669  0.04848  1.0000
  H   H3648     1.0  0.75286  0.10341  0.06575  1.0000
  C   C3028     1.0  0.80817  0.17842  0.08227  1.0000
  C   C3029     1.0  0.81686  0.17636  0.06597  1.0000
  C   C3030     1.0  0.83080  0.18405  0.05759  1.0000
  C   C3031     1.0  0.83629  0.19351  0.06563  1.0000
  C   C3032     1.0  0.82738  0.19581  0.08181  1.0000
  C   C3033     1.0  0.81317  0.18852  0.08998  1.0000
  H   H3649     1.0  0.81276  0.16900  0.05972  1.0000
  H   H3650     1.0  0.83746  0.18246  0.04496  1.0000
  H   H3651     1.0  0.83120  0.20340  0.08798  1.0000
  H   H3652     1.0  0.80634  0.19030  0.10252  1.0000
  C   C3034     1.0  0.89640  0.12125  0.14132  1.0000
  C   C3035     1.0  0.90440  0.13367  0.12957  1.0000
  C   C3036     1.0  0.89529  0.15050  0.12595  1.0000
  C   C3037     1.0  0.87823  0.15492  0.13428  1.0000
  C   C3038     1.0  0.87007  0.14242  0.14552  1.0000
  C   C3039     1.0  0.87910  0.12560  0.14892  1.0000
  H   H3653     1.0  0.91772  0.13031  0.12342  1.0000
  H   H3654     1.0  0.90163  0.16013  0.11720  1.0000
  H   H3655     1.0  0.85677  0.14579  0.15176  1.0000
  H   H3656     1.0  0.87272  0.11613  0.15771  1.0000
  C   C3040     1.0  0.83114  0.08549  0.11199  1.0000
  C   C3041     1.0  0.84751  0.08066  0.11559  1.0000
  C   C3042     1.0  0.84951  0.07563  0.13241  1.0000
  C   C3043     1.0  0.83515  0.07504  0.14574  1.0000
  C   C3044     1.0  0.81877  0.08005  0.14213  1.0000
  C   C3045     1.0  0.81675  0.08546  0.12530  1.0000
  H   H3657     1.0  0.85869  0.08059  0.10535  1.0000
  H   H3658     1.0  0.86217  0.07182  0.13498  1.0000
  H   H3659     1.0  0.80760  0.07970  0.15237  1.0000
  H   H3660     1.0  0.80408  0.08901  0.12263  1.0000
  C   C3046     1.0  0.64205  0.46257  0.10326  1.0000
  C   C3047     1.0  0.90284  0.01764  0.14742  1.0000
  C   C3048     1.0  0.89785  0.01078  0.13658  1.0000
  H   H3661     1.0  0.90354  0.03081  0.14404  1.0000
  H   H3662     1.0  0.89463  0.01877  0.12493  1.0000
  H   H3663     1.0  0.81329  0.03347  0.10332  1.0000
  H   H3664     1.0  0.64495  0.06844  0.99014  1.0000
  H   H3665     1.0  0.86044  0.01735  0.12793  1.0000
  C   C3049     1.0  0.79491  0.10255  0.00794  1.0000
  C   C3050     1.0  0.79678  0.11242  0.01808  1.0000
  C   C3051     1.0  0.79734  0.12948  0.01138  1.0000
  N   N205      1.0  0.55785  0.44663  0.08815  1.0000
  H   H3666     1.0  0.79449  0.08935  0.01316  1.0000
  H   H3667     1.0  0.79773  0.10685  0.03105  1.0000
  C   C3052     1.0  0.64078  0.10959  0.99265  1.0000
  C   C3053     1.0  0.50367  0.33052  0.03943  1.0000
  H   H3668     1.0  0.68466  0.48000  0.09174  1.0000
  C   C3054     1.0  0.77287  0.41185  0.01115  1.0000
  C   C3055     1.0  0.57836  0.37031  0.03342  1.0000
  C   C3056     1.0  0.54852  0.46369  0.09129  1.0000
  C   C3057     1.0  0.63556  0.07762  0.01313  1.0000
  H   H3669     1.0  0.64777  0.03490  0.11003  1.0000
  H   H3670     1.0  0.94733  0.15364  0.11215  1.0000
  H   H3671     1.0  0.92248  0.47551  0.13051  1.0000
  H   H3672     1.0  0.54676  0.47309  0.07935  1.0000
  H   H3673     1.0  0.59847  0.40129  0.00865  1.0000
  C   C3058     1.0  0.90723  0.00737  0.16241  1.0000
  H   H3674     1.0  0.57510  0.13346  0.14895  1.0000
  C   C3059     1.0  0.60164  0.47312  0.09073  1.0000
  H   H3675     1.0  0.93710  0.38368  0.10802  1.0000
  C   C3060     1.0  0.64204  0.07933  0.99579  1.0000
  C   C3061     1.0  0.98558  0.14048  0.12511  1.0000
  H   H3676     1.0  0.98566  0.20378  0.07364  1.0000
  S   S839      1.0  0.51578  0.39280  0.12160  1.0000
  H   H3677     1.0  0.74451  0.99177  0.98592  1.0000
  C   C3062     1.0  0.87103  0.42502  0.04706  1.0000
  H   H3678     1.0  0.97954  0.40802  0.09307  1.0000
  N   N206      1.0  0.74352  0.14972  0.02861  1.0000
  C   C3063     1.0  0.75434  0.13245  0.02896  1.0000
  C   C3064     1.0  0.75473  0.16187  0.02509  1.0000
  C   C3065     1.0  0.73257  0.14992  0.04580  1.0000
  C   C3066     1.0  0.73378  0.15414  0.01511  1.0000
  S   S840      1.0  0.54177  0.48506  0.17184  1.0000
  H   H3679     1.0  0.92667  0.17327  0.14669  1.0000
  C   C3067     1.0  0.81775  0.48723  0.07867  1.0000
  C   C3068     1.0  0.89779  0.14467  0.18088  1.0000
  C   C3069     1.0  0.70108  0.47963  0.02283  1.0000
  H   H3680     1.0  0.76340  0.13136  0.01673  1.0000
  H   H3681     1.0  0.76222  0.12871  0.03874  1.0000
  H   H3682     1.0  0.74643  0.12293  0.03167  1.0000
  C   C3070     1.0  0.86172  0.01487  0.17598  1.0000
  H   H3683     1.0  0.76163  0.15946  0.03542  1.0000
  H   H3684     1.0  0.71043  0.11662  0.01459  1.0000
  H   H3685     1.0  0.72427  0.14053  0.04967  1.0000
  H   H3686     1.0  0.74036  0.14639  0.05564  1.0000
  H   H3687     1.0  0.72439  0.16270  0.04666  1.0000
  C   C3071     1.0  0.74256  0.15512  0.99794  1.0000
  H   H3688     1.0  0.55499  0.36594  0.03111  1.0000
  S   S841      1.0  0.90600  0.06147  0.18458  1.0000
  H   H3689     1.0  0.74119  0.07601  0.00970  1.0000
  H   H3690     1.0  0.95805  0.42029  0.09388  1.0000
  N   N207      1.0  0.82515  0.42485  0.07238  1.0000
  C   C3072     1.0  0.82380  0.40931  0.06813  1.0000
  C   C3073     1.0  0.82213  0.42181  0.09108  1.0000
  C   C3074     1.0  0.81136  0.43885  0.06644  1.0000
  C   C3075     1.0  0.84195  0.42955  0.06467  1.0000
  C   C3076     1.0  0.85524  0.42033  0.05383  1.0000
  C   C3077     1.0  0.84544  0.44376  0.06804  1.0000
  C   C3078     1.0  0.57137  0.42783  0.99474  1.0000
  H   H3691     1.0  0.93879  0.13271  0.13821  1.0000
  C   C3079     1.0  0.62735  0.09209  0.14651  1.0000
  H   H3692     1.0  0.82551  0.41084  0.05426  1.0000
  H   H3693     1.0  0.83342  0.39810  0.07275  1.0000
  H   H3694     1.0  0.81101  0.40613  0.07393  1.0000
  H   H3695     1.0  0.83290  0.41220  0.09590  1.0000
  H   H3696     1.0  0.81013  0.41718  0.09741  1.0000
  H   H3697     1.0  0.82088  0.43345  0.09554  1.0000
  H   H3698     1.0  0.81330  0.44162  0.05241  1.0000
  H   H3699     1.0  0.79850  0.43571  0.07184  1.0000
  H   H3700     1.0  0.81069  0.45078  0.07013  1.0000
  H   H3701     1.0  0.85399  0.40918  0.05065  1.0000
  H   H3702     1.0  0.83597  0.45136  0.07612  1.0000
  C   C3080     1.0  0.89690  0.99371  0.14085  1.0000
  C   C3081     1.0  0.97997  0.12916  0.14036  1.0000
  N   N208      1.0  0.63926  0.99804  0.99603  1.0000
  H   H3703     1.0  0.55694  0.19175  0.13416  1.0000
  C   C3082     1.0  0.81917  0.11780  0.15107  1.0000
  H   H3704     1.0  0.81545  0.14584  0.11423  1.0000
  H   H3705     1.0  0.55022  0.41406  0.09744  1.0000
  H   H3706     1.0  0.53630  0.44130  0.08257  1.0000
  H   H3707     1.0  0.60160  0.14285  0.13260  1.0000
  H   H3708     1.0  0.57113  0.03904  0.13550  1.0000
  H   H3709     1.0  0.62980  0.46761  0.11157  1.0000
  H   H3710     1.0  0.81922  0.04732  0.12039  1.0000
  H   H3711     1.0  0.59004  0.13368  0.17039  1.0000
  C   C3083     1.0  0.95651  0.14671  0.11999  1.0000
  C   C3084     1.0  0.68392  0.47194  0.08407  1.0000
  C   C3085     1.0  0.87410  0.43889  0.05089  1.0000
  C   C3086     1.0  0.90674  0.48835  0.11287  1.0000
  H   H3712     1.0  0.61551  0.99644  0.01446  1.0000
  C   C3087     1.0  0.64602  0.00184  0.12184  1.0000
  S   S842      1.0  0.85146  0.44650  0.17340  1.0000
  S   S843      1.0  0.50424  0.40791  0.07720  1.0000
  H   H3713     1.0  0.64321  0.03647  0.08981  1.0000
  S   S844      1.0  0.99263  0.45188  0.17745  1.0000
  H   H3714     1.0  0.50988  0.33021  0.02643  1.0000
  H   H3715     1.0  0.65063  0.00090  0.08895  1.0000
  Fe  Fe423     1.0  0.89720  0.04307  0.17583  1.0000
  C   C3088     1.0  0.64785  0.02751  0.10086  1.0000
  C   C3089     1.0  0.54968  0.44259  0.07653  1.0000
  C   C3090     1.0  0.51200  0.41752  0.13873  1.0000
  C   C3091     1.0  0.60841  0.01054  0.12657  1.0000
  H   H3716     1.0  0.60305  0.13419  0.18399  1.0000
  C   C3092     1.0  0.86951  0.33089  0.98808  1.0000
  H   H3717     1.0  0.83287  0.05086  0.09113  1.0000
  S   S845      1.0  0.98836  0.41355  0.17915  1.0000
  H   H3718     1.0  0.69680  0.48797  0.98615  1.0000
  C   C3093     1.0  0.64146  0.09928  0.14321  1.0000
  H   H3719     1.0  0.50262  0.10566  0.17161  1.0000
  H   H3720     1.0  0.64967  0.13405  0.00226  1.0000
  C   C3094     1.0  0.50952  0.43433  0.14022  1.0000
  C   C3095     1.0  0.82481  0.47742  0.09248  1.0000
  C   C3096     1.0  0.97317  0.14953  0.11524  1.0000
  H   H3721     1.0  0.65166  0.09755  0.13220  1.0000
  C   C3097     1.0  0.50606  0.34303  0.04605  1.0000
  H   H3722     1.0  0.50575  0.28544  0.02976  1.0000
  C   C3098     1.0  0.85905  0.30585  0.99152  1.0000
  C   C3099     1.0  0.51351  0.21679  0.99969  1.0000
  H   H3723     1.0  0.50558  0.45444  0.10012  1.0000
  C   C3100     1.0  0.50710  0.44768  0.12632  1.0000
  H   H3724     1.0  0.71612  0.12716  0.99293  1.0000
  S   S846      1.0  0.55113  0.13988  0.17661  1.0000
  Fe  Fe424     1.0  0.76603  0.48285  0.02998  1.0000
  C   C3101     1.0  0.97172  0.37755  0.09947  1.0000
  H   H3725     1.0  0.56632  0.44894  0.11671  1.0000
  H   H3726     1.0  0.79670  0.14975  0.98924  1.0000
  H   H3727     1.0  0.54663  0.41577  0.99104  1.0000
  C   C3102     1.0  0.66816  0.46876  0.08346  1.0000
  H   H3728     1.0  0.73056  0.12262  0.00692  1.0000
  C   C3103     1.0  0.62904  0.99663  0.01368  1.0000
  H   H3729     1.0  0.64992  0.45252  0.11142  1.0000
  C   C3104     1.0  0.51026  0.42737  0.10934  1.0000
  H   H3730     1.0  0.57931  0.10703  0.17479  1.0000
  H   H3731     1.0  0.61918  0.04854  0.10537  1.0000
  C   C3105     1.0  0.58590  0.47203  0.11981  1.0000
  C   C3106     1.0  0.51764  0.22722  0.00782  1.0000
  C   C3107     1.0  0.64103  0.48830  0.08168  1.0000
  C   C3108     1.0  0.61944  0.02151  0.11649  1.0000
  C   C3109     1.0  0.58449  0.03421  0.13029  1.0000
  Fe  Fe425     1.0  0.97951  0.44000  0.16522  1.0000
  C   C3110     1.0  0.81462  0.00754  0.10434  1.0000
  H   H3732     1.0  0.68478  0.44428  0.05364  1.0000
  H   H3733     1.0  0.89354  0.11586  0.17724  1.0000
  H   H3734     1.0  0.57655  0.45654  0.06700  1.0000
  C   C3111     1.0  0.79205  0.47583  0.09042  1.0000
  C   C3112     1.0  0.62874  0.11195  0.16758  1.0000
  H   H3735     1.0  0.81156  0.39177  0.99261  1.0000
  S   S847      1.0  0.77148  0.47464  0.08962  1.0000
  C   C3113     1.0  0.65521  0.13221  0.98912  1.0000
  C   C3114     1.0  0.83690  0.11244  0.14832  1.0000
  C   C3115     1.0  0.58364  0.12656  0.13987  1.0000
  C   C3116     1.0  0.86129  0.44830  0.06131  1.0000
  C   C3117     1.0  0.59487  0.04535  0.12030  1.0000
  N   N209      1.0  0.95981  0.39350  0.10317  1.0000
  C   C3118     1.0  0.94322  0.39402  0.09934  1.0000
  H   H3736     1.0  0.86367  0.45903  0.06445  1.0000
  Fe  Fe426     1.0  0.76318  0.48739  0.06507  1.0000
  C   C3119     1.0  0.95832  0.39449  0.12085  1.0000
  C   C3120     1.0  0.94231  0.39841  0.13212  1.0000
  H   H3737     1.0  0.62619  0.09034  0.03385  1.0000
  H   H3738     1.0  0.73758  0.99873  0.00539  1.0000
  H   H3739     1.0  0.66145  0.02181  0.09583  1.0000
  H   H3740     1.0  0.55694  0.43071  0.07233  1.0000
  H   H3741     1.0  0.93410  0.40638  0.10025  1.0000
  H   H3742     1.0  0.94480  0.39260  0.08620  1.0000
  H   H3743     1.0  0.69942  0.09288  0.01909  1.0000
  C   C3121     1.0  0.64222  0.10908  0.15380  1.0000
  H   H3744     1.0  0.86698  0.29843  0.00094  1.0000
  C   C3122     1.0  0.94627  0.19676  0.07677  1.0000
  C   C3123     1.0  0.52340  0.24186  0.99834  1.0000
  H   H3745     1.0  0.91872  0.47710  0.15830  1.0000
  C   C3124     1.0  0.58422  0.18525  0.12479  1.0000
  H   H3746     1.0  0.93023  0.40080  0.12849  1.0000
  H   H3747     1.0  0.96786  0.36632  0.10887  1.0000
  H   H3748     1.0  0.91875  0.44341  0.16706  1.0000
  H   H3749     1.0  0.96637  0.20381  0.05567  1.0000
  C   C3125     1.0  0.69072  0.08369  0.98605  1.0000
  N   N210      1.0  0.85051  0.13804  0.10362  1.0000
  C   C3126     1.0  0.84921  0.15619  0.10272  1.0000
  C   C3127     1.0  0.86895  0.12961  0.10123  1.0000
  C   C3128     1.0  0.84414  0.13651  0.08935  1.0000
  C   C3129     1.0  0.84000  0.13084  0.11993  1.0000
  C   C3130     1.0  0.84724  0.11867  0.13296  1.0000
  H   H3750     1.0  0.85436  0.15788  0.11291  1.0000
  H   H3751     1.0  0.85631  0.16242  0.09035  1.0000
  H   H3752     1.0  0.83575  0.16335  0.10434  1.0000
  H   H3753     1.0  0.87497  0.13135  0.11077  1.0000
  H   H3754     1.0  0.87637  0.13504  0.08867  1.0000
  H   H3755     1.0  0.87078  0.11581  0.10198  1.0000
  H   H3756     1.0  0.83117  0.14452  0.08870  1.0000
  H   H3757     1.0  0.85244  0.14072  0.07687  1.0000
  H   H3758     1.0  0.84344  0.12316  0.09045  1.0000
  H   H3759     1.0  0.86083  0.11362  0.13158  1.0000
  C   C3131     1.0  0.82190  0.13636  0.12335  1.0000
  H   H3760     1.0  0.51625  0.22399  0.02140  1.0000
  H   H3761     1.0  0.72274  0.00278  0.99196  1.0000
  C   C3132     1.0  0.95201  0.19266  0.10447  1.0000
  C   C3133     1.0  0.68456  0.45168  0.06247  1.0000
  C   C3134     1.0  0.63141  0.09166  0.02035  1.0000
  C   C3135     1.0  0.96666  0.40804  0.09155  1.0000
  C   C3136     1.0  0.96332  0.12633  0.14491  1.0000
  H   H3762     1.0  0.64488  0.00733  0.13283  1.0000
  C   C3137     1.0  0.79620  0.13657  0.99448  1.0000
  H   H3763     1.0  0.96807  0.40784  0.07806  1.0000
  Fe  Fe427     1.0  0.61522  0.48891  0.00976  1.0000
  H   H3764     1.0  0.95563  0.39992  0.16641  1.0000
  C   C3138     1.0  0.94145  0.40009  0.14844  1.0000
  N   N211      1.0  0.63740  0.01444  0.10886  1.0000
  C   C3139     1.0  0.59859  0.13201  0.13039  1.0000
  H   H3765     1.0  0.55321  0.23976  0.10303  1.0000
  C   C3140     1.0  0.96803  0.19669  0.09702  1.0000
  C   C3141     1.0  0.56335  0.17872  0.11380  1.0000
  C   C3142     1.0  0.81168  0.12977  0.13861  1.0000
  H   H3766     1.0  0.51512  0.30344  0.02409  1.0000
  C   C3143     1.0  0.50728  0.29584  0.03471  1.0000
  C   C3144     1.0  0.56723  0.18589  0.12505  1.0000
  H   H3767     1.0  0.58303  0.00813  0.14086  1.0000
  H   H3768     1.0  0.72573  0.08731  0.02454  1.0000
  H   H3769     1.0  0.65526  0.01082  0.00232  1.0000
  C   C3145     1.0  0.61368  0.09504  0.16012  1.0000
  N   N212      1.0  0.84382  0.03199  0.11091  1.0000
  H   H3770     1.0  0.63110  0.99495  0.10109  1.0000
  C   C3146     1.0  0.55393  0.41787  0.10693  1.0000
  C   C3147     1.0  0.68891  0.08578  0.00235  1.0000
  H   H3771     1.0  0.55908  0.43047  0.00403  1.0000
  C   C3148     1.0  0.56295  0.42547  0.13319  1.0000
  C   C3149     1.0  0.63389  0.10744  0.01031  1.0000
  S   S848      1.0  0.95111  0.44902  0.16723  1.0000
  H   H3772     1.0  0.58326  0.43474  0.07690  1.0000
  H   H3773     1.0  0.65321  0.11474  0.15107  1.0000
  C   C3150     1.0  0.82418  0.99097  0.10692  1.0000
  C   C3151     1.0  0.71589  0.16249  0.98860  1.0000
  H   H3774     1.0  0.86520  0.01405  0.16244  1.0000
  C   C3152     1.0  0.91556  0.14197  0.18026  1.0000
  C   C3153     1.0  0.56448  0.37370  0.02589  1.0000
  H   H3775     1.0  0.60144  0.46997  0.99835  1.0000
  H   H3776     1.0  0.55142  0.38913  0.00693  1.0000
  H   H3777     1.0  0.63838  0.45639  0.09507  1.0000
  C   C3154     1.0  0.86078  0.02665  0.11562  1.0000
  H   H3778     1.0  0.63030  0.11798  0.01653  1.0000
  C   C3155     1.0  0.61206  0.03918  0.11335  1.0000
  H   H3779     1.0  0.57948  0.36006  0.04444  1.0000
  H   H3780     1.0  0.90749  0.47683  0.10895  1.0000
  S   S849      1.0  0.98118  0.19642  0.11017  1.0000
  H   H3781     1.0  0.98581  0.38947  0.11917  1.0000
  C   C3156     1.0  0.66899  0.45850  0.07225  1.0000
  N   N213      1.0  0.57179  0.16221  0.09093  1.0000
  C   C3157     1.0  0.56153  0.14952  0.10123  1.0000
  C   C3158     1.0  0.56151  0.17533  0.07965  1.0000
  C   C3159     1.0  0.58687  0.15325  0.08010  1.0000
  C   C3160     1.0  0.57637  0.17031  0.10216  1.0000
  C   C3161     1.0  0.59357  0.17017  0.10198  1.0000
  H   H3782     1.0  0.54917  0.15529  0.10875  1.0000
  H   H3783     1.0  0.55830  0.14277  0.09322  1.0000
  H   H3784     1.0  0.56866  0.13980  0.11027  1.0000
  H   H3785     1.0  0.54908  0.18152  0.08676  1.0000
  H   H3786     1.0  0.55842  0.16995  0.07043  1.0000
  H   H3787     1.0  0.56854  0.18551  0.07231  1.0000
  H   H3788     1.0  0.59512  0.14312  0.08785  1.0000
  H   H3789     1.0  0.58310  0.14704  0.07198  1.0000
  H   H3790     1.0  0.59474  0.16214  0.07136  1.0000
  H   H3791     1.0  0.60440  0.16416  0.09355  1.0000
  H   H3792     1.0  0.81125  0.11249  0.16281  1.0000
  H   H3793     1.0  0.76364  0.41035  0.02307  1.0000
  C   C3162     1.0  0.83750  0.01782  0.10917  1.0000
  N   N214      1.0  0.82258  0.25695  0.06179  1.0000
  C   C3163     1.0  0.83266  0.25779  0.04415  1.0000
  C   C3164     1.0  0.81887  0.27410  0.06540  1.0000
  C   C3165     1.0  0.83328  0.24522  0.07342  1.0000
  C   C3166     1.0  0.80707  0.25041  0.06406  1.0000
  C   C3167     1.0  0.80856  0.23468  0.05999  1.0000
  C   C3168     1.0  0.79036  0.25876  0.07117  1.0000
  C   C3169     1.0  0.79435  0.22758  0.06308  1.0000
  C   C3170     1.0  0.77618  0.25160  0.07409  1.0000
  C   C3171     1.0  0.77819  0.23600  0.07015  1.0000
  H   H3794     1.0  0.82463  0.26538  0.03491  1.0000
  H   H3795     1.0  0.84382  0.26363  0.04183  1.0000
  H   H3796     1.0  0.83816  0.24504  0.04114  1.0000
  H   H3797     1.0  0.81070  0.28358  0.05714  1.0000
  H   H3798     1.0  0.83081  0.27877  0.06318  1.0000
  H   H3799     1.0  0.81259  0.27411  0.07889  1.0000
  H   H3800     1.0  0.83801  0.23247  0.07032  1.0000
  H   H3801     1.0  0.84476  0.24987  0.07289  1.0000
  H   H3802     1.0  0.82595  0.24349  0.08677  1.0000
  H   H3803     1.0  0.82085  0.22746  0.05478  1.0000
  H   H3804     1.0  0.78793  0.27071  0.07478  1.0000
  H   H3805     1.0  0.79599  0.21528  0.06028  1.0000
  H   H3806     1.0  0.76356  0.25806  0.07968  1.0000
  H   H3807     1.0  0.76725  0.23031  0.07273  1.0000
  C   C3172     1.0  0.77060  0.42679  0.99893  1.0000
  C   C3173     1.0  0.84704  0.00081  0.11140  1.0000
  H   H3808     1.0  0.63359  0.06543  0.02101  1.0000
  Fe  Fe428     1.0  0.52089  0.47036  0.18050  1.0000
  H   H3809     1.0  0.51494  0.28983  0.04463  1.0000
  C   C3174     1.0  0.83502  0.00579  0.18310  1.0000
  C   C3175     1.0  0.55434  0.40613  0.12231  1.0000
  H   H3810     1.0  0.51413  0.35172  0.03836  1.0000
  H   H3811     1.0  0.56648  0.42846  0.14337  1.0000
  H   H3812     1.0  0.92909  0.40351  0.15664  1.0000
  S   S850      1.0  0.91171  0.01618  0.17690  1.0000
  C   C3176     1.0  0.56268  0.43724  0.11785  1.0000
  H   H3813     1.0  0.61287  0.99695  0.12907  1.0000
  H   H3814     1.0  0.88562  0.45341  0.16669  1.0000
  C   C3177     1.0  0.90689  0.99016  0.16641  1.0000
  H   H3815     1.0  0.60970  0.46663  0.08101  1.0000
  H   H3816     1.0  0.63811  0.48213  0.07300  1.0000
  H   H3817     1.0  0.87771  0.16118  0.16767  1.0000
  H   H3818     1.0  0.89586  0.17842  0.14688  1.0000
  C   C3178     1.0  0.95636  0.39812  0.15395  1.0000
  H   H3819     1.0  0.70781  0.15656  0.03111  1.0000
  H   H3820     1.0  0.61059  0.17686  0.11303  1.0000
  C   C3179     1.0  0.73579  0.08874  0.01276  1.0000
  H   H3821     1.0  0.98519  0.37720  0.09945  1.0000
  S   S851      1.0  0.50262  0.46890  0.12802  1.0000
  S   S852      1.0  0.52837  0.25535  0.00810  1.0000
  H   H3822     1.0  0.62858  0.00755  0.01903  1.0000
  C   C3180     1.0  0.72123  0.11760  0.00344  1.0000
  H   H3823     1.0  0.86509  0.03758  0.11696  1.0000
  C   C3181     1.0  0.95166  0.13499  0.13467  1.0000
  S   S853      1.0  0.50969  0.36663  0.09215  1.0000
  H   H3824     1.0  0.58722  0.19060  0.13368  1.0000
  H   H3825     1.0  0.55867  0.40096  0.14744  1.0000
  C   C3182     1.0  0.83146  0.04026  0.12424  1.0000
  H   H3826     1.0  0.80204  0.01007  0.10160  1.0000
  H   H3827     1.0  0.53561  0.46321  0.09961  1.0000
  C   C3183     1.0  0.65634  0.00030  0.99613  1.0000
  N   N215      1.0  0.57402  0.25287  0.09171  1.0000
  C   C3184     1.0  0.55723  0.25125  0.10331  1.0000
  C   C3185     1.0  0.57215  0.25604  0.07404  1.0000
  C   C3186     1.0  0.58616  0.23631  0.09514  1.0000
  C   C3187     1.0  0.57962  0.26730  0.09385  1.0000
  C   C3188     1.0  0.59570  0.26566  0.09770  1.0000
  C   C3189     1.0  0.56900  0.28379  0.09158  1.0000
  C   C3190     1.0  0.60068  0.27974  0.09915  1.0000
  C   C3191     1.0  0.57413  0.29778  0.09295  1.0000
  C   C3192     1.0  0.58994  0.29576  0.09674  1.0000
  H   H3828     1.0  0.54668  0.26211  0.09994  1.0000
  H   H3829     1.0  0.75373  0.10830  0.98819  1.0000
  H   H3830     1.0  0.55770  0.25045  0.11660  1.0000
  H   H3831     1.0  0.56185  0.26720  0.07097  1.0000
  H   H3832     1.0  0.56888  0.24512  0.07157  1.0000
  H   H3833     1.0  0.58426  0.25818  0.06487  1.0000
  H   H3834     1.0  0.59876  0.23624  0.08610  1.0000
  H   H3835     1.0  0.58807  0.23298  0.10832  1.0000
  H   H3836     1.0  0.58142  0.22577  0.09347  1.0000
  H   H3837     1.0  0.60470  0.25368  0.09955  1.0000
  H   H3838     1.0  0.55666  0.28605  0.08855  1.0000
  H   H3839     1.0  0.61301  0.27827  0.10206  1.0000
  H   H3840     1.0  0.56583  0.31030  0.09091  1.0000
  H   H3841     1.0  0.59387  0.30667  0.09774  1.0000
  C   C3193     1.0  0.97323  0.39231  0.12701  1.0000
  H   H3842     1.0  0.64074  0.99017  0.12666  1.0000
  H   H3843     1.0  0.85419  0.02801  0.17622  1.0000
  C   C3194     1.0  0.57579  0.44734  0.07940  1.0000
  N   N216      1.0  0.92436  0.25198  0.08204  1.0000
  C   C3195     1.0  0.91410  0.26950  0.08206  1.0000
  C   C3196     1.0  0.92082  0.24570  0.06878  1.0000
  C   C3197     1.0  0.91827  0.24116  0.09864  1.0000
  C   C3198     1.0  0.94284  0.25193  0.07847  1.0000
  C   C3199     1.0  0.95386  0.24144  0.08931  1.0000
  C   C3200     1.0  0.95034  0.26268  0.06372  1.0000
  C   C3201     1.0  0.97111  0.24219  0.08581  1.0000
  C   C3202     1.0  0.96760  0.26333  0.06036  1.0000
  C   C3203     1.0  0.97793  0.25320  0.07146  1.0000
  H   H3844     1.0  0.91601  0.27807  0.06939  1.0000
  H   H3845     1.0  0.90010  0.26985  0.08591  1.0000
  H   H3846     1.0  0.91733  0.27513  0.09101  1.0000
  H   H3847     1.0  0.92393  0.25382  0.05599  1.0000
  H   H3848     1.0  0.90705  0.24532  0.07121  1.0000
  H   H3849     1.0  0.92846  0.23264  0.06820  1.0000
  H   H3850     1.0  0.92063  0.24514  0.10922  1.0000
  H   H3851     1.0  0.90422  0.24196  0.10122  1.0000
  H   H3852     1.0  0.92451  0.22755  0.09909  1.0000
  H   H3853     1.0  0.94958  0.23243  0.10054  1.0000
  H   H3854     1.0  0.94288  0.27069  0.05468  1.0000
  H   H3855     1.0  0.97926  0.23411  0.09428  1.0000
  H   H3856     1.0  0.97303  0.27176  0.04912  1.0000
  H   H3857     1.0  0.85386  0.03870  0.08412  1.0000
  H   H3858     1.0  0.85731  0.33646  0.99593  1.0000
  C   C3204     1.0  0.73352  0.99326  0.99683  1.0000
  Fe  Fe429     1.0  0.61404  0.48809  0.04624  1.0000
  H   H3859     1.0  0.66077  0.47687  0.11460  1.0000
  C   C3205     1.0  0.57496  0.39744  0.00487  1.0000
  H   H3860     1.0  0.98387  0.39268  0.14754  1.0000
  C   C3206     1.0  0.80140  0.48647  0.07765  1.0000
  H   H3861     1.0  0.87841  0.32465  0.99684  1.0000
  H   H3862     1.0  0.51376  0.40723  0.14954  1.0000
  C   C3207     1.0  0.91870  0.16542  0.15620  1.0000
  H   H3863     1.0  0.72123  0.48694  0.02892  1.0000
  H   H3864     1.0  0.86660  0.13787  0.18100  1.0000
  H   H3865     1.0  0.87381  0.01355  0.17996  1.0000
  H   H3866     1.0  0.75957  0.43691  0.00145  1.0000
  C   C3208     1.0  0.92577  0.15230  0.16818  1.0000
  C   C3209     1.0  0.63064  0.01343  0.98540  1.0000
  C   C3210     1.0  0.70755  0.48844  0.03077  1.0000
  H   H3867     1.0  0.85673  0.29691  0.98522  1.0000
  H   H3868     1.0  0.53516  0.28577  0.98753  1.0000
  H   H3869     1.0  0.92348  0.48919  0.17004  1.0000
  S   S854      1.0  0.87449  0.06542  0.22853  1.0000
  C   C3211     1.0  0.81894  0.41203  0.24577  1.0000
  H   H3870     1.0  0.83037  0.46684  0.29479  1.0000
  H   H3871     1.0  0.83994  0.02866  0.20268  1.0000
  H   H3872     1.0  0.95378  0.07846  0.26165  1.0000
  C   C3212     1.0  0.84191  0.40481  0.26025  1.0000
  H   H3873     1.0  0.90695  0.11045  0.19205  1.0000
  H   H3874     1.0  0.97446  0.06545  0.26384  1.0000
  H   H3875     1.0  0.57694  0.37211  0.34739  1.0000
  H   H3876     1.0  0.85750  0.47827  0.34091  1.0000
  S   S855      1.0  0.80861  0.10088  0.34291  1.0000
  Fe  Fe430     1.0  0.91083  0.11058  0.27372  1.0000
  S   S856      1.0  0.92505  0.08873  0.29022  1.0000
  S   S857      1.0  0.91508  0.10938  0.24637  1.0000
  Fe  Fe431     1.0  0.89898  0.13188  0.30091  1.0000
  S   S858      1.0  0.91297  0.11180  0.31903  1.0000
  S   S859      1.0  0.88199  0.15564  0.30870  1.0000
  Fe  Fe432     1.0  0.93436  0.10856  0.29631  1.0000
  S   S860      1.0  0.96240  0.10902  0.29021  1.0000
  Fe  Fe433     1.0  0.90206  0.09426  0.31100  1.0000
  S   S861      1.0  0.88909  0.07510  0.33117  1.0000
  S   S862      1.0  0.92116  0.13024  0.27881  1.0000
  S   S863      1.0  0.88700  0.11459  0.29390  1.0000
  C   C3213     1.0  0.97788  0.40419  0.27437  1.0000
  C   C3214     1.0  0.54510  0.04690  0.24860  1.0000
  H   H3877     1.0  0.88011  0.03080  0.24832  1.0000
  H   H3878     1.0  0.84691  0.41401  0.32266  1.0000
  S   S864      1.0  0.60350  0.45025  0.35569  1.0000
  H   H3879     1.0  0.96582  0.08350  0.27343  1.0000
  Fe  Fe434     1.0  0.52142  0.45488  0.29590  1.0000
  H   H3880     1.0  0.84879  0.39362  0.31853  1.0000
  S   S865      1.0  0.53377  0.46561  0.26906  1.0000
  Fe  Fe435     1.0  0.51844  0.42430  0.32533  1.0000
  C   C3215     1.0  0.84856  0.41317  0.22953  1.0000
  S   S866      1.0  0.52667  0.39612  0.33432  1.0000
  Fe  Fe436     1.0  0.51860  0.45810  0.33172  1.0000
  S   S867      1.0  0.52599  0.46971  0.34936  1.0000
  H   H3881     1.0  0.96742  0.43243  0.20701  1.0000
  S   S868      1.0  0.53731  0.44124  0.31536  1.0000
  S   S869      1.0  0.51333  0.14519  0.20157  1.0000
  C   C3216     1.0  0.54011  0.05855  0.27375  1.0000
  H   H3882     1.0  0.51832  0.04743  0.31428  1.0000
  Fe  Fe437     1.0  0.61085  0.44815  0.38019  1.0000
  H   H3883     1.0  0.95427  0.36744  0.33121  1.0000
  H   H3884     1.0  0.88469  0.14585  0.21362  1.0000
  Fe  Fe438     1.0  0.53718  0.10713  0.31931  1.0000
  S   S870      1.0  0.52733  0.09164  0.34470  1.0000
  S   S871      1.0  0.51992  0.11433  0.30075  1.0000
  Fe  Fe439     1.0  0.56795  0.11014  0.33049  1.0000
  S   S872      1.0  0.56054  0.09495  0.35657  1.0000
  S   S873      1.0  0.59147  0.12117  0.32254  1.0000
  Fe  Fe440     1.0  0.55465  0.07773  0.34362  1.0000
  S   S874      1.0  0.56396  0.04923  0.35049  1.0000
  Fe  Fe441     1.0  0.53407  0.11020  0.35516  1.0000
  C   C3217     1.0  0.60507  0.10242  0.20141  1.0000
  S   S875      1.0  0.56415  0.09184  0.31733  1.0000
  S   S876      1.0  0.54182  0.12679  0.32989  1.0000
  H   H3885     1.0  0.50379  0.14815  0.31334  1.0000
  H   H3886     1.0  0.83759  0.02869  0.23218  1.0000
  H   H3887     1.0  0.56640  0.36897  0.37770  1.0000
  Fe  Fe442     1.0  0.88980  0.43574  0.28019  1.0000
  S   S877      1.0  0.87650  0.43163  0.26231  1.0000
  S   S878      1.0  0.90939  0.41519  0.29216  1.0000
  Fe  Fe443     1.0  0.87934  0.45784  0.24799  1.0000
  S   S879      1.0  0.89037  0.46338  0.21985  1.0000
  Fe  Fe444     1.0  0.85270  0.44477  0.27789  1.0000
  S   S880      1.0  0.82859  0.43504  0.28945  1.0000
  S   S881      1.0  0.89454  0.46112  0.26483  1.0000
  S   S882      1.0  0.86584  0.44677  0.29689  1.0000
  H   H3888     1.0  0.97638  0.40710  0.33336  1.0000
  C   C3218     1.0  0.84313  0.48239  0.36619  1.0000
  H   H3889     1.0  0.82739  0.99634  0.19124  1.0000
  Fe  Fe445     1.0  0.88662  0.33901  0.35509  1.0000
  S   S883      1.0  0.89114  0.35667  0.36822  1.0000
  S   S884      1.0  0.87983  0.34951  0.32963  1.0000
  C   C3219     1.0  0.85044  0.00147  0.20496  1.0000
  N   N217      1.0  0.88733  0.13332  0.19359  1.0000
  H   H3890     1.0  0.85039  0.36050  0.35373  1.0000
  C   C3220     1.0  0.90140  0.25040  0.35714  1.0000
  S   S885      1.0  0.91045  0.31946  0.35875  1.0000
  H   H3891     1.0  0.95206  0.07207  0.21094  1.0000
  H   H3892     1.0  0.98152  0.36956  0.34726  1.0000
  C   C3221     1.0  0.96744  0.34012  0.37995  1.0000
  H   H3893     1.0  0.87269  0.04469  0.32456  1.0000
  C   C3222     1.0  0.94564  0.43912  0.26759  1.0000
  H   H3894     1.0  0.62914  0.01530  0.37097  1.0000
  C   C3223     1.0  0.90165  0.39654  0.30202  1.0000
  C   C3224     1.0  0.90904  0.38473  0.31478  1.0000
  C   C3225     1.0  0.90271  0.37002  0.32303  1.0000
  C   C3226     1.0  0.88908  0.36695  0.31839  1.0000
  C   C3227     1.0  0.88206  0.37848  0.30526  1.0000
  C   C3228     1.0  0.88811  0.39338  0.29732  1.0000
  H   H3895     1.0  0.91944  0.38709  0.31852  1.0000
  H   H3896     1.0  0.90847  0.36099  0.33289  1.0000
  H   H3897     1.0  0.87169  0.37603  0.30148  1.0000
  H   H3898     1.0  0.88238  0.40228  0.28745  1.0000
  H   H3899     1.0  0.94900  0.46045  0.20600  1.0000
  H   H3900     1.0  0.98544  0.36289  0.32772  1.0000
  H   H3901     1.0  0.80963  0.41368  0.25786  1.0000
  C   C3229     1.0  0.80028  0.46376  0.33143  1.0000
  H   H3902     1.0  0.83226  0.40787  0.21575  1.0000
  C   C3230     1.0  0.82093  0.46162  0.30504  1.0000
  C   C3231     1.0  0.81705  0.44637  0.30526  1.0000
  C   C3232     1.0  0.80453  0.43994  0.31850  1.0000
  C   C3233     1.0  0.79636  0.44848  0.33175  1.0000
  C   C3234     1.0  0.86883  0.13848  0.19324  1.0000
  H   H3903     1.0  0.85884  0.14488  0.36232  1.0000
  H   H3904     1.0  0.80126  0.42829  0.31864  1.0000
  H   H3905     1.0  0.78683  0.44337  0.34204  1.0000
  H   H3906     1.0  0.58428  0.18653  0.36160  1.0000
  H   H3907     1.0  0.96529  0.44689  0.27393  1.0000
  C   C3235     1.0  0.84390  0.01669  0.21102  1.0000
  C   C3236     1.0  0.57091  0.38583  0.34579  1.0000
  H   H3908     1.0  0.89767  0.48333  0.28390  1.0000
  H   H3909     1.0  0.57822  0.39261  0.33390  1.0000
  H   H3910     1.0  0.56403  0.04906  0.29215  1.0000
  C   C3237     1.0  0.87924  0.45958  0.20665  1.0000
  C   C3238     1.0  0.86233  0.45766  0.21260  1.0000
  C   C3239     1.0  0.85387  0.45415  0.20202  1.0000
  C   C3240     1.0  0.83725  0.45618  0.38500  1.0000
  H   H3911     1.0  0.85576  0.45901  0.22529  1.0000
  H   H3912     1.0  0.84079  0.45266  0.20659  1.0000
  C   C3241     1.0  0.86803  0.02109  0.32338  1.0000
  C   C3242     1.0  0.53519  0.16240  0.36868  1.0000
  C   C3243     1.0  0.53204  0.14755  0.36675  1.0000
  H   H3913     1.0  0.93868  0.43618  0.28060  1.0000
  H   H3914     1.0  0.62480  0.01285  0.35214  1.0000
  H   H3915     1.0  0.94988  0.38473  0.30556  1.0000
  H   H3916     1.0  0.54548  0.16786  0.35989  1.0000
  H   H3917     1.0  0.54010  0.14157  0.35665  1.0000
  C   C3244     1.0  0.94928  0.12885  0.33419  1.0000
  C   C3245     1.0  0.60495  0.14732  0.35681  1.0000
  C   C3246     1.0  0.60017  0.14703  0.32969  1.0000
  C   C3247     1.0  0.59551  0.13135  0.33635  1.0000
  C   C3248     1.0  0.59562  0.12357  0.35337  1.0000
  C   C3249     1.0  0.60059  0.13146  0.36354  1.0000
  H   H3918     1.0  0.88081  0.12470  0.22078  1.0000
  H   H3919     1.0  0.59244  0.11126  0.35845  1.0000
  H   H3920     1.0  0.60108  0.12530  0.37649  1.0000
  C   C3250     1.0  0.53038  0.01806  0.34282  1.0000
  C   C3251     1.0  0.54786  0.01137  0.34212  1.0000
  C   C3252     1.0  0.55806  0.02091  0.34472  1.0000
  C   C3253     1.0  0.55089  0.03725  0.34778  1.0000
  C   C3254     1.0  0.53340  0.04385  0.34856  1.0000
  C   C3255     1.0  0.52316  0.03422  0.34628  1.0000
  H   H3921     1.0  0.96335  0.11309  0.25449  1.0000
  H   H3922     1.0  0.57158  0.01573  0.34404  1.0000
  H   H3923     1.0  0.52767  0.05625  0.35128  1.0000
  C   C3256     1.0  0.83222  0.43375  0.24637  1.0000
  C   C3257     1.0  0.52604  0.37234  0.36389  1.0000
  C   C3258     1.0  0.51727  0.38751  0.35525  1.0000
  H   H3924     1.0  0.53820  0.36584  0.35752  1.0000
  H   H3925     1.0  0.84370  0.43716  0.24774  1.0000
  C   C3259     1.0  0.58187  0.45547  0.35439  1.0000
  C   C3260     1.0  0.57756  0.45258  0.34061  1.0000
  C   C3261     1.0  0.56044  0.45668  0.33909  1.0000
  C   C3262     1.0  0.54753  0.46392  0.35122  1.0000
  C   C3263     1.0  0.55188  0.46712  0.36485  1.0000
  C   C3264     1.0  0.56900  0.46277  0.36653  1.0000
  H   H3926     1.0  0.58751  0.44718  0.33103  1.0000
  H   H3927     1.0  0.55736  0.45466  0.32826  1.0000
  H   H3928     1.0  0.58703  0.41833  0.35918  1.0000
  S   S886      1.0  0.79041  0.47460  0.34788  1.0000
  C   C3265     1.0  0.96920  0.08930  0.32071  1.0000
  H   H3929     1.0  0.97536  0.07408  0.34433  1.0000
  H   H3930     1.0  0.95602  0.08799  0.32422  1.0000
  C   C3266     1.0  0.87365  0.40964  0.19935  1.0000
  N   N218      1.0  0.89972  0.00350  0.23296  1.0000
  H   H3931     1.0  0.86007  0.99834  0.32487  1.0000
  C   C3267     1.0  0.65398  0.14194  0.34934  1.0000
  C   C3268     1.0  0.83089  0.09316  0.33993  1.0000
  C   C3269     1.0  0.83873  0.08487  0.35359  1.0000
  C   C3270     1.0  0.85657  0.07889  0.35081  1.0000
  C   C3271     1.0  0.86666  0.08153  0.33442  1.0000
  C   C3272     1.0  0.85875  0.08939  0.32075  1.0000
  C   C3273     1.0  0.84093  0.09522  0.32350  1.0000
  H   H3932     1.0  0.83117  0.08331  0.36632  1.0000
  H   H3933     1.0  0.86261  0.07259  0.36140  1.0000
  H   H3934     1.0  0.86631  0.09074  0.30800  1.0000
  H   H3935     1.0  0.83493  0.10140  0.31284  1.0000
  C   C3274     1.0  0.81196  0.38408  0.34498  1.0000
  S   S887      1.0  0.87157  0.04589  0.19345  1.0000
  C   C3275     1.0  0.53409  0.07175  0.29839  1.0000
  H   H3936     1.0  0.62434  0.36094  0.36790  1.0000
  C   C3276     1.0  0.96502  0.40133  0.33687  1.0000
  H   H3937     1.0  0.85222  0.38422  0.36329  1.0000
  C   C3277     1.0  0.86362  0.00213  0.28104  1.0000
  H   H3938     1.0  0.83163  0.00684  0.34143  1.0000
  C   C3278     1.0  0.52182  0.04838  0.30039  1.0000
  C   C3279     1.0  0.89168  0.16615  0.35537  1.0000
  C   C3280     1.0  0.87590  0.17315  0.35068  1.0000
  C   C3281     1.0  0.87315  0.17019  0.33610  1.0000
  C   C3282     1.0  0.88602  0.15992  0.32638  1.0000
  C   C3283     1.0  0.90184  0.15310  0.33096  1.0000
  C   C3284     1.0  0.90471  0.15633  0.34534  1.0000
  H   H3939     1.0  0.86585  0.18090  0.35817  1.0000
  H   H3940     1.0  0.86096  0.17565  0.33247  1.0000
  H   H3941     1.0  0.91195  0.14560  0.32321  1.0000
  H   H3942     1.0  0.91700  0.15112  0.34880  1.0000
  C   C3285     1.0  0.51478  0.46187  0.22426  1.0000
  C   C3286     1.0  0.52882  0.46910  0.22163  1.0000
  C   C3287     1.0  0.53440  0.47026  0.23549  1.0000
  C   C3288     1.0  0.52605  0.46417  0.25208  1.0000
  C   C3289     1.0  0.51180  0.45721  0.25474  1.0000
  H   H3943     1.0  0.72024  0.09818  0.36167  1.0000
  S   S888      1.0  0.50465  0.43603  0.30409  1.0000
  C   C3290     1.0  0.54036  0.07473  0.26273  1.0000
  C   C3291     1.0  0.97702  0.08197  0.23183  1.0000
  S   S889      1.0  0.50720  0.46059  0.20712  1.0000
  C   C3292     1.0  0.54508  0.12144  0.24436  1.0000
  C   C3293     1.0  0.55510  0.11771  0.25642  1.0000
  C   C3294     1.0  0.54748  0.11569  0.27373  1.0000
  C   C3295     1.0  0.52975  0.11740  0.27908  1.0000
  C   C3296     1.0  0.51970  0.12108  0.26704  1.0000
  C   C3297     1.0  0.52735  0.12309  0.24971  1.0000
  N   N219      1.0  0.83557  0.41582  0.24515  1.0000
  H   H3944     1.0  0.55533  0.11291  0.28289  1.0000
  H   H3945     1.0  0.50599  0.12236  0.27112  1.0000
  H   H3946     1.0  0.51954  0.12592  0.24049  1.0000
  C   C3298     1.0  0.85632  0.01061  0.32830  1.0000
  H   H3947     1.0  0.88736  0.29122  0.33772  1.0000
  N   N220      1.0  0.84178  0.13103  0.35960  1.0000
  C   C3299     1.0  0.56005  0.41043  0.35778  1.0000
  C   C3300     1.0  0.85723  0.40748  0.20091  1.0000
  C   C3301     1.0  0.96057  0.13439  0.31938  1.0000
  H   H3948     1.0  0.61623  0.41465  0.36159  1.0000
  H   H3949     1.0  0.82195  0.43651  0.25755  1.0000
  H   H3950     1.0  0.81556  0.48216  0.31756  1.0000
  C   C3302     1.0  0.88663  0.07646  0.23403  1.0000
  C   C3303     1.0  0.88182  0.08045  0.25003  1.0000
  C   C3304     1.0  0.89083  0.09012  0.25421  1.0000
  C   C3305     1.0  0.90465  0.09579  0.24237  1.0000
  C   C3306     1.0  0.90982  0.09127  0.22663  1.0000
  C   C3307     1.0  0.90085  0.08160  0.22248  1.0000
  H   H3951     1.0  0.87088  0.07641  0.25906  1.0000
  H   H3952     1.0  0.88679  0.09354  0.26641  1.0000
  H   H3953     1.0  0.92065  0.09545  0.21754  1.0000
  H   H3954     1.0  0.90483  0.07834  0.21026  1.0000
  C   C3308     1.0  0.89361  0.11596  0.19039  1.0000
  H   H3955     1.0  0.94481  0.12139  0.36123  1.0000
  H   H3956     1.0  0.54730  0.38466  0.37588  1.0000
  C   C3309     1.0  0.97539  0.09883  0.30485  1.0000
  C   C3310     1.0  0.53982  0.24052  0.38173  1.0000
  H   H3957     1.0  0.91188  0.02038  0.21146  1.0000
  H   H3958     1.0  0.81641  0.13413  0.37579  1.0000
  H   H3959     1.0  0.82850  0.40793  0.32106  1.0000
  C   C3311     1.0  0.83752  0.36403  0.35170  1.0000
  H   H3960     1.0  0.65006  0.14781  0.36056  1.0000
  C   C3312     1.0  0.86231  0.45227  0.18556  1.0000
  C   C3313     1.0  0.95050  0.33825  0.38404  1.0000
  C   C3314     1.0  0.54279  0.07682  0.24523  1.0000
  C   C3315     1.0  0.54507  0.06296  0.23819  1.0000
  Fe  Fe446     1.0  0.87962  0.06571  0.20078  1.0000
  H   H3961     1.0  0.87640  0.11697  0.35545  1.0000
  H   H3962     1.0  0.60033  0.15299  0.31652  1.0000
  H   H3963     1.0  0.86328  0.15155  0.19541  1.0000
  H   H3964     1.0  0.55352  0.99885  0.33959  1.0000
  N   N221      1.0  0.83722  0.39561  0.34421  1.0000
  C   C3316     1.0  0.96425  0.10681  0.24411  1.0000
  C   C3317     1.0  0.98307  0.37410  0.33332  1.0000
  C   C3318     1.0  0.99712  0.29943  0.37098  1.0000
  H   H3965     1.0  0.61004  0.08847  0.20338  1.0000
  S   S890      1.0  0.55523  0.12351  0.22280  1.0000
  H   H3966     1.0  0.95704  0.13679  0.30731  1.0000
  H   H3967     1.0  0.82555  0.02225  0.37629  1.0000
  H   H3968     1.0  0.57635  0.20874  0.35432  1.0000
  S   S891      1.0  0.51731  0.00691  0.33883  1.0000
  H   H3969     1.0  0.70655  0.42587  0.38077  1.0000
  C   C3319     1.0  0.81417  0.47775  0.37513  1.0000
  C   C3320     1.0  0.84873  0.13229  0.34114  1.0000
  H   H3970     1.0  0.82262  0.40336  0.36717  1.0000
  H   H3971     1.0  0.53186  0.06939  0.31243  1.0000
  C   C3321     1.0  0.88083  0.26945  0.33430  1.0000
  H   H3972     1.0  0.94075  0.38798  0.33350  1.0000
  H   H3973     1.0  0.52389  0.03528  0.29861  1.0000
  H   H3974     1.0  0.93248  0.45344  0.20178  1.0000
  H   H3975     1.0  0.80673  0.34360  0.35349  1.0000
  C   C3322     1.0  0.84125  0.10477  0.38345  1.0000
  N   N222      1.0  0.57026  0.39274  0.36044  1.0000
  H   H3976     1.0  0.85488  0.00155  0.29328  1.0000
  H   H3977     1.0  0.95088  0.37463  0.35008  1.0000
  H   H3978     1.0  0.88075  0.01707  0.31605  1.0000
  C   C3323     1.0  0.58793  0.39129  0.36207  1.0000
  C   C3324     1.0  0.59918  0.37515  0.36463  1.0000
  C   C3325     1.0  0.59453  0.40555  0.36108  1.0000
  C   C3326     1.0  0.61605  0.37342  0.36581  1.0000
  C   C3327     1.0  0.61139  0.40363  0.36243  1.0000
  C   C3328     1.0  0.62212  0.38764  0.36477  1.0000
  C   C3329     1.0  0.56103  0.38284  0.37600  1.0000
  C   C3330     1.0  0.81246  0.47037  0.31798  1.0000
  C   C3331     1.0  0.54270  0.04467  0.26612  1.0000
  H   H3979     1.0  0.66311  0.10101  0.37045  1.0000
  H   H3980     1.0  0.52258  0.08103  0.29473  1.0000
  H   H3981     1.0  0.96223  0.39735  0.35091  1.0000
  C   C3332     1.0  0.97659  0.13628  0.31995  1.0000
  H   H3982     1.0  0.68546  0.48460  0.36205  1.0000
  H   H3983     1.0  0.55063  0.04239  0.31229  1.0000
  H   H3984     1.0  0.86129  0.12994  0.20321  1.0000
  C   C3333     1.0  0.86674  0.01764  0.27100  1.0000
  H   H3985     1.0  0.65560  0.11791  0.33469  1.0000
  C   C3334     1.0  0.88904  0.27754  0.34113  1.0000
  H   H3986     1.0  0.63514  0.38629  0.36589  1.0000
  C   C3335     1.0  0.88879  0.13293  0.21090  1.0000
  C   C3336     1.0  0.98459  0.40123  0.30139  1.0000
  C   C3337     1.0  0.98796  0.40676  0.28382  1.0000
  C   C3338     1.0  0.89393  0.99649  0.22164  1.0000
  Fe  Fe447     1.0  0.89406  0.30819  0.38297  1.0000
  H   H3987     1.0  0.90203  0.12772  0.21296  1.0000
  H   H3988     1.0  0.60804  0.16727  0.33456  1.0000
  H   H3989     1.0  0.92088  0.99711  0.24525  1.0000
  S   S892      1.0  0.85409  0.47071  0.26182  1.0000
  C   C3339     1.0  0.81289  0.35398  0.35165  1.0000
  H   H3990     1.0  0.83109  0.47085  0.34485  1.0000
  H   H3991     1.0  0.81694  0.14438  0.35430  1.0000
  N   N223      1.0  0.81774  0.03712  0.35336  1.0000
  C   C3340     1.0  0.81008  0.05508  0.34660  1.0000
  C   C3341     1.0  0.80524  0.02690  0.35456  1.0000
  C   C3342     1.0  0.81986  0.03555  0.37067  1.0000
  C   C3343     1.0  0.83475  0.03163  0.34269  1.0000
  C   C3344     1.0  0.84717  0.04178  0.33776  1.0000
  C   C3345     1.0  0.83992  0.01570  0.33786  1.0000
  C   C3346     1.0  0.86348  0.03662  0.32815  1.0000
  H   H3992     1.0  0.84551  0.39125  0.25939  1.0000
  S   S893      1.0  0.50384  0.47306  0.31163  1.0000
  H   H3993     1.0  0.80989  0.05730  0.33299  1.0000
  H   H3994     1.0  0.79670  0.05910  0.35360  1.0000
  H   H3995     1.0  0.77170  0.01374  0.38329  1.0000
  H   H3996     1.0  0.80395  0.02673  0.34180  1.0000
  H   H3997     1.0  0.79224  0.03213  0.36155  1.0000
  H   H3998     1.0  0.80882  0.01364  0.36169  1.0000
  C   C3347     1.0  0.51902  0.14020  0.37824  1.0000
  H   H3999     1.0  0.57230  0.46544  0.37693  1.0000
  H   H4000     1.0  0.98982  0.09685  0.25982  1.0000
  H   H4001     1.0  0.84451  0.05372  0.34146  1.0000
  S   S894      1.0  0.52994  0.18827  0.38451  1.0000
  S   S895      1.0  0.62893  0.46287  0.38180  1.0000
  C   C3348     1.0  0.96224  0.08077  0.22722  1.0000
  Fe  Fe448     1.0  0.77965  0.45719  0.37148  1.0000
  C   C3349     1.0  0.82963  0.35068  0.35371  1.0000
  H   H4002     1.0  0.84848  0.12070  0.33730  1.0000
  C   C3350     1.0  0.96698  0.07875  0.26198  1.0000
  H   H4003     1.0  0.54281  0.08932  0.23708  1.0000
  H   H4004     1.0  0.97251  0.12484  0.36284  1.0000
  H   H4005     1.0  0.81275  0.42076  0.23549  1.0000
  N   N224      1.0  0.94243  0.43779  0.22345  1.0000
  C   C3351     1.0  0.95616  0.42668  0.21348  1.0000
  C   C3352     1.0  0.92717  0.43006  0.22918  1.0000
  C   C3353     1.0  0.93779  0.45451  0.21217  1.0000
  C   C3354     1.0  0.94853  0.44005  0.23750  1.0000
  C   C3355     1.0  0.96364  0.44629  0.23417  1.0000
  H   H4006     1.0  0.53552  0.47360  0.20893  1.0000
  C   C3356     1.0  0.96960  0.44866  0.24719  1.0000
  N   N225      1.0  0.97520  0.08947  0.24641  1.0000
  H   H4007     1.0  0.50960  0.03935  0.34710  1.0000
  H   H4008     1.0  0.96089  0.41433  0.22168  1.0000
  H   H4009     1.0  0.95173  0.42411  0.20325  1.0000
  H   H4010     1.0  0.86355  0.38195  0.34213  1.0000
  H   H4011     1.0  0.92983  0.41730  0.23756  1.0000
  H   H4012     1.0  0.92292  0.42855  0.21831  1.0000
  H   H4013     1.0  0.91600  0.43822  0.23600  1.0000
  C   C3357     1.0  0.55041  0.22545  0.37768  1.0000
  C   C3358     1.0  0.52529  0.17002  0.38206  1.0000
  H   H4014     1.0  0.92783  0.46341  0.21929  1.0000
  H   H4015     1.0  0.97113  0.44920  0.22145  1.0000
  N   N226      1.0  0.57638  0.20128  0.38096  1.0000
  H   H4016     1.0  0.98141  0.45305  0.24430  1.0000
  C   C3359     1.0  0.96057  0.44516  0.26386  1.0000
  C   C3360     1.0  0.96416  0.39636  0.28254  1.0000
  H   H4017     1.0  0.85112  0.45016  0.38230  1.0000
  C   C3361     1.0  0.99319  0.07485  0.22247  1.0000
  C   C3362     1.0  0.82296  0.13282  0.36263  1.0000
  H   H4018     1.0  0.87276  0.27691  0.32552  1.0000
  C   C3363     1.0  0.85037  0.11499  0.36939  1.0000
  C   C3364     1.0  0.85380  0.39061  0.34965  1.0000
  H   H4019     1.0  0.86911  0.41879  0.23714  1.0000
  H   H4020     1.0  0.90753  0.02656  0.23124  1.0000
  H   H4021     1.0  0.55844  0.41632  0.36860  1.0000
  H   H4022     1.0  0.64183  0.14143  0.34649  1.0000
  H   H4023     1.0  0.56883  0.11644  0.25235  1.0000
  H   H4024     1.0  0.61535  0.10819  0.20204  1.0000
  Fe  Fe449     1.0  0.50929  0.12380  0.19292  1.0000
  C   C3365     1.0  0.87825  0.01835  0.25533  1.0000
  H   H4025     1.0  0.85950  0.40170  0.34777  1.0000
  H   H4026     1.0  0.90559  0.27441  0.35785  1.0000
  H   H4027     1.0  0.50518  0.45261  0.26746  1.0000
  C   C3366     1.0  0.84050  0.40316  0.32586  1.0000
  S   S896      1.0  0.93947  0.34337  0.36764  1.0000
  N   N227      1.0  0.89476  0.22312  0.35529  1.0000
  C   C3367     1.0  0.87763  0.21916  0.36292  1.0000
  C   C3368     1.0  0.90223  0.21568  0.34010  1.0000
  C   C3369     1.0  0.90576  0.21445  0.36775  1.0000
  C   C3370     1.0  0.89312  0.24173  0.35047  1.0000
  H   H4028     1.0  0.99491  0.37917  0.32880  1.0000
  H   H4029     1.0  0.57380  0.10538  0.19705  1.0000
  H   H4030     1.0  0.67454  0.10381  0.33996  1.0000
  H   H4031     1.0  0.87614  0.24615  0.33326  1.0000
  H   H4032     1.0  0.57584  0.04945  0.38386  1.0000
  H   H4033     1.0  0.86885  0.22387  0.35400  1.0000
  H   H4034     1.0  0.87851  0.20525  0.36702  1.0000
  H   H4035     1.0  0.87133  0.22486  0.37414  1.0000
  H   H4036     1.0  0.89386  0.22021  0.33077  1.0000
  H   H4037     1.0  0.90409  0.20158  0.34344  1.0000
  H   H4038     1.0  0.91489  0.21886  0.33358  1.0000
  H   H4039     1.0  0.90050  0.21894  0.37979  1.0000
  H   H4040     1.0  0.90664  0.20049  0.37117  1.0000
  H   H4041     1.0  0.91909  0.21634  0.36265  1.0000
  H   H4042     1.0  0.84774  0.45393  0.35276  1.0000
  C   C3371     1.0  0.97958  0.06594  0.20531  1.0000
  H   H4043     1.0  0.96939  0.11496  0.23195  1.0000
  C   C3372     1.0  0.98167  0.13281  0.33560  1.0000
  H   H4044     1.0  0.98958  0.14349  0.35992  1.0000
  H   H4045     1.0  0.81702  0.06407  0.34784  1.0000
  C   C3373     1.0  0.93969  0.43651  0.25469  1.0000
  H   H4046     1.0  0.89037  0.41574  0.21114  1.0000
  C   C3374     1.0  0.86545  0.41521  0.22750  1.0000
  H   H4047     1.0  0.55279  0.12016  0.38173  1.0000
  C   C3375     1.0  0.57465  0.19782  0.36516  1.0000
  S   S897      1.0  0.89564  0.16981  0.37341  1.0000
  N   N228      1.0  0.61114  0.99947  0.37516  1.0000
  H   H4048     1.0  0.60923  0.02630  0.36501  1.0000
  N   N229      1.0  0.66526  0.12485  0.35266  1.0000
  C   C3376     1.0  0.66796  0.11739  0.33781  1.0000
  C   C3377     1.0  0.65603  0.11441  0.36773  1.0000
  C   C3378     1.0  0.96963  0.12762  0.35049  1.0000
  C   C3379     1.0  0.68195  0.12509  0.35563  1.0000
  C   C3380     1.0  0.69474  0.10995  0.35756  1.0000
  C   C3381     1.0  0.68592  0.14002  0.35705  1.0000
  C   C3382     1.0  0.71073  0.10991  0.35998  1.0000
  C   C3383     1.0  0.70193  0.13978  0.35962  1.0000
  C   C3384     1.0  0.71435  0.12482  0.36088  1.0000
  C   C3385     1.0  0.96066  0.39075  0.30014  1.0000
  S   S898      1.0  0.53453  0.10657  0.19649  1.0000
  C   C3386     1.0  0.51933  0.36568  0.38089  1.0000
  C   C3387     1.0  0.95372  0.12561  0.34973  1.0000
  H   H4049     1.0  0.64310  0.11436  0.36635  1.0000
  H   H4050     1.0  0.65431  0.11932  0.37921  1.0000
  H   H4051     1.0  0.54543  0.47566  0.23336  1.0000
  H   H4052     1.0  0.67685  0.15201  0.35645  1.0000
  H   H4053     1.0  0.83211  0.40604  0.27215  1.0000
  H   H4054     1.0  0.70468  0.15119  0.36095  1.0000
  H   H4055     1.0  0.72664  0.12466  0.36315  1.0000
  H   H4056     1.0  0.84137  0.14335  0.33340  1.0000
  N   N230      1.0  0.96787  0.38690  0.32874  1.0000
  H   H4057     1.0  0.92813  0.43166  0.25858  1.0000
  H   H4058     1.0  0.66026  0.15058  0.33830  1.0000
  H   H4059     1.0  0.80462  0.39672  0.34134  1.0000
  N   N231      1.0  0.53710  0.05590  0.29238  1.0000
  H   H4060     1.0  0.98061  0.40845  0.26070  1.0000
  H   H4061     1.0  0.83656  0.33771  0.35701  1.0000
  C   C3388     1.0  0.60459  0.15508  0.33991  1.0000
  H   H4062     1.0  0.94949  0.08564  0.23394  1.0000
  H   H4063     1.0  0.98481  0.14017  0.30791  1.0000
  H   H4064     1.0  0.98060  0.05968  0.19529  1.0000
  C   C3389     1.0  0.80406  0.37065  0.34735  1.0000
  H   H4065     1.0  0.95611  0.39466  0.27519  1.0000
  H   H4066     1.0  0.81385  0.41462  0.34906  1.0000
  H   H4067     1.0  0.67580  0.12429  0.32643  1.0000
  H   H4068     1.0  0.60059  0.99970  0.35428  1.0000
  H   H4069     1.0  0.55434  0.03128  0.29598  1.0000
  C   C3390     1.0  0.95278  0.37895  0.33607  1.0000
  H   H4070     1.0  0.83227  0.41946  0.35164  1.0000
  C   C3391     1.0  0.98013  0.08148  0.33206  1.0000
  Fe  Fe450     1.0  0.79305  0.09474  0.36931  1.0000
  H   H4071     1.0  0.82057  0.39871  0.24477  1.0000
  C   C3392     1.0  0.96356  0.07293  0.21411  1.0000
  Fe  Fe451     1.0  0.86898  0.47186  0.27995  1.0000
  C   C3393     1.0  0.88749  0.45842  0.18996  1.0000
  Fe  Fe452     1.0  0.53934  0.12865  0.20327  1.0000
  H   H4072     1.0  0.59495  0.36370  0.36592  1.0000
  C   C3394     1.0  0.89935  0.26803  0.35244  1.0000
  S   S899      1.0  0.86961  0.32631  0.37805  1.0000
  C   C3395     1.0  0.88704  0.00337  0.24924  1.0000
  S   S900      1.0  0.76721  0.08909  0.37370  1.0000
  C   C3396     1.0  0.84492  0.14535  0.36455  1.0000
  H   H4073     1.0  0.95411  0.41154  0.33315  1.0000
  C   C3397     1.0  0.82601  0.40879  0.35340  1.0000
  H   H4074     1.0  0.69237  0.09795  0.35755  1.0000
  C   C3398     1.0  0.84235  0.01683  0.22795  1.0000
  H   H4075     1.0  0.56599  0.41849  0.34594  1.0000
  H   H4076     1.0  0.60358  0.19113  0.37374  1.0000
  H   H4077     1.0  0.90352  0.99577  0.20955  1.0000
  S   S901      1.0  0.61132  0.15787  0.36874  1.0000
  C   C3399     1.0  0.97089  0.39294  0.31012  1.0000
  Fe  Fe453     1.0  0.91394  0.33624  0.37360  1.0000
  C   C3400     1.0  0.50131  0.39552  0.36344  1.0000
  H   H4078     1.0  0.54200  0.47319  0.37400  1.0000
  H   H4079     1.0  0.97345  0.34447  0.36693  1.0000
  H   H4080     1.0  0.90933  0.24396  0.36620  1.0000
  H   H4081     1.0  0.99289  0.40346  0.30808  1.0000
  H   H4082     1.0  0.50960  0.15354  0.32975  1.0000
  C   C3401     1.0  0.50619  0.45606  0.24085  1.0000
  C   C3402     1.0  0.86849  0.10966  0.36562  1.0000
  S   S902      1.0  0.76081  0.44084  0.37624  1.0000
  H   H4083     1.0  0.79096  0.37322  0.34592  1.0000
  C   C3403     1.0  0.82888  0.38121  0.34733  1.0000
  H   H4084     1.0  0.80736  0.03938  0.37923  1.0000
  H   H4085     1.0  0.81986  0.12180  0.36005  1.0000
  H   H4086     1.0  0.54529  0.07790  0.29333  1.0000
  C   C3404     1.0  0.55217  0.04414  0.29840  1.0000
  H   H4087     1.0  0.55790  0.38713  0.34382  1.0000
  C   C3405     1.0  0.90251  0.02068  0.22377  1.0000
  C   C3406     1.0  0.84684  0.00179  0.23943  1.0000
  H   H4088     1.0  0.54279  0.03197  0.27366  1.0000
  H   H4089     1.0  0.83907  0.15779  0.35726  1.0000
  C   C3407     1.0  0.88284  0.25182  0.33883  1.0000
  H   H4090     1.0  0.54690  0.03613  0.24307  1.0000
  H   H4091     1.0  0.86210  0.13413  0.33707  1.0000
  H   H4092     1.0  0.95083  0.10690  0.24429  1.0000
  H   H4093     1.0  0.69627  0.47308  0.37894  1.0000
  H   H4094     1.0  0.59746  0.21382  0.36957  1.0000
  H   H4095     1.0  0.54690  0.41100  0.35643  1.0000
  H   H4096     1.0  0.56208  0.19477  0.36655  1.0000
  C   C3408     1.0  0.83450  0.46139  0.35625  1.0000
  C   C3409     1.0  0.61892  0.01412  0.36544  1.0000
  H   H4097     1.0  0.53864  0.08604  0.26726  1.0000
  H   H4098     1.0  0.82836  0.04369  0.37080  1.0000
  H   H4099     1.0  0.93711  0.12693  0.33359  1.0000
  H   H4100     1.0  0.54691  0.22043  0.36890  1.0000
  C   C3410     1.0  0.59456  0.20204  0.37867  1.0000
  S   S903      1.0  0.51575  0.12089  0.37680  1.0000
  C   C3411     1.0  0.84479  0.40924  0.21571  1.0000
  C   C3412     1.0  0.59649  0.00020  0.36790  1.0000
  H   H4101     1.0  0.58661  0.01217  0.36866  1.0000
  H   H4102     1.0  0.89048  0.02932  0.22068  1.0000
  H   H4103     1.0  0.84555  0.00194  0.25256  1.0000
  H   H4104     1.0  0.67409  0.47444  0.38191  1.0000
  H   H4105     1.0  0.88174  0.00453  0.21838  1.0000
  H   H4106     1.0  0.86032  0.02923  0.27541  1.0000
  H   H4107     1.0  0.54678  0.06472  0.22462  1.0000
  H   H4108     1.0  0.99724  0.10791  0.28810  1.0000
  C   C3413     1.0  0.68423  0.48186  0.37598  1.0000
  H   H4109     1.0  0.59430  0.10499  0.21234  1.0000
  H   H4110     1.0  0.85394  0.40516  0.19024  1.0000
  H   H4111     1.0  0.58992  0.98962  0.37488  1.0000
  H   H4112     1.0  0.81023  0.48815  0.36464  1.0000
  H   H4113     1.0  0.89065  0.09068  0.37139  1.0000
  H   H4114     1.0  0.82584  0.45240  0.35953  1.0000
  C   C3414     1.0  0.87777  0.41346  0.21264  1.0000
  C   C3415     1.0  0.85528  0.48523  0.35065  1.0000
  C   C3416     1.0  0.87685  0.09471  0.37488  1.0000
  H   H4115     1.0  0.85325  0.40816  0.26199  1.0000
  H   H4116     1.0  0.88552  0.10715  0.19904  1.0000
  H   H4117     1.0  0.51052  0.05623  0.29515  1.0000
  N   N232      1.0  0.83252  0.46962  0.37042  1.0000
  H   H4118     1.0  0.50123  0.12639  0.34851  1.0000
  H   H4119     1.0  0.80579  0.46866  0.37787  1.0000
  H   H4120     1.0  0.83947  0.14514  0.37825  1.0000
  C   C3417     1.0  0.99716  0.08332  0.32760  1.0000
  C   C3418     1.0  0.91650  0.99285  0.23604  1.0000
  H   H4121     1.0  0.92656  0.99330  0.22416  1.0000
  H   H4122     1.0  0.82810  0.44251  0.23497  1.0000
  H   H4123     1.0  0.52887  0.24665  0.37601  1.0000
  H   H4124     1.0  0.88297  0.40895  0.18757  1.0000
  H   H4125     1.0  0.98337  0.30322  0.37523  1.0000
  H   H4126     1.0  0.98935  0.15963  0.34087  1.0000
  H   H4127     1.0  0.99624  0.40263  0.35747  1.0000
  H   H4128     1.0  0.58791  0.08799  0.18877  1.0000
  C   C3419     1.0  0.99173  0.09080  0.24899  1.0000
  C   C3420     1.0  0.99242  0.10053  0.30037  1.0000
  S   S904      1.0  0.50083  0.44015  0.34308  1.0000
  H   H4129     1.0  0.50725  0.44726  0.37872  1.0000
  H   H4130     1.0  0.59884  0.48383  0.36635  1.0000
  H   H4131     1.0  0.50325  0.41844  0.38193  1.0000
  H   H4132     1.0  0.92170  0.13172  0.18906  1.0000
  S   S905      1.0  0.79885  0.43637  0.38321  1.0000
  C   C3421     1.0  0.99434  0.06686  0.20951  1.0000
  C   C3422     1.0  0.49860  0.15485  0.32400  1.0000
  H   H4133     1.0  0.58178  0.13138  0.19282  1.0000
  C   C3423     1.0  0.58453  0.10205  0.18644  1.0000
  N   N233      1.0  0.85225  0.00172  0.18689  1.0000
  C   C3424     1.0  0.99657  0.14710  0.34665  1.0000
  H   H4134     1.0  0.59879  0.48647  0.33649  1.0000
  H   H4135     1.0  0.82765  0.01852  0.18525  1.0000
  H   H4136     1.0  0.90047  0.46019  0.18529  1.0000
  H   H4137     1.0  0.81063  0.36182  0.38446  1.0000
  H   H4138     1.0  0.59707  0.06563  0.38289  1.0000
  N   N234      1.0  0.59941  0.10925  0.18515  1.0000
  H   H4139     1.0  0.58260  0.41768  0.47189  1.0000
  S   S906      1.0  0.81158  0.10049  0.55913  1.0000
  H   H4140     1.0  0.62818  0.47094  0.43147  1.0000
  H   H4141     1.0  0.83438  0.00197  0.56645  1.0000
  Fe  Fe454     1.0  0.82782  0.11805  0.55922  1.0000
  S   S907      1.0  0.84023  0.13435  0.53527  1.0000
  C   C3425     1.0  0.64042  0.48813  0.43609  1.0000
  N   N235      1.0  0.54746  0.42781  0.41340  1.0000
  C   C3426     1.0  0.87221  0.36568  0.46989  1.0000
  Fe  Fe455     1.0  0.86214  0.21880  0.52838  1.0000
  S   S908      1.0  0.88817  0.20235  0.52206  1.0000
  S   S909      1.0  0.83890  0.20796  0.54210  1.0000
  Fe  Fe456     1.0  0.87548  0.25162  0.51514  1.0000
  S   S910      1.0  0.90257  0.23769  0.50797  1.0000
  S   S911      1.0  0.86701  0.28011  0.51100  1.0000
  Fe  Fe457     1.0  0.89125  0.22209  0.49798  1.0000
  S   S912      1.0  0.90238  0.21734  0.47187  1.0000
  Fe  Fe458     1.0  0.89671  0.21948  0.53277  1.0000
  S   S913      1.0  0.91569  0.20872  0.54964  1.0000
  S   S914      1.0  0.86445  0.23726  0.50337  1.0000
  S   S915      1.0  0.87041  0.23475  0.54086  1.0000
  C   C3427     1.0  0.69907  0.12631  0.40531  1.0000
  Fe  Fe459     1.0  0.86050  0.17760  0.43038  1.0000
  S   S916      1.0  0.83485  0.19398  0.42734  1.0000
  S   S917      1.0  0.86431  0.16937  0.45708  1.0000
  H   H4142     1.0  0.94832  0.33421  0.47391  1.0000
  C   C3428     1.0  0.78821  0.47861  0.42599  1.0000
  N   N236      1.0  0.89440  0.25983  0.56546  1.0000
  S   S918      1.0  0.86026  0.15988  0.41481  1.0000
  H   H4143     1.0  0.50430  0.16874  0.40359  1.0000
  S   S919      1.0  0.67042  0.42985  0.39016  1.0000
  H   H4144     1.0  0.60803  0.48033  0.46654  1.0000
  S   S920      1.0  0.80671  0.09309  0.42333  1.0000
  C   C3429     1.0  0.49997  0.14183  0.45776  1.0000
  C   C3430     1.0  0.60328  0.43303  0.48104  1.0000
  C   C3431     1.0  0.58372  0.06981  0.38860  1.0000
  H   H4145     1.0  0.61731  0.40612  0.50491  1.0000
  C   C3432     1.0  0.61525  0.40557  0.47404  1.0000
  H   H4146     1.0  0.57485  0.42307  0.41001  1.0000
  Fe  Fe460     1.0  0.87638  0.34243  0.39155  1.0000
  H   H4147     1.0  0.81099  0.48287  0.38671  1.0000
  H   H4148     1.0  0.56172  0.38654  0.38747  1.0000
  H   H4149     1.0  0.51232  0.13389  0.45372  1.0000
  S   S921      1.0  0.83093  0.01209  0.53181  1.0000
  H   H4150     1.0  0.83447  0.46113  0.39668  1.0000
  H   H4151     1.0  0.55488  0.44693  0.42093  1.0000
  C   C3433     1.0  0.60413  0.43873  0.58246  1.0000
  C   C3434     1.0  0.54486  0.41838  0.43131  1.0000
  H   H4152     1.0  0.51894  0.19095  0.58040  1.0000
  C   C3435     1.0  0.96403  0.40332  0.52790  1.0000
  S   S922      1.0  0.68677  0.47346  0.53382  1.0000
  S   S923      1.0  0.89848  0.27978  0.39282  1.0000
  S   S924      1.0  0.60529  0.48162  0.52482  1.0000
  S   S925      1.0  0.63815  0.47377  0.55494  1.0000
  Fe  Fe461     1.0  0.55149  0.39421  0.53089  1.0000
  S   S926      1.0  0.57654  0.37747  0.53545  1.0000
  S   S927      1.0  0.54674  0.40144  0.50452  1.0000
  Fe  Fe462     1.0  0.53982  0.39966  0.56682  1.0000
  Fe  Fe463     1.0  0.57723  0.39645  0.54934  1.0000
  S   S928      1.0  0.60216  0.40394  0.54639  1.0000
  Fe  Fe464     1.0  0.56089  0.36560  0.55979  1.0000
  S   S929      1.0  0.55337  0.41427  0.54276  1.0000
  S   S930      1.0  0.53557  0.38111  0.55434  1.0000
  Fe  Fe465     1.0  0.60779  0.42937  0.41688  1.0000
  S   S931      1.0  0.59339  0.41180  0.43785  1.0000
  Fe  Fe466     1.0  0.61143  0.46583  0.40674  1.0000
  H   H4153     1.0  0.61463  0.39196  0.47708  1.0000
  H   H4154     1.0  0.86090  0.18709  0.51873  1.0000
  S   S932      1.0  0.59219  0.45320  0.40394  1.0000
  S   S933      1.0  0.62547  0.44251  0.42198  1.0000
  Fe  Fe467     1.0  0.52508  0.34598  0.45945  1.0000
  S   S934      1.0  0.54989  0.32841  0.45171  1.0000
  S   S935      1.0  0.51785  0.34791  0.48666  1.0000
  Fe  Fe468     1.0  0.51539  0.35162  0.42568  1.0000
  S   S936      1.0  0.53928  0.33400  0.41554  1.0000
  Fe  Fe469     1.0  0.53456  0.31714  0.44132  1.0000
  S   S937      1.0  0.53728  0.28887  0.44876  1.0000
  Fe  Fe470     1.0  0.55202  0.34711  0.42700  1.0000
  S   S938      1.0  0.57603  0.35586  0.41220  1.0000
  S   S939      1.0  0.52841  0.36588  0.43553  1.0000
  Fe  Fe471     1.0  0.66507  0.12208  0.55605  1.0000
  S   S940      1.0  0.67911  0.14074  0.55742  1.0000
  Fe  Fe472     1.0  0.67095  0.13208  0.51768  1.0000
  S   S941      1.0  0.68503  0.15194  0.51584  1.0000
  S   S942      1.0  0.66999  0.12315  0.49519  1.0000
  Fe  Fe473     1.0  0.69834  0.13257  0.53501  1.0000
  S   S943      1.0  0.72714  0.12927  0.52860  1.0000
  Fe  Fe474     1.0  0.66467  0.15842  0.53819  1.0000
  S   S944      1.0  0.65334  0.18504  0.54183  1.0000
  S   S945      1.0  0.68563  0.11214  0.53538  1.0000
  S   S946      1.0  0.64917  0.14030  0.53838  1.0000
  C   C3436     1.0  0.71508  0.11561  0.40132  1.0000
  S   S947      1.0  0.88813  0.38005  0.55956  1.0000
  Fe  Fe475     1.0  0.60377  0.12608  0.42934  1.0000
  S   S948      1.0  0.60160  0.15373  0.41782  1.0000
  S   S949      1.0  0.58087  0.11735  0.44738  1.0000
  Fe  Fe476     1.0  0.64169  0.11743  0.41275  1.0000
  C   C3437     1.0  0.85500  0.26720  0.39163  1.0000
  C   C3438     1.0  0.52554  0.43925  0.39476  1.0000
  Fe  Fe477     1.0  0.62674  0.15018  0.42472  1.0000
  S   S950      1.0  0.63148  0.16820  0.43759  1.0000
  H   H4155     1.0  0.86197  0.41148  0.53175  1.0000
  Fe  Fe478     1.0  0.83563  0.17755  0.41006  1.0000
  S   S951      1.0  0.62772  0.12303  0.43813  1.0000
  S   S952      1.0  0.61769  0.11720  0.40537  1.0000
  C   C3439     1.0  0.99687  0.33826  0.55804  1.0000
  H   H4156     1.0  0.56414  0.09688  0.43034  1.0000
  Fe  Fe479     1.0  0.51474  0.19782  0.40779  1.0000
  C   C3440     1.0  0.96376  0.33612  0.49615  1.0000
  H   H4157     1.0  0.53286  0.45166  0.41951  1.0000
  Fe  Fe480     1.0  0.51272  0.19603  0.44447  1.0000
  S   S953      1.0  0.52458  0.18078  0.46637  1.0000
  S   S954      1.0  0.52641  0.21069  0.42054  1.0000
  H   H4158     1.0  0.52629  0.35409  0.38742  1.0000
  C   C3441     1.0  0.99406  0.33708  0.57535  1.0000
  H   H4159     1.0  0.96230  0.36844  0.54920  1.0000
  Fe  Fe481     1.0  0.79709  0.46332  0.50855  1.0000
  S   S955      1.0  0.81642  0.47756  0.49099  1.0000
  S   S956      1.0  0.80228  0.43491  0.51287  1.0000
  C   C3442     1.0  0.97067  0.35957  0.55700  1.0000
  H   H4160     1.0  0.74964  0.99139  0.40473  1.0000
  C   C3443     1.0  0.91655  0.31551  0.45281  1.0000
  H   H4161     1.0  0.90323  0.16737  0.58411  1.0000
  S   S957      1.0  0.79310  0.47604  0.53000  1.0000
  S   S958      1.0  0.77490  0.48098  0.49826  1.0000
  Fe  Fe482     1.0  0.91209  0.34915  0.51152  1.0000
  S   S959      1.0  0.91937  0.36849  0.48824  1.0000
  S   S960      1.0  0.92064  0.32204  0.50862  1.0000
  Fe  Fe483     1.0  0.90032  0.37532  0.53349  1.0000
  S   S961      1.0  0.90723  0.39655  0.51191  1.0000
  C   C3444     1.0  0.60654  0.46733  0.47061  1.0000
  Fe  Fe484     1.0  0.89485  0.38552  0.49809  1.0000
  S   S962      1.0  0.87823  0.40229  0.48023  1.0000
  Fe  Fe485     1.0  0.93100  0.37736  0.50441  1.0000
  S   S963      1.0  0.88638  0.36533  0.52012  1.0000
  S   S964      1.0  0.92515  0.35703  0.52725  1.0000
  Fe  Fe486     1.0  0.75025  0.44932  0.40097  1.0000
  S   S965      1.0  0.76771  0.46751  0.39488  1.0000
  S   S966      1.0  0.72223  0.45784  0.41293  1.0000
  H   H4162     1.0  0.83839  0.34766  0.39260  1.0000
  H   H4163     1.0  0.95719  0.31283  0.48340  1.0000
  C   C3445     1.0  0.84976  0.08995  0.39276  1.0000
  Fe  Fe487     1.0  0.78571  0.44547  0.40698  1.0000
  S   S967      1.0  0.80386  0.44603  0.42207  1.0000
  C   C3446     1.0  0.68203  0.17019  0.57558  1.0000
  S   S968      1.0  0.76737  0.42809  0.41550  1.0000
  Fe  Fe488     1.0  0.65917  0.48744  0.53976  1.0000
  H   H4164     1.0  0.95947  0.32548  0.50622  1.0000
  C   C3447     1.0  0.68445  0.43690  0.39773  1.0000
  S   S969      1.0  0.62524  0.42333  0.39278  1.0000
  H   H4165     1.0  0.89581  0.29030  0.54095  1.0000
  C   C3448     1.0  0.96714  0.38620  0.50783  1.0000
  H   H4166     1.0  0.78519  0.15454  0.40997  1.0000
  C   C3449     1.0  0.96050  0.32457  0.47450  1.0000
  H   H4167     1.0  0.78090  0.47932  0.41693  1.0000
  C   C3450     1.0  0.54387  0.30347  0.55126  1.0000
  C   C3451     1.0  0.97746  0.34570  0.46733  1.0000
  C   C3452     1.0  0.81592  0.36768  0.39121  1.0000
  H   H4168     1.0  0.61375  0.00296  0.39890  1.0000
  H   H4169     1.0  0.56739  0.40746  0.40487  1.0000
  H   H4170     1.0  0.94609  0.32446  0.42672  1.0000
  C   C3453     1.0  0.56500  0.42125  0.40439  1.0000
  C   C3454     1.0  0.85332  0.48260  0.55898  1.0000
  C   C3455     1.0  0.81379  0.39075  0.40416  1.0000
  C   C3456     1.0  0.82936  0.38254  0.40914  1.0000
  C   C3457     1.0  0.50853  0.26665  0.42401  1.0000
  H   H4171     1.0  0.80696  0.40277  0.40740  1.0000
  H   H4172     1.0  0.83448  0.38830  0.41615  1.0000
  H   H4173     1.0  0.61378  0.41065  0.46073  1.0000
  C   C3458     1.0  0.95683  0.39756  0.51783  1.0000
  H   H4174     1.0  0.94343  0.40226  0.51745  1.0000
  H   H4175     1.0  0.95622  0.41257  0.53515  1.0000
  C   C3459     1.0  0.79587  0.00342  0.41945  1.0000
  C   C3460     1.0  0.56716  0.22425  0.39761  1.0000
  H   H4176     1.0  0.50565  0.28521  0.47423  1.0000
  C   C3461     1.0  0.80037  0.46389  0.43042  1.0000
  C   C3462     1.0  0.80993  0.46313  0.44202  1.0000
  C   C3463     1.0  0.80696  0.47678  0.44967  1.0000
  S   S970      1.0  0.50302  0.18164  0.43167  1.0000
  H   H4177     1.0  0.54534  0.05931  0.39605  1.0000
  H   H4178     1.0  0.81944  0.45182  0.44537  1.0000
  H   H4179     1.0  0.81433  0.47598  0.45870  1.0000
  C   C3464     1.0  0.82343  0.42596  0.50385  1.0000
  C   C3465     1.0  0.83219  0.41088  0.51267  1.0000
  C   C3466     1.0  0.84917  0.40373  0.50571  1.0000
  C   C3467     1.0  0.85728  0.41137  0.48965  1.0000
  C   C3468     1.0  0.84839  0.42627  0.48069  1.0000
  C   C3469     1.0  0.83158  0.43366  0.48785  1.0000
  H   H4180     1.0  0.82587  0.40479  0.52498  1.0000
  H   H4181     1.0  0.85584  0.39214  0.51263  1.0000
  H   H4182     1.0  0.85454  0.43215  0.46822  1.0000
  H   H4183     1.0  0.82483  0.44508  0.48077  1.0000
  H   H4184     1.0  0.86122  0.15825  0.51619  1.0000
  C   C3470     1.0  0.99807  0.30995  0.46759  1.0000
  C   C3471     1.0  0.56090  0.09088  0.40173  1.0000
  C   C3472     1.0  0.73752  0.12054  0.57494  1.0000
  S   S971      1.0  0.84295  0.23807  0.39958  1.0000
  H   H4185     1.0  0.88639  0.39075  0.44785  1.0000
  H   H4186     1.0  0.57712  0.21814  0.40460  1.0000
  C   C3473     1.0  0.90605  0.12864  0.56646  1.0000
  C   C3474     1.0  0.90501  0.34049  0.46467  1.0000
  H   H4187     1.0  0.87963  0.36426  0.47954  1.0000
  H   H4188     1.0  0.86338  0.36130  0.44310  1.0000
  C   C3475     1.0  0.62894  0.48398  0.42922  1.0000
  N   N237      1.0  0.55545  0.10734  0.40696  1.0000
  H   H4189     1.0  0.95382  0.39180  0.56208  1.0000
  H   H4190     1.0  0.60205  0.37488  0.39896  1.0000
  C   C3476     1.0  0.56431  0.13455  0.45222  1.0000
  C   C3477     1.0  0.55572  0.13434  0.46905  1.0000
  C   C3478     1.0  0.54354  0.14860  0.47333  1.0000
  C   C3479     1.0  0.53945  0.16286  0.46073  1.0000
  C   C3480     1.0  0.54745  0.16280  0.44380  1.0000
  C   C3481     1.0  0.56003  0.14872  0.43956  1.0000
  H   H4191     1.0  0.55897  0.12339  0.47885  1.0000
  H   H4192     1.0  0.53732  0.14857  0.48643  1.0000
  H   H4193     1.0  0.54424  0.17374  0.43400  1.0000
  H   H4194     1.0  0.56635  0.14882  0.42650  1.0000
  H   H4195     1.0  0.84438  0.43173  0.56853  1.0000
  H   H4196     1.0  0.86351  0.48656  0.53209  1.0000
  H   H4197     1.0  0.68926  0.48593  0.40544  1.0000
  C   C3482     1.0  0.66037  0.13680  0.47885  1.0000
  C   C3483     1.0  0.66123  0.13042  0.46486  1.0000
  C   C3484     1.0  0.65313  0.14044  0.45183  1.0000
  C   C3485     1.0  0.64359  0.15674  0.45290  1.0000
  C   C3486     1.0  0.64315  0.16343  0.46663  1.0000
  C   C3487     1.0  0.65160  0.15346  0.47961  1.0000
  H   H4198     1.0  0.66813  0.11761  0.46412  1.0000
  H   H4199     1.0  0.65432  0.13550  0.44092  1.0000
  H   H4200     1.0  0.63600  0.17613  0.46744  1.0000
  H   H4201     1.0  0.65091  0.15847  0.49038  1.0000
  C   C3488     1.0  0.62319  0.20824  0.54108  1.0000
  C   C3489     1.0  0.63377  0.19390  0.53544  1.0000
  C   C3490     1.0  0.62816  0.18633  0.52565  1.0000
  C   C3491     1.0  0.61183  0.19287  0.52193  1.0000
  H   H4202     1.0  0.62752  0.21427  0.54849  1.0000
  H   H4203     1.0  0.63642  0.17550  0.52088  1.0000
  H   H4204     1.0  0.60757  0.18706  0.51431  1.0000
  C   C3492     1.0  0.52626  0.28048  0.43906  1.0000
  C   C3493     1.0  0.52546  0.26333  0.44449  1.0000
  C   C3494     1.0  0.51664  0.25640  0.43695  1.0000
  C   C3495     1.0  0.60858  0.44077  0.49124  1.0000
  H   H4205     1.0  0.53178  0.25538  0.45447  1.0000
  H   H4206     1.0  0.51621  0.24312  0.44108  1.0000
  H   H4207     1.0  0.53346  0.12370  0.41924  1.0000
  C   C3496     1.0  0.88177  0.98997  0.48843  1.0000
  H   H4208     1.0  0.89886  0.24445  0.40308  1.0000
  H   H4209     1.0  0.98829  0.31559  0.50819  1.0000
  C   C3497     1.0  0.67866  0.44619  0.41047  1.0000
  C   C3498     1.0  0.69042  0.45193  0.41568  1.0000
  C   C3499     1.0  0.70790  0.44875  0.40791  1.0000
  H   H4210     1.0  0.64848  0.47823  0.44353  1.0000
  C   C3500     1.0  0.98458  0.38051  0.50807  1.0000
  H   H4211     1.0  0.66517  0.44892  0.41628  1.0000
  H   H4212     1.0  0.68589  0.45902  0.42558  1.0000
  C   C3501     1.0  0.50390  0.21108  0.54937  1.0000
  C   C3502     1.0  0.55459  0.06626  0.39606  1.0000
  S   S972      1.0  0.95860  0.37915  0.49474  1.0000
  C   C3503     1.0  0.59010  0.39462  0.43189  1.0000
  C   C3504     1.0  0.57742  0.38590  0.44206  1.0000
  C   C3505     1.0  0.57313  0.37367  0.43633  1.0000
  C   C3506     1.0  0.58184  0.36992  0.42059  1.0000
  C   C3507     1.0  0.59507  0.37801  0.41092  1.0000
  C   C3508     1.0  0.59913  0.39038  0.41649  1.0000
  H   H4213     1.0  0.57047  0.38906  0.45406  1.0000
  H   H4214     1.0  0.56301  0.36731  0.44399  1.0000
  H   H4215     1.0  0.92962  0.33130  0.40418  1.0000
  H   H4216     1.0  0.60918  0.39665  0.40875  1.0000
  C   C3509     1.0  0.51209  0.16283  0.39340  1.0000
  C   C3510     1.0  0.53902  0.38644  0.49943  1.0000
  C   C3511     1.0  0.53453  0.37253  0.51181  1.0000
  C   C3512     1.0  0.52810  0.36076  0.50773  1.0000
  C   C3513     1.0  0.52639  0.36266  0.49120  1.0000
  C   C3514     1.0  0.53117  0.37640  0.47868  1.0000
  C   C3515     1.0  0.53732  0.38839  0.48286  1.0000
  H   H4217     1.0  0.53607  0.37078  0.52453  1.0000
  H   H4218     1.0  0.52478  0.35001  0.51736  1.0000
  H   H4219     1.0  0.52983  0.37797  0.46590  1.0000
  H   H4220     1.0  0.54080  0.39915  0.47325  1.0000
  C   C3516     1.0  0.70317  0.48305  0.53389  1.0000
  S   S973      1.0  0.87522  0.19414  0.40907  1.0000
  H   H4221     1.0  0.90706  0.31542  0.43161  1.0000
  C   C3517     1.0  0.87463  0.24137  0.40112  1.0000
  C   C3518     1.0  0.73367  0.48204  0.52905  1.0000
  C   C3519     1.0  0.72026  0.47441  0.53002  1.0000
  H   H4222     1.0  0.57467  0.18806  0.40706  1.0000
  H   H4223     1.0  0.87388  0.99342  0.54854  1.0000
  H   H4224     1.0  0.74675  0.47514  0.52631  1.0000
  H   H4225     1.0  0.72313  0.46172  0.52788  1.0000
  C   C3520     1.0  0.60440  0.46007  0.53124  1.0000
  C   C3521     1.0  0.58990  0.45510  0.53046  1.0000
  C   C3522     1.0  0.58889  0.43797  0.53552  1.0000
  C   C3523     1.0  0.60259  0.42564  0.54087  1.0000
  C   C3524     1.0  0.61725  0.43060  0.54125  1.0000
  C   C3525     1.0  0.61806  0.44779  0.53671  1.0000
  H   H4226     1.0  0.57939  0.46453  0.52602  1.0000
  H   H4227     1.0  0.57766  0.43434  0.53490  1.0000
  H   H4228     1.0  0.62799  0.42110  0.54518  1.0000
  H   H4229     1.0  0.62943  0.45145  0.53705  1.0000
  H   H4230     1.0  0.51909  0.30386  0.42162  1.0000
  C   C3526     1.0  0.91591  0.32456  0.46462  1.0000
  C   C3527     1.0  0.51821  0.29070  0.42607  1.0000
  H   H4231     1.0  0.53378  0.10146  0.42664  1.0000
  C   C3528     1.0  0.89419  0.37759  0.44836  1.0000
  H   H4232     1.0  0.83915  0.27232  0.48210  1.0000
  H   H4233     1.0  0.86571  0.47971  0.56205  1.0000
  C   C3529     1.0  0.68400  0.12056  0.40811  1.0000
  C   C3530     1.0  0.55864  0.12099  0.39181  1.0000
  H   H4234     1.0  0.79739  0.01879  0.55357  1.0000
  C   C3531     1.0  0.78563  0.04483  0.57052  1.0000
  H   H4235     1.0  0.79761  0.41796  0.46463  1.0000
  H   H4236     1.0  0.67180  0.12884  0.41151  1.0000
  H   H4237     1.0  0.50470  0.33184  0.52232  1.0000
  H   H4238     1.0  0.87492  0.13931  0.54393  1.0000
  S   S974      1.0  0.89049  0.47304  0.58240  1.0000
  C   C3532     1.0  0.54608  0.44577  0.41360  1.0000
  S   S975      1.0  0.56729  0.33716  0.56897  1.0000
  H   H4239     1.0  0.52869  0.11280  0.40639  1.0000
  C   C3533     1.0  0.82436  0.13511  0.41867  1.0000
  C   C3534     1.0  0.82295  0.11814  0.42184  1.0000
  C   C3535     1.0  0.80809  0.11432  0.42034  1.0000
  C   C3536     1.0  0.79447  0.12752  0.41620  1.0000
  C   C3537     1.0  0.88440  0.14087  0.54973  1.0000
  H   H4240     1.0  0.83592  0.13796  0.41961  1.0000
  H   H4241     1.0  0.83352  0.10797  0.42507  1.0000
  H   H4242     1.0  0.78277  0.12476  0.41553  1.0000
  H   H4243     1.0  0.72828  0.09061  0.39744  1.0000
  C   C3538     1.0  0.88208  0.29202  0.50931  1.0000
  C   C3539     1.0  0.87643  0.30904  0.51062  1.0000
  C   C3540     1.0  0.88816  0.31855  0.51014  1.0000
  C   C3541     1.0  0.90559  0.31104  0.50826  1.0000
  C   C3542     1.0  0.91129  0.29422  0.50637  1.0000
  C   C3543     1.0  0.89957  0.28473  0.50690  1.0000
  H   H4244     1.0  0.86290  0.31476  0.51242  1.0000
  H   H4245     1.0  0.88368  0.33155  0.51153  1.0000
  H   H4246     1.0  0.92479  0.28840  0.50479  1.0000
  H   H4247     1.0  0.90410  0.27174  0.50562  1.0000
  C   C3544     1.0  0.89284  0.20296  0.46806  1.0000
  C   C3545     1.0  0.88047  0.19580  0.48078  1.0000
  C   C3546     1.0  0.87229  0.18486  0.47754  1.0000
  C   C3547     1.0  0.87621  0.18135  0.46143  1.0000
  C   C3548     1.0  0.88879  0.18830  0.44876  1.0000
  C   C3549     1.0  0.89715  0.19907  0.45209  1.0000
  H   H4248     1.0  0.87707  0.19888  0.49305  1.0000
  H   H4249     1.0  0.86255  0.17953  0.48736  1.0000
  H   H4250     1.0  0.89221  0.18526  0.43645  1.0000
  H   H4251     1.0  0.90683  0.20448  0.44225  1.0000
  H   H4252     1.0  0.93487  0.35474  0.58390  1.0000
  C   C3550     1.0  0.90653  0.20305  0.57120  1.0000
  C   C3551     1.0  0.78625  0.99418  0.39952  1.0000
  C   C3552     1.0  0.70197  0.43321  0.39049  1.0000
  C   C3553     1.0  0.70081  0.09336  0.40289  1.0000
  C   C3554     1.0  0.75517  0.11979  0.57111  1.0000
  C   C3555     1.0  0.83847  0.36711  0.40471  1.0000
  C   C3556     1.0  0.72876  0.12333  0.56200  1.0000
  C   C3557     1.0  0.73771  0.12522  0.54517  1.0000
  C   C3558     1.0  0.75541  0.12422  0.54135  1.0000
  C   C3559     1.0  0.76413  0.12157  0.55428  1.0000
  H   H4253     1.0  0.71513  0.12393  0.56508  1.0000
  H   H4254     1.0  0.76239  0.12551  0.52836  1.0000
  H   H4255     1.0  0.77774  0.12100  0.55122  1.0000
  H   H4256     1.0  0.88806  0.34299  0.43102  1.0000
  C   C3560     1.0  0.83134  0.05057  0.55179  1.0000
  C   C3561     1.0  0.83077  0.04119  0.54055  1.0000
  C   C3562     1.0  0.83188  0.02366  0.54582  1.0000
  C   C3563     1.0  0.95205  0.32876  0.41367  1.0000
  S   S976      1.0  0.89967  0.32340  0.39825  1.0000
  H   H4257     1.0  0.83049  0.06409  0.54772  1.0000
  H   H4258     1.0  0.82938  0.04753  0.52780  1.0000
  H   H4259     1.0  0.73356  0.17970  0.53902  1.0000
  C   C3564     1.0  0.61013  0.45769  0.48604  1.0000
  C   C3565     1.0  0.83917  0.15525  0.53647  1.0000
  C   C3566     1.0  0.82640  0.16310  0.54830  1.0000
  C   C3567     1.0  0.82625  0.17940  0.54970  1.0000
  C   C3568     1.0  0.83886  0.18800  0.53925  1.0000
  C   C3569     1.0  0.85128  0.18044  0.52698  1.0000
  C   C3570     1.0  0.85140  0.16413  0.52553  1.0000
  H   H4260     1.0  0.81643  0.15679  0.55619  1.0000
  H   H4261     1.0  0.81637  0.18531  0.55898  1.0000
  N   N238      1.0  0.83231  0.13610  0.48620  1.0000
  C   C3571     1.0  0.83495  0.12122  0.50031  1.0000
  C   C3572     1.0  0.84672  0.13321  0.47159  1.0000
  C   C3573     1.0  0.83333  0.15133  0.49126  1.0000
  C   C3574     1.0  0.81526  0.13857  0.48247  1.0000
  C   C3575     1.0  0.81299  0.13888  0.46620  1.0000
  C   C3576     1.0  0.80020  0.14097  0.49530  1.0000
  C   C3577     1.0  0.79667  0.14139  0.46314  1.0000
  C   C3578     1.0  0.78395  0.14344  0.49209  1.0000
  C   C3579     1.0  0.78220  0.14367  0.47603  1.0000
  H   H4262     1.0  0.83362  0.10958  0.49736  1.0000
  H   H4263     1.0  0.84787  0.11878  0.50312  1.0000
  H   H4264     1.0  0.82575  0.12302  0.51238  1.0000
  H   H4265     1.0  0.85934  0.13171  0.47467  1.0000
  H   H4266     1.0  0.84588  0.14419  0.46064  1.0000
  H   H4267     1.0  0.84711  0.12159  0.46745  1.0000
  H   H4268     1.0  0.82408  0.15344  0.50321  1.0000
  H   H4269     1.0  0.84623  0.15021  0.49355  1.0000
  H   H4270     1.0  0.83091  0.16291  0.48120  1.0000
  H   H4271     1.0  0.82356  0.13735  0.45553  1.0000
  H   H4272     1.0  0.80091  0.14103  0.50793  1.0000
  H   H4273     1.0  0.79526  0.14171  0.45060  1.0000
  H   H4274     1.0  0.77262  0.14528  0.50207  1.0000
  H   H4275     1.0  0.76959  0.14570  0.47353  1.0000
  N   N239      1.0  0.85171  0.43443  0.54139  1.0000
  H   H4276     1.0  0.84305  0.45753  0.52427  1.0000
  H   H4277     1.0  0.89140  0.11433  0.56042  1.0000
  N   N240      1.0  0.73602  0.98988  0.43078  1.0000
  C   C3580     1.0  0.86879  0.43824  0.53843  1.0000
  C   C3581     1.0  0.87396  0.44374  0.55045  1.0000
  C   C3582     1.0  0.88113  0.43584  0.52337  1.0000
  C   C3583     1.0  0.89027  0.44705  0.54728  1.0000
  C   C3584     1.0  0.51432  0.43660  0.38651  1.0000
  H   H4278     1.0  0.82991  0.44602  0.38829  1.0000
  H   H4279     1.0  0.73178  0.17696  0.56122  1.0000
  C   C3585     1.0  0.87836  0.25374  0.57385  1.0000
  H   H4280     1.0  0.49878  0.14239  0.40036  1.0000
  H   H4281     1.0  0.98983  0.33765  0.38925  1.0000
  H   H4282     1.0  0.68847  0.19942  0.55262  1.0000
  H   H4283     1.0  0.86572  0.44548  0.56250  1.0000
  C   C3586     1.0  0.76846  0.01598  0.57641  1.0000
  C   C3587     1.0  0.99463  0.31085  0.49686  1.0000
  H   H4284     1.0  0.93879  0.15422  0.54965  1.0000
  H   H4285     1.0  0.72541  0.47273  0.43978  1.0000
  H   H4286     1.0  0.58050  0.17459  0.39215  1.0000
  H   H4287     1.0  0.99307  0.43187  0.55707  1.0000
  C   C3588     1.0  0.98130  0.39709  0.52870  1.0000
  C   C3589     1.0  0.79581  0.14441  0.41319  1.0000
  H   H4288     1.0  0.84245  0.08237  0.40338  1.0000
  C   C3590     1.0  0.90994  0.41642  0.57521  1.0000
  H   H4289     1.0  0.61418  0.46333  0.49405  1.0000
  H   H4290     1.0  0.96654  0.38956  0.57683  1.0000
  C   C3591     1.0  0.86709  0.27669  0.39018  1.0000
  H   H4291     1.0  0.89403  0.45098  0.55673  1.0000
  H   H4292     1.0  0.86946  0.15572  0.58137  1.0000
  H   H4293     1.0  0.70152  0.08064  0.40179  1.0000
  C   C3592     1.0  0.58925  0.47399  0.57960  1.0000
  H   H4294     1.0  0.76675  0.00396  0.57452  1.0000
  C   C3593     1.0  0.73341  0.48240  0.43579  1.0000
  Fe  Fe489     1.0  0.50148  0.22982  0.42176  1.0000
  C   C3594     1.0  0.88719  0.15691  0.54802  1.0000
  N   N241      1.0  0.88328  0.36503  0.45282  1.0000
  C   C3595     1.0  0.73749  0.00733  0.42996  1.0000
  N   N242      1.0  0.77020  0.02890  0.56035  1.0000
  H   H4295     1.0  0.50539  0.27583  0.53870  1.0000
  S   S977      1.0  0.66587  0.09736  0.40863  1.0000
  S   S978      1.0  0.76543  0.08312  0.41456  1.0000
  H   H4296     1.0  0.82684  0.43683  0.55842  1.0000
  H   H4297     1.0  0.92922  0.41500  0.55238  1.0000
  C   C3596     1.0  0.95412  0.38784  0.57570  1.0000
  H   H4298     1.0  0.55336  0.13385  0.39464  1.0000
  H   H4299     1.0  0.98752  0.35053  0.53536  1.0000
  H   H4300     1.0  0.90672  0.43689  0.50890  1.0000
  N   N243      1.0  0.83780  0.22967  0.45636  1.0000
  C   C3597     1.0  0.83630  0.21822  0.47339  1.0000
  C   C3598     1.0  0.82258  0.23063  0.44988  1.0000
  C   C3599     1.0  0.85332  0.22175  0.44524  1.0000
  C   C3600     1.0  0.83904  0.24695  0.45627  1.0000
  C   C3601     1.0  0.84079  0.25924  0.44086  1.0000
  C   C3602     1.0  0.83847  0.25214  0.47117  1.0000
  C   C3603     1.0  0.84188  0.27567  0.44039  1.0000
  C   C3604     1.0  0.83959  0.26862  0.47057  1.0000
  C   C3605     1.0  0.84114  0.28038  0.45524  1.0000
  H   H4301     1.0  0.82438  0.22288  0.48229  1.0000
  H   H4302     1.0  0.83594  0.20519  0.47291  1.0000
  H   H4303     1.0  0.84750  0.21678  0.47889  1.0000
  H   H4304     1.0  0.81076  0.23763  0.45714  1.0000
  H   H4305     1.0  0.82061  0.21782  0.45074  1.0000
  H   H4306     1.0  0.82378  0.23713  0.43630  1.0000
  H   H4307     1.0  0.86513  0.22175  0.44903  1.0000
  H   H4308     1.0  0.85331  0.20842  0.44560  1.0000
  H   H4309     1.0  0.85437  0.22838  0.43179  1.0000
  H   H4310     1.0  0.84115  0.25624  0.42905  1.0000
  H   H4311     1.0  0.83707  0.24377  0.48350  1.0000
  H   H4312     1.0  0.84316  0.28482  0.42843  1.0000
  H   H4313     1.0  0.53549  0.08505  0.40680  1.0000
  S   S979      1.0  0.84771  0.19468  0.38702  1.0000
  N   N244      1.0  0.72232  0.12448  0.44911  1.0000
  C   C3606     1.0  0.72542  0.13856  0.43433  1.0000
  C   C3607     1.0  0.72175  0.10966  0.44307  1.0000
  C   C3608     1.0  0.70512  0.13008  0.45949  1.0000
  C   C3609     1.0  0.73631  0.11980  0.45838  1.0000
  C   C3610     1.0  0.73343  0.12042  0.47569  1.0000
  C   C3611     1.0  0.75350  0.11426  0.45007  1.0000
  C   C3612     1.0  0.74701  0.11586  0.48399  1.0000
  C   C3613     1.0  0.76697  0.10973  0.45850  1.0000
  C   C3614     1.0  0.76373  0.11052  0.47542  1.0000
  H   H4314     1.0  0.73754  0.13506  0.42516  1.0000
  H   H4315     1.0  0.71513  0.14237  0.42702  1.0000
  H   H4316     1.0  0.72609  0.14989  0.43832  1.0000
  H   H4317     1.0  0.73335  0.10596  0.43341  1.0000
  H   H4318     1.0  0.71069  0.11233  0.43698  1.0000
  H   H4319     1.0  0.72054  0.09846  0.45371  1.0000
  H   H4320     1.0  0.70437  0.14137  0.46437  1.0000
  H   H4321     1.0  0.69498  0.13378  0.45203  1.0000
  H   H4322     1.0  0.70148  0.11977  0.47039  1.0000
  H   H4323     1.0  0.72080  0.12426  0.48318  1.0000
  H   H4324     1.0  0.75667  0.11328  0.43698  1.0000
  H   H4325     1.0  0.74449  0.11639  0.49721  1.0000
  H   H4326     1.0  0.77998  0.10547  0.45185  1.0000
  H   H4327     1.0  0.77419  0.10692  0.48193  1.0000
  H   H4328     1.0  0.98283  0.34304  0.45444  1.0000
  S   S980      1.0  0.98086  0.32557  0.42529  1.0000
  C   C3615     1.0  0.89745  0.43906  0.52039  1.0000
  C   C3616     1.0  0.77525  0.07455  0.57105  1.0000
  C   C3617     1.0  0.57838  0.08473  0.39470  1.0000
  H   H4329     1.0  0.80231  0.00048  0.42979  1.0000
  H   H4330     1.0  0.72524  0.99144  0.46434  1.0000
  C   C3618     1.0  0.96737  0.35870  0.57465  1.0000
  S   S981      1.0  0.56900  0.24628  0.55484  1.0000
  C   C3619     1.0  0.88848  0.31030  0.57267  1.0000
  H   H4331     1.0  0.83013  0.44207  0.52924  1.0000
  S   S982      1.0  0.78373  0.11291  0.38656  1.0000
  C   C3620     1.0  0.57182  0.06064  0.38920  1.0000
  H   H4332     1.0  0.74021  0.48217  0.42246  1.0000
  N   N245      1.0  0.92157  0.14731  0.57341  1.0000
  S   S983      1.0  0.55025  0.21323  0.56836  1.0000
  H   H4333     1.0  0.64015  0.98954  0.38829  1.0000
  H   H4334     1.0  0.87660  0.00226  0.49248  1.0000
  H   H4335     1.0  0.84168  0.29319  0.45492  1.0000
  S   S984      1.0  0.53475  0.29059  0.54447  1.0000
  C   C3621     1.0  0.96908  0.33051  0.40949  1.0000
  H   H4336     1.0  0.74919  0.01062  0.42075  1.0000
  H   H4337     1.0  0.79535  0.03350  0.57314  1.0000
  C   C3622     1.0  0.83854  0.48275  0.57183  1.0000
  H   H4338     1.0  0.74327  0.47814  0.44358  1.0000
  Fe  Fe490     1.0  0.52578  0.23224  0.56582  1.0000
  C   C3623     1.0  0.56451  0.30692  0.56491  1.0000
  C   C3624     1.0  0.83330  0.04232  0.56821  1.0000
  H   H4339     1.0  0.58233  0.48741  0.57917  1.0000
  C   C3625     1.0  0.60676  0.21452  0.53766  1.0000
  C   C3626     1.0  0.55743  0.29643  0.55956  1.0000
  C   C3627     1.0  0.78724  0.05950  0.57418  1.0000
  H   H4340     1.0  0.62379  0.18798  0.57340  1.0000
  H   H4341     1.0  0.86304  0.37814  0.47006  1.0000
  H   H4342     1.0  0.78930  0.03045  0.41816  1.0000
  H   H4343     1.0  0.50518  0.30534  0.52533  1.0000
  H   H4344     1.0  0.56254  0.28292  0.56174  1.0000
  H   H4345     1.0  0.59613  0.43813  0.45671  1.0000
  H   H4346     1.0  0.86413  0.29030  0.38586  1.0000
  Fe  Fe491     1.0  0.64171  0.43855  0.39672  1.0000
  C   C3628     1.0  0.68477  0.10422  0.40653  1.0000
  C   C3629     1.0  0.53779  0.32107  0.54783  1.0000
  C   C3630     1.0  0.91787  0.41080  0.56018  1.0000
  H   H4347     1.0  0.51966  0.39391  0.39918  1.0000
  C   C3631     1.0  0.90637  0.32242  0.44090  1.0000
  H   H4348     1.0  0.57444  0.42137  0.49294  1.0000
  S   S985      1.0  0.57996  0.21394  0.52468  1.0000
  H   H4349     1.0  0.54742  0.40449  0.43261  1.0000
  H   H4350     1.0  0.86736  0.99866  0.52085  1.0000
  C   C3632     1.0  0.77854  0.01092  0.39332  1.0000
  H   H4351     1.0  0.96655  0.42236  0.56718  1.0000
  H   H4352     1.0  0.73309  0.15922  0.55227  1.0000
  S   S986      1.0  0.85828  0.35723  0.41043  1.0000
  H   H4353     1.0  0.77893  0.41122  0.46477  1.0000
  C   C3633     1.0  0.85373  0.41598  0.54318  1.0000
  H   H4354     1.0  0.54023  0.34516  0.55034  1.0000
  C   C3634     1.0  0.75520  0.03091  0.55304  1.0000
  N   N246      1.0  0.70859  0.17678  0.55441  1.0000
  C   C3635     1.0  0.70436  0.17166  0.54077  1.0000
  C   C3636     1.0  0.70238  0.19536  0.55262  1.0000
  C   C3637     1.0  0.72757  0.17299  0.55170  1.0000
  C   C3638     1.0  0.70013  0.16794  0.57111  1.0000
  C   C3639     1.0  0.88827  0.40023  0.58010  1.0000
  H   H4355     1.0  0.92063  0.25301  0.56793  1.0000
  H   H4356     1.0  0.78813  0.03209  0.53639  1.0000
  H   H4357     1.0  0.85985  0.40861  0.55399  1.0000
  C   C3640     1.0  0.90198  0.44470  0.53230  1.0000
  H   H4358     1.0  0.69046  0.17546  0.54078  1.0000
  H   H4359     1.0  0.71105  0.17742  0.52798  1.0000
  H   H4360     1.0  0.70820  0.15769  0.54212  1.0000
  H   H4361     1.0  0.56095  0.11952  0.42375  1.0000
  H   H4362     1.0  0.93615  0.37182  0.56571  1.0000
  H   H4363     1.0  0.70451  0.19962  0.56316  1.0000
  H   H4364     1.0  0.86472  0.35557  0.47428  1.0000
  S   S987      1.0  0.80979  0.12902  0.58068  1.0000
  C   C3641     1.0  0.87186  0.37033  0.44060  1.0000
  Fe  Fe492     1.0  0.75874  0.10469  0.39329  1.0000
  H   H4365     1.0  0.60054  0.18605  0.56461  1.0000
  C   C3642     1.0  0.88887  0.28046  0.58412  1.0000
  C   C3643     1.0  0.89229  0.27724  0.56768  1.0000
  C   C3644     1.0  0.71596  0.09899  0.40042  1.0000
  H   H4366     1.0  0.75235  0.08684  0.56176  1.0000
  Fe  Fe493     1.0  0.61698  0.14473  0.39433  1.0000
  C   C3645     1.0  0.83168  0.35970  0.39578  1.0000
  C   C3646     1.0  0.53508  0.42551  0.40491  1.0000
  C   C3647     1.0  0.85874  0.24951  0.39706  1.0000
  C   C3648     1.0  0.77181  0.04477  0.56368  1.0000
  H   H4367     1.0  0.59463  0.41316  0.51280  1.0000
  H   H4368     1.0  0.77992  0.01255  0.58201  1.0000
  H   H4369     1.0  0.66742  0.48603  0.40663  1.0000
  S   S988      1.0  0.80227  0.07237  0.38865  1.0000
  C   C3649     1.0  0.88294  0.26851  0.39428  1.0000
  H   H4370     1.0  0.98378  0.45183  0.56335  1.0000
  H   H4371     1.0  0.72701  0.43631  0.38964  1.0000
  S   S989      1.0  0.64198  0.14452  0.39976  1.0000
  C   C3650     1.0  0.91100  0.40000  0.55504  1.0000
  H   H4372     1.0  0.83800  0.45294  0.55644  1.0000
  C   C3651     1.0  0.98842  0.31713  0.48164  1.0000
  C   C3652     1.0  0.54501  0.33160  0.55299  1.0000
  C   C3653     1.0  0.55828  0.32452  0.56172  1.0000
  H   H4373     1.0  0.60289  0.39323  0.50673  1.0000
  Fe  Fe494     1.0  0.54276  0.26225  0.55331  1.0000
  H   H4374     1.0  0.87924  0.37136  0.42728  1.0000
  H   H4375     1.0  0.79784  0.05924  0.57950  1.0000
  C   C3654     1.0  0.82252  0.48645  0.56765  1.0000
  C   C3655     1.0  0.89545  0.33839  0.44074  1.0000
  Fe  Fe495     1.0  0.82616  0.08179  0.57782  1.0000
  S   S990      1.0  0.83477  0.05335  0.58248  1.0000
  S   S991      1.0  0.50948  0.33359  0.45062  1.0000
  H   H4376     1.0  0.92397  0.31921  0.47378  1.0000
  H   H4377     1.0  0.61891  0.16878  0.56143  1.0000
  C   C3656     1.0  0.83436  0.02481  0.57345  1.0000
  C   C3657     1.0  0.54303  0.24758  0.39340  1.0000
  H   H4378     1.0  0.99000  0.40478  0.57851  1.0000
  C   C3658     1.0  0.90856  0.24829  0.57323  1.0000
  H   H4379     1.0  0.87402  0.07327  0.39556  1.0000
  C   C3659     1.0  0.83353  0.01549  0.56232  1.0000
  H   H4380     1.0  0.72317  0.15427  0.58113  1.0000
  C   C3660     1.0  0.83977  0.43922  0.55688  1.0000
  C   C3661     1.0  0.56537  0.10752  0.41910  1.0000
  S   S992      1.0  0.98944  0.40334  0.54272  1.0000
  H   H4381     1.0  0.69829  0.13912  0.40616  1.0000
  C   C3662     1.0  0.85205  0.48645  0.54201  1.0000
  H   H4382     1.0  0.94362  0.39690  0.58212  1.0000
  C   C3663     1.0  0.57248  0.18687  0.39502  1.0000
  H   H4383     1.0  0.87932  0.24086  0.57203  1.0000
  H   H4384     1.0  0.89293  0.31816  0.54558  1.0000
  H   H4385     1.0  0.98711  0.35036  0.47076  1.0000
  C   C3664     1.0  0.89844  0.25856  0.54747  1.0000
  H   H4386     1.0  0.97181  0.34187  0.50064  1.0000
  H   H4387     1.0  0.87984  0.16786  0.54088  1.0000
  C   C3665     1.0  0.79446  0.99029  0.41293  1.0000
  Fe  Fe496     1.0  0.84956  0.20940  0.40483  1.0000
  C   C3666     1.0  0.89351  0.29139  0.55386  1.0000
  C   C3667     1.0  0.93319  0.13129  0.57979  1.0000
  H   H4388     1.0  0.57498  0.30145  0.57139  1.0000
  C   C3668     1.0  0.90925  0.14483  0.56495  1.0000
  C   C3669     1.0  0.60506  0.17202  0.56740  1.0000
  C   C3670     1.0  0.86750  0.08488  0.38845  1.0000
  C   C3671     1.0  0.98517  0.34943  0.54889  1.0000
  H   H4389     1.0  0.94039  0.12450  0.56948  1.0000
  H   H4390     1.0  0.87938  0.99229  0.47552  1.0000
  H   H4391     1.0  0.53479  0.25926  0.39645  1.0000
  H   H4392     1.0  0.52650  0.45219  0.39289  1.0000
  H   H4393     1.0  0.73839  0.00912  0.44224  1.0000
  H   H4394     1.0  0.61168  0.43406  0.50330  1.0000
  H   H4395     1.0  0.91474  0.44689  0.53013  1.0000
  H   H4396     1.0  0.58799  0.09173  0.39336  1.0000
  H   H4397     1.0  0.50049  0.25714  0.48733  1.0000
  H   H4398     1.0  0.77654  0.08585  0.57400  1.0000
  S   S993      1.0  0.78845  0.39396  0.38737  1.0000
  H   H4399     1.0  0.84968  0.99359  0.50667  1.0000
  Fe  Fe497     1.0  0.56168  0.22859  0.54361  1.0000
  H   H4400     1.0  0.88055  0.21009  0.56792  1.0000
  S   S994      1.0  0.91937  0.42928  0.58168  1.0000
  Fe  Fe498     1.0  0.55605  0.23181  0.57943  1.0000
  N   N247      1.0  0.58804  0.16374  0.47824  1.0000
  C   C3672     1.0  0.58903  0.15672  0.46353  1.0000
  C   C3673     1.0  0.57014  0.16551  0.48813  1.0000
  C   C3674     1.0  0.59204  0.18082  0.47158  1.0000
  C   C3675     1.0  0.59992  0.15307  0.48923  1.0000
  C   C3676     1.0  0.60045  0.15803  0.50388  1.0000
  C   C3677     1.0  0.61130  0.13776  0.48577  1.0000
  C   C3678     1.0  0.61175  0.14835  0.51431  1.0000
  C   C3679     1.0  0.62237  0.12809  0.49641  1.0000
  C   C3680     1.0  0.62267  0.13340  0.51058  1.0000
  H   H4401     1.0  0.58609  0.14388  0.46762  1.0000
  H   H4402     1.0  0.57978  0.16479  0.45564  1.0000
  H   H4403     1.0  0.60195  0.15582  0.45507  1.0000
  H   H4404     1.0  0.56688  0.15287  0.49384  1.0000
  H   H4405     1.0  0.56080  0.17296  0.48007  1.0000
  H   H4406     1.0  0.56780  0.17220  0.49852  1.0000
  H   H4407     1.0  0.60564  0.17993  0.46472  1.0000
  H   H4408     1.0  0.58394  0.18897  0.46258  1.0000
  H   H4409     1.0  0.59000  0.18773  0.48174  1.0000
  H   H4410     1.0  0.59229  0.16958  0.50723  1.0000
  H   H4411     1.0  0.61226  0.13311  0.47472  1.0000
  H   H4412     1.0  0.61227  0.15261  0.52517  1.0000
  H   H4413     1.0  0.63131  0.11670  0.49330  1.0000
  H   H4414     1.0  0.63174  0.12607  0.51839  1.0000
  C   C3681     1.0  0.50933  0.28379  0.41857  1.0000
  S   S995      1.0  0.76854  0.04449  0.39258  1.0000
  H   H4415     1.0  0.90209  0.37538  0.45782  1.0000
  H   H4416     1.0  0.59852  0.46772  0.44827  1.0000
  H   H4417     1.0  0.95202  0.34609  0.49457  1.0000
  H   H4418     1.0  0.51128  0.40482  0.52298  1.0000
  H   H4419     1.0  0.50651  0.19899  0.52898  1.0000
  C   C3682     1.0  0.60093  0.20676  0.52824  1.0000
  H   H4420     1.0  0.85028  0.43917  0.51506  1.0000
  C   C3683     1.0  0.78573  0.02240  0.54829  1.0000
  H   H4421     1.0  0.50744  0.14543  0.47836  1.0000
  H   H4422     1.0  0.92535  0.17198  0.55813  1.0000
  S   S996      1.0  0.56387  0.38305  0.57436  1.0000
  H   H4423     1.0  0.90512  0.34701  0.47405  1.0000
  C   C3684     1.0  0.84351  0.44369  0.52687  1.0000
  C   C3685     1.0  0.51216  0.42033  0.38817  1.0000
  H   H4424     1.0  0.50257  0.40952  0.55166  1.0000
  H   H4425     1.0  0.96551  0.32183  0.46164  1.0000
  Fe  Fe499     1.0  0.77914  0.42085  0.39046  1.0000
  H   H4426     1.0  0.74295  0.03513  0.56176  1.0000
  S   S997      1.0  0.84418  0.09826  0.57568  1.0000
  H   H4427     1.0  0.75447  0.01869  0.55073  1.0000
  H   H4428     1.0  0.59725  0.47338  0.56669  1.0000
  H   H4429     1.0  0.55482  0.46142  0.57704  1.0000
  H   H4430     1.0  0.72688  0.99747  0.40760  1.0000
  S   S998      1.0  0.81164  0.16975  0.41042  1.0000
  H   H4431     1.0  0.88781  0.26609  0.54105  1.0000
  H   H4432     1.0  0.67412  0.17835  0.56697  1.0000
  C   C3686     1.0  0.52145  0.40657  0.39785  1.0000
  C   C3687     1.0  0.60409  0.00135  0.39293  1.0000
  C   C3688     1.0  0.89375  0.12678  0.55900  1.0000
  C   C3689     1.0  0.88878  0.20547  0.57685  1.0000
  C   C3690     1.0  0.88663  0.25084  0.39982  1.0000
  H   H4433     1.0  0.90310  0.37717  0.43584  1.0000
  H   H4434     1.0  0.86335  0.38303  0.44124  1.0000
  C   C3691     1.0  0.93639  0.36809  0.57937  1.0000
  N   N248      1.0  0.89666  0.27041  0.44773  1.0000
  C   C3692     1.0  0.91234  0.27315  0.43470  1.0000
  C   C3693     1.0  0.90204  0.26157  0.46392  1.0000
  C   C3694     1.0  0.88881  0.25890  0.44309  1.0000
  C   C3695     1.0  0.88440  0.28685  0.44859  1.0000
  C   C3696     1.0  0.87855  0.29350  0.46349  1.0000
  C   C3697     1.0  0.87805  0.29685  0.43414  1.0000
  C   C3698     1.0  0.86724  0.30923  0.46373  1.0000
  C   C3699     1.0  0.86679  0.31258  0.43448  1.0000
  C   C3700     1.0  0.86143  0.31880  0.44923  1.0000
  H   H4435     1.0  0.91857  0.28187  0.43756  1.0000
  H   H4436     1.0  0.92189  0.26102  0.43376  1.0000
  H   H4437     1.0  0.90967  0.27866  0.42186  1.0000
  H   H4438     1.0  0.90841  0.26929  0.46809  1.0000
  H   H4439     1.0  0.91143  0.24939  0.46278  1.0000
  H   H4440     1.0  0.89097  0.25829  0.47415  1.0000
  H   H4441     1.0  0.88567  0.26391  0.43039  1.0000
  H   H4442     1.0  0.89758  0.24627  0.44268  1.0000
  H   H4443     1.0  0.87684  0.25669  0.45244  1.0000
  H   H4444     1.0  0.88249  0.28682  0.47518  1.0000
  H   H4445     1.0  0.88181  0.29260  0.42239  1.0000
  H   H4446     1.0  0.86300  0.31396  0.47530  1.0000
  H   H4447     1.0  0.86221  0.32004  0.42321  1.0000
  H   H4448     1.0  0.85274  0.33104  0.44935  1.0000
  H   H4449     1.0  0.53151  0.42241  0.43829  1.0000
  C   C3701     1.0  0.53298  0.40903  0.40585  1.0000
  C   C3702     1.0  0.70938  0.15682  0.58326  1.0000
  C   C3703     1.0  0.58485  0.41361  0.48494  1.0000
  H   H4450     1.0  0.54028  0.39786  0.41272  1.0000
  C   C3704     1.0  0.80710  0.38336  0.39507  1.0000
  C   C3705     1.0  0.59979  0.44325  0.46535  1.0000
  H   H4451     1.0  0.57262  0.46603  0.56017  1.0000
  H   H4452     1.0  0.92514  0.30323  0.45276  1.0000
  H   H4453     1.0  0.51640  0.21419  0.54481  1.0000
  H   H4454     1.0  0.59871  0.22541  0.54227  1.0000
  H   H4455     1.0  0.79599  0.44100  0.47629  1.0000
  C   C3706     1.0  0.60433  0.40660  0.50330  1.0000
  C   C3707     1.0  0.55652  0.23936  0.40150  1.0000
  H   H4456     1.0  0.61264  0.44724  0.57981  1.0000
  C   C3708     1.0  0.94275  0.33258  0.40093  1.0000
  H   H4457     1.0  0.62171  0.14251  0.58373  1.0000
  H   H4458     1.0  0.75594  0.04009  0.54064  1.0000
  C   C3709     1.0  0.89174  0.30761  0.55638  1.0000
  C   C3710     1.0  0.78853  0.02035  0.41291  1.0000
  C   C3711     1.0  0.60126  0.46018  0.46033  1.0000
  C   C3712     1.0  0.93256  0.15876  0.56157  1.0000
  H   H4459     1.0  0.60151  0.14086  0.58131  1.0000
  H   H4460     1.0  0.81105  0.48661  0.57756  1.0000
  H   H4461     1.0  0.87835  0.43112  0.51390  1.0000
  C   C3713     1.0  0.53703  0.11139  0.41521  1.0000
  Fe  Fe500     1.0  0.79118  0.09020  0.40648  1.0000
  C   C3714     1.0  0.50351  0.37382  0.38919  1.0000
  C   C3715     1.0  0.75982  0.06040  0.56053  1.0000
  H   H4462     1.0  0.84120  0.41247  0.54540  1.0000
  N   N249      1.0  0.97281  0.33062  0.48007  1.0000
  S   S999      1.0  0.49931  0.22718  0.57515  1.0000
  H   H4463     1.0  0.91280  0.11718  0.57345  1.0000
  C   C3716     1.0  0.71362  0.43913  0.39552  1.0000
  H   H4464     1.0  0.91730  0.39565  0.54348  1.0000
  H   H4465     1.0  0.93086  0.19458  0.57860  1.0000
  H   H4466     1.0  0.84271  0.27359  0.38852  1.0000
  C   C3717     1.0  0.61190  0.42166  0.58278  1.0000
  H   H4467     1.0  0.87762  0.22783  0.40554  1.0000
  H   H4468     1.0  0.70900  0.20245  0.54049  1.0000
  H   H4469     1.0  0.96615  0.35643  0.46632  1.0000
  N   N250      1.0  0.57727  0.46230  0.58493  1.0000
  H   H4470     1.0  0.91047  0.26284  0.54034  1.0000
  H   H4471     1.0  0.90047  0.17177  0.55439  1.0000
  C   C3718     1.0  0.97674  0.33620  0.39260  1.0000
  C   C3719     1.0  0.89925  0.15897  0.55567  1.0000
  H   H4472     1.0  0.94280  0.15978  0.56721  1.0000
  H   H4473     1.0  0.57247  0.12015  0.38629  1.0000
  H   H4474     1.0  0.72627  0.01688  0.42597  1.0000
  S   S1000     1.0  0.65167  0.10495  0.57827  1.0000
  H   H4475     1.0  0.91120  0.23530  0.57090  1.0000
  H   H4476     1.0  0.55962  0.48185  0.57169  1.0000
  H   H4477     1.0  0.90044  0.24527  0.54622  1.0000
  C   C3720     1.0  0.89628  0.39453  0.56511  1.0000
  Fe  Fe501     1.0  0.87246  0.17815  0.39294  1.0000
  S   S1001     1.0  0.53639  0.24585  0.53980  1.0000
  H   H4478     1.0  0.78471  0.01084  0.54489  1.0000
  H   H4479     1.0  0.62573  0.41769  0.58029  1.0000
  H   H4480     1.0  0.84707  0.18282  0.57410  1.0000
  C   C3721     1.0  0.81077  0.14829  0.41428  1.0000
  C   C3722     1.0  0.99160  0.38572  0.51871  1.0000
  C   C3723     1.0  0.89436  0.34791  0.45277  1.0000
  H   H4481     1.0  0.55856  0.24466  0.41100  1.0000
  C   C3724     1.0  0.77954  0.02400  0.40007  1.0000
  S   S1002     1.0  0.53056  0.24960  0.57914  1.0000
  H   H4482     1.0  0.82751  0.10789  0.38750  1.0000
  H   H4483     1.0  0.62831  0.40630  0.47439  1.0000
  H   H4484     1.0  0.95625  0.44240  0.57214  1.0000
  H   H4485     1.0  0.58313  0.40031  0.48935  1.0000
  C   C3725     1.0  0.91710  0.19648  0.58292  1.0000
  N   N251      1.0  0.77398  0.43095  0.47849  1.0000
  C   C3726     1.0  0.78376  0.42248  0.46433  1.0000
  C   C3727     1.0  0.78189  0.44517  0.47729  1.0000
  C   C3728     1.0  0.77607  0.41847  0.49451  1.0000
  C   C3729     1.0  0.75555  0.43748  0.47833  1.0000
  C   C3730     1.0  0.74445  0.44578  0.49116  1.0000
  C   C3731     1.0  0.74809  0.43602  0.46558  1.0000
  C   C3732     1.0  0.72699  0.45199  0.49133  1.0000
  C   C3733     1.0  0.73063  0.44235  0.46585  1.0000
  C   C3734     1.0  0.72011  0.45032  0.47869  1.0000
  H   H4486     1.0  0.78320  0.43133  0.45187  1.0000
  H   H4487     1.0  0.77957  0.45546  0.46608  1.0000
  C   C3735     1.0  0.54910  0.08116  0.40222  1.0000
  H   H4488     1.0  0.77686  0.45067  0.48869  1.0000
  H   H4489     1.0  0.76969  0.40786  0.49632  1.0000
  H   H4490     1.0  0.78984  0.41301  0.49482  1.0000
  H   H4491     1.0  0.77067  0.42423  0.50579  1.0000
  H   H4492     1.0  0.74918  0.44743  0.50124  1.0000
  H   H4493     1.0  0.75541  0.42994  0.45528  1.0000
  H   H4494     1.0  0.71866  0.45802  0.50142  1.0000
  H   H4495     1.0  0.72519  0.44094  0.45607  1.0000
  H   H4496     1.0  0.70655  0.45510  0.47894  1.0000
  N   N252      1.0  0.57042  0.30630  0.49820  1.0000
  C   C3736     1.0  0.55201  0.30803  0.49904  1.0000
  C   C3737     1.0  0.58049  0.30237  0.48168  1.0000
  C   C3738     1.0  0.57577  0.29148  0.51150  1.0000
  C   C3739     1.0  0.57297  0.32242  0.50008  1.0000
  C   C3740     1.0  0.57678  0.32414  0.51493  1.0000
  C   C3741     1.0  0.57065  0.33730  0.48719  1.0000
  C   C3742     1.0  0.57851  0.33972  0.51649  1.0000
  C   C3743     1.0  0.57271  0.35270  0.48876  1.0000
  C   C3744     1.0  0.57658  0.35393  0.50339  1.0000
  H   H4497     1.0  0.54737  0.31821  0.48870  1.0000
  H   H4498     1.0  0.54922  0.29610  0.49819  1.0000
  H   H4499     1.0  0.54404  0.31144  0.51111  1.0000
  H   H4500     1.0  0.57617  0.31176  0.47075  1.0000
  H   H4501     1.0  0.57932  0.28994  0.48028  1.0000
  H   H4502     1.0  0.59430  0.30196  0.48022  1.0000
  H   H4503     1.0  0.56777  0.29263  0.52420  1.0000
  H   H4504     1.0  0.57426  0.27946  0.50945  1.0000
  H   H4505     1.0  0.58941  0.28985  0.51186  1.0000
  H   H4506     1.0  0.57816  0.31377  0.52569  1.0000
  H   H4507     1.0  0.56678  0.33731  0.47594  1.0000
  H   H4508     1.0  0.58106  0.34081  0.52809  1.0000
  H   H4509     1.0  0.57075  0.36390  0.47880  1.0000
  H   H4510     1.0  0.57760  0.36606  0.50471  1.0000
  N   N253      1.0  0.60197  0.41503  0.48587  1.0000
  H   H4511     1.0  0.55372  0.42036  0.43810  1.0000
  Fe  Fe502     1.0  0.77574  0.06777  0.39442  1.0000
  H   H4512     1.0  0.55885  0.18609  0.39738  1.0000
  H   H4513     1.0  0.50335  0.29164  0.40833  1.0000
  H   H4514     1.0  0.52744  0.32657  0.54124  1.0000
  H   H4515     1.0  0.88706  0.32293  0.57453  1.0000
  H   H4516     1.0  0.84230  0.15548  0.57746  1.0000
  H   H4517     1.0  0.59820  0.16706  0.56081  1.0000
  C   C3745     1.0  0.97956  0.34710  0.58363  1.0000
  C   C3746     1.0  0.76162  0.07503  0.56419  1.0000
  N   N254      1.0  0.95226  0.37009  0.58278  1.0000
  H   H4518     1.0  0.74892  0.06172  0.55530  1.0000
  C   C3747     1.0  0.98994  0.43837  0.56781  1.0000
  H   H4519     1.0  0.54978  0.45341  0.40069  1.0000
  S   S1003     1.0  0.73368  0.12350  0.39730  1.0000
  H   H4520     1.0  0.56740  0.42789  0.39084  1.0000
  H   H4521     1.0  0.57924  0.10664  0.41351  1.0000
  H   H4522     1.0  0.99431  0.31425  0.45554  1.0000
  H   H4523     1.0  0.59328  0.01254  0.39391  1.0000
  H   H4524     1.0  0.59917  0.98998  0.40087  1.0000
  C   C3748     1.0  0.56556  0.46811  0.57298  1.0000
  C   C3749     1.0  0.50894  0.14795  0.39149  1.0000
  Fe  Fe503     1.0  0.79456  0.11032  0.58173  1.0000
  H   H4525     1.0  0.50325  0.16347  0.49529  1.0000
  C   C3750     1.0  0.96320  0.42951  0.57741  1.0000
  C   C3751     1.0  0.49907  0.40238  0.53071  1.0000
  H   H4526     1.0  0.99265  0.37188  0.50019  1.0000
  H   H4527     1.0  0.59802  0.20143  0.39070  1.0000
  N   N255      1.0  0.97860  0.43005  0.58281  1.0000
  S   S1004     1.0  0.51784  0.41441  0.58320  1.0000
  H   H4528     1.0  0.86733  0.26235  0.56862  1.0000
  C   C3752     1.0  0.56478  0.21712  0.38514  1.0000
  H   H4529     1.0  0.50510  0.12411  0.65227  1.0000
  S   S1005     1.0  0.89501  0.08692  0.76158  1.0000
  H   H4530     1.0  0.86360  0.10570  0.59614  1.0000
  S   S1006     1.0  0.57974  0.12720  0.76940  1.0000
  H   H4531     1.0  0.57547  0.45954  0.61149  1.0000
  H   H4532     1.0  0.54412  0.15070  0.61436  1.0000
  S   S1007     1.0  0.83090  0.11150  0.62028  1.0000
  H   H4533     1.0  0.49983  0.41337  0.63908  1.0000
  Fe  Fe504     1.0  0.88770  0.13984  0.67420  1.0000
  S   S1008     1.0  0.91180  0.12120  0.66624  1.0000
  S   S1009     1.0  0.86784  0.13629  0.69853  1.0000
  Fe  Fe505     1.0  0.89521  0.16684  0.64195  1.0000
  S   S1010     1.0  0.92007  0.15061  0.63160  1.0000
  S   S1011     1.0  0.88275  0.19177  0.62752  1.0000
  Fe  Fe506     1.0  0.90519  0.12988  0.64052  1.0000
  S   S1012     1.0  0.90573  0.11416  0.62235  1.0000
  Fe  Fe507     1.0  0.92421  0.14368  0.65821  1.0000
  S   S1013     1.0  0.94655  0.14502  0.66789  1.0000
  S   S1014     1.0  0.88018  0.14673  0.64919  1.0000
  S   S1015     1.0  0.90035  0.16180  0.66779  1.0000
  H   H4534     1.0  0.86707  0.14418  0.60291  1.0000
  H   H4535     1.0  0.63524  0.00172  0.65222  1.0000
  C   C3753     1.0  0.92635  0.12846  0.71410  1.0000
  C   C3754     1.0  0.62055  0.05753  0.62751  1.0000
  H   H4536     1.0  0.87691  0.39599  0.58797  1.0000
  S   S1016     1.0  0.53432  0.47800  0.65564  1.0000
  Fe  Fe508     1.0  0.52173  0.46275  0.64643  1.0000
  S   S1017     1.0  0.53581  0.43736  0.64075  1.0000
  H   H4537     1.0  0.58906  0.01051  0.65315  1.0000
  C   C3755     1.0  0.51871  0.08608  0.72372  1.0000
  C   C3756     1.0  0.50484  0.17156  0.59395  1.0000
  H   H4538     1.0  0.84971  0.19013  0.59096  1.0000
  H   H4539     1.0  0.98002  0.40583  0.60021  1.0000
  H   H4540     1.0  0.98111  0.17171  0.64831  1.0000
  H   H4541     1.0  0.56752  0.24557  0.62051  1.0000
  H   H4542     1.0  0.63890  0.00833  0.62062  1.0000
  S   S1018     1.0  0.84798  0.47124  0.77612  1.0000
  H   H4543     1.0  0.85082  0.07492  0.61731  1.0000
  H   H4544     1.0  0.97840  0.34570  0.59700  1.0000
  H   H4545     1.0  0.59845  0.08763  0.71988  1.0000
  C   C3757     1.0  0.84108  0.17196  0.64162  1.0000
  C   C3758     1.0  0.52787  0.98977  0.72322  1.0000
  S   S1019     1.0  0.83953  0.47918  0.59311  1.0000
  S   S1020     1.0  0.56847  0.22115  0.60178  1.0000
  C   C3759     1.0  0.82255  0.15338  0.64414  1.0000
  H   H4546     1.0  0.64609  0.08680  0.65019  1.0000
  Fe  Fe509     1.0  0.55520  0.13797  0.65918  1.0000
  S   S1021     1.0  0.57274  0.13636  0.67588  1.0000
  S   S1022     1.0  0.53580  0.16057  0.64991  1.0000
  Fe  Fe510     1.0  0.56952  0.10193  0.65455  1.0000
  S   S1023     1.0  0.58864  0.09688  0.67057  1.0000
  S   S1024     1.0  0.56761  0.08373  0.64025  1.0000
  Fe  Fe511     1.0  0.56706  0.11054  0.68805  1.0000
  S   S1025     1.0  0.56208  0.09814  0.71585  1.0000
  Fe  Fe512     1.0  0.59281  0.12291  0.65718  1.0000
  S   S1026     1.0  0.61869  0.12939  0.64701  1.0000
  S   S1027     1.0  0.54748  0.11338  0.67301  1.0000
  S   S1028     1.0  0.57572  0.12679  0.63945  1.0000
  H   H4547     1.0  0.52108  0.11746  0.60786  1.0000
  C   C3760     1.0  0.99730  0.17860  0.62309  1.0000
  C   C3761     1.0  0.64910  0.12406  0.60123  1.0000
  C   C3762     1.0  0.62073  0.07070  0.69527  1.0000
  S   S1029     1.0  0.54350  0.01723  0.68565  1.0000
  H   H4548     1.0  0.57109  0.26547  0.62061  1.0000
  H   H4549     1.0  0.54372  0.17721  0.59358  1.0000
  S   S1030     1.0  0.92404  0.44359  0.74997  1.0000
  C   C3763     1.0  0.83934  0.16410  0.61616  1.0000
  H   H4550     1.0  0.89300  0.02259  0.63443  1.0000
  S   S1031     1.0  0.88476  0.44106  0.75265  1.0000
  C   C3764     1.0  0.49994  0.08074  0.70923  1.0000
  H   H4551     1.0  0.83998  0.14106  0.59737  1.0000
  Fe  Fe513     1.0  0.90365  0.45608  0.73509  1.0000
  S   S1032     1.0  0.91314  0.46243  0.70675  1.0000
  S   S1033     1.0  0.89333  0.47807  0.74784  1.0000
  Fe  Fe514     1.0  0.88169  0.45604  0.63087  1.0000
  S   S1034     1.0  0.90823  0.45739  0.61557  1.0000
  S   S1035     1.0  0.87435  0.44719  0.65917  1.0000
  Fe  Fe515     1.0  0.86537  0.47032  0.60007  1.0000
  H   H4552     1.0  0.82330  0.15964  0.59327  1.0000
  H   H4553     1.0  0.91147  0.99346  0.72559  1.0000
  Fe  Fe516     1.0  0.90069  0.44735  0.59708  1.0000
  H   H4554     1.0  0.89467  0.02057  0.59545  1.0000
  H   H4555     1.0  0.51359  0.10694  0.62924  1.0000
  S   S1036     1.0  0.86954  0.48224  0.61891  1.0000
  S   S1037     1.0  0.87510  0.44381  0.61348  1.0000
  C   C3765     1.0  0.88338  0.04871  0.63486  1.0000
  H   H4556     1.0  0.59086  0.01863  0.63082  1.0000
  C   C3766     1.0  0.99345  0.45706  0.74264  1.0000
  H   H4557     1.0  0.92549  0.12987  0.70077  1.0000
  C   C3767     1.0  0.99197  0.46016  0.69110  1.0000
  Fe  Fe517     1.0  0.89553  0.48285  0.60238  1.0000
  H   H4558     1.0  0.50210  0.44263  0.59912  1.0000
  H   H4559     1.0  0.92612  0.12263  0.59010  1.0000
  H   H4560     1.0  0.64479  0.08955  0.71030  1.0000
  C   C3768     1.0  0.58424  0.41485  0.58864  1.0000
  C   C3769     1.0  0.95002  0.36696  0.60142  1.0000
  H   H4561     1.0  0.56288  0.27644  0.59384  1.0000
  H   H4562     1.0  0.95786  0.44425  0.72940  1.0000
  C   C3770     1.0  0.90942  0.99828  0.74992  1.0000
  C   C3771     1.0  0.90295  0.45710  0.69370  1.0000
  C   C3772     1.0  0.90815  0.46197  0.67609  1.0000
  C   C3773     1.0  0.89959  0.45888  0.66533  1.0000
  C   C3774     1.0  0.88580  0.45080  0.67217  1.0000
  C   C3775     1.0  0.88070  0.44582  0.68979  1.0000
  C   C3776     1.0  0.88924  0.44894  0.70054  1.0000
  H   H4563     1.0  0.91877  0.46822  0.67078  1.0000
  H   H4564     1.0  0.90356  0.46283  0.65179  1.0000
  H   H4565     1.0  0.87005  0.43955  0.69515  1.0000
  H   H4566     1.0  0.88513  0.44514  0.71410  1.0000
  C   C3777     1.0  0.96741  0.17581  0.62933  1.0000
  C   C3778     1.0  0.86041  0.04856  0.61615  1.0000
  C   C3779     1.0  0.89051  0.01080  0.60668  1.0000
  C   C3780     1.0  0.87235  0.03325  0.62067  1.0000
  C   C3781     1.0  0.62538  0.00738  0.62256  1.0000
  C   C3782     1.0  0.96790  0.45714  0.62272  1.0000
  N   N256      1.0  0.61482  0.01180  0.63875  1.0000
  H   H4567     1.0  0.51801  0.11552  0.75476  1.0000
  C   C3783     1.0  0.84600  0.17294  0.62419  1.0000
  C   C3784     1.0  0.56113  0.25777  0.62454  1.0000
  H   H4568     1.0  0.53909  0.13080  0.63763  1.0000
  C   C3785     1.0  0.62931  0.18915  0.59601  1.0000
  C   C3786     1.0  0.53500  0.12317  0.63117  1.0000
  H   H4569     1.0  0.63801  0.10435  0.67094  1.0000
  H   H4570     1.0  0.51312  0.02076  0.71604  1.0000
  C   C3787     1.0  0.53399  0.24025  0.63241  1.0000
  H   H4571     1.0  0.97786  0.14141  0.67760  1.0000
  C   C3788     1.0  0.56127  0.06509  0.65290  1.0000
  C   C3789     1.0  0.56203  0.05182  0.64541  1.0000
  C   C3790     1.0  0.55691  0.03690  0.65536  1.0000
  C   C3791     1.0  0.55086  0.03530  0.67282  1.0000
  C   C3792     1.0  0.55019  0.04854  0.68029  1.0000
  C   C3793     1.0  0.55552  0.06334  0.67039  1.0000
  H   H4572     1.0  0.56651  0.05314  0.63188  1.0000
  H   H4573     1.0  0.55721  0.02684  0.64949  1.0000
  H   H4574     1.0  0.54555  0.04732  0.69380  1.0000
  H   H4575     1.0  0.55505  0.07345  0.67627  1.0000
  C   C3794     1.0  0.62826  0.12254  0.62800  1.0000
  C   C3795     1.0  0.62210  0.11058  0.62398  1.0000
  C   C3796     1.0  0.62952  0.10521  0.60874  1.0000
  H   H4576     1.0  0.50651  0.41984  0.65423  1.0000
  H   H4577     1.0  0.61845  0.07824  0.72673  1.0000
  C   C3797     1.0  0.64181  0.12925  0.61665  1.0000
  H   H4578     1.0  0.61160  0.10543  0.63264  1.0000
  H   H4579     1.0  0.59682  0.02782  0.66475  1.0000
  H   H4580     1.0  0.87805  0.00104  0.63978  1.0000
  H   H4581     1.0  0.64649  0.13862  0.61969  1.0000
  C   C3798     1.0  0.51281  0.11952  0.62030  1.0000
  C   C3799     1.0  0.62139  0.18312  0.58687  1.0000
  C   C3800     1.0  0.61694  0.17168  0.62187  1.0000
  H   H4582     1.0  0.91368  0.48587  0.62636  1.0000
  H   H4583     1.0  0.91805  0.18761  0.60935  1.0000
  C   C3801     1.0  0.89819  0.01903  0.72729  1.0000
  C   C3802     1.0  0.62241  0.99976  0.65267  1.0000
  N   N257      1.0  0.91699  0.14392  0.72066  1.0000
  C   C3803     1.0  0.55941  0.20436  0.61525  1.0000
  C   C3804     1.0  0.56850  0.19209  0.62649  1.0000
  C   C3805     1.0  0.56146  0.17841  0.63699  1.0000
  C   C3806     1.0  0.54504  0.17735  0.63669  1.0000
  C   C3807     1.0  0.53586  0.18979  0.62566  1.0000
  C   C3808     1.0  0.54316  0.20307  0.61471  1.0000
  H   H4584     1.0  0.58106  0.19308  0.62694  1.0000
  H   H4585     1.0  0.56860  0.16888  0.64554  1.0000
  H   H4586     1.0  0.52312  0.18907  0.62545  1.0000
  H   H4587     1.0  0.53598  0.21259  0.60618  1.0000
  C   C3809     1.0  0.62229  0.04083  0.62639  1.0000
  H   H4588     1.0  0.89117  0.99930  0.60215  1.0000
  H   H4589     1.0  0.88556  0.06213  0.74721  1.0000
  H   H4590     1.0  0.59696  0.11170  0.69567  1.0000
  C   C3810     1.0  0.98204  0.17520  0.63481  1.0000
  H   H4591     1.0  0.93872  0.48455  0.70929  1.0000
  H   H4592     1.0  0.59388  0.48095  0.62435  1.0000
  H   H4593     1.0  0.87687  0.48199  0.70533  1.0000
  C   C3811     1.0  0.90683  0.00273  0.73349  1.0000
  C   C3812     1.0  0.53103  0.43158  0.62427  1.0000
  C   C3813     1.0  0.51707  0.44092  0.61706  1.0000
  C   C3814     1.0  0.51306  0.43553  0.60449  1.0000
  C   C3815     1.0  0.87158  0.06349  0.63013  1.0000
  C   C3816     1.0  0.53729  0.41184  0.60584  1.0000
  C   C3817     1.0  0.54106  0.41699  0.61869  1.0000
  H   H4594     1.0  0.50914  0.45208  0.62138  1.0000
  C   C3818     1.0  0.62507  0.08679  0.69148  1.0000
  C   C3819     1.0  0.50469  0.15627  0.60590  1.0000
  H   H4595     1.0  0.55179  0.40964  0.62431  1.0000
  C   C3820     1.0  0.61076  0.17126  0.59508  1.0000
  C   C3821     1.0  0.51899  0.17892  0.58940  1.0000
  H   H4596     1.0  0.86857  0.99223  0.62856  1.0000
  C   C3822     1.0  0.99703  0.18225  0.60566  1.0000
  C   C3823     1.0  0.82728  0.15439  0.62668  1.0000
  C   C3824     1.0  0.96781  0.13628  0.65891  1.0000
  C   C3825     1.0  0.97191  0.12964  0.64442  1.0000
  H   H4597     1.0  0.96184  0.12955  0.63861  1.0000
  C   C3826     1.0  0.89210  0.19561  0.60592  1.0000
  H   H4598     1.0  0.89672  0.14819  0.70746  1.0000
  S   S1038     1.0  0.50136  0.48789  0.69966  1.0000
  C   C3827     1.0  0.61038  0.06334  0.64178  1.0000
  H   H4599     1.0  0.86781  0.20477  0.59856  1.0000
  H   H4600     1.0  0.95601  0.17291  0.63852  1.0000
  C   C3828     1.0  0.85202  0.11116  0.62080  1.0000
  C   C3829     1.0  0.85503  0.11414  0.63519  1.0000
  C   C3830     1.0  0.87155  0.11457  0.63591  1.0000
  C   C3831     1.0  0.88521  0.11212  0.62220  1.0000
  C   C3832     1.0  0.88235  0.10850  0.60802  1.0000
  C   C3833     1.0  0.86575  0.10821  0.60722  1.0000
  H   H4601     1.0  0.84454  0.11617  0.64585  1.0000
  H   H4602     1.0  0.87371  0.11653  0.64724  1.0000
  C   C3834     1.0  0.67378  0.16137  0.59091  1.0000
  C   C3835     1.0  0.50096  0.00487  0.73924  1.0000
  H   H4603     1.0  0.54952  0.29049  0.61867  1.0000
  S   S1039     1.0  0.51273  0.48377  0.62582  1.0000
  H   H4604     1.0  0.87216  0.06393  0.76734  1.0000
  C   C3836     1.0  0.98760  0.41226  0.58832  1.0000
  C   C3837     1.0  0.50397  0.25470  0.62031  1.0000
  H   H4605     1.0  0.60508  0.12277  0.70619  1.0000
  C   C3838     1.0  0.57318  0.11993  0.75497  1.0000
  C   C3839     1.0  0.56681  0.10513  0.75993  1.0000
  C   C3840     1.0  0.56317  0.09873  0.74784  1.0000
  C   C3841     1.0  0.56547  0.10729  0.73082  1.0000
  C   C3842     1.0  0.57112  0.12247  0.72600  1.0000
  C   C3843     1.0  0.57529  0.12859  0.73798  1.0000
  H   H4606     1.0  0.56527  0.09831  0.77297  1.0000
  H   H4607     1.0  0.55891  0.08692  0.75166  1.0000
  H   H4608     1.0  0.57249  0.12940  0.71302  1.0000
  H   H4609     1.0  0.58007  0.14013  0.73413  1.0000
  N   N258      1.0  0.50782  0.09601  0.75111  1.0000
  H   H4610     1.0  0.99434  0.48484  0.60303  1.0000
  C   C3844     1.0  0.64299  0.11193  0.59731  1.0000
  H   H4611     1.0  0.56251  0.43505  0.59101  1.0000
  C   C3845     1.0  0.98230  0.18290  0.60032  1.0000
  C   C3846     1.0  0.88631  0.09967  0.74432  1.0000
  C   C3847     1.0  0.87048  0.11100  0.74651  1.0000
  C   C3848     1.0  0.86453  0.12175  0.73230  1.0000
  C   C3849     1.0  0.87452  0.12136  0.71595  1.0000
  C   C3850     1.0  0.89016  0.10974  0.71384  1.0000
  C   C3851     1.0  0.89596  0.09882  0.72797  1.0000
  H   H4612     1.0  0.86297  0.11170  0.75911  1.0000
  H   H4613     1.0  0.85242  0.13075  0.73400  1.0000
  H   H4614     1.0  0.89786  0.10923  0.70132  1.0000
  H   H4615     1.0  0.90817  0.08998  0.72623  1.0000
  H   H4616     1.0  0.61511  0.12094  0.68495  1.0000
  H   H4617     1.0  0.86712  0.48468  0.68220  1.0000
  C   C3852     1.0  0.53932  0.28317  0.62170  1.0000
  C   C3853     1.0  0.84274  0.18218  0.58797  1.0000
  H   H4618     1.0  0.53554  0.99880  0.72310  1.0000
  C   C3854     1.0  0.88157  0.20220  0.59420  1.0000
  H   H4619     1.0  0.60677  0.09892  0.72968  1.0000
  S   S1040     1.0  0.93096  0.47969  0.76474  1.0000
  C   C3855     1.0  0.60760  0.14618  0.58833  1.0000
  C   C3856     1.0  0.61059  0.09022  0.72073  1.0000
  H   H4620     1.0  0.63232  0.10901  0.71629  1.0000
  H   H4621     1.0  0.90891  0.03020  0.77790  1.0000
  H   H4622     1.0  0.96532  0.46383  0.63278  1.0000
  H   H4623     1.0  0.51383  0.07048  0.76537  1.0000
  C   C3857     1.0  0.97459  0.43930  0.59658  1.0000
  C   C3858     1.0  0.92379  0.15840  0.70871  1.0000
  H   H4624     1.0  0.85548  0.18031  0.61716  1.0000
  H   H4625     1.0  0.52311  0.99377  0.71130  1.0000
  H   H4626     1.0  0.88534  0.04329  0.73194  1.0000
  H   H4627     1.0  0.62218  0.04853  0.68630  1.0000
  N   N259      1.0  0.87301  0.01724  0.61602  1.0000
  H   H4628     1.0  0.89663  0.05081  0.77999  1.0000
  C   C3859     1.0  0.51758  0.48799  0.70933  1.0000
  H   H4629     1.0  0.89224  0.04886  0.64214  1.0000
  H   H4630     1.0  0.56038  0.47721  0.60257  1.0000
  C   C3860     1.0  0.60888  0.11400  0.69736  1.0000
  H   H4631     1.0  0.95615  0.17999  0.60802  1.0000
  C   C3861     1.0  0.87540  0.03130  0.78131  1.0000
  H   H4632     1.0  0.60857  0.07644  0.64235  1.0000
  C   C3862     1.0  0.91187  0.15504  0.58800  1.0000
  H   H4633     1.0  0.62458  0.09608  0.60562  1.0000
  H   H4634     1.0  0.97296  0.46405  0.67669  1.0000
  C   C3863     1.0  0.51691  0.26379  0.61607  1.0000
  C   C3864     1.0  0.95778  0.44804  0.60294  1.0000
  H   H4635     1.0  0.88758  0.27037  0.59525  1.0000
  C   C3865     1.0  0.70099  0.14816  0.59860  1.0000
  C   C3866     1.0  0.91326  0.12795  0.75100  1.0000
  C   C3867     1.0  0.98452  0.44886  0.61666  1.0000
  C   C3868     1.0  0.53479  0.48511  0.70103  1.0000
  C   C3869     1.0  0.59739  0.00927  0.64055  1.0000
  C   C3870     1.0  0.60223  0.05238  0.65519  1.0000
  H   H4636     1.0  0.75721  0.02061  0.58600  1.0000
  H   H4637     1.0  0.50785  0.12157  0.73698  1.0000
  C   C3871     1.0  0.51892  0.14773  0.61348  1.0000
  C   C3872     1.0  0.61378  0.02940  0.63969  1.0000
  C   C3873     1.0  0.86099  0.01906  0.60512  1.0000
  C   C3874     1.0  0.63556  0.10148  0.70637  1.0000
  C   C3875     1.0  0.88699  0.29676  0.58652  1.0000
  H   H4638     1.0  0.53443  0.11078  0.64026  1.0000
  H   H4639     1.0  0.93828  0.37547  0.60712  1.0000
  C   C3876     1.0  0.86432  0.15703  0.59468  1.0000
  H   H4640     1.0  0.93772  0.15674  0.70789  1.0000
  H   H4641     1.0  0.59777  0.99636  0.63921  1.0000
  C   C3877     1.0  0.55229  0.26948  0.59819  1.0000
  C   C3878     1.0  0.82949  0.16208  0.65161  1.0000
  C   C3879     1.0  0.63449  0.09217  0.67489  1.0000
  C   C3880     1.0  0.51591  0.11091  0.74443  1.0000
  Fe  Fe518     1.0  0.91276  0.46474  0.76367  1.0000
  C   C3881     1.0  0.98389  0.44902  0.72170  1.0000
  C   C3882     1.0  0.92514  0.15298  0.74348  1.0000
  H   H4642     1.0  0.52869  0.10801  0.73603  1.0000
  Fe  Fe519     1.0  0.87633  0.46194  0.76700  1.0000
  C   C3883     1.0  0.86867  0.00433  0.63157  1.0000
  H   H4643     1.0  0.61426  0.00100  0.66534  1.0000
  H   H4644     1.0  0.70837  0.13947  0.60750  1.0000
  Fe  Fe520     1.0  0.50867  0.48475  0.67270  1.0000
  H   H4645     1.0  0.91680  0.17067  0.71227  1.0000
  H   H4646     1.0  0.62002  0.01553  0.61153  1.0000
  C   C3884     1.0  0.89502  0.41123  0.58509  1.0000
  C   C3885     1.0  0.63496  0.06640  0.66705  1.0000
  C   C3886     1.0  0.97595  0.45994  0.68913  1.0000
  H   H4647     1.0  0.89117  0.15864  0.72486  1.0000
  S   S1041     1.0  0.80785  0.09026  0.60040  1.0000
  C   C3887     1.0  0.50597  0.23852  0.63061  1.0000
  C   C3888     1.0  0.52327  0.42107  0.59874  1.0000
  C   C3889     1.0  0.96751  0.17970  0.61214  1.0000
  C   C3890     1.0  0.98096  0.13637  0.66635  1.0000
  C   C3891     1.0  0.52087  0.23138  0.63675  1.0000
  H   H4648     1.0  0.50936  0.14502  0.64679  1.0000
  H   H4649     1.0  0.87174  0.16484  0.59729  1.0000
  H   H4650     1.0  0.97077  0.42673  0.75076  1.0000
  H   H4651     1.0  0.94683  0.44830  0.59824  1.0000
  H   H4652     1.0  0.90810  0.11885  0.74810  1.0000
  H   H4653     1.0  0.84741  0.02316  0.61153  1.0000
  Fe  Fe521     1.0  0.82489  0.10793  0.59711  1.0000
  C   C3892     1.0  0.98912  0.12311  0.63745  1.0000
  H   H4654     1.0  0.63016  0.03732  0.61483  1.0000
  H   H4655     1.0  0.98244  0.18569  0.58693  1.0000
  C   C3893     1.0  0.96013  0.47362  0.77637  1.0000
  C   C3894     1.0  0.96772  0.44875  0.71921  1.0000
  H   H4656     1.0  0.94018  0.12560  0.71434  1.0000
  H   H4657     1.0  0.61337  0.06560  0.70742  1.0000
  H   H4658     1.0  0.61529  0.16709  0.63545  1.0000
  H   H4659     1.0  0.86665  0.48616  0.65340  1.0000
  H   H4660     1.0  0.94641  0.48295  0.72777  1.0000
  H   H4661     1.0  0.84673  0.17851  0.64745  1.0000
  H   H4662     1.0  0.86189  0.00688  0.60172  1.0000
  C   C3895     1.0  0.97447  0.43784  0.75245  1.0000
  C   C3896     1.0  0.96388  0.45417  0.70314  1.0000
  C   C3897     1.0  0.60384  0.03566  0.65421  1.0000
  C   C3898     1.0  0.53304  0.17106  0.59676  1.0000
  C   C3899     1.0  0.50257  0.02011  0.72690  1.0000
  C   C3900     1.0  0.50481  0.09065  0.73698  1.0000
  C   C3901     1.0  0.56712  0.46387  0.60212  1.0000
  N   N260      1.0  0.98855  0.44321  0.73846  1.0000
  C   C3902     1.0  0.91414  0.12578  0.76783  1.0000
  H   H4663     1.0  0.82164  0.14705  0.62185  1.0000
  C   C3903     1.0  0.62569  0.06071  0.68318  1.0000
  H   H4664     1.0  0.96092  0.36947  0.60495  1.0000
  H   H4665     1.0  0.65953  0.12925  0.59248  1.0000
  H   H4666     1.0  0.99225  0.11798  0.62625  1.0000
  C   C3904     1.0  0.88374  0.03377  0.63030  1.0000
  Fe  Fe522     1.0  0.90434  0.43053  0.76881  1.0000
  H   H4667     1.0  0.86468  0.02833  0.77793  1.0000
  H   H4668     1.0  0.59632  0.42945  0.78150  1.0000
  H   H4669     1.0  0.62686  0.06613  0.61708  1.0000
  C   C3905     1.0  0.53238  0.25681  0.62192  1.0000
  H   H4670     1.0  0.82888  0.18833  0.59042  1.0000
  H   H4671     1.0  0.86374  0.02842  0.59301  1.0000
  C   C3906     1.0  0.87731  0.05532  0.75830  1.0000
  C   C3907     1.0  0.57632  0.43182  0.58852  1.0000
  H   H4672     1.0  0.54501  0.40049  0.60175  1.0000
  H   H4673     1.0  0.92122  0.11711  0.72144  1.0000
  H   H4674     1.0  0.53848  0.48186  0.68879  1.0000
  H   H4675     1.0  0.81373  0.14547  0.65196  1.0000
  H   H4676     1.0  0.66000  0.16276  0.59370  1.0000
  H   H4677     1.0  0.52713  0.07796  0.70006  1.0000
  C   C3908     1.0  0.91868  0.14163  0.73827  1.0000
  H   H4678     1.0  0.90568  0.24676  0.58719  1.0000
  H   H4679     1.0  0.92236  0.15958  0.69562  1.0000
  C   C3909     1.0  0.98782  0.44005  0.60384  1.0000
  C   C3910     1.0  0.58310  0.16919  0.59257  1.0000
  H   H4680     1.0  0.94866  0.35372  0.60757  1.0000
  H   H4681     1.0  0.89292  0.10607  0.59760  1.0000
  H   H4682     1.0  0.92960  0.16373  0.73478  1.0000
  C   C3911     1.0  0.89864  0.14693  0.72039  1.0000
  H   H4683     1.0  0.98273  0.46837  0.74295  1.0000
  N   N261      1.0  0.84570  0.16446  0.59786  1.0000
  N   N262      1.0  0.54610  0.26652  0.61679  1.0000
  N   N263      1.0  0.62007  0.09780  0.70386  1.0000
  C   C3912     1.0  0.92591  0.15071  0.76040  1.0000
  H   H4684     1.0  0.85579  0.00889  0.63919  1.0000
  H   H4685     1.0  0.90018  0.00691  0.61464  1.0000
  H   H4686     1.0  0.60109  0.15658  0.62001  1.0000
  H   H4687     1.0  0.63875  0.05866  0.65771  1.0000
  C   C3913     1.0  0.54734  0.48638  0.70864  1.0000
  H   H4688     1.0  0.89269  0.13640  0.72867  1.0000
  C   C3914     1.0  0.99811  0.12982  0.65941  1.0000
  H   H4689     1.0  0.96190  0.48579  0.76838  1.0000
  C   C3915     1.0  0.63923  0.08216  0.66288  1.0000
  H   H4690     1.0  0.52723  0.99267  0.75471  1.0000
  N   N264      1.0  0.88711  0.03869  0.76600  1.0000
  C   C3916     1.0  0.90137  0.04193  0.77121  1.0000
  H   H4691     1.0  0.91035  0.04774  0.76008  1.0000
  C   C3917     1.0  0.51943  0.08197  0.76023  1.0000
  C   C3918     1.0  0.89404  0.02667  0.75454  1.0000
  C   C3919     1.0  0.90320  0.01003  0.76031  1.0000
  C   C3920     1.0  0.89189  0.03091  0.73757  1.0000
  H   H4692     1.0  0.95149  0.45371  0.70154  1.0000
  H   H4693     1.0  0.51490  0.27613  0.60772  1.0000
  H   H4694     1.0  0.85110  0.04948  0.60901  1.0000
  S   S1042     1.0  0.55666  0.46725  0.78113  1.0000
  H   H4695     1.0  0.56065  0.48427  0.70213  1.0000
  H   H4696     1.0  0.99496  0.44920  0.62191  1.0000
  H   H4697     1.0  0.64234  0.10901  0.69469  1.0000
  C   C3921     1.0  0.86010  0.06339  0.62085  1.0000
  H   H4698     1.0  0.62586  0.99412  0.62223  1.0000
  H   H4699     1.0  0.87127  0.07505  0.63372  1.0000
  C   C3922     1.0  0.83740  0.15475  0.59129  1.0000
  C   C3923     1.0  0.62709  0.18344  0.61348  1.0000
  H   H4700     1.0  0.90554  0.00586  0.77298  1.0000
  H   H4701     1.0  0.55741  0.25520  0.63859  1.0000
  H   H4702     1.0  0.54522  0.12048  0.61994  1.0000
  C   C3924     1.0  0.90989  0.19253  0.60029  1.0000
  H   H4703     1.0  0.89627  0.02243  0.71445  1.0000
  H   H4704     1.0  0.94166  0.46329  0.62059  1.0000
  H   H4705     1.0  0.54544  0.23360  0.63707  1.0000
  H   H4706     1.0  0.52253  0.21863  0.64449  1.0000
  H   H4707     1.0  0.59405  0.05709  0.66612  1.0000
  H   H4708     1.0  0.57660  0.40558  0.59078  1.0000
  H   H4709     1.0  0.55722  0.25728  0.59392  1.0000
  H   H4710     1.0  0.54205  0.27708  0.59132  1.0000
  H   H4711     1.0  0.53216  0.07833  0.75198  1.0000
  H   H4712     1.0  0.86614  0.05392  0.75434  1.0000
  H   H4713     1.0  0.88435  0.29893  0.59920  1.0000
  C   C3925     1.0  0.68325  0.15032  0.60236  1.0000
  C   C3926     1.0  0.51627  0.08127  0.71006  1.0000
  H   H4714     1.0  0.82610  0.16095  0.66519  1.0000
  H   H4715     1.0  0.90384  0.14659  0.59746  1.0000
  H   H4716     1.0  0.97817  0.43405  0.76494  1.0000
  H   H4717     1.0  0.53164  0.08622  0.72380  1.0000
  C   C3927     1.0  0.60885  0.16568  0.61286  1.0000
  Fe  Fe523     1.0  0.55141  0.99267  0.67670  1.0000
  H   H4718     1.0  0.63722  0.19831  0.58945  1.0000
  H   H4719     1.0  0.55717  0.45612  0.60668  1.0000
  H   H4720     1.0  0.60455  0.13960  0.60181  1.0000
  S   S1043     1.0  0.89484  0.45053  0.78421  1.0000
  S   S1044     1.0  0.90954  0.40247  0.77985  1.0000
  C   C3928     1.0  0.94562  0.46772  0.77731  1.0000
  C   C3929     1.0  0.53308  0.15574  0.60870  1.0000
  C   C3930     1.0  0.50577  0.13565  0.64195  1.0000
  H   H4721     1.0  0.63326  0.18811  0.62053  1.0000
  H   H4722     1.0  0.88893  0.41530  0.59683  1.0000
  H   H4723     1.0  0.57850  0.18315  0.59145  1.0000
  C   C3931     1.0  0.95458  0.45678  0.61584  1.0000
  H   H4724     1.0  0.93075  0.15955  0.76418  1.0000
  C   C3932     1.0  0.99588  0.45484  0.70711  1.0000
  C   C3933     1.0  0.92039  0.13717  0.77254  1.0000
  H   H4725     1.0  0.57933  0.16309  0.60613  1.0000
  H   H4726     1.0  0.92056  0.15743  0.59465  1.0000
  H   H4727     1.0  0.52181  0.08547  0.77110  1.0000
  H   H4728     1.0  0.90988  0.11520  0.77727  1.0000
  H   H4729     1.0  0.95414  0.42325  0.58808  1.0000
  N   N265      1.0  0.51827  0.13177  0.62645  1.0000
  H   H4730     1.0  0.53367  0.28153  0.63550  1.0000
  H   H4731     1.0  0.52929  0.29143  0.61487  1.0000
  H   H4732     1.0  0.67685  0.14329  0.61411  1.0000
  H   H4733     1.0  0.96292  0.44832  0.75347  1.0000
  H   H4734     1.0  0.73061  0.11890  0.58798  1.0000
  S   S1045     1.0  0.76563  0.11668  0.58759  1.0000
  H   H4735     1.0  0.83567  0.01842  0.58620  1.0000
  H   H4736     1.0  0.87514  0.25282  0.58773  1.0000
  H   H4737     1.0  0.59782  0.47114  0.58859  1.0000
  H   H4738     1.0  0.94272  0.13360  0.58552  1.0000
  H   H4739     1.0  0.98358  0.46840  0.78493  1.0000
  H   H4740     1.0  0.49931  0.12369  0.61888  1.0000
  C   C3934     1.0  0.60199  0.40979  0.58571  1.0000
  H   H4741     1.0  0.92474  0.37625  0.58566  1.0000
  H   H4742     1.0  0.99689  0.45314  0.75526  1.0000
  N   N266      1.0  0.60184  0.16485  0.58590  1.0000
  H   H4743     1.0  0.57591  0.16510  0.58558  1.0000
  C   C3935     1.0  0.58602  0.44436  0.58517  1.0000
  H   H4744     1.0  0.49855  0.40074  0.66020  1.0000
  H   H4745     1.0  0.60808  0.39669  0.58532  1.0000
  Fe  Fe524     1.0  0.87037  0.06270  0.82047  1.0000
  H   H4746     1.0  0.50850  0.14623  0.82972  1.0000
  S   S1046     1.0  0.86567  0.03618  0.83094  1.0000
  Fe  Fe525     1.0  0.88616  0.09162  0.82106  1.0000
  C   C3936     1.0  0.98476  0.36794  0.84142  1.0000
  S   S1047     1.0  0.90190  0.09868  0.83506  1.0000
  Fe  Fe526     1.0  0.85025  0.09911  0.81562  1.0000
  S   S1048     1.0  0.82517  0.11605  0.82469  1.0000
  S   S1049     1.0  0.86274  0.08210  0.83637  1.0000
  H   H4747     1.0  0.63970  0.45049  0.97553  1.0000
  Fe  Fe527     1.0  0.78818  0.10441  0.91873  1.0000
  S   S1050     1.0  0.77146  0.12964  0.91076  1.0000
  S   S1051     1.0  0.79958  0.08534  0.90215  1.0000
  Fe  Fe528     1.0  0.78577  0.11083  0.95316  1.0000
  S   S1052     1.0  0.76940  0.13694  0.94779  1.0000
  Fe  Fe529     1.0  0.75520  0.12488  0.93687  1.0000
  S   S1053     1.0  0.72631  0.13149  0.94327  1.0000
  Fe  Fe530     1.0  0.78721  0.13944  0.92220  1.0000
  S   S1054     1.0  0.79604  0.16294  0.90602  1.0000
  S   S1055     1.0  0.77041  0.09855  0.94386  1.0000
  S   S1056     1.0  0.80510  0.11435  0.92856  1.0000
  Fe  Fe531     1.0  0.92005  0.18362  0.87538  1.0000
  S   S1057     1.0  0.91481  0.20106  0.85100  1.0000
  S   S1058     1.0  0.94638  0.17207  0.88042  1.0000
  Fe  Fe532     1.0  0.88251  0.18385  0.89117  1.0000
  S   S1059     1.0  0.87413  0.20131  0.86817  1.0000
  S   S1060     1.0  0.86581  0.17210  0.91508  1.0000
  Fe  Fe533     1.0  0.89610  0.18502  0.85360  1.0000
  S   S1061     1.0  0.89206  0.17692  0.83169  1.0000
  Fe  Fe534     1.0  0.89348  0.21572  0.86785  1.0000
  S   S1062     1.0  0.88495  0.24423  0.86491  1.0000
  S   S1063     1.0  0.90307  0.16649  0.87671  1.0000
  S   S1064     1.0  0.90019  0.19936  0.89201  1.0000
  C   C3937     1.0  0.60455  0.39793  0.85125  1.0000
  C   C3938     1.0  0.88190  0.40396  0.91523  1.0000
  H   H4748     1.0  0.86147  0.38235  0.79929  1.0000
  S   S1065     1.0  0.98045  0.22349  0.89522  1.0000
  H   H4749     1.0  0.84664  0.12693  0.84709  1.0000
  Fe  Fe535     1.0  0.53280  0.11635  0.82134  1.0000
  H   H4750     1.0  0.83429  0.14781  0.82606  1.0000
  C   C3939     1.0  0.99814  0.28043  0.86948  1.0000
  Fe  Fe536     1.0  0.56625  0.10213  0.83290  1.0000
  S   S1066     1.0  0.57749  0.12435  0.81700  1.0000
  S   S1067     1.0  0.57899  0.08095  0.85165  1.0000
  Fe  Fe537     1.0  0.55183  0.14019  0.82613  1.0000
  S   S1068     1.0  0.54923  0.16539  0.83237  1.0000
  H   H4751     1.0  0.63884  0.46638  0.94692  1.0000
  S   S1069     1.0  0.54142  0.11830  0.84359  1.0000
  S   S1070     1.0  0.55670  0.09819  0.81195  1.0000
  Fe  Fe538     1.0  0.66740  0.09153  0.91600  1.0000
  S   S1071     1.0  0.65152  0.08298  0.94156  1.0000
  S   S1072     1.0  0.69574  0.08983  0.91131  1.0000
  Fe  Fe539     1.0  0.63822  0.09712  0.89840  1.0000
  S   S1073     1.0  0.61994  0.08860  0.92246  1.0000
  S   S1074     1.0  0.63229  0.10781  0.87255  1.0000
  Fe  Fe540     1.0  0.63059  0.10440  0.93304  1.0000
  S   S1075     1.0  0.61258  0.12084  0.95050  1.0000
  Fe  Fe541     1.0  0.64249  0.06792  0.92873  1.0000
  S   S1076     1.0  0.64457  0.04010  0.94078  1.0000
  S   S1077     1.0  0.64736  0.11435  0.90852  1.0000
  S   S1078     1.0  0.65981  0.07509  0.90362  1.0000
  Fe  Fe542     1.0  0.52304  0.20973  0.94452  1.0000
  S   S1079     1.0  0.54173  0.22628  0.93037  1.0000
  H   H4752     1.0  0.80242  0.99471  0.86178  1.0000
  Fe  Fe543     1.0  0.52408  0.19724  0.91338  1.0000
  S   S1080     1.0  0.54254  0.21303  0.89659  1.0000
  S   S1081     1.0  0.51434  0.17849  0.90574  1.0000
  Fe  Fe544     1.0  0.55602  0.20419  0.91830  1.0000
  S   S1082     1.0  0.58475  0.19533  0.91264  1.0000
  Fe  Fe545     1.0  0.52647  0.23353  0.91025  1.0000
  S   S1083     1.0  0.51557  0.26053  0.89832  1.0000
  S   S1084     1.0  0.53858  0.18697  0.93415  1.0000
  H   H4753     1.0  0.80241  0.44531  0.95411  1.0000
  H   H4754     1.0  0.83829  0.01787  0.84467  1.0000
  C   C3940     1.0  0.56398  0.42144  0.87469  1.0000
  S   S1085     1.0  0.50517  0.11609  0.82476  1.0000
  H   H4755     1.0  0.85906  0.14228  0.83419  1.0000
  H   H4756     1.0  0.54154  0.43830  0.85761  1.0000
  C   C3941     1.0  0.64239  0.04528  0.88578  1.0000
  Fe  Fe546     1.0  0.61238  0.45230  0.92305  1.0000
  S   S1086     1.0  0.63758  0.43426  0.91778  1.0000
  S   S1087     1.0  0.59830  0.45022  0.95019  1.0000
  Fe  Fe547     1.0  0.61331  0.46791  0.88564  1.0000
  S   S1088     1.0  0.63871  0.45127  0.87726  1.0000
  H   H4757     1.0  0.64937  0.09554  0.97227  1.0000
  Fe  Fe548     1.0  0.62746  0.43066  0.89711  1.0000
  S   S1089     1.0  0.62791  0.40539  0.89228  1.0000
  Fe  Fe549     1.0  0.64637  0.45651  0.89875  1.0000
  S   S1090     1.0  0.66850  0.46698  0.89962  1.0000
  S   S1091     1.0  0.60159  0.44713  0.90382  1.0000
  S   S1092     1.0  0.62158  0.47485  0.90558  1.0000
  Fe  Fe550     1.0  0.54517  0.34239  0.89310  1.0000
  S   S1093     1.0  0.52974  0.35530  0.91422  1.0000
  S   S1094     1.0  0.55558  0.31413  0.89998  1.0000
  Fe  Fe551     1.0  0.54387  0.37587  0.86685  1.0000
  C   C3942     1.0  0.71759  0.09292  0.97741  1.0000
  S   S1095     1.0  0.55106  0.38821  0.83917  1.0000
  Fe  Fe552     1.0  0.54649  0.37430  0.90261  1.0000
  S   S1096     1.0  0.55572  0.38566  0.91903  1.0000
  S   S1097     1.0  0.56307  0.36045  0.88259  1.0000
  H   H4758     1.0  0.82774  0.40517  0.94614  1.0000
  H   H4759     1.0  0.79431  0.43026  0.94818  1.0000
  C   C3943     1.0  0.82189  0.00372  0.87718  1.0000
  H   H4760     1.0  0.60082  0.41091  0.98032  1.0000
  H   H4761     1.0  0.63265  0.00646  0.86671  1.0000
  C   C3944     1.0  0.51554  0.22074  0.98207  1.0000
  H   H4762     1.0  0.58191  0.20260  0.87789  1.0000
  H   H4763     1.0  0.52248  0.46276  0.84457  1.0000
  Fe  Fe553     1.0  0.79284  0.43235  0.90215  1.0000
  S   S1098     1.0  0.79471  0.43398  0.87473  1.0000
  S   S1099     1.0  0.80851  0.41163  0.91858  1.0000
  C   C3945     1.0  0.83500  0.34567  0.94349  1.0000
  H   H4764     1.0  0.58511  0.40555  0.79335  1.0000
  H   H4765     1.0  0.50068  0.17774  0.94210  1.0000
  Fe  Fe554     1.0  0.76649  0.44607  0.88040  1.0000
  H   H4766     1.0  0.88562  0.15941  0.81015  1.0000
  H   H4767     1.0  0.64733  0.04314  0.89704  1.0000
  S   S1100     1.0  0.76438  0.44215  0.90831  1.0000
  S   S1101     1.0  0.79871  0.45777  0.89774  1.0000
  C   C3946     1.0  0.70607  0.45346  0.96427  1.0000
  C   C3947     1.0  0.81792  0.46939  0.82328  1.0000
  Fe  Fe555     1.0  0.91277  0.31789  0.87991  1.0000
  S   S1102     1.0  0.92783  0.33355  0.88540  1.0000
  S   S1103     1.0  0.92706  0.29164  0.87595  1.0000
  Fe  Fe556     1.0  0.88011  0.34491  0.88386  1.0000
  S   S1104     1.0  0.89232  0.36234  0.89018  1.0000
  S   S1105     1.0  0.85298  0.35378  0.88033  1.0000
  Fe  Fe557     1.0  0.91386  0.35562  0.86891  1.0000
  S   S1106     1.0  0.92469  0.37820  0.85315  1.0000
  Fe  Fe558     1.0  0.90506  0.33896  0.90618  1.0000
  S   S1107     1.0  0.91060  0.33775  0.93118  1.0000
  S   S1108     1.0  0.90086  0.33963  0.86125  1.0000
  S   S1109     1.0  0.89082  0.32182  0.90198  1.0000
  H   H4768     1.0  0.64362  0.07086  0.84679  1.0000
  C   C3948     1.0  0.89685  0.35291  0.94235  1.0000
  C   C3949     1.0  0.88110  0.36162  0.93827  1.0000
  C   C3950     1.0  0.86961  0.37250  0.94832  1.0000
  C   C3951     1.0  0.87390  0.37478  0.96241  1.0000
  C   C3952     1.0  0.83563  0.14122  0.87405  1.0000
  C   C3953     1.0  0.90131  0.35552  0.95619  1.0000
  H   H4769     1.0  0.87753  0.35958  0.92769  1.0000
  H   H4770     1.0  0.85722  0.37878  0.94544  1.0000
  C   C3954     1.0  0.55778  0.27911  0.94306  1.0000
  C   C3955     1.0  0.96492  0.29832  0.90050  1.0000
  C   C3956     1.0  0.92120  0.38479  0.83253  1.0000
  C   C3957     1.0  0.92032  0.40179  0.82420  1.0000
  C   C3958     1.0  0.91693  0.40736  0.80790  1.0000
  C   C3959     1.0  0.91473  0.39585  0.79982  1.0000
  C   C3960     1.0  0.91631  0.37873  0.80792  1.0000
  C   C3961     1.0  0.91948  0.37320  0.82429  1.0000
  H   H4771     1.0  0.92200  0.41073  0.83042  1.0000
  H   H4772     1.0  0.91608  0.42052  0.80158  1.0000
  H   H4773     1.0  0.91491  0.36974  0.80158  1.0000
  H   H4774     1.0  0.92067  0.35997  0.83049  1.0000
  C   C3962     1.0  0.61624  0.42041  0.82177  1.0000
  H   H4775     1.0  0.57068  0.27141  0.93866  1.0000
  C   C3963     1.0  0.62011  0.00964  0.87549  1.0000
  H   H4776     1.0  0.51290  0.03852  0.83814  1.0000
  C   C3964     1.0  0.82018  0.39483  0.90870  1.0000
  C   C3965     1.0  0.83554  0.38520  0.91317  1.0000
  C   C3966     1.0  0.84563  0.37250  0.90458  1.0000
  C   C3967     1.0  0.84016  0.36905  0.89182  1.0000
  C   C3968     1.0  0.82451  0.37831  0.88774  1.0000
  C   C3969     1.0  0.81461  0.39130  0.89605  1.0000
  H   H4777     1.0  0.83987  0.38777  0.92302  1.0000
  H   H4778     1.0  0.85756  0.36533  0.90796  1.0000
  H   H4779     1.0  0.82006  0.37552  0.87808  1.0000
  H   H4780     1.0  0.80255  0.39839  0.89283  1.0000
  C   C3970     1.0  0.59647  0.03176  0.88423  1.0000
  C   C3971     1.0  0.61379  0.00923  0.92854  1.0000
  H   H4781     1.0  0.96448  0.28262  0.87497  1.0000
  H   H4782     1.0  0.70073  0.48838  0.92445  1.0000
  S   S1110     1.0  0.89526  0.07033  0.80726  1.0000
  N   N267      1.0  0.60149  0.15579  0.83939  1.0000
  H   H4783     1.0  0.65860  0.43548  0.96840  1.0000
  C   C3972     1.0  0.69026  0.45865  0.89159  1.0000
  C   C3973     1.0  0.69536  0.44514  0.88336  1.0000
  C   C3974     1.0  0.71288  0.43892  0.87720  1.0000
  C   C3975     1.0  0.72538  0.44599  0.87944  1.0000
  C   C3976     1.0  0.72025  0.45941  0.88779  1.0000
  C   C3977     1.0  0.70276  0.46579  0.89371  1.0000
  H   H4784     1.0  0.68583  0.43956  0.88165  1.0000
  Fe  Fe559     1.0  0.56724  0.48195  0.79301  1.0000
  H   H4785     1.0  0.72979  0.46500  0.88947  1.0000
  H   H4786     1.0  0.97109  0.32550  0.92067  1.0000
  C   C3978     1.0  0.60044  0.46544  0.95971  1.0000
  H   H4787     1.0  0.53316  0.01181  0.84712  1.0000
  C   C3979     1.0  0.85388  0.40928  0.82026  1.0000
  C   C3980     1.0  0.50326  0.99533  0.84015  1.0000
  H   H4788     1.0  0.92415  0.01032  0.80498  1.0000
  H   H4789     1.0  0.53973  0.31497  0.93571  1.0000
  Fe  Fe560     1.0  0.88047  0.08794  0.78825  1.0000
  C   C3981     1.0  0.81099  0.01575  0.90765  1.0000
  H   H4790     1.0  0.58367  0.29236  0.94485  1.0000
  H   H4791     1.0  0.62410  0.05463  0.84574  1.0000
  C   C3982     1.0  0.60894  0.39781  0.90168  1.0000
  C   C3983     1.0  0.59708  0.40408  0.91507  1.0000
  C   C3984     1.0  0.58119  0.39931  0.92107  1.0000
  C   C3985     1.0  0.57686  0.38872  0.91334  1.0000
  C   C3986     1.0  0.58911  0.38161  0.90068  1.0000
  C   C3987     1.0  0.60525  0.38590  0.89512  1.0000
  H   H4792     1.0  0.60011  0.41265  0.92078  1.0000
  H   H4793     1.0  0.57192  0.40453  0.93117  1.0000
  H   H4794     1.0  0.58614  0.37293  0.89508  1.0000
  H   H4795     1.0  0.61476  0.38027  0.88545  1.0000
  C   C3988     1.0  0.52163  0.44128  0.81895  1.0000
  H   H4796     1.0  0.62234  0.00543  0.88858  1.0000
  C   C3989     1.0  0.52542  0.41693  0.84228  1.0000
  C   C3990     1.0  0.53865  0.40812  0.83151  1.0000
  C   C3991     1.0  0.54260  0.41558  0.81427  1.0000
  C   C3992     1.0  0.53437  0.43223  0.80806  1.0000
  H   H4797     1.0  0.99600  0.21996  0.85104  1.0000
  H   H4798     1.0  0.55243  0.40867  0.80574  1.0000
  C   C3993     1.0  0.59575  0.48236  0.85071  1.0000
  C   C3994     1.0  0.59255  0.47425  0.82158  1.0000
  H   H4799     1.0  0.82115  0.43587  0.97346  1.0000
  H   H4800     1.0  0.62116  0.42946  0.81093  1.0000
  H   H4801     1.0  0.81675  0.35375  0.96482  1.0000
  C   C3995     1.0  0.60755  0.46902  0.84426  1.0000
  C   C3996     1.0  0.60604  0.46509  0.82962  1.0000
  H   H4802     1.0  0.55093  0.41899  0.88071  1.0000
  C   C3997     1.0  0.85993  0.41526  0.89883  1.0000
  H   H4803     1.0  0.61798  0.46190  0.85038  1.0000
  H   H4804     1.0  0.61545  0.45507  0.82444  1.0000
  C   C3998     1.0  0.52711  0.27547  0.89777  1.0000
  C   C3999     1.0  0.51998  0.29284  0.89346  1.0000
  C   C4000     1.0  0.52859  0.30494  0.89394  1.0000
  C   C4001     1.0  0.54460  0.29964  0.89829  1.0000
  C   C4002     1.0  0.55194  0.28228  0.90200  1.0000
  C   C4003     1.0  0.54315  0.27023  0.90196  1.0000
  C   C4004     1.0  0.97242  0.46378  0.78571  1.0000
  H   H4805     1.0  0.52294  0.31830  0.89082  1.0000
  H   H4806     1.0  0.56454  0.27810  0.90489  1.0000
  H   H4807     1.0  0.54898  0.25690  0.90484  1.0000
  H   H4808     1.0  0.65858  0.99171  0.96532  1.0000
  H   H4809     1.0  0.65898  0.48822  0.95474  1.0000
  H   H4810     1.0  0.60293  0.48476  0.93686  1.0000
  H   H4811     1.0  0.52270  0.23864  0.95913  1.0000
  C   C4005     1.0  0.63281  0.02869  0.93531  1.0000
  C   C4006     1.0  0.61656  0.03622  0.93190  1.0000
  C   C4007     1.0  0.60697  0.02643  0.92875  1.0000
  H   H4812     1.0  0.61124  0.04946  0.93208  1.0000
  H   H4813     1.0  0.59428  0.03222  0.92640  1.0000
  C   C4008     1.0  0.60579  0.14224  0.94102  1.0000
  C   C4009     1.0  0.61594  0.15016  0.92645  1.0000
  C   C4010     1.0  0.60973  0.16685  0.91834  1.0000
  C   C4011     1.0  0.59321  0.17555  0.92456  1.0000
  C   C4012     1.0  0.58349  0.16801  0.93970  1.0000
  C   C4013     1.0  0.58981  0.15140  0.94796  1.0000
  H   H4814     1.0  0.62855  0.14347  0.92138  1.0000
  H   H4815     1.0  0.61759  0.17283  0.90699  1.0000
  H   H4816     1.0  0.57102  0.17488  0.94497  1.0000
  H   H4817     1.0  0.58208  0.14548  0.95948  1.0000
  C   C4014     1.0  0.59489  0.08698  0.85735  1.0000
  C   C4015     1.0  0.60516  0.09719  0.84530  1.0000
  C   C4016     1.0  0.61711  0.10289  0.85006  1.0000
  C   C4017     1.0  0.61858  0.09873  0.86693  1.0000
  C   C4018     1.0  0.60886  0.08789  0.87891  1.0000
  C   C4019     1.0  0.59721  0.08179  0.87403  1.0000
  H   H4818     1.0  0.60409  0.10049  0.83225  1.0000
  H   H4819     1.0  0.62524  0.11051  0.84062  1.0000
  H   H4820     1.0  0.61022  0.08429  0.89189  1.0000
  H   H4821     1.0  0.58966  0.07348  0.88330  1.0000
  C   C4020     1.0  0.53877  0.16897  0.85266  1.0000
  C   C4021     1.0  0.53722  0.18480  0.85606  1.0000
  C   C4022     1.0  0.52972  0.18785  0.87232  1.0000
  C   C4023     1.0  0.52327  0.17521  0.88515  1.0000
  C   C4024     1.0  0.52420  0.15958  0.88161  1.0000
  C   C4025     1.0  0.53215  0.15638  0.86545  1.0000
  H   H4822     1.0  0.54192  0.19475  0.84609  1.0000
  H   H4823     1.0  0.52872  0.20005  0.87485  1.0000
  H   H4824     1.0  0.51917  0.14976  0.89152  1.0000
  H   H4825     1.0  0.53324  0.14414  0.86300  1.0000
  H   H4826     1.0  0.80680  0.02035  0.91927  1.0000
  C   C4026     1.0  0.99771  0.34080  0.86646  1.0000
  H   H4827     1.0  0.66413  0.11753  0.96262  1.0000
  H   H4828     1.0  0.89274  0.30392  0.98097  1.0000
  H   H4829     1.0  0.56976  0.30794  0.95634  1.0000
  H   H4830     1.0  0.63465  0.42170  0.83493  1.0000
  H   H4831     1.0  0.72008  0.48564  0.93143  1.0000
  S   S1111     1.0  0.98532  0.43570  0.80800  1.0000
  H   H4832     1.0  0.71247  0.45320  0.97400  1.0000
  H   H4833     1.0  0.59916  0.02896  0.89703  1.0000
  C   C4027     1.0  0.59818  0.16333  0.82209  1.0000
  C   C4028     1.0  0.53302  0.31199  0.94876  1.0000
  C   C4029     1.0  0.89709  0.25711  0.86778  1.0000
  C   C4030     1.0  0.91441  0.25122  0.86838  1.0000
  C   C4031     1.0  0.92355  0.26196  0.87077  1.0000
  C   C4032     1.0  0.91538  0.27852  0.87277  1.0000
  C   C4033     1.0  0.89804  0.28431  0.87232  1.0000
  C   C4034     1.0  0.88899  0.27368  0.86973  1.0000
  H   H4834     1.0  0.92078  0.23851  0.86681  1.0000
  H   H4835     1.0  0.93698  0.25745  0.87101  1.0000
  H   H4836     1.0  0.89163  0.29704  0.87381  1.0000
  H   H4837     1.0  0.87560  0.27830  0.86926  1.0000
  C   C4035     1.0  0.95520  0.18632  0.88542  1.0000
  C   C4036     1.0  0.97049  0.18044  0.89119  1.0000
  C   C4037     1.0  0.97823  0.19180  0.89433  1.0000
  C   C4038     1.0  0.97061  0.20905  0.89190  1.0000
  C   C4039     1.0  0.95506  0.21487  0.88663  1.0000
  C   C4040     1.0  0.94734  0.20352  0.88337  1.0000
  H   H4838     1.0  0.97635  0.16708  0.89331  1.0000
  H   H4839     1.0  0.71678  0.42855  0.87072  1.0000
  H   H4840     1.0  0.94931  0.22824  0.88452  1.0000
  H   H4841     1.0  0.93558  0.20813  0.87885  1.0000
  C   C4041     1.0  0.71721  0.11916  0.93585  1.0000
  C   C4042     1.0  0.69968  0.12351  0.93584  1.0000
  C   C4043     1.0  0.69265  0.11421  0.92890  1.0000
  C   C4044     1.0  0.70322  0.10055  0.92203  1.0000
  C   C4045     1.0  0.72053  0.09583  0.92273  1.0000
  C   C4046     1.0  0.72753  0.10512  0.92959  1.0000
  H   H4842     1.0  0.69166  0.13438  0.94073  1.0000
  H   H4843     1.0  0.67927  0.11792  0.92831  1.0000
  H   H4844     1.0  0.72862  0.08506  0.91769  1.0000
  H   H4845     1.0  0.74099  0.10156  0.92976  1.0000
  C   C4047     1.0  0.97166  0.27165  0.88299  1.0000
  S   S1112     1.0  0.74727  0.43800  0.87153  1.0000
  H   H4846     1.0  0.63947  0.48163  0.96620  1.0000
  C   C4048     1.0  0.81472  0.16616  0.90948  1.0000
  C   C4049     1.0  0.82284  0.17864  0.89801  1.0000
  C   C4050     1.0  0.83855  0.18048  0.89960  1.0000
  C   C4051     1.0  0.84591  0.17030  0.91306  1.0000
  C   C4052     1.0  0.83739  0.15836  0.92499  1.0000
  C   C4053     1.0  0.82198  0.15605  0.92304  1.0000
  H   H4847     1.0  0.81704  0.18689  0.88782  1.0000
  H   H4848     1.0  0.84475  0.19005  0.89065  1.0000
  H   H4849     1.0  0.84289  0.15067  0.93561  1.0000
  H   H4850     1.0  0.81566  0.14658  0.93210  1.0000
  C   C4054     1.0  0.88172  0.01990  0.82317  1.0000
  N   N268      1.0  0.66038  0.46154  0.95862  1.0000
  C   C4055     1.0  0.50929  0.07444  0.80728  1.0000
  C   C4056     1.0  0.62913  0.05124  0.85704  1.0000
  S   S1113     1.0  0.59135  0.46950  0.80289  1.0000
  C   C4057     1.0  0.81722  0.10765  0.84605  1.0000
  C   C4058     1.0  0.81946  0.09012  0.85206  1.0000
  C   C4059     1.0  0.81376  0.08339  0.86926  1.0000
  C   C4060     1.0  0.80609  0.09415  0.88059  1.0000
  C   C4061     1.0  0.80376  0.11170  0.87458  1.0000
  C   C4062     1.0  0.80906  0.11845  0.85729  1.0000
  H   H4851     1.0  0.82550  0.08172  0.84339  1.0000
  H   H4852     1.0  0.81553  0.06982  0.87380  1.0000
  H   H4853     1.0  0.79794  0.12011  0.88322  1.0000
  H   H4854     1.0  0.80712  0.13201  0.85271  1.0000
  C   C4063     1.0  0.90061  0.12043  0.83300  1.0000
  C   C4064     1.0  0.89349  0.13269  0.82036  1.0000
  C   C4065     1.0  0.89136  0.14999  0.81982  1.0000
  C   C4066     1.0  0.89628  0.15515  0.83194  1.0000
  C   C4067     1.0  0.90405  0.14289  0.84415  1.0000
  C   C4068     1.0  0.90632  0.12559  0.84459  1.0000
  H   H4855     1.0  0.88956  0.12893  0.81103  1.0000
  H   H4856     1.0  0.50312  0.18140  0.84918  1.0000
  H   H4857     1.0  0.90847  0.14669  0.85314  1.0000
  H   H4858     1.0  0.91240  0.11620  0.85405  1.0000
  N   N269      1.0  0.86344  0.08484  0.88938  1.0000
  C   C4069     1.0  0.87593  0.08023  0.87410  1.0000
  C   C4070     1.0  0.86529  0.06991  0.90358  1.0000
  C   C4071     1.0  0.84605  0.08831  0.88604  1.0000
  C   C4072     1.0  0.86582  0.09976  0.89390  1.0000
  C   C4073     1.0  0.87866  0.10893  0.88428  1.0000
  C   C4074     1.0  0.85508  0.10552  0.90842  1.0000
  C   C4075     1.0  0.88060  0.12289  0.88906  1.0000
  C   C4076     1.0  0.85721  0.11940  0.91312  1.0000
  C   C4077     1.0  0.86994  0.12807  0.90347  1.0000
  H   H4859     1.0  0.88937  0.07712  0.87572  1.0000
  H   H4860     1.0  0.87392  0.06894  0.87101  1.0000
  H   H4861     1.0  0.87474  0.09069  0.86276  1.0000
  H   H4862     1.0  0.87788  0.06747  0.90708  1.0000
  H   H4863     1.0  0.86442  0.05823  0.90031  1.0000
  H   H4864     1.0  0.85513  0.07155  0.91511  1.0000
  H   H4865     1.0  0.84401  0.09958  0.87557  1.0000
  H   H4866     1.0  0.84388  0.07743  0.88235  1.0000
  H   H4867     1.0  0.83575  0.09067  0.89730  1.0000
  H   H4868     1.0  0.88745  0.10556  0.87304  1.0000
  H   H4869     1.0  0.84496  0.09928  0.91633  1.0000
  H   H4870     1.0  0.89052  0.12969  0.88163  1.0000
  H   H4871     1.0  0.84896  0.12343  0.92438  1.0000
  H   H4872     1.0  0.87162  0.13879  0.90721  1.0000
  C   C4078     1.0  0.98321  0.18820  0.84241  1.0000
  H   H4873     1.0  0.86616  0.35051  0.82801  1.0000
  C   C4079     1.0  0.97370  0.35968  0.85538  1.0000
  C   C4080     1.0  0.81077  0.16552  0.82609  1.0000
  H   H4874     1.0  0.87466  0.32139  0.94367  1.0000
  N   N270      1.0  0.98667  0.27576  0.88613  1.0000
  H   H4875     1.0  0.85474  0.47138  0.83216  1.0000
  H   H4876     1.0  0.81505  0.46979  0.79842  1.0000
  C   C4081     1.0  0.98210  0.28966  0.89530  1.0000
  H   H4877     1.0  0.95994  0.36361  0.85699  1.0000
  H   H4878     1.0  0.82609  0.39287  0.96686  1.0000
  H   H4879     1.0  0.92105  0.23378  0.90112  1.0000
  C   C4082     1.0  0.79788  0.41636  0.98056  1.0000
  C   C4083     1.0  0.95550  0.44231  0.79723  1.0000
  H   H4880     1.0  0.65653  0.47725  0.97656  1.0000
  H   H4881     1.0  0.51154  0.33249  0.94408  1.0000
  H   H4882     1.0  0.51350  0.29102  0.93206  1.0000
  H   H4883     1.0  0.54876  0.27039  0.94834  1.0000
  C   C4084     1.0  0.79426  0.12672  0.98437  1.0000
  H   H4884     1.0  0.95484  0.39194  0.84655  1.0000
  C   C4085     1.0  0.58965  0.40917  0.97666  1.0000
  C   C4086     1.0  0.84181  0.42405  0.82304  1.0000
  H   H4885     1.0  0.79346  0.13226  0.97133  1.0000
  H   H4886     1.0  0.68407  0.45310  0.92937  1.0000
  C   C4087     1.0  0.65310  0.46311  0.94384  1.0000
  C   C4088     1.0  0.65398  0.44789  0.97226  1.0000
  H   H4887     1.0  0.65666  0.45104  0.93939  1.0000
  H   H4888     1.0  0.93224  0.44734  0.78832  1.0000
  H   H4889     1.0  0.88128  0.18015  0.94135  1.0000
  H   H4890     1.0  0.64298  0.12295  0.95808  1.0000
  C   C4089     1.0  0.60284  0.48144  0.95020  1.0000
  C   C4090     1.0  0.51230  0.37229  0.83439  1.0000
  H   H4891     1.0  0.90214  0.03324  0.81669  1.0000
  C   C4091     1.0  0.99578  0.26013  0.89606  1.0000
  C   C4092     1.0  0.63012  0.00178  0.93176  1.0000
  C   C4093     1.0  0.99372  0.19691  0.84613  1.0000
  C   C4094     1.0  0.90662  0.99399  0.80973  1.0000
  Fe  Fe561     1.0  0.79876  0.46025  0.87058  1.0000
  N   N271      1.0  0.89950  0.23137  0.92195  1.0000
  C   C4095     1.0  0.91503  0.23828  0.91307  1.0000
  C   C4096     1.0  0.88705  0.23817  0.91071  1.0000
  C   C4097     1.0  0.89216  0.23783  0.93769  1.0000
  C   C4098     1.0  0.90295  0.21260  0.92618  1.0000
  H   H4892     1.0  0.65736  0.47324  0.93308  1.0000
  N   N272      1.0  0.82767  0.99701  0.86153  1.0000
  H   H4893     1.0  0.81664  0.43458  0.83609  1.0000
  H   H4894     1.0  0.98775  0.25630  0.90882  1.0000
  C   C4099     1.0  0.51676  0.43338  0.83596  1.0000
  H   H4895     1.0  0.61174  0.00159  0.87487  1.0000
  N   N273      1.0  0.98978  0.17038  0.84057  1.0000
  C   C4100     1.0  0.89204  0.18638  0.93658  1.0000
  H   H4896     1.0  0.88496  0.25220  0.90636  1.0000
  S   S1114     1.0  0.75646  0.48812  0.91604  1.0000
  H   H4897     1.0  0.89171  0.23281  0.89917  1.0000
  H   H4898     1.0  0.90101  0.23265  0.94660  1.0000
  H   H4899     1.0  0.88975  0.25191  0.93505  1.0000
  H   H4900     1.0  0.87974  0.23421  0.94438  1.0000
  H   H4901     1.0  0.87612  0.21092  0.93620  1.0000
  H   H4902     1.0  0.88297  0.38645  0.83041  1.0000
  C   C4101     1.0  0.50076  0.10070  0.81713  1.0000
  C   C4102     1.0  0.82375  0.47001  0.80582  1.0000
  H   H4903     1.0  0.61763  0.13440  0.97901  1.0000
  H   H4904     1.0  0.98493  0.40117  0.80649  1.0000
  N   N274      1.0  0.56537  0.43823  0.87611  1.0000
  H   H4905     1.0  0.61607  0.41914  0.78827  1.0000
  C   C4103     1.0  0.84609  0.47081  0.82489  1.0000
  S   S1115     1.0  0.85598  0.07901  0.80067  1.0000
  N   N275      1.0  0.61225  0.02800  0.87125  1.0000
  N   N276      1.0  0.57349  0.13960  0.90696  1.0000
  C   C4104     1.0  0.59233  0.13706  0.90423  1.0000
  C   C4105     1.0  0.56715  0.15610  0.89606  1.0000
  C   C4106     1.0  0.56558  0.14095  0.92477  1.0000
  C   C4107     1.0  0.56941  0.12496  0.90353  1.0000
  C   C4108     1.0  0.57340  0.10857  0.91385  1.0000
  C   C4109     1.0  0.56177  0.12636  0.88989  1.0000
  C   C4110     1.0  0.56930  0.09460  0.91113  1.0000
  C   C4111     1.0  0.55781  0.11229  0.88722  1.0000
  C   C4112     1.0  0.56134  0.09651  0.89795  1.0000
  H   H4906     1.0  0.59888  0.13430  0.89154  1.0000
  H   H4907     1.0  0.59606  0.14845  0.90515  1.0000
  H   H4908     1.0  0.59776  0.12634  0.91376  1.0000
  H   H4909     1.0  0.57006  0.16690  0.89929  1.0000
  H   H4910     1.0  0.55299  0.15875  0.89769  1.0000
  H   H4911     1.0  0.57322  0.15655  0.88250  1.0000
  H   H4912     1.0  0.55166  0.14100  0.92777  1.0000
  H   H4913     1.0  0.57170  0.13050  0.93404  1.0000
  H   H4914     1.0  0.56673  0.15284  0.92730  1.0000
  H   H4915     1.0  0.57980  0.10644  0.92407  1.0000
  H   H4916     1.0  0.55871  0.13817  0.88111  1.0000
  H   H4917     1.0  0.55209  0.11354  0.87669  1.0000
  H   H4918     1.0  0.55834  0.08565  0.89569  1.0000
  N   N277      1.0  0.86639  0.41698  0.86747  1.0000
  C   C4113     1.0  0.88070  0.41445  0.85267  1.0000
  C   C4114     1.0  0.85464  0.40605  0.86871  1.0000
  C   C4115     1.0  0.85715  0.43496  0.86397  1.0000
  C   C4116     1.0  0.87204  0.41279  0.88365  1.0000
  C   C4117     1.0  0.88935  0.40561  0.88502  1.0000
  C   C4118     1.0  0.89409  0.40125  0.90063  1.0000
  H   H4919     1.0  0.88757  0.40093  0.85393  1.0000
  H   H4920     1.0  0.87610  0.41811  0.84065  1.0000
  H   H4921     1.0  0.89010  0.42232  0.85103  1.0000
  H   H4922     1.0  0.84275  0.40835  0.87854  1.0000
  H   H4923     1.0  0.83009  0.41398  0.98048  1.0000
  H   H4924     1.0  0.85046  0.40837  0.85669  1.0000
  H   H4925     1.0  0.86519  0.44365  0.86385  1.0000
  H   H4926     1.0  0.85332  0.43871  0.85154  1.0000
  H   H4927     1.0  0.84502  0.43762  0.87344  1.0000
  H   H4928     1.0  0.89947  0.40288  0.87431  1.0000
  H   H4929     1.0  0.90728  0.39543  0.90146  1.0000
  N   N278      1.0  0.86743  0.31899  0.97901  1.0000
  C   C4119     1.0  0.98012  0.34631  0.86766  1.0000
  H   H4930     1.0  0.56961  0.43366  0.80262  1.0000
  C   C4120     1.0  0.99081  0.39023  0.81558  1.0000
  H   H4931     1.0  0.81028  0.48025  0.93293  1.0000
  H   H4932     1.0  0.81002  0.40666  0.85107  1.0000
  C   C4121     1.0  0.81375  0.99851  0.90821  1.0000
  C   C4122     1.0  0.97742  0.16328  0.83621  1.0000
  C   C4123     1.0  0.83995  0.33780  0.97190  1.0000
  H   H4933     1.0  0.89334  0.36837  0.97693  1.0000
  H   H4934     1.0  0.61840  0.02898  0.84445  1.0000
  H   H4935     1.0  0.72825  0.09556  0.96713  1.0000
  C   C4124     1.0  0.65141  0.12641  0.96425  1.0000
  H   H4936     1.0  0.68111  0.07918  0.98306  1.0000
  H   H4937     1.0  0.95361  0.43023  0.80530  1.0000
  C   C4125     1.0  0.88976  0.99203  0.81636  1.0000
  H   H4938     1.0  0.80474  0.46882  0.82928  1.0000
  H   H4939     1.0  0.81568  0.43320  0.93931  1.0000
  C   C4126     1.0  0.91108  0.00880  0.81003  1.0000
  S   S1116     1.0  0.60214  0.99754  0.92329  1.0000
  H   H4940     1.0  0.98281  0.14991  0.83488  1.0000
  H   H4941     1.0  0.59994  0.04481  0.85146  1.0000
  H   H4942     1.0  0.51660  0.26868  0.93908  1.0000
  C   C4127     1.0  0.53058  0.29562  0.97752  1.0000
  C   C4128     1.0  0.85031  0.39298  0.82817  1.0000
  H   H4943     1.0  0.56021  0.40120  0.97790  1.0000
  C   C4129     1.0  0.83423  0.39246  0.83963  1.0000
  C   C4130     1.0  0.52154  0.01143  0.84387  1.0000
  C   C4131     1.0  0.64687  0.05789  0.87183  1.0000
  H   H4944     1.0  0.97553  0.26099  0.87629  1.0000
  C   C4132     1.0  0.99113  0.30758  0.90849  1.0000
  H   H4945     1.0  0.96550  0.16312  0.84632  1.0000
  C   C4133     1.0  0.60191  0.47321  0.98492  1.0000
  H   H4946     1.0  0.51373  0.28169  0.95393  1.0000
  C   C4134     1.0  0.81919  0.99252  0.89325  1.0000
  C   C4135     1.0  0.51342  0.08671  0.81302  1.0000
  H   H4947     1.0  0.58556  0.39685  0.83937  1.0000
  C   C4136     1.0  0.51012  0.02642  0.83885  1.0000
  C   C4137     1.0  0.96648  0.19744  0.84053  1.0000
  C   C4138     1.0  0.89861  0.02183  0.81657  1.0000
  C   C4139     1.0  0.86206  0.32791  0.94907  1.0000
  H   H4948     1.0  0.71497  0.44640  0.92465  1.0000
  H   H4949     1.0  0.86439  0.00336  0.82807  1.0000
  H   H4950     1.0  0.87463  0.34151  0.97905  1.0000
  H   H4951     1.0  0.58676  0.44071  0.85500  1.0000
  S   S1117     1.0  0.51031  0.20756  0.97208  1.0000
  H   H4952     1.0  0.92469  0.23466  0.92105  1.0000
  C   C4140     1.0  0.59652  0.40221  0.83765  1.0000
  H   H4953     1.0  0.92093  0.13551  0.78565  1.0000
  H   H4954     1.0  0.57755  0.26831  0.96570  1.0000
  H   H4955     1.0  0.88565  0.40038  0.92732  1.0000
  C   C4141     1.0  0.56130  0.43839  0.89435  1.0000
  Fe  Fe562     1.0  0.51370  0.37072  0.89555  1.0000
  S   S1118     1.0  0.54129  0.13961  0.80458  1.0000
  H   H4956     1.0  0.88707  0.36396  0.83264  1.0000
  C   C4142     1.0  0.60239  0.41326  0.82231  1.0000
  H   H4957     1.0  0.83271  0.00495  0.83428  1.0000
  H   H4958     1.0  0.96269  0.26748  0.89501  1.0000
  C   C4143     1.0  0.60298  0.42677  0.79206  1.0000
  H   H4959     1.0  0.62810  0.15715  0.83290  1.0000
  H   H4960     1.0  0.82837  0.15029  0.88224  1.0000
  H   H4961     1.0  0.95732  0.19182  0.83826  1.0000
  C   C4144     1.0  0.82910  0.46982  0.83283  1.0000
  H   H4962     1.0  0.81421  0.17366  0.86796  1.0000
  Fe  Fe563     1.0  0.77049  0.46786  0.90132  1.0000
  S   S1119     1.0  0.85880  0.38727  0.97565  1.0000
  H   H4963     1.0  0.88203  0.01938  0.78856  1.0000
  H   H4964     1.0  0.84647  0.13361  0.88001  1.0000
  H   H4965     1.0  0.96130  0.38756  0.81124  1.0000
  H   H4966     1.0  0.74044  0.11359  0.97333  1.0000
  H   H4967     1.0  0.52942  0.25737  0.97348  1.0000
  C   C4145     1.0  0.79954  0.17995  0.84921  1.0000
  N   N279      1.0  0.59344  0.41788  0.80819  1.0000
  C   C4146     1.0  0.57668  0.42918  0.81303  1.0000
  Fe  Fe564     1.0  0.56597  0.12178  0.79679  1.0000
  C   C4147     1.0  0.81374  0.02707  0.89213  1.0000
  S   S1120     1.0  0.51186  0.46245  0.81148  1.0000
  H   H4968     1.0  0.93104  0.20753  0.91798  1.0000
  H   H4969     1.0  0.56724  0.42026  0.86128  1.0000
  H   H4970     1.0  0.97390  0.17062  0.82402  1.0000
  H   H4971     1.0  0.65346  0.13918  0.95693  1.0000
  H   H4972     1.0  0.94792  0.22104  0.84090  1.0000
  H   H4973     1.0  0.95415  0.29546  0.89780  1.0000
  C   C4148     1.0  0.60709  0.03147  0.85486  1.0000
  H   H4974     1.0  0.70909  0.16573  0.97845  1.0000
  C   C4149     1.0  0.81367  0.17104  0.85629  1.0000
  S   S1121     1.0  0.59732  0.48781  0.86887  1.0000
  H   H4975     1.0  0.80821  0.39828  0.95664  1.0000
  C   C4150     1.0  0.97005  0.44818  0.79626  1.0000
  H   H4976     1.0  0.86438  0.12984  0.85352  1.0000
  C   C4151     1.0  0.85167  0.16198  0.85620  1.0000
  C   C4152     1.0  0.85636  0.36184  0.83123  1.0000
  H   H4977     1.0  0.70628  0.08582  0.96088  1.0000
  C   C4153     1.0  0.78572  0.48334  0.92721  1.0000
  S   S1122     1.0  0.82240  0.46959  0.85458  1.0000
  H   H4978     1.0  0.69888  0.47632  0.89994  1.0000
  H   H4979     1.0  0.60280  0.39294  0.80279  1.0000
  C   C4154     1.0  0.55354  0.46951  0.86786  1.0000
  C   C4155     1.0  0.62695  0.13877  0.98327  1.0000
  H   H4980     1.0  0.58997  0.04536  0.88130  1.0000
  H   H4981     1.0  0.58605  0.45109  0.87127  1.0000
  H   H4982     1.0  0.56214  0.47214  0.87394  1.0000
  C   C4156     1.0  0.92239  0.18465  0.92638  1.0000
  H   H4983     1.0  0.88005  0.36670  0.80435  1.0000
  N   N280      1.0  0.75124  0.11407  0.87304  1.0000
  C   C4157     1.0  0.73448  0.11112  0.87275  1.0000
  C   C4158     1.0  0.76294  0.11213  0.85649  1.0000
  C   C4159     1.0  0.75848  0.10078  0.88638  1.0000
  C   C4160     1.0  0.74917  0.13079  0.87690  1.0000
  C   C4161     1.0  0.76101  0.14147  0.86860  1.0000
  C   C4162     1.0  0.73593  0.13617  0.89031  1.0000
  C   C4163     1.0  0.75940  0.15666  0.87331  1.0000
  C   C4164     1.0  0.73447  0.15135  0.89493  1.0000
  C   C4165     1.0  0.74616  0.16160  0.88642  1.0000
  H   H4984     1.0  0.72760  0.12193  0.86434  1.0000
  H   H4985     1.0  0.73594  0.09938  0.86829  1.0000
  H   H4986     1.0  0.72587  0.10919  0.88549  1.0000
  H   H4987     1.0  0.75890  0.12264  0.84605  1.0000
  H   H4988     1.0  0.76332  0.10001  0.85326  1.0000
  H   H4989     1.0  0.77645  0.11164  0.85654  1.0000
  H   H4990     1.0  0.75005  0.10107  0.89905  1.0000
  H   H4991     1.0  0.76063  0.08784  0.88413  1.0000
  H   H4992     1.0  0.77089  0.10270  0.88720  1.0000
  H   H4993     1.0  0.77188  0.13819  0.85871  1.0000
  H   H4994     1.0  0.72690  0.12846  0.89779  1.0000
  H   H4995     1.0  0.76881  0.16440  0.86713  1.0000
  H   H4996     1.0  0.72456  0.15486  0.90558  1.0000
  H   H4997     1.0  0.74528  0.17311  0.89037  1.0000
  S   S1123     1.0  0.87328  0.10987  0.80104  1.0000
  C   C4166     1.0  0.70745  0.44966  0.93653  1.0000
  C   C4167     1.0  0.70497  0.08733  0.97361  1.0000
  S   S1124     1.0  0.52775  0.35635  0.87523  1.0000
  N   N281      1.0  0.64359  0.12639  0.98238  1.0000
  H   H4998     1.0  0.72956  0.44659  0.94651  1.0000
  H   H4999     1.0  0.97138  0.34036  0.87829  1.0000
  C   C4168     1.0  0.99509  0.29479  0.89947  1.0000
  H   H5000     1.0  0.59257  0.42870  0.87468  1.0000
  H   H5001     1.0  0.62464  0.40150  0.86071  1.0000
  C   C4169     1.0  0.81919  0.02123  0.87707  1.0000
  H   H5002     1.0  0.68133  0.45969  0.97969  1.0000
  H   H5003     1.0  0.91351  0.34883  0.95937  1.0000
  C   C4170     1.0  0.61999  0.14756  0.83735  1.0000
  C   C4171     1.0  0.81861  0.40310  0.95854  1.0000
  H   H5004     1.0  0.93523  0.17711  0.92329  1.0000
  C   C4172     1.0  0.50939  0.28085  0.94285  1.0000
  H   H5005     1.0  0.53784  0.43805  0.79481  1.0000
  C   C4173     1.0  0.82867  0.01041  0.84578  1.0000
  H   H5006     1.0  0.97545  0.36691  0.81344  1.0000
  H   H5007     1.0  0.59833  0.02333  0.85532  1.0000
  H   H5008     1.0  0.87961  0.38826  0.80200  1.0000
  H   H5009     1.0  0.54781  0.43732  0.90030  1.0000
  H   H5010     1.0  0.51353  0.36007  0.84385  1.0000
  H   H5011     1.0  0.91063  0.16308  0.93492  1.0000
  C   C4174     1.0  0.51680  0.32204  0.95338  1.0000
  C   C4175     1.0  0.54227  0.45056  0.85876  1.0000
  H   H5012     1.0  0.89197  0.31977  0.96201  1.0000
  H   H5013     1.0  0.55388  0.28791  0.93161  1.0000
  C   C4176     1.0  0.63138  0.03552  0.88538  1.0000
  C   C4177     1.0  0.96111  0.31107  0.90958  1.0000
  H   H5014     1.0  0.57823  0.44058  0.81624  1.0000
  N   N282      1.0  0.81158  0.41887  0.96518  1.0000
  C   C4178     1.0  0.51423  0.30553  0.98192  1.0000
  C   C4179     1.0  0.68818  0.45725  0.96736  1.0000
  H   H5015     1.0  0.62314  0.13904  0.84928  1.0000
  C   C4180     1.0  0.84083  0.47074  0.79793  1.0000
  H   H5016     1.0  0.83058  0.38070  0.84670  1.0000
  C   C4181     1.0  0.88922  0.20404  0.93341  1.0000
  C   C4182     1.0  0.59984  0.46141  0.97709  1.0000
  C   C4183     1.0  0.71569  0.44970  0.94886  1.0000
  C   C4184     1.0  0.59135  0.14260  0.84767  1.0000
  C   C4185     1.0  0.59640  0.16868  0.84984  1.0000
  C   C4186     1.0  0.58117  0.18138  0.84908  1.0000
  C   C4187     1.0  0.60567  0.16825  0.86195  1.0000
  C   C4188     1.0  0.57607  0.19347  0.85907  1.0000
  C   C4189     1.0  0.60047  0.18046  0.87182  1.0000
  C   C4190     1.0  0.58582  0.19312  0.87026  1.0000
  C   C4191     1.0  0.67934  0.45760  0.95497  1.0000
  H   H5017     1.0  0.59424  0.13572  0.86025  1.0000
  H   H5018     1.0  0.85433  0.99297  0.86166  1.0000
  H   H5019     1.0  0.57736  0.14811  0.84958  1.0000
  H   H5020     1.0  0.61697  0.15861  0.86403  1.0000
  H   H5021     1.0  0.56446  0.20314  0.85818  1.0000
  H   H5022     1.0  0.60779  0.18017  0.88080  1.0000
  H   H5023     1.0  0.57251  0.08219  0.91915  1.0000
  C   C4192     1.0  0.82228  0.40734  0.84238  1.0000
  C   C4193     1.0  0.85198  0.47111  0.80755  1.0000
  H   H5024     1.0  0.52192  0.41123  0.85548  1.0000
  C   C4194     1.0  0.87740  0.00489  0.82322  1.0000
  H   H5025     1.0  0.58854  0.41858  0.96456  1.0000
  C   C4195     1.0  0.97151  0.22247  0.84568  1.0000
  C   C4196     1.0  0.52505  0.24603  0.98078  1.0000
  H   H5026     1.0  0.96145  0.40753  0.82860  1.0000
  C   C4197     1.0  0.85126  0.33641  0.93781  1.0000
  C   C4198     1.0  0.86486  0.41095  0.91434  1.0000
  C   C4199     1.0  0.63953  0.01148  0.93526  1.0000
  H   H5027     1.0  0.57291  0.41094  0.88128  1.0000
  H   H5028     1.0  0.55876  0.42357  0.97074  1.0000
  H   H5029     1.0  0.94789  0.31736  0.91368  1.0000
  C   C4200     1.0  0.55379  0.45266  0.86744  1.0000
  H   H5030     1.0  0.86503  0.47206  0.80153  1.0000
  C   C4201     1.0  0.96084  0.21435  0.84205  1.0000
  H   H5031     1.0  0.60409  0.43937  0.79290  1.0000
  H   H5032     1.0  0.91201  0.25240  0.90944  1.0000
  H   H5033     1.0  0.85559  0.33596  0.92453  1.0000
  C   C4202     1.0  0.56440  0.27565  0.96993  1.0000
  H   H5034     1.0  0.55626  0.26610  0.97590  1.0000
  H   H5035     1.0  0.86984  0.04003  0.79024  1.0000
  H   H5036     1.0  0.58433  0.16697  0.82195  1.0000
  C   C4203     1.0  0.57026  0.29966  0.94781  1.0000
  H   H5037     1.0  0.88444  0.30068  0.96490  1.0000
  H   H5038     1.0  0.56502  0.28178  0.97985  1.0000
  H   H5039     1.0  0.85213  0.35861  0.84525  1.0000
  S   S1125     1.0  0.52868  0.39113  0.88608  1.0000
  C   C4204     1.0  0.82938  0.34644  0.96048  1.0000
  C   C4205     1.0  0.65364  0.47784  0.96426  1.0000
  H   H5040     1.0  0.87144  0.37381  0.84847  1.0000
  N   N283      1.0  0.86337  0.37747  0.82530  1.0000
  H   H5041     1.0  0.85617  0.16900  0.84310  1.0000
  C   C4206     1.0  0.88486  0.31046  0.97132  1.0000
  N   N284      1.0  0.55793  0.28837  0.95565  1.0000
  C   C4207     1.0  0.54055  0.29859  0.96076  1.0000
  C   C4208     1.0  0.79807  0.17717  0.83415  1.0000
  H   H5042     1.0  0.56778  0.30805  0.93557  1.0000
  H   H5043     1.0  0.59282  0.39634  0.97384  1.0000
  H   H5044     1.0  0.84539  0.36311  0.82546  1.0000
  H   H5045     1.0  0.63824  0.01606  0.97223  1.0000
  H   H5046     1.0  0.80963  0.16326  0.81441  1.0000
  H   H5047     1.0  0.57294  0.18206  0.84088  1.0000
  H   H5048     1.0  0.86603  0.41081  0.81184  1.0000
  S   S1126     1.0  0.79074  0.09718  0.97888  1.0000
  H   H5049     1.0  0.57127  0.43868  0.98360  1.0000
  H   H5050     1.0  0.62827  0.02595  0.89653  1.0000
  C   C4209     1.0  0.88991  0.36655  0.96614  1.0000
  C   C4210     1.0  0.64036  0.06078  0.85747  1.0000
  C   C4211     1.0  0.58342  0.43976  0.86892  1.0000
  H   H5051     1.0  0.65219  0.00570  0.93765  1.0000
  H   H5052     1.0  0.58719  0.02402  0.88514  1.0000
  C   C4212     1.0  0.80563  0.43252  0.95120  1.0000
  H   H5053     1.0  0.84646  0.42022  0.89889  1.0000
  H   H5054     1.0  0.62833  0.15144  0.97515  1.0000
  H   H5055     1.0  0.78055  0.44119  0.97521  1.0000
  S   S1127     1.0  0.50675  0.21838  0.92528  1.0000
  H   H5056     1.0  0.60378  0.17473  0.81615  1.0000
  H   H5057     1.0  0.51904  0.06358  0.80416  1.0000
  C   C4213     1.0  0.87680  0.37537  0.83460  1.0000
  H   H5058     1.0  0.60001  0.38919  0.86266  1.0000
  C   C4214     1.0  0.51809  0.99592  0.84455  1.0000
  H   H5059     1.0  0.75119  0.09179  0.98019  1.0000
  H   H5060     1.0  0.99193  0.29238  0.86177  1.0000
  H   H5061     1.0  0.98994  0.18715  0.89891  1.0000
  H   H5062     1.0  0.86326  0.15556  0.86154  1.0000
  H   H5063     1.0  0.50780  0.29691  0.88972  1.0000
  C   C4215     1.0  0.61835  0.40484  0.85018  1.0000
  C   C4216     1.0  0.62407  0.41616  0.83554  1.0000
  C   C4217     1.0  0.55916  0.41298  0.98210  1.0000
  H   H5064     1.0  0.81606  0.01926  0.84517  1.0000
  H   H5065     1.0  0.65790  0.14467  0.98150  1.0000
  H   H5066     1.0  0.56839  0.42279  0.82436  1.0000
  H   H5067     1.0  0.84468  0.43633  0.81654  1.0000
  H   H5068     1.0  0.60357  0.15419  0.81358  1.0000
  H   H5069     1.0  0.84413  0.17157  0.86378  1.0000
  H   H5070     1.0  0.82712  0.13275  0.87482  1.0000
  H   H5071     1.0  0.82129  0.03069  0.86553  1.0000
  C   C4218     1.0  0.52132  0.23539  0.97265  1.0000
  C   C4219     1.0  0.74422  0.10379  0.98437  1.0000
  H   H5072     1.0  0.78712  0.18410  0.82867  1.0000
  H   H5073     1.0  0.82675  0.35233  0.93465  1.0000
  H   H5074     1.0  0.62412  0.13929  0.82802  1.0000
  C   C4220     1.0  0.98788  0.21375  0.84779  1.0000
  C   C4221     1.0  0.68956  0.45355  0.93945  1.0000
  C   C4222     1.0  0.90857  0.17672  0.93293  1.0000
  H   H5075     1.0  0.50666  0.44020  0.84439  1.0000
  C   C4223     1.0  0.97416  0.31567  0.91356  1.0000
  H   H5076     1.0  0.59406  0.13303  0.83990  1.0000
  H   H5077     1.0  0.86086  0.39240  0.87199  1.0000
  C   C4224     1.0  0.87137  0.37880  0.80700  1.0000
  N   N285      1.0  0.84164  0.14979  0.85630  1.0000
  C   C4225     1.0  0.85337  0.13660  0.84740  1.0000
  C   C4226     1.0  0.62434  0.03821  0.87104  1.0000
  H   H5078     1.0  0.52628  0.08523  0.81448  1.0000
  H   H5079     1.0  0.87426  0.23526  0.91685  1.0000
  H   H5080     1.0  0.85539  0.41276  0.92579  1.0000
  H   H5081     1.0  0.83681  0.42417  0.95891  1.0000
  C   C4227     1.0  0.96632  0.39597  0.83767  1.0000
  C   C4228     1.0  0.82682  0.15902  0.84849  1.0000
  C   C4229     1.0  0.82503  0.15665  0.83300  1.0000
  H   H5082     1.0  0.58132  0.39634  0.81516  1.0000
  C   C4230     1.0  0.59060  0.40252  0.80476  1.0000
  H   H5083     1.0  0.95680  0.37138  0.82948  1.0000
  H   H5084     1.0  0.56968  0.42770  0.90129  1.0000
  C   C4231     1.0  0.53109  0.46454  0.85126  1.0000
  H   H5085     1.0  0.78975  0.18908  0.85549  1.0000
  H   H5086     1.0  0.81170  0.04047  0.89180  1.0000
  H   H5087     1.0  0.59808  0.44906  0.98448  1.0000
  C   C4232     1.0  0.85664  0.32826  0.96656  1.0000
  C   C4233     1.0  0.82551  0.42346  0.96963  1.0000
  H   H5088     1.0  0.81173  0.98968  0.92031  1.0000
  C   C4234     1.0  0.96738  0.37685  0.82039  1.0000
  N   N286      1.0  0.97759  0.38248  0.82892  1.0000
  C   C4235     1.0  0.91973  0.20231  0.92319  1.0000
  C   C4236     1.0  0.50745  0.31887  0.96995  1.0000
  C   C4237     1.0  0.82601  0.42309  0.83401  1.0000
  H   H5089     1.0  0.56324  0.45005  0.89671  1.0000
  H   H5090     1.0  0.65517  0.06567  0.87223  1.0000
  S   S1128     1.0  0.77075  0.47268  0.87369  1.0000
  H   H5091     1.0  0.78707  0.46997  0.92820  1.0000
  H   H5092     1.0  0.51124  0.15513  0.84519  1.0000
  C   C4238     1.0  0.54225  0.48334  0.86042  1.0000
  C   C4239     1.0  0.50401  0.15772  0.83515  1.0000
  C   C4240     1.0  0.99398  0.15948  0.85665  1.0000
  H   H5093     1.0  0.97335  0.39987  0.84499  1.0000
  H   H5094     1.0  0.98224  0.15917  0.86686  1.0000
  H   H5095     1.0  0.52198  0.37877  0.83521  1.0000
  Fe  Fe565     1.0  0.53123  0.47814  0.79613  1.0000
  H   H5096     1.0  0.74072  0.15995  0.97191  1.0000
  C   C4241     1.0  0.94337  0.45199  0.78764  1.0000
  C   C4242     1.0  0.53097  0.48085  0.85224  1.0000
  C   C4243     1.0  0.58066  0.48742  0.82818  1.0000
  H   H5097     1.0  0.96690  0.23542  0.84732  1.0000
  H   H5098     1.0  0.51596  0.36919  0.82167  1.0000
  H   H5099     1.0  0.65829  0.44636  0.98409  1.0000
  H   H5100     1.0  0.66418  0.00364  0.98320  1.0000
  H   H5101     1.0  0.50797  0.16842  0.82494  1.0000
  C   C4244     1.0  0.60448  0.48913  0.97541  1.0000
  H   H5102     1.0  0.61797  0.01210  0.98452  1.0000
  H   H5103     1.0  0.83497  0.33865  0.98499  1.0000
  C   C4245     1.0  0.78287  0.42911  0.98385  1.0000
  H   H5104     1.0  0.49908  0.34185  0.90326  1.0000
  C   C4246     1.0  0.73370  0.15924  0.98493  1.0000
  H   H5105     1.0  0.49933  0.39749  0.81166  1.0000
  H   H5106     1.0  0.50358  0.40636  0.82654  1.0000
  H   H5107     1.0  0.49870  0.39493  0.85534  1.0000
  C   C4247     1.0  0.79876  0.48913  0.93005  1.0000
  Fe  Fe566     1.0  0.81900  0.90263  0.06712  1.0000
  S   S1129     1.0  0.82068  0.92957  0.05489  1.0000
  S   S1130     1.0  0.82671  0.89082  0.09214  1.0000
  Fe  Fe567     1.0  0.81033  0.89696  0.03620  1.0000
  S   S1131     1.0  0.80650  0.88027  0.02125  1.0000
  Fe  Fe568     1.0  0.83513  0.91907  0.03198  1.0000
  Fe  Fe569     1.0  0.79680  0.93055  0.04654  1.0000
  S   S1132     1.0  0.77343  0.95194  0.04772  1.0000
  S   S1133     1.0  0.83486  0.89205  0.04461  1.0000
  S   S1134     1.0  0.79419  0.90412  0.06041  1.0000
  Fe  Fe570     1.0  0.85656  0.94054  0.13979  1.0000
  S   S1135     1.0  0.88222  0.94306  0.12308  1.0000
  S   S1136     1.0  0.83401  0.94486  0.12801  1.0000
  H   H5108     1.0  0.52286  0.63205  0.07373  1.0000
  S   S1137     1.0  0.89525  0.93965  0.15769  1.0000
  H   H5109     1.0  0.52788  0.64666  0.10992  1.0000
  Fe  Fe571     1.0  0.88250  0.96032  0.13908  1.0000
  C   C4248     1.0  0.86064  0.72687  0.99300  1.0000
  Fe  Fe572     1.0  0.89252  0.92213  0.14321  1.0000
  S   S1138     1.0  0.91504  0.90114  0.13682  1.0000
  H   H5110     1.0  0.51305  0.88972  0.18367  1.0000
  S   S1139     1.0  0.86672  0.91827  0.15895  1.0000
  Fe  Fe573     1.0  0.92370  0.81417  0.06303  1.0000
  S   S1140     1.0  0.94374  0.82135  0.04020  1.0000
  S   S1141     1.0  0.91812  0.78816  0.07259  1.0000
  Fe  Fe574     1.0  0.91701  0.84774  0.07352  1.0000
  S   S1142     1.0  0.93716  0.85751  0.05201  1.0000
  S   S1143     1.0  0.89717  0.86268  0.09119  1.0000
  Fe  Fe575     1.0  0.92613  0.84698  0.03661  1.0000
  C   C4249     1.0  0.90504  0.88016  0.01238  1.0000
  Fe  Fe576     1.0  0.95297  0.83104  0.05760  1.0000
  H   H5111     1.0  0.67745  0.59223  0.98599  1.0000
  S   S1144     1.0  0.90504  0.83867  0.05768  1.0000
  S   S1145     1.0  0.93390  0.82236  0.08079  1.0000
  Fe  Fe577     1.0  0.57249  0.83686  0.07536  1.0000
  S   S1146     1.0  0.54707  0.85462  0.07410  1.0000
  S   S1147     1.0  0.57527  0.80850  0.08334  1.0000
  Fe  Fe578     1.0  0.59164  0.86601  0.06521  1.0000
  S   S1148     1.0  0.56760  0.88569  0.06306  1.0000
  S   S1149     1.0  0.61720  0.87334  0.05968  1.0000
  Fe  Fe579     1.0  0.55600  0.86965  0.08709  1.0000
  S   S1150     1.0  0.53811  0.88250  0.10738  1.0000
  Fe  Fe580     1.0  0.56158  0.86861  0.05029  1.0000
  S   S1151     1.0  0.55348  0.87911  0.02554  1.0000
  S   S1152     1.0  0.58041  0.85082  0.09025  1.0000
  S   S1153     1.0  0.58653  0.84986  0.05056  1.0000
  C   C4250     1.0  0.66534  0.62886  0.98900  1.0000
  S   S1154     1.0  0.54277  0.94131  0.15459  1.0000
  C   C4251     1.0  0.57647  0.62260  0.98794  1.0000
  C   C4252     1.0  0.58474  0.97129  0.13859  1.0000
  H   H5112     1.0  0.57955  0.89639  0.02441  1.0000
  S   S1155     1.0  0.65562  0.93929  0.07400  1.0000
  S   S1156     1.0  0.62313  0.95004  0.04381  1.0000
  Fe  Fe581     1.0  0.67936  0.94828  0.05844  1.0000
  S   S1157     1.0  0.70473  0.93016  0.05312  1.0000
  C   C4253     1.0  0.85840  0.50097  0.14184  1.0000
  Fe  Fe582     1.0  0.53847  0.74152  0.07251  1.0000
  S   S1158     1.0  0.56400  0.72595  0.06280  1.0000
  S   S1159     1.0  0.53105  0.76972  0.06291  1.0000
  Fe  Fe583     1.0  0.52562  0.71088  0.09601  1.0000
  S   S1160     1.0  0.55010  0.69251  0.08866  1.0000
  C   C4254     1.0  0.50500  0.61221  0.10185  1.0000
  Fe  Fe584     1.0  0.56260  0.71253  0.08989  1.0000
  S   S1161     1.0  0.58599  0.70726  0.10028  1.0000
  Fe  Fe585     1.0  0.54934  0.70744  0.06227  1.0000
  C   C4255     1.0  0.90465  0.65933  0.99085  1.0000
  S   S1162     1.0  0.53813  0.72964  0.09984  1.0000
  S   S1163     1.0  0.52375  0.72432  0.06933  1.0000
  Fe  Fe586     1.0  0.65473  0.60743  0.05193  1.0000
  S   S1164     1.0  0.67354  0.62402  0.04521  1.0000
  S   S1165     1.0  0.64552  0.59937  0.03312  1.0000
  Fe  Fe587     1.0  0.65118  0.60320  0.08973  1.0000
  S   S1166     1.0  0.66995  0.61948  0.08611  1.0000
  S   S1167     1.0  0.63959  0.58862  0.11521  1.0000
  Fe  Fe588     1.0  0.65610  0.63635  0.06598  1.0000
  S   S1168     1.0  0.65106  0.66477  0.05956  1.0000
  Fe  Fe589     1.0  0.68577  0.60576  0.06564  1.0000
  S   S1169     1.0  0.71423  0.59481  0.05915  1.0000
  S   S1170     1.0  0.63610  0.62120  0.07116  1.0000
  S   S1171     1.0  0.66815  0.58801  0.07087  1.0000
  C   C4256     1.0  0.58979  0.97810  0.12129  1.0000
  H   H5113     1.0  0.85929  0.92614  0.04922  1.0000
  H   H5114     1.0  0.81980  0.54852  0.09619  1.0000
  C   C4257     1.0  0.95881  0.62380  0.04479  1.0000
  S   S1172     1.0  0.58171  0.63033  0.16361  1.0000
  S   S1173     1.0  0.54738  0.60637  0.16729  1.0000
  H   H5115     1.0  0.90304  0.49512  0.16407  1.0000
  H   H5116     1.0  0.84679  0.88794  0.11609  1.0000
  S   S1174     1.0  0.51963  0.53138  0.15070  1.0000
  C   C4258     1.0  0.79510  0.89322  0.00587  1.0000
  H   H5117     1.0  0.64931  0.68312  0.09784  1.0000
  H   H5118     1.0  0.82611  0.55429  0.11207  1.0000
  C   C4259     1.0  0.56013  0.91942  0.09394  1.0000
  Fe  Fe590     1.0  0.79512  0.61116  0.07255  1.0000
  S   S1175     1.0  0.81021  0.60454  0.04777  1.0000
  S   S1176     1.0  0.76737  0.62460  0.07771  1.0000
  Fe  Fe591     1.0  0.82497  0.59457  0.09036  1.0000
  S   S1177     1.0  0.84221  0.58635  0.06735  1.0000
  S   S1178     1.0  0.83289  0.58866  0.11526  1.0000
  Fe  Fe592     1.0  0.83152  0.61225  0.05345  1.0000
  S   S1179     1.0  0.85135  0.62478  0.03399  1.0000
  Fe  Fe593     1.0  0.81943  0.57941  0.06399  1.0000
  S   S1180     1.0  0.82285  0.55354  0.05951  1.0000
  S   S1181     1.0  0.81576  0.62118  0.07686  1.0000
  S   S1182     1.0  0.80286  0.58535  0.08835  1.0000
  Fe  Fe594     1.0  0.91083  0.69604  0.05550  1.0000
  S   S1183     1.0  0.88583  0.71501  0.05643  1.0000
  S   S1184     1.0  0.92400  0.68444  0.07728  1.0000
  S   S1185     1.0  0.89156  0.71589  0.01602  1.0000
  Fe  Fe595     1.0  0.89917  0.72896  0.03176  1.0000
  S   S1186     1.0  0.89735  0.75704  0.02274  1.0000
  Fe  Fe596     1.0  0.88053  0.70019  0.04057  1.0000
  S   S1187     1.0  0.85425  0.69556  0.04430  1.0000
  S   S1188     1.0  0.92469  0.71127  0.03204  1.0000
  S   S1189     1.0  0.90450  0.67993  0.04170  1.0000
  S   S1190     1.0  0.66712  0.96303  0.03665  1.0000
  S   S1191     1.0  0.93860  0.57126  0.15051  1.0000
  Fe  Fe597     1.0  0.90472  0.61324  0.14621  1.0000
  S   S1192     1.0  0.92211  0.60365  0.12389  1.0000
  S   S1193     1.0  0.88536  0.63690  0.13908  1.0000
  Fe  Fe598     1.0  0.91616  0.57854  0.13805  1.0000
  S   S1194     1.0  0.90993  0.56307  0.12333  1.0000
  Fe  Fe599     1.0  0.94263  0.59760  0.13847  1.0000
  S   S1195     1.0  0.96756  0.60586  0.12580  1.0000
  S   S1196     1.0  0.89733  0.58841  0.15968  1.0000
  S   S1197     1.0  0.92568  0.60926  0.15993  1.0000
  C   C4260     1.0  0.87693  0.90787  0.01380  1.0000
  H   H5119     1.0  0.50538  0.81081  0.08285  1.0000
  S   S1198     1.0  0.85938  0.92523  0.01428  1.0000
  Fe  Fe600     1.0  0.76345  0.51768  0.03566  1.0000
  S   S1199     1.0  0.76872  0.54380  0.02507  1.0000
  C   C4261     1.0  0.60697  0.97394  0.11285  1.0000
  H   H5120     1.0  0.85037  0.90907  0.12993  1.0000
  H   H5121     1.0  0.89959  0.89688  0.17398  1.0000
  C   C4262     1.0  0.89552  0.65117  0.12258  1.0000
  C   C4263     1.0  0.88674  0.66215  0.11036  1.0000
  C   C4264     1.0  0.89530  0.67263  0.09644  1.0000
  C   C4265     1.0  0.91245  0.67261  0.09513  1.0000
  C   C4266     1.0  0.92099  0.66210  0.10770  1.0000
  C   C4267     1.0  0.91266  0.65115  0.12121  1.0000
  H   H5122     1.0  0.87342  0.66231  0.11149  1.0000
  H   H5123     1.0  0.88862  0.68078  0.08680  1.0000
  H   H5124     1.0  0.93421  0.66214  0.10682  1.0000
  H   H5125     1.0  0.91947  0.64280  0.13066  1.0000
  C   C4268     1.0  0.78427  0.54673  0.03383  1.0000
  C   C4269     1.0  0.79430  0.53277  0.04260  1.0000
  C   C4270     1.0  0.80636  0.53505  0.05008  1.0000
  C   C4271     1.0  0.80809  0.55133  0.04929  1.0000
  C   C4272     1.0  0.79793  0.56540  0.04065  1.0000
  C   C4273     1.0  0.78623  0.56308  0.03263  1.0000
  H   H5126     1.0  0.79287  0.52017  0.04364  1.0000
  H   H5127     1.0  0.81415  0.52417  0.05678  1.0000
  H   H5128     1.0  0.79909  0.57804  0.04007  1.0000
  H   H5129     1.0  0.77839  0.57397  0.02594  1.0000
  C   C4274     1.0  0.85195  0.64451  0.03681  1.0000
  C   C4275     1.0  0.83728  0.65473  0.04456  1.0000
  C   C4276     1.0  0.83804  0.67052  0.04660  1.0000
  C   C4277     1.0  0.85355  0.67593  0.04126  1.0000
  C   C4278     1.0  0.86823  0.66564  0.03359  1.0000
  C   C4279     1.0  0.86740  0.64999  0.03130  1.0000
  H   H5130     1.0  0.82527  0.65063  0.04875  1.0000
  H   H5131     1.0  0.82663  0.67846  0.05249  1.0000
  H   H5132     1.0  0.88017  0.66980  0.02929  1.0000
  H   H5133     1.0  0.87879  0.64197  0.02550  1.0000
  C   C4280     1.0  0.85450  0.58184  0.11682  1.0000
  C   C4281     1.0  0.85851  0.58031  0.13234  1.0000
  C   C4282     1.0  0.87549  0.57469  0.13429  1.0000
  C   C4283     1.0  0.88862  0.57027  0.12080  1.0000
  C   C4284     1.0  0.88463  0.57148  0.10530  1.0000
  C   C4285     1.0  0.86763  0.57750  0.10323  1.0000
  H   H5134     1.0  0.84842  0.58356  0.14293  1.0000
  H   H5135     1.0  0.87834  0.57346  0.14638  1.0000
  H   H5136     1.0  0.89475  0.56806  0.09481  1.0000
  H   H5137     1.0  0.86472  0.57873  0.09116  1.0000
  S   S1200     1.0  0.81162  0.92348  0.02202  1.0000
  S   S1201     1.0  0.56349  0.97745  0.14927  1.0000
  H   H5138     1.0  0.51320  0.93679  0.14567  1.0000
  C   C4286     1.0  0.54683  0.93162  0.10053  1.0000
  S   S1202     1.0  0.64117  0.95978  0.11241  1.0000
  H   H5139     1.0  0.50084  0.81028  0.11519  1.0000
  H   H5140     1.0  0.96381  0.74988  0.05092  1.0000
  H   H5141     1.0  0.84974  0.54682  0.07861  1.0000
  H   H5142     1.0  0.83072  0.90058  0.99643  1.0000
  H   H5143     1.0  0.53581  0.75626  0.02806  1.0000
  H   H5144     1.0  0.73812  0.96811  0.05809  1.0000
  H   H5145     1.0  0.71101  0.95971  0.06052  1.0000
  H   H5146     1.0  0.63254  0.59985  0.00481  1.0000
  H   H5147     1.0  0.88899  0.91795  0.98826  1.0000
  C   C4287     1.0  0.52999  0.55585  0.15874  1.0000
  H   H5148     1.0  0.59235  0.59849  0.99680  1.0000
  S   S1203     1.0  0.92246  0.86273  0.01109  1.0000
  H   H5149     1.0  0.94283  0.66292  0.05432  1.0000
  H   H5150     1.0  0.52695  0.56378  0.14703  1.0000
  H   H5151     1.0  0.58845  0.91112  0.98820  1.0000
  C   C4288     1.0  0.72863  0.60461  0.06299  1.0000
  C   C4289     1.0  0.74621  0.59975  0.05627  1.0000
  C   C4290     1.0  0.75821  0.60573  0.06076  1.0000
  C   C4291     1.0  0.75265  0.61701  0.07165  1.0000
  C   C4292     1.0  0.73504  0.62230  0.07792  1.0000
  C   C4293     1.0  0.72306  0.61604  0.07370  1.0000
  H   H5152     1.0  0.75062  0.59130  0.04760  1.0000
  H   H5153     1.0  0.77173  0.60177  0.05568  1.0000
  H   H5154     1.0  0.73069  0.63110  0.08627  1.0000
  H   H5155     1.0  0.70955  0.61988  0.07895  1.0000
  C   C4294     1.0  0.62298  0.60017  0.12833  1.0000
  C   C4295     1.0  0.61870  0.59308  0.14567  1.0000
  C   C4296     1.0  0.60540  0.60194  0.15642  1.0000
  C   C4297     1.0  0.59637  0.61800  0.14989  1.0000
  C   C4298     1.0  0.60036  0.62491  0.13248  1.0000
  C   C4299     1.0  0.61370  0.61606  0.12173  1.0000
  H   H5156     1.0  0.62598  0.58087  0.15086  1.0000
  C   C4300     1.0  0.50907  0.60342  0.13519  1.0000
  H   H5157     1.0  0.59338  0.63727  0.12727  1.0000
  H   H5158     1.0  0.61686  0.62159  0.10837  1.0000
  C   C4301     1.0  0.60456  0.94191  0.09507  1.0000
  C   C4302     1.0  0.54782  0.66783  0.03467  1.0000
  C   C4303     1.0  0.53599  0.65837  0.03545  1.0000
  H   H5159     1.0  0.56110  0.66394  0.02867  1.0000
  H   H5160     1.0  0.54019  0.64719  0.03011  1.0000
  C   C4304     1.0  0.60346  0.69531  0.08844  1.0000
  C   C4305     1.0  0.61715  0.70275  0.07880  1.0000
  C   C4306     1.0  0.63145  0.69330  0.06965  1.0000
  C   C4307     1.0  0.63250  0.67616  0.07070  1.0000
  C   C4308     1.0  0.61891  0.66857  0.08051  1.0000
  C   C4309     1.0  0.60423  0.67825  0.08917  1.0000
  H   H5161     1.0  0.61678  0.71578  0.07854  1.0000
  H   H5162     1.0  0.64201  0.69914  0.06219  1.0000
  H   H5163     1.0  0.61976  0.65528  0.08155  1.0000
  H   H5164     1.0  0.59375  0.67240  0.09681  1.0000
  H   H5165     1.0  0.50826  0.79748  0.04359  1.0000
  C   C4310     1.0  0.51730  0.67540  0.13281  1.0000
  C   C4311     1.0  0.51723  0.65989  0.14478  1.0000
  C   C4312     1.0  0.70861  0.91457  0.00516  1.0000
  H   H5166     1.0  0.52913  0.67971  0.12718  1.0000
  H   H5167     1.0  0.52903  0.65225  0.14826  1.0000
  C   C4313     1.0  0.73846  0.95605  0.05560  1.0000
  C   C4314     1.0  0.65000  0.61013  0.01187  1.0000
  C   C4315     1.0  0.52797  0.53905  0.16344  1.0000
  C   C4316     1.0  0.72309  0.95129  0.05697  1.0000
  H   H5168     1.0  0.51624  0.87947  0.08971  1.0000
  H   H5169     1.0  0.66820  0.62255  0.01472  1.0000
  C   C4317     1.0  0.61412  0.95652  0.13910  1.0000
  H   H5170     1.0  0.62355  0.94842  0.14614  1.0000
  S   S1204     1.0  0.54136  0.82160  0.99807  1.0000
  C   C4318     1.0  0.56194  0.79830  0.07839  1.0000
  C   C4319     1.0  0.56447  0.78062  0.08340  1.0000
  C   C4320     1.0  0.55477  0.77187  0.07897  1.0000
  C   C4321     1.0  0.54245  0.78074  0.06945  1.0000
  C   C4322     1.0  0.53975  0.79845  0.06454  1.0000
  C   C4323     1.0  0.54943  0.80725  0.06905  1.0000
  H   H5171     1.0  0.57416  0.77361  0.09057  1.0000
  H   H5172     1.0  0.55708  0.75820  0.08273  1.0000
  H   H5173     1.0  0.53030  0.80535  0.05709  1.0000
  H   H5174     1.0  0.54743  0.82087  0.06510  1.0000
  C   C4324     1.0  0.55047  0.86300  0.01788  1.0000
  C   C4325     1.0  0.55126  0.86529  0.00061  1.0000
  H   H5175     1.0  0.90974  0.76859  0.98797  1.0000
  C   C4326     1.0  0.54536  0.83742  0.00544  1.0000
  C   C4327     1.0  0.54441  0.83521  0.02272  1.0000
  C   C4328     1.0  0.54723  0.84788  0.02891  1.0000
  H   H5176     1.0  0.82763  0.58012  0.01888  1.0000
  H   H5177     1.0  0.54151  0.82371  0.03133  1.0000
  H   H5178     1.0  0.54656  0.84610  0.04225  1.0000
  C   C4329     1.0  0.54787  0.88670  0.12138  1.0000
  C   C4330     1.0  0.53828  0.89758  0.13218  1.0000
  C   C4331     1.0  0.54571  0.90083  0.14372  1.0000
  C   C4332     1.0  0.56270  0.89304  0.14461  1.0000
  C   C4333     1.0  0.57231  0.88224  0.13377  1.0000
  C   C4334     1.0  0.56494  0.87918  0.12207  1.0000
  H   H5179     1.0  0.52509  0.90347  0.13163  1.0000
  H   H5180     1.0  0.53822  0.90910  0.15214  1.0000
  H   H5181     1.0  0.58546  0.87620  0.13443  1.0000
  H   H5182     1.0  0.57248  0.87087  0.11377  1.0000
  C   C4335     1.0  0.61824  0.89473  0.05667  1.0000
  C   C4336     1.0  0.60412  0.90797  0.05410  1.0000
  C   C4337     1.0  0.60575  0.92488  0.05022  1.0000
  C   C4338     1.0  0.62134  0.92871  0.04948  1.0000
  C   C4339     1.0  0.63529  0.91553  0.05279  1.0000
  C   C4340     1.0  0.63381  0.89859  0.05609  1.0000
  H   H5183     1.0  0.59199  0.90530  0.05478  1.0000
  H   H5184     1.0  0.59484  0.93503  0.04786  1.0000
  H   H5185     1.0  0.64732  0.91834  0.05246  1.0000
  H   H5186     1.0  0.64477  0.88843  0.05820  1.0000
  C   C4341     1.0  0.91290  0.77967  0.05828  1.0000
  C   C4342     1.0  0.91022  0.78950  0.04251  1.0000
  C   C4343     1.0  0.90542  0.78250  0.03159  1.0000
  C   C4344     1.0  0.90361  0.76562  0.03632  1.0000
  C   C4345     1.0  0.90670  0.75573  0.05192  1.0000
  C   C4346     1.0  0.91122  0.76279  0.06293  1.0000
  H   H5187     1.0  0.91147  0.80256  0.03888  1.0000
  H   H5188     1.0  0.90306  0.79016  0.01950  1.0000
  H   H5189     1.0  0.90534  0.74270  0.05565  1.0000
  H   H5190     1.0  0.91327  0.75516  0.07513  1.0000
  C   C4347     1.0  0.56475  0.78258  0.02434  1.0000
  H   H5191     1.0  0.93472  0.92775  0.07571  1.0000
  H   H5192     1.0  0.50478  0.75477  0.08901  1.0000
  H   H5193     1.0  0.97388  0.85740  0.04675  1.0000
  H   H5194     1.0  0.59253  0.86821  0.01450  1.0000
  H   H5195     1.0  0.90847  0.66896  0.01044  1.0000
  C   C4348     1.0  0.72220  0.54924  0.02788  1.0000
  Fe  Fe601     1.0  0.64955  0.96277  0.08418  1.0000
  H   H5196     1.0  0.95377  0.78870  0.06695  1.0000
  H   H5197     1.0  0.58891  0.65932  0.14088  1.0000
  C   C4349     1.0  0.58670  0.79502  0.00391  1.0000
  C   C4350     1.0  0.51174  0.61913  0.12505  1.0000
  C   C4351     1.0  0.67863  0.50075  0.04366  1.0000
  C   C4352     1.0  0.91043  0.88983  0.12446  1.0000
  C   C4353     1.0  0.92365  0.88138  0.11331  1.0000
  C   C4354     1.0  0.91984  0.87293  0.10293  1.0000
  C   C4355     1.0  0.90282  0.87275  0.10395  1.0000
  C   C4356     1.0  0.88970  0.88104  0.11523  1.0000
  C   C4357     1.0  0.89346  0.88972  0.12532  1.0000
  H   H5198     1.0  0.93675  0.88181  0.11235  1.0000
  H   H5199     1.0  0.92997  0.86673  0.09405  1.0000
  H   H5200     1.0  0.87655  0.88079  0.11617  1.0000
  H   H5201     1.0  0.88319  0.89622  0.13384  1.0000
  C   C4358     1.0  0.75426  0.94526  0.05091  1.0000
  C   C4359     1.0  0.75459  0.92964  0.04785  1.0000
  C   C4360     1.0  0.73928  0.92490  0.04920  1.0000
  C   C4361     1.0  0.72349  0.93581  0.05350  1.0000
  H   H5202     1.0  0.74095  0.57272  0.01149  1.0000
  H   H5203     1.0  0.73339  0.57411  0.03311  1.0000
  H   H5204     1.0  0.76665  0.92128  0.04421  1.0000
  H   H5205     1.0  0.73974  0.91278  0.04678  1.0000
  H   H5206     1.0  0.56880  0.94961  0.11654  1.0000
  C   C4362     1.0  0.89238  0.88075  0.02723  1.0000
  C   C4363     1.0  0.87827  0.89447  0.02788  1.0000
  H   H5207     1.0  0.89336  0.87060  0.03821  1.0000
  H   H5208     1.0  0.86874  0.89488  0.03948  1.0000
  C   C4364     1.0  0.82822  0.90558  0.10273  1.0000
  C   C4365     1.0  0.81856  0.92214  0.09999  1.0000
  C   C4366     1.0  0.82025  0.93393  0.10812  1.0000
  C   C4367     1.0  0.83181  0.92934  0.11881  1.0000
  C   C4368     1.0  0.84150  0.91274  0.12161  1.0000
  C   C4369     1.0  0.83950  0.90082  0.11376  1.0000
  H   H5209     1.0  0.80950  0.92582  0.09187  1.0000
  H   H5210     1.0  0.81261  0.94671  0.10602  1.0000
  C   C4370     1.0  0.58232  0.79588  0.03301  1.0000
  H   H5211     1.0  0.88933  0.53049  0.10469  1.0000
  C   C4371     1.0  0.50200  0.68528  0.12826  1.0000
  C   C4372     1.0  0.54893  0.85242  0.99437  1.0000
  C   C4373     1.0  0.52601  0.75271  0.98679  1.0000
  H   H5212     1.0  0.50636  0.87567  0.12220  1.0000
  H   H5213     1.0  0.59964  0.79785  0.00098  1.0000
  H   H5214     1.0  0.58139  0.76195  0.05176  1.0000
  H   H5215     1.0  0.84713  0.93402  0.07565  1.0000
  C   C4374     1.0  0.91700  0.49026  0.15971  1.0000
  H   H5216     1.0  0.57811  0.89375  0.99823  1.0000
  H   H5217     1.0  0.49959  0.77704  0.03308  1.0000
  H   H5218     1.0  0.65853  0.49283  0.03824  1.0000
  C   C4375     1.0  0.72244  0.97059  0.99400  1.0000
  C   C4376     1.0  0.71056  0.57165  0.00619  1.0000
  H   H5219     1.0  0.58569  0.58919  0.14098  1.0000
  C   C4377     1.0  0.59688  0.96024  0.14740  1.0000
  H   H5220     1.0  0.99207  0.86980  0.11871  1.0000
  C   C4378     1.0  0.61923  0.96340  0.12186  1.0000
  H   H5221     1.0  0.70523  0.56908  0.04887  1.0000
  H   H5222     1.0  0.89554  0.65214  0.99929  1.0000
  H   H5223     1.0  0.73439  0.54467  0.01935  1.0000
  H   H5224     1.0  0.85298  0.50992  0.09267  1.0000
  C   C4379     1.0  0.95710  0.61268  0.08049  1.0000
  C   C4380     1.0  0.49869  0.82395  0.11305  1.0000
  C   C4381     1.0  0.50573  0.71942  0.01524  1.0000
  S   S1205     1.0  0.60310  0.50283  0.06679  1.0000
  C   C4382     1.0  0.84039  0.98766  0.11030  1.0000
  C   C4383     1.0  0.50944  0.84915  0.10869  1.0000
  C   C4384     1.0  0.96026  0.62892  0.02725  1.0000
  S   S1206     1.0  0.93253  0.69052  0.99392  1.0000
  H   H5225     1.0  0.83598  0.52443  0.08395  1.0000
  H   H5226     1.0  0.55527  0.79478  0.02239  1.0000
  C   C4385     1.0  0.98502  0.59444  0.13511  1.0000
  S   S1207     1.0  0.70413  0.50970  0.05163  1.0000
  C   C4386     1.0  0.84500  0.60895  0.98548  1.0000
  H   H5227     1.0  0.90938  0.52412  0.15233  1.0000
  C   C4387     1.0  0.83131  0.58682  0.00591  1.0000
  N   N287      1.0  0.85686  0.84397  0.08910  1.0000
  C   C4388     1.0  0.86094  0.86067  0.08004  1.0000
  C   C4389     1.0  0.83936  0.84678  0.09984  1.0000
  C   C4390     1.0  0.86897  0.83559  0.10054  1.0000
  C   C4391     1.0  0.85762  0.83407  0.07672  1.0000
  C   C4392     1.0  0.84684  0.84049  0.06487  1.0000
  C   C4393     1.0  0.86874  0.81793  0.07606  1.0000
  C   C4394     1.0  0.84717  0.83136  0.05313  1.0000
  C   C4395     1.0  0.86886  0.80885  0.06435  1.0000
  C   C4396     1.0  0.85816  0.81555  0.05288  1.0000
  H   H5228     1.0  0.85153  0.86851  0.07234  1.0000
  H   H5229     1.0  0.86095  0.86829  0.08899  1.0000
  H   H5230     1.0  0.87376  0.85925  0.07144  1.0000
  H   H5231     1.0  0.82959  0.85452  0.09244  1.0000
  H   H5232     1.0  0.83841  0.85392  0.10956  1.0000
  H   H5233     1.0  0.83549  0.83456  0.10646  1.0000
  H   H5234     1.0  0.88248  0.83350  0.09333  1.0000
  H   H5235     1.0  0.86828  0.84354  0.10945  1.0000
  H   H5236     1.0  0.86619  0.82324  0.10835  1.0000
  H   H5237     1.0  0.83800  0.85264  0.06465  1.0000
  H   H5238     1.0  0.87757  0.81198  0.08438  1.0000
  H   H5239     1.0  0.87733  0.79650  0.06419  1.0000
  H   H5240     1.0  0.97181  0.63982  0.07410  1.0000
  N   N288      1.0  0.86405  0.63190  0.08991  1.0000
  C   C4397     1.0  0.87975  0.63801  0.07988  1.0000
  C   C4398     1.0  0.86718  0.62269  0.10690  1.0000
  C   C4399     1.0  0.86145  0.61988  0.08127  1.0000
  C   C4400     1.0  0.84856  0.64566  0.09172  1.0000
  C   C4401     1.0  0.83237  0.64175  0.10022  1.0000
  C   C4402     1.0  0.84895  0.66309  0.08522  1.0000
  C   C4403     1.0  0.81747  0.65444  0.10165  1.0000
  C   C4404     1.0  0.83397  0.67568  0.08684  1.0000
  C   C4405     1.0  0.81826  0.67137  0.09493  1.0000
  H   H5241     1.0  0.87823  0.64493  0.06685  1.0000
  H   H5242     1.0  0.88299  0.64651  0.08605  1.0000
  H   H5243     1.0  0.89106  0.62735  0.07855  1.0000
  H   H5244     1.0  0.86892  0.63138  0.11392  1.0000
  H   H5245     1.0  0.87882  0.61227  0.10619  1.0000
  H   H5246     1.0  0.85639  0.61675  0.11487  1.0000
  H   H5247     1.0  0.85799  0.62657  0.06889  1.0000
  H   H5248     1.0  0.87312  0.60980  0.07886  1.0000
  H   H5249     1.0  0.85105  0.61324  0.08882  1.0000
  H   H5250     1.0  0.83108  0.62879  0.10570  1.0000
  H   H5251     1.0  0.86057  0.66743  0.07853  1.0000
  H   H5252     1.0  0.80523  0.65107  0.10790  1.0000
  H   H5253     1.0  0.83457  0.68886  0.08140  1.0000
  H   H5254     1.0  0.80668  0.68117  0.09589  1.0000
  H   H5255     1.0  0.95161  0.58450  0.18155  1.0000
  H   H5256     1.0  0.56411  0.77504  0.01563  1.0000
  C   C4406     1.0  0.56870  0.54717  0.11326  1.0000
  Fe  Fe602     1.0  0.73272  0.50185  0.04813  1.0000
  C   C4407     1.0  0.84750  0.87032  0.99094  1.0000
  C   C4408     1.0  0.51558  0.65210  0.10567  1.0000
  H   H5257     1.0  0.66999  0.50892  0.05172  1.0000
  H   H5258     1.0  0.59491  0.56674  0.16194  1.0000
  N   N289      1.0  0.97110  0.76478  0.06404  1.0000
  C   C4409     1.0  0.96219  0.75629  0.08074  1.0000
  C   C4410     1.0  0.96334  0.76327  0.05076  1.0000
  H   H5259     1.0  0.95903  0.84795  0.01166  1.0000
  H   H5260     1.0  0.93009  0.51677  0.15724  1.0000
  C   C4411     1.0  0.70535  0.96861  0.99682  1.0000
  C   C4412     1.0  0.59086  0.89709  0.99267  1.0000
  C   C4413     1.0  0.79667  0.88833  0.99077  1.0000
  C   C4414     1.0  0.99429  0.83529  0.04939  1.0000
  H   H5261     1.0  0.96812  0.75650  0.09104  1.0000
  H   H5262     1.0  0.94839  0.76262  0.08380  1.0000
  H   H5263     1.0  0.96238  0.74289  0.08129  1.0000
  H   H5264     1.0  0.94956  0.76977  0.05244  1.0000
  H   H5265     1.0  0.96997  0.76905  0.03794  1.0000
  C   C4415     1.0  0.86161  0.98530  0.18219  1.0000
  S   S1208     1.0  0.78206  0.49286  0.04073  1.0000
  C   C4416     1.0  0.61622  0.65152  0.00233  1.0000
  C   C4417     1.0  0.67773  0.92441  0.01562  1.0000
  N   N290      1.0  0.51166  0.64081  0.09707  1.0000
  N   N291      1.0  0.84250  0.53189  0.10369  1.0000
  C   C4418     1.0  0.85417  0.54190  0.09076  1.0000
  S   S1209     1.0  0.88908  0.98587  0.12783  1.0000
  C   C4419     1.0  0.84928  0.52475  0.11931  1.0000
  H   H5266     1.0  0.66195  0.93215  0.99742  1.0000
  C   C4420     1.0  0.85268  0.53562  0.12770  1.0000
  C   C4421     1.0  0.53596  0.56237  0.16918  1.0000
  S   S1210     1.0  0.50125  0.70444  0.11300  1.0000
  H   H5267     1.0  0.60039  0.73453  0.05819  1.0000
  H   H5268     1.0  0.85493  0.55318  0.09469  1.0000
  H   H5269     1.0  0.59242  0.91205  0.01752  1.0000
  C   C4422     1.0  0.83971  0.60012  0.00234  1.0000
  H   H5270     1.0  0.52459  0.83609  0.14191  1.0000
  C   C4423     1.0  0.56686  0.94079  0.11036  1.0000
  C   C4424     1.0  0.97079  0.60745  0.17542  1.0000
  H   H5271     1.0  0.84781  0.97475  0.11227  1.0000
  C   C4425     1.0  0.50269  0.89669  0.17674  1.0000
  C   C4426     1.0  0.60866  0.65133  0.98945  1.0000
  H   H5272     1.0  0.85779  0.74704  0.00548  1.0000
  C   C4427     1.0  0.64112  0.98319  0.98888  1.0000
  H   H5273     1.0  0.61092  0.76932  0.99992  1.0000
  H   H5274     1.0  0.60257  0.59665  0.16987  1.0000
  C   C4428     1.0  0.70124  0.57287  0.03654  1.0000
  C   C4429     1.0  0.86969  0.61635  0.98943  1.0000
  C   C4430     1.0  0.88985  0.90753  0.99912  1.0000
  H   H5275     1.0  0.86656  0.50710  0.16114  1.0000
  C   C4431     1.0  0.58612  0.67485  0.99671  1.0000
  N   N292      1.0  0.94992  0.63085  0.07400  1.0000
  H   H5276     1.0  0.62847  0.49453  0.08862  1.0000
  C   C4432     1.0  0.69989  0.52962  0.99890  1.0000
  C   C4433     1.0  0.52870  0.74053  0.01581  1.0000
  C   C4434     1.0  0.68992  0.58478  0.98782  1.0000
  H   H5277     1.0  0.87717  0.62629  0.98675  1.0000
  H   H5278     1.0  0.58156  0.58663  0.12241  1.0000
  Fe  Fe603     1.0  0.52307  0.62237  0.17897  1.0000
  H   H5279     1.0  0.53590  0.63049  0.00156  1.0000
  H   H5280     1.0  0.97310  0.79054  0.05161  1.0000
  H   H5281     1.0  0.84203  0.60345  0.01294  1.0000
  C   C4435     1.0  0.53492  0.70899  0.00167  1.0000
  H   H5282     1.0  0.53388  0.93264  0.09945  1.0000
  H   H5283     1.0  0.73378  0.93235  0.99744  1.0000
  H   H5284     1.0  0.90108  0.97019  0.15901  1.0000
  S   S1211     1.0  0.74581  0.51309  0.06098  1.0000
  H   H5285     1.0  0.98564  0.73129  0.06356  1.0000
  H   H5286     1.0  0.95058  0.60418  0.07764  1.0000
  H   H5287     1.0  0.72480  0.59066  0.01712  1.0000
  H   H5288     1.0  0.65186  0.52862  0.02526  1.0000
  H   H5289     1.0  0.69032  0.56685  0.03827  1.0000
  H   H5290     1.0  0.63140  0.54163  0.02252  1.0000
  C   C4436     1.0  0.68320  0.53594  0.00705  1.0000
  H   H5291     1.0  0.53982  0.95178  0.11386  1.0000
  C   C4437     1.0  0.74336  0.96465  0.01134  1.0000
  S   S1212     1.0  0.63503  0.97938  0.06458  1.0000
  H   H5292     1.0  0.92595  0.87761  0.17873  1.0000
  H   H5293     1.0  0.89065  0.50410  0.09597  1.0000
  C   C4438     1.0  0.50097  0.87184  0.16720  1.0000
  N   N293      1.0  0.74723  0.55232  0.08693  1.0000
  C   C4439     1.0  0.75152  0.55637  0.06820  1.0000
  C   C4440     1.0  0.73016  0.54785  0.09237  1.0000
  C   C4441     1.0  0.74571  0.56770  0.09315  1.0000
  C   C4442     1.0  0.76102  0.53868  0.09319  1.0000
  C   C4443     1.0  0.75826  0.52260  0.10310  1.0000
  C   C4444     1.0  0.77802  0.54118  0.08896  1.0000
  C   C4445     1.0  0.77172  0.50998  0.10857  1.0000
  C   C4446     1.0  0.79139  0.52840  0.09431  1.0000
  C   C4447     1.0  0.78822  0.51291  0.10427  1.0000
  H   H5294     1.0  0.75463  0.54476  0.06305  1.0000
  H   H5295     1.0  0.74081  0.56533  0.06281  1.0000
  H   H5296     1.0  0.76274  0.56240  0.06307  1.0000
  H   H5297     1.0  0.73016  0.53684  0.08742  1.0000
  H   H5298     1.0  0.72011  0.55852  0.08749  1.0000
  H   H5299     1.0  0.72597  0.54496  0.10639  1.0000
  H   H5300     1.0  0.73469  0.57789  0.08968  1.0000
  H   H5301     1.0  0.74383  0.56483  0.10716  1.0000
  H   H5302     1.0  0.75720  0.57336  0.08776  1.0000
  H   H5303     1.0  0.74592  0.51928  0.10658  1.0000
  H   H5304     1.0  0.78119  0.55294  0.08113  1.0000
  H   H5305     1.0  0.76947  0.49763  0.11574  1.0000
  C   C4448     1.0  0.64669  0.89687  0.00274  1.0000
  H   H5306     1.0  0.97110  0.60929  0.07525  1.0000
  H   H5307     1.0  0.79594  0.49440  0.06718  1.0000
  C   C4449     1.0  0.59361  0.66291  0.98671  1.0000
  H   H5308     1.0  0.97459  0.57216  0.14650  1.0000
  H   H5309     1.0  0.82498  0.49539  0.06872  1.0000
  C   C4450     1.0  0.95561  0.64599  0.01973  1.0000
  H   H5310     1.0  0.85023  0.54917  0.12297  1.0000
  H   H5311     1.0  0.86731  0.53406  0.08794  1.0000
  C   C4451     1.0  0.78496  0.90895  0.00838  1.0000
  H   H5312     1.0  0.92502  0.64767  0.07713  1.0000
  Fe  Fe604     1.0  0.64288  0.95628  0.05340  1.0000
  H   H5313     1.0  0.91030  0.98216  0.17799  1.0000
  H   H5314     1.0  0.59606  0.95387  0.09817  1.0000
  C   C4452     1.0  0.96772  0.78306  0.06412  1.0000
  H   H5315     1.0  0.56024  0.77574  0.03739  1.0000
  N   N294      1.0  0.58230  0.78525  0.02153  1.0000
  H   H5316     1.0  0.80425  0.87606  0.98884  1.0000
  H   H5317     1.0  0.61214  0.86701  0.02022  1.0000
  H   H5318     1.0  0.59311  0.95508  0.16078  1.0000
  C   C4453     1.0  0.59415  0.76863  0.02520  1.0000
  C   C4454     1.0  0.60811  0.76231  0.01280  1.0000
  C   C4455     1.0  0.59176  0.75810  0.04167  1.0000
  C   C4456     1.0  0.72241  0.56621  0.99198  1.0000
  C   C4457     1.0  0.60262  0.74231  0.04551  1.0000
  H   H5319     1.0  0.97987  0.84036  0.01603  1.0000
  H   H5320     1.0  0.83108  0.51137  0.10446  1.0000
  H   H5321     1.0  0.59544  0.79758  0.03184  1.0000
  H   H5322     1.0  0.68025  0.53282  0.02071  1.0000
  Fe  Fe605     1.0  0.52491  0.50294  0.15486  1.0000
  H   H5323     1.0  0.94596  0.67131  0.02379  1.0000
  H   H5324     1.0  0.92481  0.62634  0.07749  1.0000
  H   H5325     1.0  0.71276  0.54191  0.02819  1.0000
  H   H5326     1.0  0.50331  0.61503  0.08900  1.0000
  H   H5327     1.0  0.81639  0.53631  0.11755  1.0000
  C   C4458     1.0  0.84055  0.51881  0.09597  1.0000
  C   C4459     1.0  0.86512  0.69194  0.99290  1.0000
  C   C4460     1.0  0.97272  0.86079  0.11420  1.0000
  H   H5328     1.0  0.92859  0.63149  0.09536  1.0000
  C   C4461     1.0  0.69631  0.49892  0.04127  1.0000
  C   C4462     1.0  0.61057  0.91152  0.10131  1.0000
  C   C4463     1.0  0.59822  0.92625  0.12387  1.0000
  H   H5329     1.0  0.61253  0.91174  0.08764  1.0000
  H   H5330     1.0  0.62347  0.91052  0.10347  1.0000
  H   H5331     1.0  0.60618  0.89975  0.10889  1.0000
  H   H5332     1.0  0.59241  0.91576  0.13266  1.0000
  H   H5333     1.0  0.61139  0.92428  0.12586  1.0000
  N   N295      1.0  0.58854  0.56303  0.14012  1.0000
  C   C4464     1.0  0.60655  0.56071  0.13053  1.0000
  H   H5334     1.0  0.50200  0.66104  0.01103  1.0000
  C   C4465     1.0  0.58868  0.55838  0.15845  1.0000
  C   C4466     1.0  0.57963  0.55275  0.13510  1.0000
  C   C4467     1.0  0.57710  0.55664  0.11832  1.0000
  C   C4468     1.0  0.57384  0.53836  0.14627  1.0000
  C   C4469     1.0  0.53298  0.75528  0.01655  1.0000
  C   C4470     1.0  0.56576  0.52879  0.14094  1.0000
  C   C4471     1.0  0.56288  0.53338  0.12461  1.0000
  H   H5335     1.0  0.62959  0.74190  0.00722  1.0000
  H   H5336     1.0  0.62623  0.94689  0.99629  1.0000
  C   C4472     1.0  0.71507  0.98002  0.02111  1.0000
  H   H5337     1.0  0.95654  0.64996  0.00616  1.0000
  H   H5338     1.0  0.62347  0.96994  0.00948  1.0000
  H   H5339     1.0  0.62779  0.64217  0.00377  1.0000
  H   H5340     1.0  0.59596  0.54522  0.16221  1.0000
  C   C4473     1.0  0.55019  0.94231  0.10869  1.0000
  H   H5341     1.0  0.57544  0.55966  0.16636  1.0000
  H   H5342     1.0  0.95382  0.86110  0.98512  1.0000
  C   C4474     1.0  0.50211  0.59666  0.11217  1.0000
  C   C4475     1.0  0.98056  0.84534  0.09199  1.0000
  C   C4476     1.0  0.51803  0.84585  0.14903  1.0000
  S   S1213     1.0  0.63009  0.49913  0.02165  1.0000
  N   N296      1.0  0.87395  0.92291  0.06792  1.0000
  C   C4477     1.0  0.87176  0.90524  0.07514  1.0000
  C   C4478     1.0  0.85991  0.93442  0.07715  1.0000
  C   C4479     1.0  0.87201  0.92733  0.05013  1.0000
  C   C4480     1.0  0.89070  0.92435  0.06971  1.0000
  C   C4481     1.0  0.89413  0.92143  0.08600  1.0000
  C   C4482     1.0  0.90406  0.92841  0.05560  1.0000
  C   C4483     1.0  0.90980  0.92278  0.08805  1.0000
  C   C4484     1.0  0.91974  0.92959  0.05781  1.0000
  C   C4485     1.0  0.92258  0.92682  0.07400  1.0000
  H   H5343     1.0  0.85946  0.90348  0.07371  1.0000
  H   H5344     1.0  0.88238  0.89610  0.06890  1.0000
  H   H5345     1.0  0.87161  0.90140  0.08888  1.0000
  H   H5346     1.0  0.86145  0.94777  0.07257  1.0000
  C   C4486     1.0  0.90373  0.89359  0.99833  1.0000
  H   H5347     1.0  0.95539  0.60960  0.09453  1.0000
  H   H5348     1.0  0.88168  0.91873  0.04250  1.0000
  H   H5349     1.0  0.58165  0.56703  0.10897  1.0000
  C   C4487     1.0  0.64180  0.56386  0.99535  1.0000
  H   H5350     1.0  0.88474  0.91798  0.09733  1.0000
  H   H5351     1.0  0.90277  0.93069  0.04270  1.0000
  H   H5352     1.0  0.91206  0.92061  0.10064  1.0000
  H   H5353     1.0  0.57751  0.80746  0.00174  1.0000
  C   C4488     1.0  0.85227  0.50714  0.12690  1.0000
  N   N297      1.0  0.61595  0.66343  0.02725  1.0000
  C   C4489     1.0  0.60336  0.65975  0.04335  1.0000
  C   C4490     1.0  0.63215  0.65067  0.02869  1.0000
  C   C4491     1.0  0.61954  0.68031  0.02534  1.0000
  C   C4492     1.0  0.60880  0.66338  0.01295  1.0000
  C   C4493     1.0  0.52660  0.62402  0.01079  1.0000
  C   C4494     1.0  0.59362  0.67516  0.00959  1.0000
  H   H5354     1.0  0.56666  0.55049  0.10047  1.0000
  H   H5355     1.0  0.64774  0.49847  0.07369  1.0000
  C   C4495     1.0  0.67058  0.54586  0.99778  1.0000
  H   H5356     1.0  0.59125  0.66958  0.04392  1.0000
  H   H5357     1.0  0.59999  0.64735  0.04509  1.0000
  H   H5358     1.0  0.60846  0.65925  0.05446  1.0000
  H   H5359     1.0  0.63026  0.63751  0.03119  1.0000
  H   H5360     1.0  0.63735  0.65122  0.03935  1.0000
  H   H5361     1.0  0.64234  0.65281  0.01709  1.0000
  H   H5362     1.0  0.60770  0.69043  0.02622  1.0000
  H   H5363     1.0  0.62578  0.68042  0.03548  1.0000
  H   H5364     1.0  0.62827  0.68395  0.01298  1.0000
  H   H5365     1.0  0.74807  0.96907  0.02023  1.0000
  H   H5366     1.0  0.58723  0.68452  0.01714  1.0000
  H   H5367     1.0  0.51533  0.62720  0.13092  1.0000
  C   C4496     1.0  0.93129  0.63420  0.08131  1.0000
  H   H5368     1.0  0.62743  0.88664  0.02214  1.0000
  N   N298      1.0  0.72618  0.90854  0.00837  1.0000
  C   C4497     1.0  0.72656  0.89557  0.02444  1.0000
  H   H5369     1.0  0.97360  0.61912  0.17689  1.0000
  C   C4498     1.0  0.73201  0.92314  0.00975  1.0000
  C   C4499     1.0  0.89655  0.51849  0.11046  1.0000
  C   C4500     1.0  0.59620  0.49077  0.08700  1.0000
  C   C4501     1.0  0.69431  0.91816  0.01846  1.0000
  C   C4502     1.0  0.50898  0.62901  0.01021  1.0000
  C   C4503     1.0  0.98510  0.57807  0.14493  1.0000
  C   C4504     1.0  0.95803  0.64092  0.08034  1.0000
  H   H5370     1.0  0.72020  0.88533  0.02492  1.0000
  H   H5371     1.0  0.73988  0.88956  0.02612  1.0000
  H   H5372     1.0  0.72029  0.90103  0.03583  1.0000
  H   H5373     1.0  0.52026  0.85445  0.10771  1.0000
  H   H5374     1.0  0.56120  0.51801  0.14969  1.0000
  H   H5375     1.0  0.57390  0.80869  0.03036  1.0000
  H   H5376     1.0  0.72266  0.93002  0.01917  1.0000
  N   N299      1.0  0.65290  0.55215  0.00675  1.0000
  H   H5377     1.0  0.66706  0.92701  0.02603  1.0000
  H   H5378     1.0  0.80300  0.52468  0.00356  1.0000
  H   H5379     1.0  0.69574  0.91635  0.03122  1.0000
  H   H5380     1.0  0.85898  0.71805  0.00510  1.0000
  H   H5381     1.0  0.58817  0.69871  0.15284  1.0000
  H   H5382     1.0  0.63460  0.98497  0.02225  1.0000
  C   C4505     1.0  0.67485  0.92744  0.99946  1.0000
  H   H5383     1.0  0.96906  0.83027  0.99053  1.0000
  H   H5384     1.0  0.61410  0.56741  0.13451  1.0000
  H   H5385     1.0  0.57512  0.53434  0.15928  1.0000
  H   H5386     1.0  0.87443  0.87843  0.99749  1.0000
  C   C4506     1.0  0.63062  0.89268  0.00891  1.0000
  H   H5387     1.0  0.61077  0.97935  0.09955  1.0000
  H   H5388     1.0  0.52094  0.65837  0.99500  1.0000
  C   C4507     1.0  0.91188  0.66893  0.99713  1.0000
  C   C4508     1.0  0.94960  0.65803  0.02968  1.0000
  H   H5389     1.0  0.82117  0.57177  0.99569  1.0000
  H   H5390     1.0  0.59106  0.93816  0.12804  1.0000
  N   N300      1.0  0.51991  0.72331  0.00063  1.0000
  S   S1214     1.0  0.67445  0.97040  0.07032  1.0000
  C   C4509     1.0  0.61896  0.74647  0.01682  1.0000
  H   H5391     1.0  0.57223  0.49603  0.12588  1.0000
  C   C4510     1.0  0.50370  0.60707  0.03601  1.0000
  H   H5392     1.0  0.56618  0.58322  0.14206  1.0000
  H   H5393     1.0  0.92976  0.93266  0.04690  1.0000
  H   H5394     1.0  0.86155  0.53796  0.14853  1.0000
  Fe  Fe606     1.0  0.92014  0.58329  0.17119  1.0000
  H   H5395     1.0  0.74011  0.95218  0.01804  1.0000
  C   C4511     1.0  0.92286  0.51799  0.14746  1.0000
  H   H5396     1.0  0.95719  0.63665  0.09426  1.0000
  H   H5397     1.0  0.58635  0.90764  0.09061  1.0000
  H   H5398     1.0  0.99786  0.57920  0.18434  1.0000
  N   N301      1.0  0.59822  0.92685  0.10607  1.0000
  Fe  Fe607     1.0  0.91602  0.69702  0.01823  1.0000
  H   H5399     1.0  0.55378  0.87698  0.99205  1.0000
  C   C4512     1.0  0.59295  0.89822  0.02011  1.0000
  C   C4513     1.0  0.99741  0.84731  0.08862  1.0000
  C   C4514     1.0  0.77699  0.92007  0.99569  1.0000
  H   H5400     1.0  0.97306  0.78519  0.07396  1.0000
  H   H5401     1.0  0.68707  0.96137  0.98775  1.0000
  H   H5402     1.0  0.83877  0.83654  0.04425  1.0000
  C   C4515     1.0  0.57679  0.91758  0.09577  1.0000
  H   H5403     1.0  0.78328  0.91257  0.02015  1.0000
  H   H5404     1.0  0.61758  0.94176  0.09638  1.0000
  H   H5405     1.0  0.60522  0.94256  0.08151  1.0000
  H   H5406     1.0  0.50110  0.67017  0.98932  1.0000
  C   C4516     1.0  0.64483  0.53753  0.01570  1.0000
  C   C4517     1.0  0.50952  0.62411  0.10807  1.0000
  C   C4518     1.0  0.58065  0.92815  0.10423  1.0000
  C   C4519     1.0  0.65174  0.90421  0.98570  1.0000
  H   H5407     1.0  0.85930  0.93104  0.09097  1.0000
  C   C4520     1.0  0.61623  0.73651  0.03313  1.0000
  H   H5408     1.0  0.80640  0.50264  0.00506  1.0000
  C   C4521     1.0  0.51901  0.86857  0.16104  1.0000
  H   H5409     1.0  0.76947  0.93235  0.99767  1.0000
  H   H5410     1.0  0.50857  0.90276  0.16370  1.0000
  N   N302      1.0  0.71558  0.56773  0.02265  1.0000
  H   H5411     1.0  0.66026  0.57180  0.01321  1.0000
  H   H5412     1.0  0.97306  0.57378  0.18239  1.0000
  C   C4522     1.0  0.73875  0.90085  0.99472  1.0000
  C   C4523     1.0  0.58783  0.67295  0.13992  1.0000
  H   H5413     1.0  0.99089  0.82481  0.99304  1.0000
  H   H5414     1.0  0.86706  0.67865  0.99160  1.0000
  H   H5415     1.0  0.73445  0.89044  0.99234  1.0000
  H   H5416     1.0  0.69575  0.97147  0.00779  1.0000
  H   H5417     1.0  0.51060  0.60001  0.14818  1.0000
  C   C4524     1.0  0.85903  0.52930  0.14247  1.0000
  C   C4525     1.0  0.52535  0.68696  0.04965  1.0000
  Fe  Fe608     1.0  0.55616  0.91846  0.17068  1.0000
  Fe  Fe609     1.0  0.55962  0.61883  0.17985  1.0000
  H   H5418     1.0  0.52115  0.69791  0.05525  1.0000
  H   H5419     1.0  0.71048  0.96828  0.02834  1.0000
  H   H5420     1.0  0.53732  0.57538  0.16557  1.0000
  C   C4526     1.0  0.53226  0.52871  0.17844  1.0000
  H   H5421     1.0  0.87307  0.94063  0.04397  1.0000
  S   S1215     1.0  0.57196  0.89640  0.15944  1.0000
  Fe  Fe610     1.0  0.55277  0.95566  0.16723  1.0000
  C   C4527     1.0  0.54254  0.68199  0.04200  1.0000
  H   H5422     1.0  0.81906  0.98059  0.10637  1.0000
  H   H5423     1.0  0.65919  0.55317  0.02984  1.0000
  H   H5424     1.0  0.80432  0.53040  0.09027  1.0000
  S   S1216     1.0  0.85594  0.95968  0.15418  1.0000
  H   H5425     1.0  0.58158  0.51266  0.09697  1.0000
  H   H5426     1.0  0.55603  0.52625  0.12080  1.0000
  N   N303      1.0  0.60219  0.89111  0.00497  1.0000
  C   C4528     1.0  0.51342  0.67790  0.04984  1.0000
  C   C4529     1.0  0.58039  0.48964  0.11608  1.0000
  H   H5427     1.0  0.91353  0.89329  0.98685  1.0000
  Fe  Fe611     1.0  0.66056  0.98474  0.04956  1.0000
  H   H5428     1.0  0.95176  0.65458  0.07828  1.0000
  H   H5429     1.0  0.53705  0.78015  0.00302  1.0000
  S   S1217     1.0  0.98092  0.82079  0.05749  1.0000
  H   H5430     1.0  0.50021  0.68188  0.05576  1.0000
  S   S1218     1.0  0.55732  0.69383  0.04093  1.0000
  H   H5431     1.0  0.57565  0.67737  0.14863  1.0000
  H   H5432     1.0  0.95521  0.85041  0.10737  1.0000
  C   C4530     1.0  0.64246  0.67451  0.10771  1.0000
  H   H5433     1.0  0.96491  0.61959  0.01942  1.0000
  C   C4531     1.0  0.70525  0.91823  0.98869  1.0000
  C   C4532     1.0  0.90511  0.51796  0.12283  1.0000
  H   H5434     1.0  0.86376  0.98608  0.16837  1.0000
  H   H5435     1.0  0.60760  0.56577  0.11671  1.0000
  H   H5436     1.0  0.57429  0.68370  0.99468  1.0000
  H   H5437     1.0  0.59285  0.67229  0.17094  1.0000
  H   H5438     1.0  0.90394  0.52991  0.12598  1.0000
  H   H5439     1.0  0.64722  0.57513  0.98813  1.0000
  H   H5440     1.0  0.96252  0.61038  0.04978  1.0000
  C   C4533     1.0  0.53050  0.76730  0.98761  1.0000
  C   C4534     1.0  0.66168  0.62077  0.00613  1.0000
  C   C4535     1.0  0.52729  0.85590  0.15193  1.0000
  S   S1219     1.0  0.50337  0.48929  0.16480  1.0000
  H   H5441     1.0  0.59900  0.89196  0.03111  1.0000
  H   H5442     1.0  0.50963  0.71589  0.02756  1.0000
  H   H5443     1.0  0.86656  0.61229  0.00341  1.0000
  H   H5444     1.0  0.78500  0.51532  0.00722  1.0000
  S   S1220     1.0  0.74921  0.50823  0.02239  1.0000
  H   H5445     1.0  0.65886  0.65242  0.09932  1.0000
  H   H5446     1.0  0.58656  0.67942  0.12679  1.0000
  C   C4536     1.0  0.51876  0.66341  0.04304  1.0000
  H   H5447     1.0  0.62407  0.69448  0.11719  1.0000
  H   H5448     1.0  0.50469  0.82702  0.02936  1.0000
  C   C4537     1.0  0.69415  0.58122  0.00359  1.0000
  C   C4538     1.0  0.91485  0.50248  0.13059  1.0000
  H   H5449     1.0  0.61077  0.69780  0.14568  1.0000
  C   C4539     1.0  0.72926  0.57668  0.02097  1.0000
  H   H5450     1.0  0.84985  0.49785  0.12164  1.0000
  C   C4540     1.0  0.60387  0.66697  0.16154  1.0000
  H   H5451     1.0  0.57755  0.79028  0.04648  1.0000
  C   C4541     1.0  0.62790  0.68087  0.11905  1.0000
  C   C4542     1.0  0.64786  0.65716  0.10850  1.0000
  H   H5452     1.0  0.58609  0.78821  0.99452  1.0000
  H   H5453     1.0  0.61784  0.64307  0.14156  1.0000
  H   H5454     1.0  0.50517  0.65462  0.11675  1.0000
  S   S1221     1.0  0.50431  0.65086  0.04506  1.0000
  H   H5455     1.0  0.61306  0.54708  0.13245  1.0000
  H   H5456     1.0  0.61588  0.66761  0.16454  1.0000
  H   H5457     1.0  0.72515  0.54576  0.04068  1.0000
  H   H5458     1.0  0.97083  0.86292  0.01131  1.0000
  H   H5459     1.0  0.64297  0.63251  0.12127  1.0000
  Fe  Fe612     1.0  0.86858  0.93774  0.17183  1.0000
  H   H5460     1.0  0.60343  0.65339  0.16394  1.0000
  H   H5461     1.0  0.59709  0.70227  0.13084  1.0000
  H   H5462     1.0  0.64013  0.49023  0.11315  1.0000
  H   H5463     1.0  0.85840  0.80841  0.04383  1.0000
  C   C4543     1.0  0.61851  0.66984  0.13189  1.0000
  C   C4544     1.0  0.63888  0.64602  0.12081  1.0000
  C   C4545     1.0  0.50269  0.88469  0.08890  1.0000
  N   N304      1.0  0.60281  0.67608  0.14391  1.0000
  Fe  Fe613     1.0  0.52085  0.94113  0.17700  1.0000
  C   C4546     1.0  0.98957  0.75666  0.06082  1.0000
  C   C4547     1.0  0.96825  0.85202  0.10478  1.0000
  C   C4548     1.0  0.82548  0.54321  0.10758  1.0000
  C   C4549     1.0  0.62447  0.65222  0.13238  1.0000
  H   H5464     1.0  0.57026  0.62460  0.00053  1.0000
  N   N305      1.0  0.72835  0.97699  0.00570  1.0000
  C   C4550     1.0  0.59968  0.69451  0.14328  1.0000
  H   H5465     1.0  0.66663  0.50308  0.99195  1.0000
  H   H5466     1.0  0.51043  0.84961  0.00752  1.0000
  C   C4551     1.0  0.82769  0.58208  0.99286  1.0000
  C   C4552     1.0  0.61899  0.89599  0.99820  1.0000
  H   H5467     1.0  0.65528  0.89421  0.01124  1.0000
  H   H5468     1.0  0.55739  0.91099  0.08777  1.0000
  H   H5469     1.0  0.51673  0.66473  0.09725  1.0000
  C   C4553     1.0  0.95260  0.63580  0.05533  1.0000
  H   H5470     1.0  0.97701  0.83857  0.08464  1.0000
  C   C4554     1.0  0.98755  0.85268  0.04514  1.0000
  H   H5471     1.0  0.70926  0.52204  0.00631  1.0000
  C   C4555     1.0  0.58011  0.58125  0.13619  1.0000
  C   C4556     1.0  0.94801  0.65307  0.04719  1.0000
  H   H5472     1.0  0.83872  0.63273  0.00377  1.0000
  H   H5473     1.0  0.50104  0.89872  0.08628  1.0000
  C   C4557     1.0  0.53378  0.76868  0.00248  1.0000
  C   C4558     1.0  0.98145  0.83447  0.98633  1.0000
  C   C4559     1.0  0.64186  0.60776  0.00042  1.0000
  H   H5474     1.0  0.54567  0.71125  0.99064  1.0000
  C   C4560     1.0  0.52470  0.73894  0.00101  1.0000
  H   H5475     1.0  0.79864  0.50294  0.10825  1.0000
  H   H5476     1.0  0.54604  0.60744  0.02369  1.0000
  H   H5477     1.0  0.94820  0.50136  0.12586  1.0000
  C   C4561     1.0  0.54022  0.55197  0.18418  1.0000
  H   H5478     1.0  0.84904  0.91044  0.99023  1.0000
  H   H5479     1.0  0.96122  0.61141  0.16726  1.0000
  N   N306      1.0  0.92410  0.50133  0.14375  1.0000
  C   C4562     1.0  0.94255  0.49387  0.13826  1.0000
  C   C4563     1.0  0.97210  0.85065  0.00794  1.0000
  H   H5480     1.0  0.98265  0.60072  0.16806  1.0000
  H   H5481     1.0  0.54103  0.85400  0.14694  1.0000
  H   H5482     1.0  0.50083  0.70854  0.01469  1.0000
  C   C4564     1.0  0.53253  0.61089  0.02351  1.0000
  H   H5483     1.0  0.50087  0.88132  0.07771  1.0000
  H   H5484     1.0  0.53984  0.70714  0.01319  1.0000
  C   C4565     1.0  0.58898  0.60782  0.98584  1.0000
  C   C4566     1.0  0.67216  0.49177  0.03592  1.0000
  C   C4567     1.0  0.79842  0.51509  0.00013  1.0000
  H   H5485     1.0  0.96303  0.86608  0.12407  1.0000
  H   H5486     1.0  0.65859  0.49656  0.09888  1.0000
  C   C4568     1.0  0.63199  0.97008  0.99722  1.0000
  H   H5487     1.0  0.84723  0.89315  0.00798  1.0000
  C   C4569     1.0  0.49994  0.93726  0.14631  1.0000
  H   H5488     1.0  0.64006  0.56745  0.02540  1.0000
  H   H5489     1.0  0.83380  0.87264  0.99044  1.0000
  C   C4570     1.0  0.52588  0.63837  0.08225  1.0000
  H   H5490     1.0  0.74441  0.91903  0.01385  1.0000
  H   H5491     1.0  0.62465  0.72426  0.03624  1.0000
  C   C4571     1.0  0.65319  0.56144  0.01931  1.0000
  C   C4572     1.0  0.85977  0.74362  0.99343  1.0000
  C   C4573     1.0  0.89730  0.50371  0.10553  1.0000
  C   C4574     1.0  0.84288  0.63681  0.98983  1.0000
  H   H5492     1.0  0.58042  0.98672  0.11446  1.0000
  C   C4575     1.0  0.52110  0.60242  0.03609  1.0000
  N   N307      1.0  0.50308  0.64313  0.99668  1.0000
  H   H5493     1.0  0.73527  0.55928  0.99289  1.0000
  H   H5494     1.0  0.92827  0.52688  0.13598  1.0000
  H   H5495     1.0  0.52874  0.73029  0.02688  1.0000
  N   N308      1.0  0.97950  0.85142  0.98960  1.0000
  H   H5496     1.0  0.53782  0.63056  0.08627  1.0000
  H   H5497     1.0  0.87564  0.69209  0.99867  1.0000
  C   C4576     1.0  0.50696  0.65886  0.99800  1.0000
  C   C4577     1.0  0.98955  0.86283  0.11096  1.0000
  C   C4578     1.0  0.58572  0.49901  0.09976  1.0000
  C   C4579     1.0  0.60494  0.87240  0.00988  1.0000
  C   C4580     1.0  0.50041  0.81886  0.02421  1.0000
  H   H5498     1.0  0.95004  0.49332  0.14761  1.0000
  H   H5499     1.0  0.52876  0.65067  0.07436  1.0000
  H   H5500     1.0  0.85273  0.69453  0.00209  1.0000
  C   C4581     1.0  0.84484  0.89816  0.99497  1.0000
  S   S1222     1.0  0.50130  0.63424  0.16558  1.0000
  H   H5501     1.0  0.62876  0.56883  0.00245  1.0000
  C   C4582     1.0  0.99488  0.73904  0.06106  1.0000
  C   C4583     1.0  0.63343  0.95667  0.98973  1.0000
  H   H5502     1.0  0.64449  0.53020  0.00665  1.0000
  H   H5503     1.0  0.75452  0.96245  0.00078  1.0000
  S   S1223     1.0  0.53634  0.48987  0.13316  1.0000
  C   C4584     1.0  0.50263  0.80179  0.03254  1.0000
  H   H5504     1.0  0.68442  0.58634  0.01344  1.0000
  H   H5505     1.0  0.52490  0.82377  0.11193  1.0000
  C   C4585     1.0  0.51218  0.83154  0.11132  1.0000
  H   H5506     1.0  0.84829  0.86528  0.00446  1.0000
  H   H5507     1.0  0.84946  0.64736  0.98767  1.0000
  C   C4586     1.0  0.86187  0.51199  0.14955  1.0000
  C   C4587     1.0  0.50191  0.65420  0.15191  1.0000
  H   H5508     1.0  0.52708  0.87569  0.16295  1.0000
  H   H5509     1.0  0.52571  0.59234  0.04603  1.0000
  C   C4588     1.0  0.68855  0.92450  0.98599  1.0000
  H   H5510     1.0  0.72008  0.98416  0.02997  1.0000
  H   H5511     1.0  0.53177  0.69681  0.00203  1.0000
  H   H5512     1.0  0.99335  0.87753  0.03583  1.0000
  H   H5513     1.0  0.50499  0.93078  0.12206  1.0000
  H   H5514     1.0  0.92233  0.90955  0.17095  1.0000
  H   H5515     1.0  0.61229  0.86653  0.99896  1.0000
  H   H5516     1.0  0.69661  0.58689  0.03431  1.0000
  H   H5517     1.0  0.79247  0.54948  0.98937  1.0000
  C   C4589     1.0  0.90158  0.98338  0.15570  1.0000
  H   H5518     1.0  0.53060  0.51583  0.18225  1.0000
  C   C4590     1.0  0.50408  0.59230  0.12881  1.0000
  H   H5519     1.0  0.75159  0.89546  0.99793  1.0000
  S   S1224     1.0  0.56784  0.93268  0.18194  1.0000
  H   H5520     1.0  0.50163  0.58029  0.13676  1.0000
  H   H5521     1.0  0.91520  0.73939  0.99408  1.0000
  H   H5522     1.0  0.50350  0.78133  0.09144  1.0000
  H   H5523     1.0  0.66364  0.98863  0.00317  1.0000
  C   C4591     1.0  0.92371  0.67820  0.98623  1.0000
  H   H5524     1.0  0.63971  0.55754  0.98628  1.0000
  C   C4592     1.0  0.70014  0.96285  0.98532  1.0000
  C   C4593     1.0  0.50040  0.84837  0.15530  1.0000
  C   C4594     1.0  0.91993  0.90877  0.18482  1.0000
  C   C4595     1.0  0.51411  0.72449  0.98506  1.0000
  H   H5525     1.0  0.50995  0.71284  0.98543  1.0000
  H   H5526     1.0  0.50618  0.65144  0.34970  1.0000
  N   N309      1.0  0.51710  0.53010  0.33868  1.0000
  C   C4596     1.0  0.49920  0.96350  0.25851  1.0000
  Fe  Fe614     1.0  0.53335  0.61471  0.21324  1.0000
  S   S1225     1.0  0.52139  0.61640  0.24064  1.0000
  S   S1226     1.0  0.51877  0.60264  0.20274  1.0000
  H   H5527     1.0  0.89069  0.94937  0.18923  1.0000
  C   C4597     1.0  0.52303  0.56959  0.24162  1.0000
  Fe  Fe615     1.0  0.54433  0.58790  0.19222  1.0000
  H   H5528     1.0  0.50387  0.49896  0.20814  1.0000
  H   H5529     1.0  0.50042  0.52167  0.20249  1.0000
  H   H5530     1.0  0.62322  0.54047  0.36560  1.0000
  H   H5531     1.0  0.83162  0.54098  0.31345  1.0000
  C   C4598     1.0  0.84826  0.54897  0.37074  1.0000
  H   H5532     1.0  0.87454  0.49912  0.33539  1.0000
  H   H5533     1.0  0.89957  0.75075  0.37568  1.0000
  S   S1227     1.0  0.79931  0.93449  0.35893  1.0000
  C   C4599     1.0  0.51851  0.51045  0.27095  1.0000
  H   H5534     1.0  0.85385  0.90472  0.36952  1.0000
  Fe  Fe616     1.0  0.90288  0.93684  0.26938  1.0000
  S   S1228     1.0  0.90941  0.95039  0.28568  1.0000
  S   S1229     1.0  0.90724  0.94775  0.24121  1.0000
  Fe  Fe617     1.0  0.89448  0.90797  0.29891  1.0000
  S   S1230     1.0  0.90008  0.91923  0.31741  1.0000
  S   S1231     1.0  0.88663  0.88296  0.30933  1.0000
  Fe  Fe618     1.0  0.88578  0.94370  0.30433  1.0000
  S   S1232     1.0  0.86721  0.96093  0.32079  1.0000
  Fe  Fe619     1.0  0.92303  0.92459  0.29724  1.0000
  S   S1233     1.0  0.94908  0.91538  0.30357  1.0000
  S   S1234     1.0  0.87821  0.93210  0.28714  1.0000
  S   S1235     1.0  0.91841  0.91151  0.27952  1.0000
  H   H5535     1.0  0.96950  0.88883  0.32304  1.0000
  C   C4600     1.0  0.86326  0.50693  0.35897  1.0000
  Fe  Fe620     1.0  0.55392  0.60189  0.32154  1.0000
  S   S1236     1.0  0.54516  0.58006  0.34102  1.0000
  S   S1237     1.0  0.56709  0.59759  0.29532  1.0000
  Fe  Fe621     1.0  0.54420  0.62422  0.34738  1.0000
  S   S1238     1.0  0.53490  0.60398  0.36870  1.0000
  S   S1239     1.0  0.54331  0.65005  0.35110  1.0000
  Fe  Fe622     1.0  0.55828  0.58647  0.35771  1.0000
  H   H5536     1.0  0.96233  0.60273  0.22422  1.0000
  Fe  Fe623     1.0  0.52283  0.59973  0.35000  1.0000
  C   C4601     1.0  0.99649  0.64226  0.34275  1.0000
  S   S1240     1.0  0.56874  0.60706  0.33762  1.0000
  S   S1241     1.0  0.53036  0.62125  0.32919  1.0000
  S   S1242     1.0  0.50676  0.92831  0.35010  1.0000
  H   H5537     1.0  0.85926  0.97405  0.21383  1.0000
  H   H5538     1.0  0.86667  0.60163  0.24690  1.0000
  C   C4602     1.0  0.97040  0.87020  0.36428  1.0000
  H   H5539     1.0  0.61363  0.94429  0.28507  1.0000
  C   C4603     1.0  0.92267  0.87848  0.19228  1.0000
  C   C4604     1.0  0.88985  0.89579  0.22309  1.0000
  C   C4605     1.0  0.52879  0.54199  0.35658  1.0000
  C   C4606     1.0  0.63490  0.53185  0.36847  1.0000
  H   H5540     1.0  0.98501  0.59507  0.23965  1.0000
  Fe  Fe624     1.0  0.55975  0.95116  0.33165  1.0000
  S   S1243     1.0  0.58467  0.93754  0.33921  1.0000
  Fe  Fe625     1.0  0.52433  0.94614  0.33583  1.0000
  S   S1244     1.0  0.54888  0.93895  0.31756  1.0000
  C   C4607     1.0  0.87208  0.59101  0.37909  1.0000
  S   S1245     1.0  0.52942  0.95773  0.18848  1.0000
  C   C4608     1.0  0.95821  0.53838  0.28712  1.0000
  H   H5541     1.0  0.56011  0.49935  0.36854  1.0000
  S   S1246     1.0  0.91662  0.65515  0.34706  1.0000
  H   H5542     1.0  0.54753  0.95929  0.22087  1.0000
  H   H5543     1.0  0.93262  0.90718  0.18765  1.0000
  Fe  Fe626     1.0  0.89972  0.58863  0.28358  1.0000
  S   S1247     1.0  0.92194  0.57275  0.29512  1.0000
  S   S1248     1.0  0.90225  0.60623  0.25793  1.0000
  Fe  Fe627     1.0  0.87325  0.57388  0.31258  1.0000
  S   S1249     1.0  0.89319  0.55674  0.32630  1.0000
  S   S1250     1.0  0.84514  0.57442  0.32299  1.0000
  Fe  Fe628     1.0  0.90514  0.57927  0.31945  1.0000
  S   S1251     1.0  0.91312  0.58248  0.34171  1.0000
  Fe  Fe629     1.0  0.90778  0.55190  0.30101  1.0000
  S   S1252     1.0  0.91961  0.52562  0.29684  1.0000
  S   S1253     1.0  0.88400  0.59697  0.30748  1.0000
  S   S1254     1.0  0.88695  0.56723  0.28764  1.0000
  C   C4609     1.0  0.54109  0.93330  0.25983  1.0000
  H   H5544     1.0  0.85727  0.93100  0.23550  1.0000
  C   C4610     1.0  0.90340  0.51585  0.29709  1.0000
  C   C4611     1.0  0.90750  0.50133  0.29045  1.0000
  C   C4612     1.0  0.87729  0.50201  0.29460  1.0000
  C   C4613     1.0  0.87322  0.51623  0.30168  1.0000
  C   C4614     1.0  0.88624  0.52309  0.30303  1.0000
  H   H5545     1.0  0.85999  0.52206  0.30596  1.0000
  H   H5546     1.0  0.88297  0.53410  0.30846  1.0000
  C   C4615     1.0  0.91537  0.63499  0.34571  1.0000
  C   C4616     1.0  0.91472  0.63230  0.33018  1.0000
  C   C4617     1.0  0.91364  0.61632  0.32884  1.0000
  C   C4618     1.0  0.91372  0.60286  0.34294  1.0000
  C   C4619     1.0  0.91468  0.60549  0.35837  1.0000
  C   C4620     1.0  0.91523  0.62155  0.35982  1.0000
  H   H5547     1.0  0.91485  0.64266  0.31921  1.0000
  H   H5548     1.0  0.91300  0.61437  0.31686  1.0000
  H   H5549     1.0  0.91498  0.59507  0.36927  1.0000
  N   N310      1.0  0.81211  0.52997  0.33280  1.0000
  C   C4621     1.0  0.82501  0.57479  0.35469  1.0000
  C   C4622     1.0  0.84035  0.56729  0.34503  1.0000
  C   C4623     1.0  0.85177  0.55412  0.35308  1.0000
  H   H5550     1.0  0.81599  0.58483  0.34851  1.0000
  H   H5551     1.0  0.86326  0.54782  0.34570  1.0000
  C   C4624     1.0  0.91648  0.57928  0.21406  1.0000
  C   C4625     1.0  0.91999  0.57037  0.22987  1.0000
  C   C4626     1.0  0.91547  0.57853  0.24342  1.0000
  C   C4627     1.0  0.90774  0.59577  0.24113  1.0000
  C   C4628     1.0  0.90446  0.60476  0.22523  1.0000
  C   C4629     1.0  0.90864  0.59648  0.21175  1.0000
  H   H5552     1.0  0.92617  0.55708  0.23165  1.0000
  H   H5553     1.0  0.91810  0.57155  0.25562  1.0000
  H   H5554     1.0  0.89843  0.61810  0.22343  1.0000
  H   H5555     1.0  0.61773  0.93305  0.26063  1.0000
  C   C4630     1.0  0.50004  0.92033  0.28729  1.0000
  C   C4631     1.0  0.98400  0.95217  0.22297  1.0000
  C   C4632     1.0  0.54199  0.94400  0.26964  1.0000
  C   C4633     1.0  0.97516  0.59573  0.33359  1.0000
  C   C4634     1.0  0.63640  0.95599  0.36667  1.0000
  C   C4635     1.0  0.51748  0.90810  0.35924  1.0000
  H   H5556     1.0  0.61347  0.97201  0.36070  1.0000
  C   C4636     1.0  0.49912  0.64374  0.36108  1.0000
  C   C4637     1.0  0.96233  0.94248  0.25404  1.0000
  C   C4638     1.0  0.98150  0.53859  0.25504  1.0000
  H   H5557     1.0  0.62806  0.61724  0.37047  1.0000
  C   C4639     1.0  0.64998  0.95321  0.37447  1.0000
  C   C4640     1.0  0.59970  0.93337  0.36564  1.0000
  C   C4641     1.0  0.58672  0.94302  0.35715  1.0000
  C   C4642     1.0  0.57543  0.95688  0.36312  1.0000
  H   H5558     1.0  0.93280  0.89421  0.21463  1.0000
  N   N311      1.0  0.68066  0.49771  0.38215  1.0000
  H   H5559     1.0  0.60845  0.92260  0.36111  1.0000
  H   H5560     1.0  0.83574  0.89721  0.38385  1.0000
  H   H5561     1.0  0.91574  0.62346  0.37181  1.0000
  C   C4643     1.0  0.84172  0.49225  0.37798  1.0000
  H   H5562     1.0  0.95200  0.88448  0.33986  1.0000
  H   H5563     1.0  0.85770  0.88183  0.33674  1.0000
  C   C4644     1.0  0.80462  0.52885  0.38004  1.0000
  H   H5564     1.0  0.80783  0.50663  0.33012  1.0000
  H   H5565     1.0  0.51044  0.58034  0.30326  1.0000
  H   H5566     1.0  0.51551  0.59223  0.32485  1.0000
  C   C4645     1.0  0.50193  0.53895  0.27128  1.0000
  C   C4646     1.0  0.50770  0.91731  0.30093  1.0000
  C   C4647     1.0  0.59734  0.49777  0.34110  1.0000
  C   C4648     1.0  0.69635  0.50476  0.37563  1.0000
  C   C4649     1.0  0.60103  0.57988  0.36253  1.0000
  C   C4650     1.0  0.61678  0.58251  0.36306  1.0000
  S   S1255     1.0  0.53559  0.95669  0.35098  1.0000
  H   H5567     1.0  0.54897  0.67568  0.36416  1.0000
  H   H5568     1.0  0.59585  0.58568  0.35139  1.0000
  H   H5569     1.0  0.62352  0.59041  0.35233  1.0000
  C   C4651     1.0  0.50977  0.89941  0.37499  1.0000
  H   H5570     1.0  0.97951  0.61833  0.37997  1.0000
  C   C4652     1.0  0.59554  0.51062  0.36402  1.0000
  H   H5571     1.0  0.56839  0.97184  0.38203  1.0000
  C   C4653     1.0  0.50048  0.90869  0.31691  1.0000
  H   H5572     1.0  0.92076  0.49566  0.28591  1.0000
  H   H5573     1.0  0.53642  0.50675  0.24782  1.0000
  C   C4654     1.0  0.54486  0.96024  0.26185  1.0000
  H   H5574     1.0  0.80462  0.78007  0.37378  1.0000
  C   C4655     1.0  0.96147  0.93014  0.30099  1.0000
  C   C4656     1.0  0.95468  0.94757  0.29742  1.0000
  C   C4657     1.0  0.96503  0.95902  0.29533  1.0000
  C   C4658     1.0  0.98214  0.95303  0.29682  1.0000
  H   H5575     1.0  0.96242  0.95477  0.21217  1.0000
  C   C4659     1.0  0.97859  0.92420  0.30247  1.0000
  H   H5576     1.0  0.94147  0.95223  0.29635  1.0000
  H   H5577     1.0  0.95980  0.97251  0.29255  1.0000
  C   C4660     1.0  0.53964  0.54036  0.36730  1.0000
  H   H5578     1.0  0.98397  0.91075  0.30505  1.0000
  C   C4661     1.0  0.49939  0.53862  0.34567  1.0000
  C   C4662     1.0  0.98909  0.62518  0.37067  1.0000
  C   C4663     1.0  0.50604  0.52193  0.27938  1.0000
  H   H5579     1.0  0.59722  0.93982  0.30330  1.0000
  C   C4664     1.0  0.54040  0.51268  0.35459  1.0000
  H   H5580     1.0  0.87625  0.64986  0.32745  1.0000
  C   C4665     1.0  0.52685  0.51588  0.25433  1.0000
  C   C4666     1.0  0.50146  0.56491  0.23007  1.0000
  C   C4667     1.0  0.62388  0.57494  0.37731  1.0000
  H   H5581     1.0  0.62296  0.51061  0.38015  1.0000
  C   C4668     1.0  0.81781  0.94247  0.34834  1.0000
  C   C4669     1.0  0.82389  0.95242  0.35532  1.0000
  C   C4670     1.0  0.83898  0.95822  0.34673  1.0000
  C   C4671     1.0  0.84828  0.95369  0.33141  1.0000
  C   C4672     1.0  0.84227  0.94355  0.32463  1.0000
  C   C4673     1.0  0.82697  0.93817  0.33294  1.0000
  H   H5582     1.0  0.95396  0.93854  0.26609  1.0000
  H   H5583     1.0  0.84354  0.96609  0.35202  1.0000
  H   H5584     1.0  0.84916  0.94015  0.31277  1.0000
  H   H5585     1.0  0.82230  0.93051  0.32749  1.0000
  S   S1256     1.0  0.53338  0.91688  0.19205  1.0000
  H   H5586     1.0  0.97220  0.49643  0.28708  1.0000
  H   H5587     1.0  0.84638  0.59802  0.27456  1.0000
  C   C4674     1.0  0.55913  0.90601  0.37628  1.0000
  C   C4675     1.0  0.60935  0.92398  0.26783  1.0000
  C   C4676     1.0  0.79867  0.54062  0.32354  1.0000
  H   H5588     1.0  0.53883  0.92074  0.26586  1.0000
  H   H5589     1.0  0.87332  0.89634  0.24772  1.0000
  C   C4677     1.0  0.59373  0.52666  0.35320  1.0000
  C   C4678     1.0  0.91571  0.85188  0.35060  1.0000
  C   C4679     1.0  0.90034  0.84836  0.35017  1.0000
  C   C4680     1.0  0.89177  0.85750  0.33709  1.0000
  C   C4681     1.0  0.89817  0.87062  0.32482  1.0000
  C   C4682     1.0  0.91350  0.87414  0.32530  1.0000
  C   C4683     1.0  0.92234  0.86466  0.33803  1.0000
  C   C4684     1.0  0.86947  0.64431  0.36996  1.0000
  H   H5590     1.0  0.88012  0.85449  0.33656  1.0000
  H   H5591     1.0  0.91876  0.88397  0.31565  1.0000
  H   H5592     1.0  0.93429  0.86730  0.33813  1.0000
  H   H5593     1.0  0.97087  0.54929  0.25615  1.0000
  H   H5594     1.0  0.87445  0.98125  0.18541  1.0000
  C   C4685     1.0  0.96508  0.88685  0.33702  1.0000
  C   C4686     1.0  0.54119  0.88373  0.35763  1.0000
  C   C4687     1.0  0.53440  0.61040  0.25566  1.0000
  C   C4688     1.0  0.52658  0.60941  0.27284  1.0000
  C   C4689     1.0  0.53648  0.60571  0.28504  1.0000
  C   C4690     1.0  0.55434  0.60248  0.28021  1.0000
  C   C4691     1.0  0.56220  0.60290  0.26311  1.0000
  C   C4692     1.0  0.55227  0.60696  0.25085  1.0000
  H   H5595     1.0  0.51284  0.61146  0.27676  1.0000
  H   H5596     1.0  0.53032  0.60530  0.29816  1.0000
  H   H5597     1.0  0.57601  0.60039  0.25928  1.0000
  H   H5598     1.0  0.55845  0.60768  0.23766  1.0000
  H   H5599     1.0  0.54691  0.91415  0.37310  1.0000
  H   H5600     1.0  0.52452  0.55313  0.32336  1.0000
  C   C4693     1.0  0.87334  0.65203  0.35292  1.0000
  C   C4694     1.0  0.98091  0.51881  0.29915  1.0000
  C   C4695     1.0  0.89781  0.94883  0.21217  1.0000
  C   C4696     1.0  0.89379  0.94468  0.22990  1.0000
  C   C4697     1.0  0.87906  0.93842  0.23827  1.0000
  C   C4698     1.0  0.86860  0.93598  0.22895  1.0000
  H   H5601     1.0  0.87576  0.93531  0.25191  1.0000
  C   C4699     1.0  0.90160  0.88445  0.37735  1.0000
  H   H5602     1.0  0.98945  0.52775  0.29680  1.0000
  C   C4700     1.0  0.87295  0.93950  0.21124  1.0000
  C   C4701     1.0  0.96149  0.60877  0.33796  1.0000
  H   H5603     1.0  0.51177  0.50508  0.34795  1.0000
  H   H5604     1.0  0.94337  0.94602  0.23970  1.0000
  H   H5605     1.0  0.54043  0.93973  0.28319  1.0000
  C   C4702     1.0  0.99051  0.94793  0.23792  1.0000
  H   H5606     1.0  0.50861  0.95829  0.23390  1.0000
  C   C4703     1.0  0.54601  0.95498  0.23443  1.0000
  C   C4704     1.0  0.97910  0.94315  0.25347  1.0000
  H   H5607     1.0  0.84085  0.56975  0.28944  1.0000
  H   H5608     1.0  0.56973  0.91225  0.36824  1.0000
  H   H5609     1.0  0.78953  0.86520  0.36250  1.0000
  C   C4705     1.0  0.63476  0.51505  0.37660  1.0000
  H   H5610     1.0  0.54182  0.52704  0.20031  1.0000
  H   H5611     1.0  0.57933  0.56081  0.34260  1.0000
  H   H5612     1.0  0.90906  0.95392  0.20562  1.0000
  H   H5613     1.0  0.64993  0.55089  0.35856  1.0000
  S   S1257     1.0  0.54476  0.85503  0.38252  1.0000
  C   C4706     1.0  0.99378  0.60745  0.34272  1.0000
  C   C4707     1.0  0.63865  0.98049  0.38214  1.0000
  C   C4708     1.0  0.97466  0.59600  0.21846  1.0000
  C   C4709     1.0  0.91591  0.89496  0.23855  1.0000
  C   C4710     1.0  0.80490  0.52714  0.35126  1.0000
  H   H5614     1.0  0.54927  0.97822  0.23815  1.0000
  H   H5615     1.0  0.91603  0.97926  0.24114  1.0000
  H   H5616     1.0  0.90576  0.60341  0.19962  1.0000
  C   C4711     1.0  0.53322  0.90021  0.35056  1.0000
  C   C4712     1.0  0.98762  0.59161  0.22755  1.0000
  H   H5617     1.0  0.60315  0.92202  0.25856  1.0000
  C   C4713     1.0  0.61732  0.62297  0.36443  1.0000
  C   C4714     1.0  0.94800  0.60650  0.19998  1.0000
  H   H5618     1.0  0.96387  0.54943  0.28551  1.0000
  C   C4715     1.0  0.54700  0.96566  0.24424  1.0000
  H   H5619     1.0  0.99201  0.87494  0.37124  1.0000
  H   H5620     1.0  0.92591  0.89490  0.24459  1.0000
  H   H5621     1.0  0.58860  0.57217  0.32256  1.0000
  H   H5622     1.0  0.52813  0.63101  0.38372  1.0000
  H   H5623     1.0  0.81846  0.85013  0.35036  1.0000
  H   H5624     1.0  0.85248  0.60246  0.34606  1.0000
  S   S1258     1.0  0.55894  0.59876  0.20391  1.0000
  C   C4716     1.0  0.99129  0.59509  0.33593  1.0000
  H   H5625     1.0  0.86994  0.87632  0.36925  1.0000
  H   H5626     1.0  0.90469  0.89995  0.35222  1.0000
  C   C4717     1.0  0.59233  0.56949  0.37619  1.0000
  H   H5627     1.0  0.50657  0.51564  0.32787  1.0000
  Fe  Fe630     1.0  0.54193  0.96520  0.30211  1.0000
  N   N312      1.0  0.98312  0.63367  0.35474  1.0000
  C   C4718     1.0  0.88631  0.89571  0.24034  1.0000
  S   S1259     1.0  0.51620  0.97143  0.31911  1.0000
  C   C4719     1.0  0.59540  0.51373  0.33020  1.0000
  H   H5628     1.0  0.87714  0.66411  0.34914  1.0000
  C   C4720     1.0  0.87187  0.98727  0.27537  1.0000
  C   C4721     1.0  0.52855  0.52806  0.35018  1.0000
  H   H5629     1.0  0.87004  0.65058  0.37939  1.0000
  H   H5630     1.0  0.69525  0.51586  0.38096  1.0000
  H   H5631     1.0  0.56103  0.89390  0.37240  1.0000
  C   C4722     1.0  0.96145  0.58133  0.18928  1.0000
  H   H5632     1.0  0.96251  0.65417  0.34727  1.0000
  H   H5633     1.0  0.50574  0.92691  0.27490  1.0000
  N   N313      1.0  0.97702  0.87285  0.34575  1.0000
  H   H5634     1.0  0.86950  0.97519  0.28329  1.0000
  C   C4723     1.0  0.59364  0.52869  0.33587  1.0000
  H   H5635     1.0  0.99385  0.88930  0.34336  1.0000
  C   C4724     1.0  0.95432  0.86565  0.37163  1.0000
  H   H5636     1.0  0.99168  0.95589  0.21054  1.0000
  C   C4725     1.0  0.99415  0.87723  0.34009  1.0000
  H   H5637     1.0  0.94655  0.86438  0.36385  1.0000
  C   C4726     1.0  0.96382  0.62119  0.34478  1.0000
  C   C4727     1.0  0.85231  0.58728  0.26864  1.0000
  C   C4728     1.0  0.86171  0.59494  0.35416  1.0000
  H   H5638     1.0  0.58097  0.64255  0.33965  1.0000
  H   H5639     1.0  0.98673  0.84614  0.34698  1.0000
  H   H5640     1.0  0.82269  0.55138  0.33069  1.0000
  H   H5641     1.0  0.83769  0.53115  0.33319  1.0000
  H   H5642     1.0  0.52166  0.49729  0.27730  1.0000
  H   H5643     1.0  0.80386  0.54379  0.30965  1.0000
  H   H5644     1.0  0.63427  0.62321  0.33997  1.0000
  C   C4729     1.0  0.81730  0.79251  0.38440  1.0000
  C   C4730     1.0  0.53847  0.53513  0.18873  1.0000
  S   S1260     1.0  0.53528  0.63607  0.19020  1.0000
  H   H5645     1.0  0.88948  0.97594  0.25597  1.0000
  C   C4731     1.0  0.51052  0.54505  0.25450  1.0000
  H   H5646     1.0  0.94928  0.61864  0.20192  1.0000
  S   S1261     1.0  0.92667  0.84073  0.36686  1.0000
  H   H5647     1.0  0.99285  0.64819  0.33033  1.0000
  S   S1262     1.0  0.54781  0.55964  0.19745  1.0000
  H   H5648     1.0  0.88674  0.90902  0.18918  1.0000
  H   H5649     1.0  0.61103  0.63577  0.32416  1.0000
  N   N314      1.0  0.50711  0.56314  0.24585  1.0000
  H   H5650     1.0  0.57221  0.56154  0.31021  1.0000
  C   C4732     1.0  0.97782  0.59191  0.20239  1.0000
  H   H5651     1.0  0.83356  0.91203  0.36409  1.0000
  C   C4733     1.0  0.90673  0.89527  0.21304  1.0000
  H   H5652     1.0  0.98895  0.50576  0.30079  1.0000
  C   C4734     1.0  0.89595  0.89685  0.18776  1.0000
  H   H5653     1.0  0.78446  0.51578  0.35047  1.0000
  C   C4735     1.0  0.54297  0.93881  0.24224  1.0000
  C   C4736     1.0  0.81194  0.53149  0.36272  1.0000
  H   H5654     1.0  0.53330  0.56343  0.23224  1.0000
  H   H5655     1.0  0.94974  0.54142  0.27801  1.0000
  S   S1263     1.0  0.92179  0.56833  0.19767  1.0000
  C   C4737     1.0  0.52302  0.53294  0.24620  1.0000
  H   H5656     1.0  0.88916  0.88629  0.19392  1.0000
  H   H5657     1.0  0.50451  0.63021  0.36043  1.0000
  C   C4738     1.0  0.91967  0.89474  0.22136  1.0000
  H   H5658     1.0  0.57391  0.63701  0.37039  1.0000
  H   H5659     1.0  0.78621  0.89004  0.37445  1.0000
  H   H5660     1.0  0.87106  0.51620  0.35624  1.0000
  H   H5661     1.0  0.53005  0.53664  0.23339  1.0000
  C   C4739     1.0  0.79034  0.51976  0.35831  1.0000
  H   H5662     1.0  0.86198  0.86119  0.36418  1.0000
  H   H5663     1.0  0.89197  0.98339  0.22730  1.0000
  H   H5664     1.0  0.79301  0.55278  0.32784  1.0000
  H   H5665     1.0  0.97319  0.58612  0.32840  1.0000
  H   H5666     1.0  0.59521  0.51423  0.31729  1.0000
  H   H5667     1.0  0.53658  0.53430  0.31612  1.0000
  C   C4740     1.0  0.65116  0.96548  0.38210  1.0000
  H   H5668     1.0  0.87392  0.52065  0.24336  1.0000
  C   C4741     1.0  0.85154  0.50440  0.37432  1.0000
  C   C4742     1.0  0.87286  0.64394  0.34072  1.0000
  N   N315      1.0  0.86040  0.60282  0.36838  1.0000
  H   H5669     1.0  0.82185  0.75152  0.38297  1.0000
  C   C4743     1.0  0.60017  0.62670  0.37374  1.0000
  H   H5670     1.0  0.99085  0.55019  0.22907  1.0000
  C   C4744     1.0  0.89927  0.89539  0.24804  1.0000
  C   C4745     1.0  0.59115  0.63709  0.34658  1.0000
  C   C4746     1.0  0.85289  0.98656  0.23402  1.0000
  H   H5671     1.0  0.84494  0.90264  0.33717  1.0000
  H   H5672     1.0  0.52067  0.55434  0.35331  1.0000
  H   H5673     1.0  0.89638  0.89563  0.26136  1.0000
  N   N316      1.0  0.97165  0.52277  0.28528  1.0000
  C   C4747     1.0  0.50362  0.58838  0.32686  1.0000
  H   H5674     1.0  0.91180  0.87407  0.37370  1.0000
  H   H5675     1.0  0.52835  0.50719  0.32893  1.0000
  H   H5676     1.0  0.88184  0.92405  0.36040  1.0000
  H   H5677     1.0  0.60439  0.55851  0.30032  1.0000
  N   N317      1.0  0.59665  0.93032  0.28215  1.0000
  C   C4748     1.0  0.60614  0.93453  0.29253  1.0000
  H   H5678     1.0  0.89521  0.83842  0.35973  1.0000
  C   C4749     1.0  0.58531  0.94628  0.27534  1.0000
  C   C4750     1.0  0.58636  0.91748  0.29169  1.0000
  C   C4751     1.0  0.58617  0.90951  0.30898  1.0000
  C   C4752     1.0  0.57617  0.91249  0.28363  1.0000
  C   C4753     1.0  0.57629  0.89743  0.31754  1.0000
  C   C4754     1.0  0.56629  0.90044  0.29234  1.0000
  C   C4755     1.0  0.56635  0.89293  0.30927  1.0000
  H   H5679     1.0  0.51503  0.54304  0.31317  1.0000
  C   C4756     1.0  0.81435  0.77848  0.38077  1.0000
  H   H5680     1.0  0.61542  0.92324  0.29765  1.0000
  S   S1264     1.0  0.54571  0.97406  0.27379  1.0000
  C   C4757     1.0  0.88746  0.94617  0.20286  1.0000
  H   H5681     1.0  0.60225  0.55826  0.33615  1.0000
  H   H5682     1.0  0.57504  0.95098  0.28567  1.0000
  H   H5683     1.0  0.59240  0.95655  0.26874  1.0000
  H   H5684     1.0  0.57895  0.94479  0.26598  1.0000
  H   H5685     1.0  0.59329  0.91256  0.31632  1.0000
  H   H5686     1.0  0.57569  0.91793  0.27050  1.0000
  H   H5687     1.0  0.57624  0.89166  0.33076  1.0000
  H   H5688     1.0  0.55857  0.89692  0.28588  1.0000
  H   H5689     1.0  0.55865  0.88362  0.31602  1.0000
  C   C4758     1.0  0.84917  0.57130  0.27696  1.0000
  S   S1265     1.0  0.85990  0.93556  0.20005  1.0000
  H   H5690     1.0  0.81081  0.89972  0.37478  1.0000
  H   H5691     1.0  0.53945  0.55109  0.37225  1.0000
  N   N318      1.0  0.91109  0.89489  0.19483  1.0000
  C   C4759     1.0  0.82665  0.53870  0.32739  1.0000
  S   S1266     1.0  0.64357  0.57883  0.37737  1.0000
  H   H5692     1.0  0.60621  0.53668  0.30142  1.0000
  H   H5693     1.0  0.78805  0.53422  0.32528  1.0000
  C   C4760     1.0  0.81328  0.88883  0.36936  1.0000
  C   C4761     1.0  0.79889  0.88331  0.36931  1.0000
  H   H5694     1.0  0.57533  0.53951  0.31093  1.0000
  S   S1267     1.0  0.99515  0.96737  0.29366  1.0000
  H   H5695     1.0  0.54150  0.50155  0.35000  1.0000
  H   H5696     1.0  0.85014  0.51177  0.38356  1.0000
  H   H5697     1.0  0.52816  0.56755  0.25310  1.0000
  H   H5698     1.0  0.96386  0.89904  0.34055  1.0000
  H   H5699     1.0  0.56401  0.54770  0.32945  1.0000
  H   H5700     1.0  0.82411  0.51502  0.31377  1.0000
  S   S1268     1.0  0.55527  0.97680  0.31446  1.0000
  C   C4762     1.0  0.52359  0.54060  0.32211  1.0000
  C   C4763     1.0  0.53376  0.87524  0.37363  1.0000
  H   H5701     1.0  0.97026  0.65641  0.36423  1.0000
  H   H5702     1.0  0.70781  0.49528  0.37923  1.0000
  C   C4764     1.0  0.88335  0.98784  0.25972  1.0000
  H   H5703     1.0  0.95673  0.57293  0.20147  1.0000
  H   H5704     1.0  0.85442  0.97503  0.18856  1.0000
  C   C4765     1.0  0.60146  0.93764  0.37999  1.0000
  N   N319      1.0  0.84560  0.88637  0.36177  1.0000
  Fe  Fe631     1.0  0.91392  0.65981  0.37294  1.0000
  C   C4766     1.0  0.81830  0.51348  0.32757  1.0000
  S   S1269     1.0  0.57269  0.56592  0.37549  1.0000
  H   H5705     1.0  0.55915  0.52384  0.38003  1.0000
  C   C4767     1.0  0.99294  0.53928  0.23932  1.0000
  C   C4768     1.0  0.89444  0.49441  0.28920  1.0000
  C   C4769     1.0  0.86485  0.61969  0.36279  1.0000
  Fe  Fe632     1.0  0.54362  0.93334  0.20216  1.0000
  H   H5706     1.0  0.53908  0.90667  0.33826  1.0000
  C   C4770     1.0  0.60806  0.63331  0.33785  1.0000
  C   C4771     1.0  0.59037  0.55973  0.33172  1.0000
  C   C4772     1.0  0.53904  0.65295  0.37192  1.0000
  C   C4773     1.0  0.96300  0.50878  0.28758  1.0000
  C   C4774     1.0  0.85381  0.89210  0.34384  1.0000
  H   H5707     1.0  0.96580  0.85387  0.34232  1.0000
  C   C4775     1.0  0.51597  0.51380  0.33578  1.0000
  H   H5708     1.0  0.82828  0.50505  0.33437  1.0000
  C   C4776     1.0  0.55126  0.51124  0.36525  1.0000
  H   H5709     1.0  0.55330  0.87760  0.35085  1.0000
  C   C4777     1.0  0.84198  0.90067  0.37026  1.0000
  H   H5710     1.0  0.56551  0.96454  0.35654  1.0000
  H   H5711     1.0  0.61771  0.91163  0.27239  1.0000
  H   H5712     1.0  0.87904  0.89661  0.21790  1.0000
  C   C4778     1.0  0.83010  0.88050  0.36251  1.0000
  C   C4779     1.0  0.99453  0.58287  0.19635  1.0000
  C   C4780     1.0  0.59743  0.49623  0.35796  1.0000
  H   H5713     1.0  0.81683  0.95586  0.36717  1.0000
  C   C4781     1.0  0.62379  0.97094  0.36665  1.0000
  C   C4782     1.0  0.86876  0.62798  0.34547  1.0000
  H   H5714     1.0  0.83849  0.59205  0.38241  1.0000
  C   C4783     1.0  0.96714  0.95156  0.22370  1.0000
  H   H5715     1.0  0.99105  0.63447  0.37681  1.0000
  C   C4784     1.0  0.80075  0.86937  0.36255  1.0000
  H   H5716     1.0  0.95555  0.51137  0.27764  1.0000
  H   H5717     1.0  0.82297  0.53717  0.35866  1.0000
  H   H5718     1.0  0.97201  0.51942  0.31164  1.0000
  H   H5719     1.0  0.59531  0.50934  0.37727  1.0000
  H   H5720     1.0  0.90115  0.52457  0.24910  1.0000
  C   C4785     1.0  0.98382  0.52435  0.26866  1.0000
  C   C4786     1.0  0.85796  0.87237  0.37003  1.0000
  H   H5721     1.0  0.61811  0.54269  0.31288  1.0000
  C   C4787     1.0  0.98889  0.93561  0.30041  1.0000
  H   H5722     1.0  0.59224  0.53724  0.35883  1.0000
  C   C4788     1.0  0.64996  0.53768  0.36451  1.0000
  H   H5723     1.0  0.80951  0.57531  0.37973  1.0000
  C   C4789     1.0  0.97844  0.85715  0.34012  1.0000
  C   C4790     1.0  0.62440  0.98359  0.37465  1.0000
  H   H5724     1.0  0.86561  0.89665  0.34250  1.0000
  Fe  Fe633     1.0  0.53000  0.98138  0.33251  1.0000
  C   C4791     1.0  0.88472  0.91256  0.36988  1.0000
  H   H5725     1.0  0.51178  0.55903  0.22051  1.0000
  H   H5726     1.0  0.85627  0.97482  0.24299  1.0000
  C   C4792     1.0  0.83150  0.86640  0.35561  1.0000
  H   H5727     1.0  0.91659  0.86769  0.19983  1.0000
  S   S1270     1.0  0.92910  0.67709  0.37521  1.0000
  C   C4793     1.0  0.86371  0.58929  0.25304  1.0000
  C   C4794     1.0  0.66496  0.52675  0.36865  1.0000
  C   C4795     1.0  0.82144  0.56957  0.37239  1.0000
  H   H5728     1.0  0.65954  0.94145  0.37478  1.0000
  C   C4796     1.0  0.98012  0.62089  0.34739  1.0000
  N   N320      1.0  0.87825  0.54387  0.24640  1.0000
  C   C4797     1.0  0.86756  0.53112  0.25019  1.0000
  C   C4798     1.0  0.88421  0.54826  0.22771  1.0000
  C   C4799     1.0  0.89340  0.53598  0.25400  1.0000
  C   C4800     1.0  0.86876  0.55892  0.25358  1.0000
  C   C4801     1.0  0.85741  0.55725  0.26971  1.0000
  C   C4802     1.0  0.87185  0.57538  0.24558  1.0000
  C   C4803     1.0  0.78313  0.51717  0.37565  1.0000
  C   C4804     1.0  0.57717  0.96109  0.37750  1.0000
  H   H5729     1.0  0.94229  0.59901  0.21233  1.0000
  H   H5730     1.0  0.86521  0.52459  0.26374  1.0000
  H   H5731     1.0  0.85500  0.53706  0.24658  1.0000
  C   C4805     1.0  0.83316  0.55676  0.38044  1.0000
  H   H5732     1.0  0.87354  0.55605  0.22148  1.0000
  H   H5733     1.0  0.88978  0.53682  0.22218  1.0000
  H   H5734     1.0  0.89468  0.55528  0.22381  1.0000
  C   C4806     1.0  0.62111  0.62630  0.34675  1.0000
  H   H5735     1.0  0.90183  0.54504  0.25149  1.0000
  H   H5736     1.0  0.88960  0.53201  0.26795  1.0000
  H   H5737     1.0  0.85520  0.54507  0.27715  1.0000
  H   H5738     1.0  0.88087  0.57781  0.23372  1.0000
  H   H5739     1.0  0.80987  0.80504  0.38019  1.0000
  C   C4807     1.0  0.81703  0.86092  0.35572  1.0000
  H   H5740     1.0  0.86947  0.57804  0.38293  1.0000
  H   H5741     1.0  0.50156  0.58078  0.19283  1.0000
  S   S1271     1.0  0.54092  0.92529  0.23059  1.0000
  H   H5742     1.0  0.95385  0.50702  0.30004  1.0000
  H   H5743     1.0  0.87492  0.59330  0.34619  1.0000
  H   H5744     1.0  0.95948  0.75020  0.37403  1.0000
  H   H5745     1.0  0.98311  0.93976  0.26536  1.0000
  C   C4808     1.0  0.64961  0.50405  0.38094  1.0000
  H   H5746     1.0  0.95259  0.63085  0.34792  1.0000
  N   N321      1.0  0.59122  0.54545  0.32409  1.0000
  C   C4809     1.0  0.60560  0.54578  0.30907  1.0000
  C   C4810     1.0  0.57501  0.54865  0.31843  1.0000
  H   H5747     1.0  0.52082  0.58343  0.23613  1.0000
  H   H5748     1.0  0.94896  0.60924  0.33608  1.0000
  C   C4811     1.0  0.58722  0.63387  0.36423  1.0000
  H   H5749     1.0  0.49944  0.51759  0.29224  1.0000
  H   H5750     1.0  0.50219  0.64533  0.37253  1.0000
  H   H5751     1.0  0.51929  0.92173  0.29916  1.0000
  H   H5752     1.0  0.93843  0.60988  0.19191  1.0000
  H   H5753     1.0  0.51091  0.96682  0.25849  1.0000
  H   H5754     1.0  0.98101  0.72299  0.37567  1.0000
  S   S1272     1.0  0.86065  0.49451  0.29206  1.0000
  H   H5755     1.0  0.85884  0.58211  0.35879  1.0000
  C   C4812     1.0  0.86516  0.49733  0.34721  1.0000
  H   H5756     1.0  0.50798  0.93948  0.22012  1.0000
  C   C4813     1.0  0.55079  0.52500  0.37168  1.0000
  H   H5757     1.0  0.67602  0.53227  0.36552  1.0000
  C   C4814     1.0  0.96760  0.64698  0.35874  1.0000
  H   H5758     1.0  0.69916  0.50857  0.36158  1.0000
  H   H5759     1.0  0.85740  0.53912  0.37690  1.0000
  C   C4815     1.0  0.86515  0.62847  0.37489  1.0000
  C   C4816     1.0  0.54308  0.66694  0.37473  1.0000
  N   N322      1.0  0.96467  0.59677  0.19208  1.0000
  C   C4817     1.0  0.95636  0.94667  0.23919  1.0000
  H   H5760     1.0  0.50045  0.88232  0.34581  1.0000
  H   H5761     1.0  0.86904  0.62233  0.33530  1.0000
  H   H5762     1.0  0.63545  0.94632  0.36089  1.0000
  C   C4818     1.0  0.89761  0.89906  0.36522  1.0000
  H   H5763     1.0  0.85233  0.86788  0.38360  1.0000
  H   H5764     1.0  0.77192  0.51164  0.38067  1.0000
  C   C4819     1.0  0.51794  0.88308  0.38223  1.0000
  H   H5765     1.0  0.91212  0.92122  0.18737  1.0000
  C   C4820     1.0  0.85464  0.98631  0.21708  1.0000
  C   C4821     1.0  0.50071  0.58171  0.31464  1.0000
  H   H5766     1.0  0.98400  0.85840  0.32632  1.0000
  C   C4822     1.0  0.66525  0.50950  0.37693  1.0000
  H   H5767     1.0  0.95726  0.64147  0.36837  1.0000
  H   H5768     1.0  0.84382  0.85961  0.34990  1.0000
  C   C4823     1.0  0.84257  0.60439  0.37842  1.0000
  H   H5769     1.0  0.94949  0.53688  0.29986  1.0000
  H   H5770     1.0  0.88565  0.58999  0.37210  1.0000
  C   C4824     1.0  0.97970  0.87153  0.37556  1.0000
  H   H5771     1.0  0.50704  0.90694  0.32691  1.0000
  H   H5772     1.0  0.93495  0.87657  0.19613  1.0000
  H   H5773     1.0  0.83343  0.61363  0.37102  1.0000
  C   C4825     1.0  0.99820  0.51102  0.26547  1.0000
  H   H5774     1.0  0.50020  0.55489  0.18530  1.0000
  Fe  Fe634     1.0  0.87456  0.82034  0.40298  1.0000
  S   S1273     1.0  0.88654  0.84130  0.40225  1.0000
  Fe  Fe635     1.0  0.77266  0.49523  0.51789  1.0000
  Fe  Fe636     1.0  0.90501  0.79308  0.41247  1.0000
  S   S1274     1.0  0.91944  0.81203  0.41288  1.0000
  S   S1275     1.0  0.91529  0.76505  0.42132  1.0000
  Fe  Fe637     1.0  0.89416  0.82530  0.42610  1.0000
  S   S1276     1.0  0.88710  0.83766  0.44833  1.0000
  H   H5775     1.0  0.69840  0.98616  0.48371  1.0000
  S   S1277     1.0  0.88038  0.80519  0.42785  1.0000
  Fe  Fe638     1.0  0.89807  0.84751  0.54117  1.0000
  S   S1278     1.0  0.91932  0.86055  0.52575  1.0000
  S   S1279     1.0  0.87038  0.85998  0.54908  1.0000
  Fe  Fe639     1.0  0.92226  0.81328  0.54901  1.0000
  S   S1280     1.0  0.94556  0.82355  0.53464  1.0000
  H   H5776     1.0  0.71717  0.56314  0.45528  1.0000
  Fe  Fe640     1.0  0.93300  0.84597  0.54669  1.0000
  S   S1281     1.0  0.94770  0.85914  0.55626  1.0000
  Fe  Fe641     1.0  0.92980  0.83700  0.51516  1.0000
  S   S1282     1.0  0.94230  0.83555  0.48806  1.0000
  S   S1283     1.0  0.91103  0.83447  0.56279  1.0000
  S   S1284     1.0  0.90726  0.82516  0.52879  1.0000
  Fe  Fe642     1.0  0.82855  0.95201  0.53855  1.0000
  C   C4826     1.0  0.73086  0.57725  0.54475  1.0000
  S   S1285     1.0  0.84321  0.93730  0.51855  1.0000
  H   H5777     1.0  0.71815  0.50515  0.41213  1.0000
  H   H5778     1.0  0.89374  0.95662  0.49032  1.0000
  C   C4827     1.0  0.81139  0.63123  0.48448  1.0000
  H   H5779     1.0  0.86213  0.62312  0.38827  1.0000
  H   H5780     1.0  0.81773  0.85465  0.39385  1.0000
  Fe  Fe643     1.0  0.63463  0.52131  0.53387  1.0000
  S   S1286     1.0  0.63137  0.54911  0.52219  1.0000
  Fe  Fe644     1.0  0.55604  0.70647  0.42883  1.0000
  S   S1287     1.0  0.53485  0.69476  0.44689  1.0000
  S   S1288     1.0  0.55255  0.73419  0.41616  1.0000
  Fe  Fe645     1.0  0.58134  0.67254  0.42890  1.0000
  S   S1289     1.0  0.56246  0.65802  0.44695  1.0000
  S   S1290     1.0  0.60794  0.66046  0.41696  1.0000
  Fe  Fe646     1.0  0.54371  0.67476  0.43144  1.0000
  S   S1291     1.0  0.52577  0.66256  0.42534  1.0000
  Fe  Fe647     1.0  0.55554  0.67917  0.46064  1.0000
  S   S1292     1.0  0.55304  0.67306  0.48874  1.0000
  S   S1293     1.0  0.56319  0.68771  0.41216  1.0000
  S   S1294     1.0  0.57608  0.69248  0.44383  1.0000
  Fe  Fe648     1.0  0.65950  0.53652  0.42938  1.0000
  C   C4828     1.0  0.79224  0.55217  0.54916  1.0000
  S   S1295     1.0  0.65630  0.51003  0.44141  1.0000
  Fe  Fe649     1.0  0.65603  0.57177  0.43414  1.0000
  C   C4829     1.0  0.91059  0.90437  0.56323  1.0000
  S   S1296     1.0  0.64313  0.58798  0.45322  1.0000
  C   C4830     1.0  0.69956  0.49925  0.53718  1.0000
  C   C4831     1.0  0.71357  0.49880  0.45531  1.0000
  H   H5781     1.0  0.96044  0.68970  0.43196  1.0000
  Fe  Fe650     1.0  0.68822  0.55480  0.41243  1.0000
  S   S1297     1.0  0.63889  0.56006  0.42658  1.0000
  S   S1298     1.0  0.67521  0.54747  0.43958  1.0000
  Fe  Fe651     1.0  0.54624  0.73459  0.54119  1.0000
  S   S1299     1.0  0.56386  0.75092  0.54007  1.0000
  S   S1300     1.0  0.53691  0.73881  0.51745  1.0000
  H   H5782     1.0  0.77630  0.91939  0.54441  1.0000
  C   C4832     1.0  0.75069  0.97764  0.43711  1.0000
  H   H5783     1.0  0.97695  0.77830  0.41245  1.0000
  C   C4833     1.0  0.71097  0.50426  0.42550  1.0000
  Fe  Fe652     1.0  0.57709  0.72791  0.55629  1.0000
  S   S1301     1.0  0.60583  0.71955  0.55116  1.0000
  H   H5784     1.0  0.77614  0.50385  0.43008  1.0000
  S   S1302     1.0  0.56089  0.71101  0.55541  1.0000
  Fe  Fe653     1.0  0.62368  0.93474  0.45107  1.0000
  S   S1303     1.0  0.64323  0.91123  0.44637  1.0000
  S   S1304     1.0  0.61644  0.94136  0.47658  1.0000
  Fe  Fe654     1.0  0.62295  0.90527  0.43732  1.0000
  C   C4834     1.0  0.98732  0.81409  0.49188  1.0000
  S   S1305     1.0  0.60297  0.92769  0.44391  1.0000
  C   C4835     1.0  0.53168  0.65862  0.40485  1.0000
  C   C4836     1.0  0.77945  0.64217  0.45614  1.0000
  H   H5785     1.0  0.59098  0.84827  0.54313  1.0000
  C   C4837     1.0  0.72741  0.95888  0.55551  1.0000
  S   S1306     1.0  0.54118  0.87235  0.45382  1.0000
  H   H5786     1.0  0.82699  0.52587  0.53487  1.0000
  H   H5787     1.0  0.98112  0.82637  0.48456  1.0000
  H   H5788     1.0  0.98394  0.70995  0.39608  1.0000
  H   H5789     1.0  0.59437  0.53659  0.50037  1.0000
  N   N323      1.0  0.59556  0.62336  0.39245  1.0000
  H   H5790     1.0  0.73916  0.56631  0.48223  1.0000
  H   H5791     1.0  0.73743  0.97537  0.41266  1.0000
  S   S1307     1.0  0.58334  0.90206  0.55423  1.0000
  H   H5792     1.0  0.73941  0.51401  0.41826  1.0000
  Fe  Fe655     1.0  0.67283  0.94545  0.53237  1.0000
  S   S1308     1.0  0.68659  0.92026  0.54496  1.0000
  S   S1309     1.0  0.67616  0.95080  0.50399  1.0000
  Fe  Fe656     1.0  0.65843  0.95742  0.56547  1.0000
  S   S1310     1.0  0.80186  0.96905  0.42233  1.0000
  Fe  Fe657     1.0  0.69412  0.93527  0.55907  1.0000
  S   S1311     1.0  0.72123  0.92665  0.56325  1.0000
  Fe  Fe658     1.0  0.66258  0.92062  0.56512  1.0000
  H   H5793     1.0  0.89662  0.87155  0.40290  1.0000
  S   S1312     1.0  0.64821  0.94467  0.55153  1.0000
  H   H5794     1.0  0.59786  0.85107  0.39835  1.0000
  H   H5795     1.0  0.55782  0.76786  0.40336  1.0000
  S   S1313     1.0  0.61720  0.87909  0.44497  1.0000
  H   H5796     1.0  0.68260  0.97471  0.44455  1.0000
  Fe  Fe659     1.0  0.77597  0.58957  0.42806  1.0000
  S   S1314     1.0  0.78945  0.56321  0.43802  1.0000
  S   S1315     1.0  0.74771  0.59625  0.42942  1.0000
  Fe  Fe660     1.0  0.80708  0.60437  0.42249  1.0000
  S   S1316     1.0  0.82318  0.57932  0.43212  1.0000
  S   S1317     1.0  0.81588  0.62900  0.41300  1.0000
  Fe  Fe661     1.0  0.81149  0.56936  0.41677  1.0000
  S   S1318     1.0  0.82911  0.54990  0.40252  1.0000
  Fe  Fe662     1.0  0.79974  0.57555  0.45243  1.0000
  S   S1319     1.0  0.79794  0.56594  0.48045  1.0000
  S   S1320     1.0  0.79707  0.59485  0.40545  1.0000
  S   S1321     1.0  0.78460  0.60151  0.44407  1.0000
  S   S1322     1.0  0.91145  0.67034  0.41610  1.0000
  H   H5797     1.0  0.53115  0.79166  0.48551  1.0000
  Fe  Fe663     1.0  0.89757  0.65360  0.41051  1.0000
  S   S1323     1.0  0.88160  0.63729  0.43123  1.0000
  H   H5798     1.0  0.54467  0.88340  0.40086  1.0000
  H   H5799     1.0  0.85658  0.54502  0.47169  1.0000
  Fe  Fe664     1.0  0.83940  0.62871  0.54482  1.0000
  S   S1324     1.0  0.85925  0.60559  0.53967  1.0000
  S   S1325     1.0  0.84680  0.65397  0.53912  1.0000
  Fe  Fe665     1.0  0.81072  0.60894  0.55788  1.0000
  S   S1326     1.0  0.82880  0.58453  0.55344  1.0000
  C   C4838     1.0  0.95303  0.74469  0.38703  1.0000
  C   C4839     1.0  0.95768  0.86345  0.39985  1.0000
  Fe  Fe666     1.0  0.83984  0.60048  0.52896  1.0000
  S   S1327     1.0  0.84898  0.59407  0.50340  1.0000
  C   C4840     1.0  0.87555  0.91134  0.38666  1.0000
  S   S1328     1.0  0.82056  0.62446  0.53242  1.0000
  C   C4841     1.0  0.59951  0.84164  0.51879  1.0000
  H   H5800     1.0  0.75889  0.56257  0.46696  1.0000
  Fe  Fe667     1.0  0.94186  0.70422  0.53399  1.0000
  S   S1329     1.0  0.95601  0.68466  0.51854  1.0000
  S   S1330     1.0  0.94041  0.73123  0.51929  1.0000
  Fe  Fe668     1.0  0.93564  0.67037  0.53384  1.0000
  S   S1331     1.0  0.92562  0.65311  0.52451  1.0000
  C   C4842     1.0  0.76102  0.56386  0.53779  1.0000
  C   C4843     1.0  0.86895  0.51327  0.57139  1.0000
  C   C4844     1.0  0.75566  0.89564  0.50419  1.0000
  H   H5801     1.0  0.70240  0.51692  0.42621  1.0000
  S   S1332     1.0  0.83468  0.49573  0.51655  1.0000
  C   C4845     1.0  0.86853  0.65369  0.53730  1.0000
  C   C4846     1.0  0.88060  0.63841  0.53925  1.0000
  C   C4847     1.0  0.89806  0.63838  0.53589  1.0000
  C   C4848     1.0  0.90357  0.65365  0.53115  1.0000
  C   C4849     1.0  0.89149  0.66899  0.53019  1.0000
  C   C4850     1.0  0.87400  0.66900  0.53311  1.0000
  H   H5802     1.0  0.87659  0.62659  0.54320  1.0000
  H   H5803     1.0  0.90736  0.62649  0.53676  1.0000
  H   H5804     1.0  0.89568  0.68084  0.52647  1.0000
  H   H5805     1.0  0.86473  0.68089  0.53177  1.0000
  C   C4851     1.0  0.81230  0.57304  0.48733  1.0000
  C   C4852     1.0  0.80823  0.57627  0.50358  1.0000
  C   C4853     1.0  0.81940  0.58280  0.50871  1.0000
  C   C4854     1.0  0.83479  0.58573  0.49766  1.0000
  C   C4855     1.0  0.83903  0.58203  0.48162  1.0000
  C   C4856     1.0  0.82772  0.57588  0.47641  1.0000
  H   H5806     1.0  0.79628  0.57410  0.51205  1.0000
  H   H5807     1.0  0.81609  0.58558  0.52116  1.0000
  H   H5808     1.0  0.85091  0.58430  0.47306  1.0000
  H   H5809     1.0  0.83095  0.57339  0.46391  1.0000
  H   H5810     1.0  0.70269  0.94145  0.47449  1.0000
  H   H5811     1.0  0.73930  0.57137  0.46008  1.0000
  H   H5812     1.0  0.75910  0.94095  0.47607  1.0000
  C   C4857     1.0  0.59029  0.95159  0.38589  1.0000
  H   H5813     1.0  0.73668  0.49368  0.46512  1.0000
  C   C4858     1.0  0.83470  0.63059  0.41756  1.0000
  C   C4859     1.0  0.84384  0.61723  0.42791  1.0000
  C   C4860     1.0  0.85824  0.61936  0.43213  1.0000
  C   C4861     1.0  0.86383  0.63463  0.42556  1.0000
  C   C4862     1.0  0.85484  0.64785  0.41502  1.0000
  C   C4863     1.0  0.84024  0.64586  0.41112  1.0000
  H   H5814     1.0  0.83969  0.60540  0.43292  1.0000
  H   H5815     1.0  0.86513  0.60913  0.44038  1.0000
  H   H5816     1.0  0.78750  0.57700  0.55423  1.0000
  C   C4864     1.0  0.49920  0.70646  0.39188  1.0000
  C   C4865     1.0  0.79472  0.49141  0.44547  1.0000
  Fe  Fe669     1.0  0.82459  0.98679  0.54512  1.0000
  H   H5817     1.0  0.90711  0.77000  0.38878  1.0000
  C   C4866     1.0  0.83722  0.53158  0.53484  1.0000
  H   H5818     1.0  0.85550  0.77859  0.43082  1.0000
  C   C4867     1.0  0.53187  0.78500  0.52119  1.0000
  C   C4868     1.0  0.57963  0.87493  0.39629  1.0000
  H   H5819     1.0  0.56355  0.80524  0.50439  1.0000
  H   H5820     1.0  0.52128  0.63619  0.41256  1.0000
  C   C4869     1.0  0.59271  0.55112  0.44407  1.0000
  S   S1333     1.0  0.71698  0.54826  0.40535  1.0000
  C   C4870     1.0  0.55472  0.74478  0.44370  1.0000
  H   H5821     1.0  0.58975  0.59946  0.39418  1.0000
  H   H5822     1.0  0.80634  0.91406  0.53359  1.0000
  H   H5823     1.0  0.71683  0.94092  0.48733  1.0000
  C   C4871     1.0  0.60728  0.97023  0.54680  1.0000
  H   H5824     1.0  0.51920  0.84294  0.54633  1.0000
  H   H5825     1.0  0.52397  0.86164  0.56199  1.0000
  C   C4872     1.0  0.60295  0.89959  0.55974  1.0000
  C   C4873     1.0  0.61389  0.91051  0.55038  1.0000
  C   C4874     1.0  0.62886  0.90972  0.55547  1.0000
  C   C4875     1.0  0.63297  0.89799  0.56992  1.0000
  H   H5826     1.0  0.99053  0.66445  0.57253  1.0000
  H   H5827     1.0  0.80500  0.90832  0.51497  1.0000
  H   H5828     1.0  0.61070  0.91979  0.53933  1.0000
  H   H5829     1.0  0.63722  0.91811  0.54810  1.0000
  C   C4876     1.0  0.98610  0.71613  0.48579  1.0000
  H   H5830     1.0  0.87503  0.56399  0.45431  1.0000
  C   C4877     1.0  0.63344  0.94313  0.48410  1.0000
  C   C4878     1.0  0.63097  0.94313  0.50122  1.0000
  C   C4879     1.0  0.64413  0.94516  0.50746  1.0000
  C   C4880     1.0  0.65977  0.94737  0.49658  1.0000
  C   C4881     1.0  0.66231  0.94710  0.47946  1.0000
  C   C4882     1.0  0.64922  0.94485  0.47324  1.0000
  H   H5831     1.0  0.61884  0.94165  0.50966  1.0000
  H   H5832     1.0  0.64198  0.94533  0.52061  1.0000
  H   H5833     1.0  0.67432  0.94877  0.47091  1.0000
  H   H5834     1.0  0.65117  0.94485  0.46000  1.0000
  C   C4883     1.0  0.59617  0.87765  0.44593  1.0000
  H   H5835     1.0  0.57435  0.64512  0.39410  1.0000
  C   C4884     1.0  0.83577  0.52565  0.47897  1.0000
  C   C4885     1.0  0.56255  0.87453  0.44887  1.0000
  C   C4886     1.0  0.56585  0.89021  0.44813  1.0000
  C   C4887     1.0  0.58262  0.89180  0.44648  1.0000
  C   C4888     1.0  0.60467  0.87525  0.50588  1.0000
  C   C4889     1.0  0.55703  0.76490  0.41685  1.0000
  H   H5836     1.0  0.55538  0.90111  0.44911  1.0000
  H   H5837     1.0  0.58494  0.90394  0.44592  1.0000
  H   H5838     1.0  0.62083  0.55820  0.40187  1.0000
  S   S1334     1.0  0.79040  0.51200  0.50138  1.0000
  H   H5839     1.0  0.96520  0.71152  0.38890  1.0000
  C   C4890     1.0  0.83381  0.85977  0.43087  1.0000
  S   S1335     1.0  0.56138  0.73501  0.58079  1.0000
  H   H5840     1.0  0.86177  0.79496  0.39193  1.0000
  H   H5841     1.0  0.58389  0.53466  0.43430  1.0000
  H   H5842     1.0  0.71720  0.89591  0.47268  1.0000
  C   C4891     1.0  0.50926  0.85373  0.54932  1.0000
  H   H5843     1.0  0.59464  0.50887  0.45413  1.0000
  H   H5844     1.0  0.78479  0.61806  0.53593  1.0000
  C   C4892     1.0  0.61545  0.70102  0.54324  1.0000
  C   C4893     1.0  0.63254  0.69342  0.54392  1.0000
  H   H5845     1.0  0.74475  0.50773  0.43846  1.0000
  H   H5846     1.0  0.57147  0.61676  0.39477  1.0000
  H   H5847     1.0  0.73525  0.92981  0.40070  1.0000
  H   H5848     1.0  0.71023  0.51930  0.53895  1.0000
  Fe  Fe670     1.0  0.79626  0.91210  0.42038  1.0000
  C   C4894     1.0  0.99604  0.66737  0.41004  1.0000
  C   C4895     1.0  0.72574  0.56184  0.41147  1.0000
  C   C4896     1.0  0.71495  0.57474  0.41929  1.0000
  C   C4897     1.0  0.72190  0.58549  0.42434  1.0000
  C   C4898     1.0  0.73964  0.58322  0.42187  1.0000
  C   C4899     1.0  0.75051  0.57027  0.41409  1.0000
  C   C4900     1.0  0.74354  0.55958  0.40886  1.0000
  H   H5849     1.0  0.70123  0.57653  0.42138  1.0000
  H   H5850     1.0  0.71348  0.59553  0.43032  1.0000
  H   H5851     1.0  0.76424  0.56854  0.41208  1.0000
  H   H5852     1.0  0.60926  0.51668  0.49926  1.0000
  C   C4901     1.0  0.55535  0.74866  0.42631  1.0000
  S   S1336     1.0  0.67384  0.54200  0.40258  1.0000
  S   S1337     1.0  0.55685  0.83791  0.42622  1.0000
  H   H5853     1.0  0.83478  0.77543  0.43130  1.0000
  C   C4902     1.0  0.83604  0.49013  0.53786  1.0000
  Fe  Fe671     1.0  0.96933  0.67284  0.54000  1.0000
  C   C4903     1.0  0.59567  0.85267  0.52967  1.0000
  H   H5854     1.0  0.91337  0.89412  0.55678  1.0000
  H   H5855     1.0  0.85098  0.98356  0.49012  1.0000
  C   C4904     1.0  0.54826  0.69135  0.49668  1.0000
  C   C4905     1.0  0.54331  0.70731  0.48660  1.0000
  C   C4906     1.0  0.53958  0.72187  0.49315  1.0000
  C   C4907     1.0  0.54110  0.72048  0.50965  1.0000
  C   C4908     1.0  0.54604  0.70452  0.51970  1.0000
  C   C4909     1.0  0.54955  0.68995  0.51324  1.0000
  H   H5856     1.0  0.54229  0.70843  0.47380  1.0000
  H   H5857     1.0  0.53570  0.73423  0.48535  1.0000
  H   H5858     1.0  0.54684  0.70332  0.53254  1.0000
  H   H5859     1.0  0.55332  0.67759  0.52107  1.0000
  S   S1338     1.0  0.84348  0.96230  0.55031  1.0000
  C   C4910     1.0  0.60758  0.88723  0.57359  1.0000
  H   H5860     1.0  0.71249  0.92397  0.39057  1.0000
  S   S1339     1.0  0.67046  0.58027  0.40773  1.0000
  H   H5861     1.0  0.84561  0.91258  0.41088  1.0000
  C   C4911     1.0  0.61727  0.64029  0.42735  1.0000
  C   C4912     1.0  0.60891  0.63211  0.44301  1.0000
  C   C4913     1.0  0.61688  0.61603  0.45101  1.0000
  C   C4914     1.0  0.63303  0.60797  0.44317  1.0000
  C   C4915     1.0  0.64130  0.61611  0.42749  1.0000
  C   C4916     1.0  0.63352  0.63229  0.41969  1.0000
  H   H5862     1.0  0.59648  0.63828  0.44913  1.0000
  H   H5863     1.0  0.61045  0.60984  0.46320  1.0000
  H   H5864     1.0  0.65393  0.61017  0.42154  1.0000
  H   H5865     1.0  0.64010  0.63862  0.40765  1.0000
  H   H5866     1.0  0.55609  0.88109  0.48435  1.0000
  H   H5867     1.0  0.62417  0.55588  0.48981  1.0000
  C   C4917     1.0  0.64166  0.50499  0.43312  1.0000
  C   C4918     1.0  0.63141  0.51768  0.42331  1.0000
  C   C4919     1.0  0.61945  0.51360  0.41703  1.0000
  Fe  Fe672     1.0  0.62781  0.49623  0.56710  1.0000
  S   S1340     1.0  0.77958  0.93196  0.43422  1.0000
  H   H5868     1.0  0.63244  0.53069  0.42079  1.0000
  C   C4920     1.0  0.64730  0.55620  0.52654  1.0000
  C   C4921     1.0  0.64452  0.57286  0.52839  1.0000
  H   H5869     1.0  0.63264  0.58163  0.52654  1.0000
  H   H5870     1.0  0.60648  0.91585  0.50593  1.0000
  C   C4922     1.0  0.59815  0.86925  0.52340  1.0000
  C   C4923     1.0  0.84228  0.84641  0.42265  1.0000
  C   C4924     1.0  0.82228  0.85613  0.40411  1.0000
  C   C4925     1.0  0.73301  0.94164  0.56204  1.0000
  C   C4926     1.0  0.74872  0.93601  0.56712  1.0000
  C   C4927     1.0  0.75894  0.94748  0.56541  1.0000
  H   H5871     1.0  0.75298  0.92271  0.57242  1.0000
  H   H5872     1.0  0.77095  0.94303  0.56949  1.0000
  H   H5873     1.0  0.59785  0.82872  0.52376  1.0000
  S   S1341     1.0  0.99570  0.69121  0.42678  1.0000
  H   H5874     1.0  0.52560  0.87864  0.49639  1.0000
  C   C4928     1.0  0.90308  0.74605  0.38786  1.0000
  H   H5875     1.0  0.50229  0.77722  0.43836  1.0000
  C   C4929     1.0  0.92754  0.77123  0.55079  1.0000
  C   C4930     1.0  0.93282  0.77557  0.53320  1.0000
  C   C4931     1.0  0.93699  0.76312  0.52365  1.0000
  C   C4932     1.0  0.93570  0.74639  0.53161  1.0000
  C   C4933     1.0  0.87286  0.87827  0.42802  1.0000
  N   N324      1.0  0.71759  0.91666  0.48290  1.0000
  H   H5876     1.0  0.93385  0.78847  0.52700  1.0000
  H   H5877     1.0  0.94124  0.76641  0.51009  1.0000
  C   C4934     1.0  0.81987  0.87166  0.42544  1.0000
  C   C4935     1.0  0.74514  0.56192  0.47020  1.0000
  H   H5878     1.0  0.76156  0.93297  0.53205  1.0000
  H   H5879     1.0  0.87338  0.95060  0.50034  1.0000
  C   C4936     1.0  0.88583  0.96715  0.54927  1.0000
  H   H5880     1.0  0.82552  0.62645  0.48285  1.0000
  C   C4937     1.0  0.68844  0.93554  0.42696  1.0000
  H   H5881     1.0  0.63976  0.57802  0.57828  1.0000
  Fe  Fe673     1.0  0.90514  0.68813  0.39219  1.0000
  H   H5882     1.0  0.98882  0.75652  0.52737  1.0000
  H   H5883     1.0  0.62740  0.53021  0.58041  1.0000
  C   C4938     1.0  0.86344  0.88153  0.54043  1.0000
  C   C4939     1.0  0.84829  0.89057  0.54897  1.0000
  C   C4940     1.0  0.84230  0.90779  0.54248  1.0000
  C   C4941     1.0  0.85117  0.91595  0.52716  1.0000
  C   C4942     1.0  0.86628  0.90692  0.51852  1.0000
  C   C4943     1.0  0.87256  0.88976  0.52528  1.0000
  H   H5884     1.0  0.96031  0.77740  0.55475  1.0000
  H   H5885     1.0  0.83059  0.91459  0.54916  1.0000
  H   H5886     1.0  0.87316  0.91316  0.50662  1.0000
  H   H5887     1.0  0.88419  0.88279  0.51858  1.0000
  C   C4944     1.0  0.91108  0.75121  0.41133  1.0000
  C   C4945     1.0  0.91187  0.73410  0.41938  1.0000
  C   C4946     1.0  0.90806  0.72302  0.41175  1.0000
  N   N325      1.0  0.87380  0.97619  0.50031  1.0000
  C   C4947     1.0  0.90711  0.75703  0.39537  1.0000
  H   H5888     1.0  0.91508  0.72947  0.43169  1.0000
  H   H5889     1.0  0.90818  0.70996  0.41822  1.0000
  H   H5890     1.0  0.53187  0.90361  0.40308  1.0000
  C   C4948     1.0  0.90287  0.83794  0.45843  1.0000
  C   C4949     1.0  0.89765  0.84309  0.47386  1.0000
  C   C4950     1.0  0.90976  0.84273  0.48277  1.0000
  C   C4951     1.0  0.92720  0.83733  0.47624  1.0000
  C   C4952     1.0  0.93250  0.83261  0.46055  1.0000
  C   C4953     1.0  0.92033  0.83283  0.45166  1.0000
  H   H5891     1.0  0.88416  0.84716  0.47908  1.0000
  H   H5892     1.0  0.90558  0.84667  0.49471  1.0000
  H   H5893     1.0  0.94600  0.82847  0.45544  1.0000
  H   H5894     1.0  0.92444  0.82895  0.43970  1.0000
  C   C4954     1.0  0.83656  0.84454  0.40924  1.0000
  H   H5895     1.0  0.85313  0.83744  0.42688  1.0000
  S   S1342     1.0  0.68202  0.96064  0.54497  1.0000
  S   S1343     1.0  0.96113  0.64696  0.40203  1.0000
  C   C4955     1.0  0.61425  0.67842  0.53096  1.0000
  S   S1344     1.0  0.79034  0.50793  0.45600  1.0000
  H   H5896     1.0  0.62430  0.56201  0.46791  1.0000
  H   H5897     1.0  0.55335  0.83508  0.49224  1.0000
  Fe  Fe674     1.0  0.84605  0.59255  0.56480  1.0000
  H   H5898     1.0  0.89003  0.94568  0.51937  1.0000
  H   H5899     1.0  0.59407  0.52134  0.58023  1.0000
  H   H5900     1.0  0.55888  0.78988  0.41730  1.0000
  H   H5901     1.0  0.88645  0.90525  0.42411  1.0000
  S   S1345     1.0  0.92028  0.69078  0.54778  1.0000
  H   H5902     1.0  0.88833  0.88866  0.55610  1.0000
  H   H5903     1.0  0.53699  0.78953  0.52967  1.0000
  H   H5904     1.0  0.61746  0.60334  0.39736  1.0000
  C   C4956     1.0  0.82353  0.53217  0.45476  1.0000
  H   H5905     1.0  0.52832  0.81365  0.49764  1.0000
  H   H5906     1.0  0.87007  0.55289  0.40932  1.0000
  H   H5907     1.0  0.78118  0.95466  0.45480  1.0000
  H   H5908     1.0  0.96569  0.71963  0.42253  1.0000
  H   H5909     1.0  0.60975  0.51020  0.47479  1.0000
  S   S1346     1.0  0.81009  0.88865  0.43562  1.0000
  C   C4957     1.0  0.86166  0.75475  0.41449  1.0000
  H   H5910     1.0  0.78728  0.64013  0.44398  1.0000
  H   H5911     1.0  0.80552  0.62151  0.49461  1.0000
  N   N326      1.0  0.64535  0.62228  0.48462  1.0000
  C   C4958     1.0  0.65860  0.62050  0.46891  1.0000
  C   C4959     1.0  0.65390  0.62410  0.49719  1.0000
  C   C4960     1.0  0.63887  0.60643  0.49107  1.0000
  C   C4961     1.0  0.63073  0.63678  0.48205  1.0000
  C   C4962     1.0  0.62813  0.64601  0.46571  1.0000
  C   C4963     1.0  0.61796  0.64141  0.49611  1.0000
  C   C4964     1.0  0.61363  0.65896  0.46372  1.0000
  C   C4965     1.0  0.60349  0.65433  0.49395  1.0000
  C   C4966     1.0  0.60129  0.66301  0.47778  1.0000
  H   H5912     1.0  0.66364  0.63226  0.46315  1.0000
  H   H5913     1.0  0.66969  0.60989  0.47132  1.0000
  H   H5914     1.0  0.65357  0.61744  0.45939  1.0000
  H   H5915     1.0  0.65725  0.63676  0.49381  1.0000
  H   H5916     1.0  0.66587  0.61426  0.49825  1.0000
  H   H5917     1.0  0.64581  0.62269  0.51018  1.0000
  H   H5918     1.0  0.63227  0.60462  0.48203  1.0000
  H   H5919     1.0  0.64940  0.59506  0.49302  1.0000
  H   H5920     1.0  0.62950  0.60646  0.50333  1.0000
  H   H5921     1.0  0.63685  0.64325  0.45420  1.0000
  H   H5922     1.0  0.61893  0.63492  0.50891  1.0000
  H   H5923     1.0  0.61175  0.66553  0.45110  1.0000
  H   H5924     1.0  0.59373  0.65742  0.50485  1.0000
  H   H5925     1.0  0.58983  0.67268  0.47616  1.0000
  H   H5926     1.0  0.60727  0.97153  0.52093  1.0000
  C   C4967     1.0  0.68731  0.50038  0.47755  1.0000
  H   H5927     1.0  0.72510  0.93898  0.46572  1.0000
  S   S1347     1.0  0.67120  0.93325  0.58061  1.0000
  C   C4968     1.0  0.55335  0.84454  0.51400  1.0000
  C   C4969     1.0  0.55723  0.83902  0.53033  1.0000
  C   C4970     1.0  0.55584  0.83183  0.50483  1.0000
  S   S1348     1.0  0.86074  0.57382  0.58353  1.0000
  H   H5928     1.0  0.87410  0.55216  0.53328  1.0000
  C   C4971     1.0  0.84418  0.54198  0.52007  1.0000
  H   H5929     1.0  0.54469  0.89174  0.41832  1.0000
  Fe  Fe675     1.0  0.81108  0.49156  0.51162  1.0000
  C   C4972     1.0  0.56534  0.80972  0.52770  1.0000
  H   H5930     1.0  0.76709  0.53817  0.53296  1.0000
  N   N327      1.0  0.85333  0.77261  0.40820  1.0000
  H   H5931     1.0  0.53212  0.85847  0.49125  1.0000
  C   C4973     1.0  0.59069  0.95112  0.56853  1.0000
  C   C4974     1.0  0.49933  0.87847  0.56172  1.0000
  S   S1349     1.0  0.61159  0.51087  0.54844  1.0000
  H   H5932     1.0  0.55570  0.84764  0.53835  1.0000
  H   H5933     1.0  0.95760  0.76198  0.41043  1.0000
  C   C4975     1.0  0.97116  0.75797  0.40542  1.0000
  C   C4976     1.0  0.94371  0.87715  0.58032  1.0000
  C   C4977     1.0  0.82991  0.79052  0.39330  1.0000
  N   N328      1.0  0.61665  0.53826  0.48016  1.0000
  C   C4978     1.0  0.63455  0.52865  0.47635  1.0000
  C   C4979     1.0  0.61725  0.55574  0.48026  1.0000
  C   C4980     1.0  0.97755  0.74360  0.39793  1.0000
  C   C4981     1.0  0.60746  0.53762  0.46761  1.0000
  C   C4982     1.0  0.60489  0.52191  0.46662  1.0000
  C   C4983     1.0  0.60111  0.55226  0.45590  1.0000
  Fe  Fe676     1.0  0.79410  0.97005  0.55642  1.0000
  S   S1350     1.0  0.60310  0.49189  0.41207  1.0000
  H   H5934     1.0  0.52194  0.78298  0.42599  1.0000
  H   H5935     1.0  0.72637  0.52436  0.43485  1.0000
  S   S1351     1.0  0.89792  0.80647  0.38744  1.0000
  C   C4984     1.0  0.49927  0.79639  0.40734  1.0000
  C   C4985     1.0  0.73520  0.90917  0.48563  1.0000
  C   C4986     1.0  0.71300  0.50681  0.53637  1.0000
  C   C4987     1.0  0.76612  0.90146  0.47397  1.0000
  H   H5936     1.0  0.70302  0.49474  0.42794  1.0000
  H   H5937     1.0  0.64125  0.53398  0.46339  1.0000
  H   H5938     1.0  0.84461  0.55230  0.57434  1.0000
  C   C4988     1.0  0.49885  0.74940  0.41941  1.0000
  H   H5939     1.0  0.81589  0.92460  0.51332  1.0000
  S   S1352     1.0  0.95681  0.69328  0.55446  1.0000
  H   H5940     1.0  0.66636  0.53445  0.56898  1.0000
  H   H5941     1.0  0.88854  0.96492  0.56167  1.0000
  N   N329      1.0  0.90492  0.78558  0.48652  1.0000
  C   C4989     1.0  0.91110  0.77046  0.47882  1.0000
  C   C4990     1.0  0.89085  0.79699  0.47855  1.0000
  C   C4991     1.0  0.91930  0.79432  0.48221  1.0000
  C   C4992     1.0  0.89882  0.78147  0.50513  1.0000
  C   C4993     1.0  0.89933  0.76457  0.51470  1.0000
  C   C4994     1.0  0.89237  0.79461  0.51429  1.0000
  C   C4995     1.0  0.89386  0.76119  0.53230  1.0000
  C   C4996     1.0  0.88700  0.79105  0.53190  1.0000
  C   C4997     1.0  0.88784  0.77437  0.54089  1.0000
  H   H5942     1.0  0.90078  0.76345  0.48125  1.0000
  H   H5943     1.0  0.91546  0.77400  0.46481  1.0000
  H   H5944     1.0  0.92222  0.76163  0.48373  1.0000
  H   H5945     1.0  0.87944  0.79126  0.48212  1.0000
  H   H5946     1.0  0.89479  0.79991  0.46448  1.0000
  H   H5947     1.0  0.88668  0.80948  0.48222  1.0000
  H   H5948     1.0  0.93006  0.78634  0.48815  1.0000
  H   H5949     1.0  0.92435  0.79754  0.46831  1.0000
  H   H5950     1.0  0.91547  0.80641  0.48658  1.0000
  H   H5951     1.0  0.90438  0.75365  0.50902  1.0000
  H   H5952     1.0  0.89171  0.80776  0.50794  1.0000
  H   H5953     1.0  0.89488  0.74819  0.53939  1.0000
  H   H5954     1.0  0.88248  0.80125  0.53869  1.0000
  H   H5955     1.0  0.73319  0.98370  0.54877  1.0000
  H   H5956     1.0  0.63534  0.51506  0.47698  1.0000
  H   H5957     1.0  0.75839  0.58035  0.50641  1.0000
  C   C4998     1.0  0.87253  0.90769  0.42434  1.0000
  C   C4999     1.0  0.62609  0.89168  0.49026  1.0000
  C   C5000     1.0  0.87896  0.89641  0.39926  1.0000
  H   H5958     1.0  0.97935  0.81235  0.50497  1.0000
  H   H5959     1.0  0.64196  0.52905  0.48538  1.0000
  S   S1353     1.0  0.74666  0.50862  0.52991  1.0000
  N   N330      1.0  0.88037  0.90020  0.57785  1.0000
  C   C5001     1.0  0.60143  0.96297  0.56376  1.0000
  H   H5960     1.0  0.86020  0.50400  0.46183  1.0000
  H   H5961     1.0  0.60568  0.96656  0.57306  1.0000
  C   C5002     1.0  0.66254  0.54480  0.52911  1.0000
  S   S1354     1.0  0.82732  0.61598  0.57078  1.0000
  N   N331      1.0  0.86894  0.89530  0.41689  1.0000
  H   H5962     1.0  0.50391  0.68903  0.51659  1.0000
  H   H5963     1.0  0.59510  0.87703  0.53259  1.0000
  C   C5003     1.0  0.59711  0.90162  0.48614  1.0000
  H   H5964     1.0  0.62909  0.90453  0.48545  1.0000
  Fe  Fe677     1.0  0.53690  0.84473  0.41061  1.0000
  C   C5004     1.0  0.89027  0.95392  0.54083  1.0000
  H   H5965     1.0  0.83923  0.49984  0.46571  1.0000
  C   C5005     1.0  0.52099  0.77368  0.39779  1.0000
  N   N332      1.0  0.78817  0.93188  0.51962  1.0000
  C   C5006     1.0  0.77419  0.92386  0.53125  1.0000
  C   C5007     1.0  0.80451  0.91919  0.52037  1.0000
  C   C5008     1.0  0.78864  0.94643  0.52611  1.0000
  C   C5009     1.0  0.78601  0.93785  0.50191  1.0000
  C   C5010     1.0  0.77166  0.93638  0.49669  1.0000
  C   C5011     1.0  0.79845  0.94564  0.48926  1.0000
  H   H5966     1.0  0.76310  0.97927  0.42829  1.0000
  H   H5967     1.0  0.86957  0.91670  0.55709  1.0000
  H   H5968     1.0  0.60124  0.57693  0.55436  1.0000
  C   C5012     1.0  0.84350  0.52833  0.54947  1.0000
  C   C5013     1.0  0.55564  0.92010  0.39859  1.0000
  H   H5969     1.0  0.74764  0.60862  0.58226  1.0000
  H   H5970     1.0  0.97708  0.73987  0.53359  1.0000
  C   C5014     1.0  0.98535  0.76169  0.55825  1.0000
  C   C5015     1.0  0.99554  0.73938  0.39167  1.0000
  H   H5971     1.0  0.74962  0.96438  0.43857  1.0000
  C   C5016     1.0  0.50349  0.79723  0.53443  1.0000
  H   H5972     1.0  0.88416  0.77165  0.55458  1.0000
  S   S1355     1.0  0.81131  0.97704  0.53126  1.0000
  C   C5017     1.0  0.50910  0.78944  0.50666  1.0000
  H   H5973     1.0  0.51184  0.74321  0.42070  1.0000
  S   S1356     1.0  0.68612  0.57098  0.54556  1.0000
  H   H5974     1.0  0.99610  0.64839  0.39729  1.0000
  H   H5975     1.0  0.70410  0.91949  0.50822  1.0000
  C   C5018     1.0  0.97043  0.65968  0.40865  1.0000
  C   C5019     1.0  0.59627  0.52098  0.45488  1.0000
  C   C5020     1.0  0.79663  0.95160  0.47249  1.0000
  Fe  Fe678     1.0  0.56445  0.88791  0.57343  1.0000
  H   H5976     1.0  0.96348  0.80190  0.56273  1.0000
  C   C5021     1.0  0.72225  0.93145  0.40805  1.0000
  C   C5022     1.0  0.56031  0.86773  0.49094  1.0000
  H   H5977     1.0  0.72684  0.56300  0.52237  1.0000
  H   H5978     1.0  0.81772  0.54548  0.45589  1.0000
  C   C5023     1.0  0.69244  0.93013  0.41177  1.0000
  S   S1357     1.0  0.52714  0.82076  0.42288  1.0000
  H   H5979     1.0  0.56975  0.79642  0.53310  1.0000
  C   C5024     1.0  0.61355  0.55264  0.56700  1.0000
  H   H5980     1.0  0.96637  0.76048  0.53670  1.0000
  H   H5981     1.0  0.98093  0.86902  0.40138  1.0000
  H   H5982     1.0  0.72900  0.90305  0.51344  1.0000
  C   C5025     1.0  0.68878  0.98045  0.46522  1.0000
  C   C5026     1.0  0.60248  0.96609  0.53409  1.0000
  H   H5983     1.0  0.50859  0.80251  0.54237  1.0000
  Fe  Fe679     1.0  0.53637  0.85226  0.44371  1.0000
  H   H5984     1.0  0.75636  0.64828  0.44675  1.0000
  H   H5985     1.0  0.58333  0.90184  0.49179  1.0000
  H   H5986     1.0  0.73716  0.65323  0.47400  1.0000
  C   C5027     1.0  0.59287  0.86197  0.44655  1.0000
  H   H5987     1.0  0.76174  0.62633  0.51988  1.0000
  N   N333      1.0  0.80566  0.63400  0.46849  1.0000
  C   C5028     1.0  0.81132  0.61767  0.46299  1.0000
  C   C5029     1.0  0.81447  0.64663  0.45561  1.0000
  C   C5030     1.0  0.78690  0.63986  0.47014  1.0000
  C   C5031     1.0  0.77552  0.64316  0.48548  1.0000
  C   C5032     1.0  0.78286  0.56859  0.54963  1.0000
  H   H5988     1.0  0.80940  0.61892  0.45014  1.0000
  H   H5989     1.0  0.82522  0.61241  0.46241  1.0000
  H   H5990     1.0  0.80416  0.60814  0.47177  1.0000
  H   H5991     1.0  0.81181  0.64847  0.44290  1.0000
  H   H5992     1.0  0.82865  0.64264  0.45401  1.0000
  H   H5993     1.0  0.81034  0.65920  0.45912  1.0000
  Fe  Fe680     1.0  0.93692  0.67766  0.56670  1.0000
  H   H5994     1.0  0.77996  0.64203  0.49673  1.0000
  H   H5995     1.0  0.71845  0.58170  0.54060  1.0000
  H   H5996     1.0  0.94658  0.67314  0.42141  1.0000
  H   H5997     1.0  0.77683  0.95658  0.52526  1.0000
  H   H5998     1.0  0.61164  0.89711  0.52139  1.0000
  Fe  Fe681     1.0  0.65465  0.56668  0.40047  1.0000
  C   C5033     1.0  0.53957  0.66968  0.39118  1.0000
  S   S1358     1.0  0.92093  0.63979  0.39510  1.0000
  C   C5034     1.0  0.85634  0.54006  0.43272  1.0000
  H   H5999     1.0  0.81003  0.53256  0.38851  1.0000
  C   C5035     1.0  0.86705  0.55105  0.42297  1.0000
  H   H6000     1.0  0.86123  0.92362  0.57669  1.0000
  H   H6001     1.0  0.87699  0.78059  0.40334  1.0000
  C   C5036     1.0  0.76752  0.57436  0.54401  1.0000
  H   H6002     1.0  0.87056  0.86828  0.42306  1.0000
  C   C5037     1.0  0.88497  0.88516  0.57016  1.0000
  C   C5038     1.0  0.75779  0.64794  0.48675  1.0000
  H   H6003     1.0  0.68647  0.50599  0.54028  1.0000
  H   H6004     1.0  0.59324  0.69937  0.53586  1.0000
  H   H6005     1.0  0.50896  0.80406  0.40526  1.0000
  C   C5039     1.0  0.70935  0.92815  0.40233  1.0000
  C   C5040     1.0  0.75342  0.96469  0.55868  1.0000
  H   H6006     1.0  0.85145  0.53370  0.42609  1.0000
  H   H6007     1.0  0.81399  0.52444  0.46243  1.0000
  C   C5041     1.0  0.96820  0.68092  0.42413  1.0000
  H   H6008     1.0  0.86869  0.92095  0.41739  1.0000
  H   H6009     1.0  0.88956  0.53427  0.55389  1.0000
  H   H6010     1.0  0.76148  0.93075  0.50536  1.0000
  C   C5042     1.0  0.74943  0.90874  0.47168  1.0000
  C   C5043     1.0  0.92384  0.91273  0.56051  1.0000
  C   C5044     1.0  0.83666  0.76025  0.39495  1.0000
  H   H6011     1.0  0.61792  0.59274  0.56231  1.0000
  H   H6012     1.0  0.57779  0.93846  0.55752  1.0000
  H   H6013     1.0  0.82650  0.51744  0.48596  1.0000
  H   H6014     1.0  0.98925  0.69785  0.52250  1.0000
  H   H6015     1.0  0.60074  0.89577  0.47495  1.0000
  S   S1359     1.0  0.59291  0.95806  0.40306  1.0000
  S   S1360     1.0  0.63157  0.91825  0.41042  1.0000
  N   N334      1.0  0.54745  0.86261  0.50630  1.0000
  N   N335      1.0  0.60780  0.89259  0.49876  1.0000
  H   H6016     1.0  0.66499  0.53214  0.52709  1.0000
  H   H6017     1.0  0.58394  0.63770  0.41205  1.0000
  H   H6018     1.0  0.73299  0.58839  0.54794  1.0000
  C   C5045     1.0  0.86390  0.54601  0.53438  1.0000
  H   H6019     1.0  0.70909  0.97920  0.42488  1.0000
  H   H6020     1.0  0.50117  0.49527  0.57588  1.0000
  H   H6021     1.0  0.84724  0.89078  0.41091  1.0000
  C   C5046     1.0  0.78553  0.49247  0.43340  1.0000
  H   H6022     1.0  0.82963  0.53839  0.48178  1.0000
  H   H6023     1.0  0.75020  0.59551  0.51968  1.0000
  C   C5047     1.0  0.70131  0.93899  0.43260  1.0000
  C   C5048     1.0  0.87837  0.53935  0.56326  1.0000
  C   C5049     1.0  0.92173  0.92563  0.56885  1.0000
  Fe  Fe682     1.0  0.67945  0.59770  0.54883  1.0000
  C   C5050     1.0  0.60378  0.90297  0.51163  1.0000
  N   N336      1.0  0.86351  0.53179  0.56537  1.0000
  H   H6024     1.0  0.75192  0.54964  0.40274  1.0000
  H   H6025     1.0  0.53515  0.87148  0.52928  1.0000
  C   C5051     1.0  0.93041  0.74205  0.54918  1.0000
  C   C5052     1.0  0.63123  0.67060  0.53209  1.0000
  C   C5053     1.0  0.98211  0.76739  0.40667  1.0000
  H   H6026     1.0  0.72210  0.91422  0.45691  1.0000
  C   C5054     1.0  0.77169  0.61793  0.54256  1.0000
  H   H6027     1.0  0.86579  0.92223  0.38966  1.0000
  S   S1361     1.0  0.64070  0.65123  0.52572  1.0000
  C   C5055     1.0  0.75091  0.64970  0.47286  1.0000
  C   C5056     1.0  0.77004  0.94232  0.47984  1.0000
  S   S1362     1.0  0.64999  0.50849  0.55379  1.0000
  H   H6028     1.0  0.70083  0.91456  0.46821  1.0000
  C   C5057     1.0  0.76922  0.89485  0.49018  1.0000
  N   N337      1.0  0.51542  0.79615  0.51780  1.0000
  Fe  Fe683     1.0  0.54493  0.81559  0.44035  1.0000
  C   C5058     1.0  0.55684  0.77359  0.44209  1.0000
  Fe  Fe684     1.0  0.93417  0.65799  0.39867  1.0000
  H   H6029     1.0  0.93222  0.93168  0.56713  1.0000
  C   C5059     1.0  0.60633  0.69352  0.53666  1.0000
  C   C5060     1.0  0.75863  0.62271  0.53348  1.0000
  C   C5061     1.0  0.79023  0.52177  0.38648  1.0000
  Fe  Fe685     1.0  0.61276  0.94123  0.41763  1.0000
  H   H6030     1.0  0.83321  0.65623  0.40311  1.0000
  Fe  Fe686     1.0  0.76175  0.93594  0.41712  1.0000
  H   H6031     1.0  0.80626  0.95753  0.46298  1.0000
  N   N338      1.0  0.74291  0.54460  0.47170  1.0000
  C   C5062     1.0  0.75346  0.53271  0.48350  1.0000
  C   C5063     1.0  0.74988  0.53993  0.45500  1.0000
  H   H6032     1.0  0.83822  0.86098  0.44137  1.0000
  C   C5064     1.0  0.72447  0.54429  0.47717  1.0000
  C   C5065     1.0  0.71282  0.55482  0.46705  1.0000
  C   C5066     1.0  0.71746  0.53400  0.49260  1.0000
  C   C5067     1.0  0.69530  0.55503  0.47200  1.0000
  C   C5068     1.0  0.69990  0.53435  0.49744  1.0000
  C   C5069     1.0  0.68884  0.54482  0.48719  1.0000
  H   H6033     1.0  0.75278  0.51933  0.48489  1.0000
  H   H6034     1.0  0.76724  0.53326  0.47883  1.0000
  H   H6035     1.0  0.74947  0.53573  0.49625  1.0000
  H   H6036     1.0  0.74854  0.52695  0.45565  1.0000
  H   H6037     1.0  0.74342  0.54876  0.44505  1.0000
  H   H6038     1.0  0.82499  0.53152  0.44140  1.0000
  H   H6039     1.0  0.76375  0.54012  0.45045  1.0000
  C   C5070     1.0  0.98605  0.67892  0.41994  1.0000
  H   H6040     1.0  0.72521  0.52565  0.50125  1.0000
  H   H6041     1.0  0.68666  0.56327  0.46406  1.0000
  H   H6042     1.0  0.69481  0.52648  0.50928  1.0000
  H   H6043     1.0  0.67522  0.54511  0.49111  1.0000
  N   N339      1.0  0.59409  0.72370  0.48692  1.0000
  C   C5071     1.0  0.61006  0.72304  0.49193  1.0000
  C   C5072     1.0  0.57971  0.73496  0.49617  1.0000
  C   C5073     1.0  0.59052  0.70639  0.49251  1.0000
  C   C5074     1.0  0.59599  0.73047  0.46845  1.0000
  C   C5075     1.0  0.59653  0.72052  0.45700  1.0000
  C   C5076     1.0  0.59736  0.74758  0.46139  1.0000
  C   C5077     1.0  0.59780  0.72753  0.43971  1.0000
  C   C5078     1.0  0.59853  0.75446  0.44410  1.0000
  C   C5079     1.0  0.59865  0.74448  0.43330  1.0000
  H   H6044     1.0  0.60907  0.71821  0.50581  1.0000
  H   H6045     1.0  0.62117  0.71458  0.48539  1.0000
  H   H6046     1.0  0.61319  0.73574  0.48882  1.0000
  H   H6047     1.0  0.58259  0.74735  0.49533  1.0000
  H   H6048     1.0  0.57639  0.72928  0.50993  1.0000
  H   H6049     1.0  0.56800  0.73764  0.49106  1.0000
  H   H6050     1.0  0.58832  0.70195  0.50650  1.0000
  H   H6051     1.0  0.57877  0.70604  0.48879  1.0000
  H   H6052     1.0  0.60144  0.69687  0.48724  1.0000
  H   H6053     1.0  0.59572  0.70737  0.46108  1.0000
  H   H6054     1.0  0.59717  0.75592  0.46921  1.0000
  H   H6055     1.0  0.59773  0.71989  0.43122  1.0000
  H   H6056     1.0  0.59877  0.76777  0.43913  1.0000
  H   H6057     1.0  0.59905  0.74997  0.41999  1.0000
  N   N340      1.0  0.88948  0.63941  0.48448  1.0000
  C   C5080     1.0  0.87980  0.65432  0.49187  1.0000
  C   C5081     1.0  0.87932  0.63728  0.47347  1.0000
  C   C5082     1.0  0.89065  0.62410  0.49833  1.0000
  C   C5083     1.0  0.90696  0.64176  0.47548  1.0000
  C   C5084     1.0  0.91791  0.64483  0.48413  1.0000
  C   C5085     1.0  0.91378  0.64074  0.45824  1.0000
  C   C5086     1.0  0.93444  0.64710  0.47599  1.0000
  C   C5087     1.0  0.93043  0.64287  0.45027  1.0000
  C   C5088     1.0  0.94069  0.64615  0.45908  1.0000
  H   H6058     1.0  0.86649  0.65309  0.49857  1.0000
  H   H6059     1.0  0.88570  0.65607  0.50145  1.0000
  H   H6060     1.0  0.87907  0.66619  0.48191  1.0000
  H   H6061     1.0  0.87783  0.64844  0.46277  1.0000
  H   H6062     1.0  0.86620  0.63576  0.48053  1.0000
  H   H6063     1.0  0.88530  0.62574  0.46813  1.0000
  H   H6064     1.0  0.89694  0.62524  0.50791  1.0000
  H   H6065     1.0  0.87775  0.62170  0.50520  1.0000
  H   H6066     1.0  0.89813  0.61266  0.49334  1.0000
  H   H6067     1.0  0.91380  0.64548  0.49731  1.0000
  H   H6068     1.0  0.90656  0.63834  0.45057  1.0000
  H   H6069     1.0  0.94241  0.64959  0.48293  1.0000
  H   H6070     1.0  0.93544  0.64202  0.43711  1.0000
  H   H6071     1.0  0.95353  0.64791  0.45275  1.0000
  H   H6072     1.0  0.56263  0.85985  0.48161  1.0000
  H   H6073     1.0  0.56649  0.81791  0.54926  1.0000
  H   H6074     1.0  0.96555  0.72934  0.56410  1.0000
  N   N341      1.0  0.50647  0.77794  0.41182  1.0000
  S   S1363     1.0  0.63161  0.95085  0.42539  1.0000
  C   C5089     1.0  0.59512  0.86420  0.39927  1.0000
  C   C5090     1.0  0.51202  0.86437  0.55808  1.0000
  C   C5091     1.0  0.81413  0.86989  0.41199  1.0000
  H   H6075     1.0  0.93603  0.85830  0.39437  1.0000
  H   H6076     1.0  0.95635  0.75025  0.56760  1.0000
  C   C5092     1.0  0.85750  0.54914  0.51984  1.0000
  H   H6077     1.0  0.61131  0.52351  0.40971  1.0000
  H   H6078     1.0  0.67543  0.93712  0.43429  1.0000
  H   H6079     1.0  0.62980  0.88576  0.47911  1.0000
  H   H6080     1.0  0.80833  0.64317  0.48907  1.0000
  C   C5093     1.0  0.52748  0.64474  0.40203  1.0000
  H   H6081     1.0  0.95384  0.88292  0.57166  1.0000
  H   H6082     1.0  0.80323  0.87891  0.40786  1.0000
  C   C5094     1.0  0.73758  0.97038  0.55389  1.0000
  C   C5095     1.0  0.87766  0.98319  0.54183  1.0000
  H   H6083     1.0  0.61802  0.65699  0.56820  1.0000
  H   H6084     1.0  0.63459  0.88426  0.49913  1.0000
  Fe  Fe687     1.0  0.64987  0.92670  0.42007  1.0000
  S   S1364     1.0  0.73402  0.94121  0.43078  1.0000
  H   H6085     1.0  0.86548  0.90702  0.43774  1.0000
  H   H6086     1.0  0.60866  0.83862  0.49307  1.0000
  H   H6087     1.0  0.67329  0.50517  0.40606  1.0000
  Fe  Fe688     1.0  0.54642  0.75649  0.56431  1.0000
  H   H6088     1.0  0.72908  0.56736  0.55658  1.0000
  H   H6089     1.0  0.88630  0.87473  0.42972  1.0000
  H   H6090     1.0  0.65360  0.67260  0.53893  1.0000
  C   C5096     1.0  0.64038  0.67823  0.53845  1.0000
  H   H6091     1.0  0.71531  0.96336  0.55160  1.0000
  H   H6092     1.0  0.74874  0.55292  0.51573  1.0000
  C   C5097     1.0  0.70731  0.98132  0.43739  1.0000
  H   H6093     1.0  0.60713  0.67261  0.52598  1.0000
  H   H6094     1.0  0.65426  0.59048  0.53578  1.0000
  H   H6095     1.0  0.69814  0.94320  0.44432  1.0000
  H   H6096     1.0  0.74925  0.65012  0.49864  1.0000
  H   H6097     1.0  0.51645  0.77539  0.38604  1.0000
  C   C5098     1.0  0.65666  0.57781  0.53374  1.0000
  N   N342      1.0  0.83992  0.52626  0.46053  1.0000
  H   H6098     1.0  0.78572  0.98429  0.39395  1.0000
  C   C5099     1.0  0.78629  0.54147  0.54312  1.0000
  C   C5100     1.0  0.85911  0.54625  0.45817  1.0000
  H   H6099     1.0  0.76081  0.58724  0.54445  1.0000
  C   C5101     1.0  0.84762  0.50875  0.45804  1.0000
  H   H6100     1.0  0.78453  0.51999  0.39988  1.0000
  Fe  Fe689     1.0  0.79289  0.95029  0.41386  1.0000
  H   H6101     1.0  0.80968  0.94723  0.49228  1.0000
  H   H6102     1.0  0.87510  0.55340  0.55936  1.0000
  S   S1365     1.0  0.68547  0.61847  0.52663  1.0000
  H   H6103     1.0  0.86280  0.55737  0.50834  1.0000
  H   H6104     1.0  0.59000  0.90493  0.51802  1.0000
  C   C5102     1.0  0.63270  0.57036  0.57563  1.0000
  C   C5103     1.0  0.97440  0.71894  0.38903  1.0000
  C   C5104     1.0  0.76172  0.64691  0.45756  1.0000
  C   C5105     1.0  0.96036  0.67154  0.41821  1.0000
  S   S1366     1.0  0.81021  0.94386  0.56265  1.0000
  C   C5106     1.0  0.71824  0.93691  0.42318  1.0000
  C   C5107     1.0  0.56170  0.81470  0.51165  1.0000
  H   H6105     1.0  0.61164  0.93027  0.38626  1.0000
  C   C5108     1.0  0.96838  0.74036  0.56696  1.0000
  H   H6106     1.0  0.55507  0.75424  0.46500  1.0000
  H   H6107     1.0  0.84119  0.88421  0.56068  1.0000
  Fe  Fe690     1.0  0.66163  0.63465  0.53903  1.0000
  H   H6108     1.0  0.54297  0.92797  0.39643  1.0000
  C   C5109     1.0  0.62244  0.65630  0.57977  1.0000
  H   H6109     1.0  0.93606  0.90872  0.55233  1.0000
  H   H6110     1.0  0.85469  0.90631  0.57373  1.0000
  S   S1367     1.0  0.55297  0.87046  0.56606  1.0000
  H   H6111     1.0  0.75809  0.89051  0.51682  1.0000
  S   S1368     1.0  0.89569  0.71659  0.38735  1.0000
  H   H6112     1.0  0.51184  0.87649  0.39432  1.0000
  S   S1369     1.0  0.77376  0.95595  0.39763  1.0000
  C   C5110     1.0  0.57613  0.86045  0.44775  1.0000
  S   S1370     1.0  0.76607  0.97940  0.55593  1.0000
  C   C5111     1.0  0.89277  0.92244  0.58223  1.0000
  S   S1371     1.0  0.52789  0.74146  0.56434  1.0000
  H   H6113     1.0  0.54039  0.88775  0.51142  1.0000
  C   C5112     1.0  0.85035  0.89930  0.41715  1.0000
  S   S1372     1.0  0.51703  0.86036  0.42741  1.0000
  H   H6114     1.0  0.92209  0.75113  0.57234  1.0000
  C   C5113     1.0  0.77091  0.54714  0.53749  1.0000
  C   C5114     1.0  0.97862  0.75108  0.53723  1.0000
  C   C5115     1.0  0.67754  0.49351  0.40085  1.0000
  H   H6115     1.0  0.61308  0.86743  0.48168  1.0000
  C   C5116     1.0  0.55761  0.77737  0.42472  1.0000
  H   H6116     1.0  0.61895  0.86196  0.40602  1.0000
  C   C5117     1.0  0.60352  0.88716  0.40467  1.0000
  C   C5118     1.0  0.60565  0.84720  0.50155  1.0000
  S   S1373     1.0  0.52601  0.82950  0.45930  1.0000
  H   H6117     1.0  0.79362  0.52868  0.54274  1.0000
  C   C5119     1.0  0.92626  0.75449  0.55873  1.0000
  H   H6118     1.0  0.58065  0.60803  0.41292  1.0000
  H   H6119     1.0  0.68619  0.54071  0.53683  1.0000
  H   H6120     1.0  0.55345  0.73228  0.45108  1.0000
  H   H6121     1.0  0.84250  0.89768  0.43031  1.0000
  H   H6122     1.0  0.52112  0.86031  0.51245  1.0000
  C   C5120     1.0  0.60821  0.53052  0.49745  1.0000
  H   H6123     1.0  0.60329  0.85097  0.44606  1.0000
  H   H6124     1.0  0.86467  0.87756  0.44101  1.0000
  N   N343      1.0  0.74496  0.57058  0.53148  1.0000
  C   C5121     1.0  0.74746  0.58462  0.51651  1.0000
  H   H6125     1.0  0.60267  0.56473  0.45544  1.0000
  H   H6126     1.0  0.87169  0.75390  0.42137  1.0000
  H   H6127     1.0  0.84730  0.52028  0.48458  1.0000
  H   H6128     1.0  0.94499  0.75543  0.39286  1.0000
  C   C5122     1.0  0.51892  0.78801  0.49021  1.0000
  C   C5123     1.0  0.76776  0.61292  0.56018  1.0000
  C   C5124     1.0  0.73927  0.55772  0.52645  1.0000
  S   S1374     1.0  0.77744  0.91437  0.40479  1.0000
  H   H6129     1.0  0.58824  0.56236  0.43506  1.0000
  H   H6130     1.0  0.89587  0.98684  0.48740  1.0000
  H   H6131     1.0  0.55575  0.91884  0.41209  1.0000
  S   S1375     1.0  0.95064  0.65642  0.55364  1.0000
  C   C5125     1.0  0.50196  0.70049  0.52172  1.0000
  H   H6132     1.0  0.73718  0.54675  0.53721  1.0000
  C   C5126     1.0  0.75075  0.61252  0.56862  1.0000
  C   C5127     1.0  0.73767  0.61739  0.55952  1.0000
  H   H6133     1.0  0.72457  0.61728  0.56616  1.0000
  C   C5128     1.0  0.85178  0.53754  0.45061  1.0000
  H   H6134     1.0  0.84091  0.60889  0.39014  1.0000
  C   C5129     1.0  0.90330  0.72909  0.39611  1.0000
  C   C5130     1.0  0.74158  0.62261  0.54192  1.0000
  C   C5131     1.0  0.97222  0.77664  0.55805  1.0000
  C   C5132     1.0  0.71437  0.91001  0.46966  1.0000
  H   H6135     1.0  0.69103  0.91778  0.49566  1.0000
  H   H6136     1.0  0.73579  0.58984  0.51110  1.0000
  H   H6137     1.0  0.84968  0.50788  0.44467  1.0000
  C   C5133     1.0  0.67153  0.56603  0.53714  1.0000
  H   H6138     1.0  0.60420  0.56369  0.48334  1.0000
  S   S1376     1.0  0.72564  0.62860  0.52999  1.0000
  S   S1377     1.0  0.65417  0.61293  0.55969  1.0000
  H   H6139     1.0  0.79982  0.95217  0.51912  1.0000
  H   H6140     1.0  0.77674  0.90079  0.46309  1.0000
  S   S1378     1.0  0.78388  0.60659  0.57192  1.0000
  N   N344      1.0  0.98280  0.74659  0.55418  1.0000
  C   C5134     1.0  0.59022  0.53554  0.44362  1.0000
  H   H6141     1.0  0.74779  0.91402  0.45883  1.0000
  C   C5135     1.0  0.53090  0.86506  0.50146  1.0000
  C   C5136     1.0  0.70412  0.91300  0.49833  1.0000
  C   C5137     1.0  0.60818  0.86374  0.49515  1.0000
  H   H6142     1.0  0.70560  0.89916  0.50372  1.0000
  H   H6143     1.0  0.87864  0.50748  0.56135  1.0000
  Fe  Fe691     1.0  0.69885  0.62489  0.54316  1.0000
  C   C5138     1.0  0.73380  0.51183  0.43210  1.0000
  S   S1379     1.0  0.67545  0.64311  0.55365  1.0000
  C   C5139     1.0  0.67461  0.54970  0.53442  1.0000
  C   C5140     1.0  0.91493  0.63458  0.57943  1.0000
  H   H6144     1.0  0.91487  0.63736  0.56571  1.0000
  C   C5141     1.0  0.73888  0.90278  0.50204  1.0000
  C   C5142     1.0  0.71552  0.93528  0.47735  1.0000
  H   H6145     1.0  0.92925  0.72919  0.55538  1.0000
  C   C5143     1.0  0.54325  0.79518  0.57370  1.0000
  C   C5144     1.0  0.53598  0.81239  0.57328  1.0000
  C   C5145     1.0  0.58582  0.94737  0.55525  1.0000
  C   C5146     1.0  0.59168  0.95479  0.53831  1.0000
  C   C5147     1.0  0.56333  0.82187  0.53689  1.0000
  S   S1380     1.0  0.92346  0.78619  0.56321  1.0000
  H   H6146     1.0  0.61408  0.53190  0.50728  1.0000
  C   C5148     1.0  0.86980  0.55725  0.44830  1.0000
  H   H6147     1.0  0.59847  0.91502  0.48118  1.0000
  H   H6148     1.0  0.57284  0.86647  0.49400  1.0000
  C   C5149     1.0  0.54449  0.89515  0.40461  1.0000
  Fe  Fe692     1.0  0.50882  0.83596  0.44106  1.0000
  S   S1381     1.0  0.88932  0.67237  0.38797  1.0000
  C   C5150     1.0  0.61530  0.56437  0.39096  1.0000
  S   S1382     1.0  0.81125  0.93004  0.40137  1.0000
  S   S1383     1.0  0.64541  0.50126  0.51867  1.0000
  H   H6149     1.0  0.78958  0.94259  0.53961  1.0000
  C   C5151     1.0  0.55557  0.75723  0.45156  1.0000
  C   C5152     1.0  0.54496  0.87432  0.51760  1.0000
  H   H6150     1.0  0.55709  0.87372  0.52118  1.0000
  H   H6151     1.0  0.57367  0.84823  0.44857  1.0000
  S   S1384     1.0  0.55767  0.78917  0.45202  1.0000
  C   C5153     1.0  0.62260  0.88636  0.57861  1.0000
  S   S1385     1.0  0.67664  0.92594  0.40409  1.0000
  H   H6152     1.0  0.83769  0.52012  0.56061  1.0000
  C   C5154     1.0  0.87369  0.55970  0.43074  1.0000
  H   H6153     1.0  0.98394  0.84638  0.56603  1.0000
  H   H6154     1.0  0.98496  0.69065  0.48804  1.0000
  H   H6155     1.0  0.78218  0.88908  0.49184  1.0000
  H   H6156     1.0  0.77327  0.91257  0.52737  1.0000
  H   H6157     1.0  0.51242  0.69800  0.52854  1.0000
  H   H6158     1.0  0.59300  0.55332  0.40087  1.0000
  H   H6159     1.0  0.89587  0.87559  0.57472  1.0000
  H   H6160     1.0  0.99052  0.74107  0.48196  1.0000
  H   H6161     1.0  0.61583  0.97890  0.54353  1.0000
  H   H6162     1.0  0.84850  0.97178  0.51157  1.0000
  C   C5155     1.0  0.70094  0.98494  0.47069  1.0000
  H   H6163     1.0  0.88277  0.53653  0.57534  1.0000
  C   C5156     1.0  0.95649  0.72709  0.41435  1.0000
  S   S1386     1.0  0.69398  0.60311  0.56482  1.0000
  H   H6164     1.0  0.60679  0.61373  0.41452  1.0000
  H   H6165     1.0  0.88192  0.56830  0.42316  1.0000
  H   H6166     1.0  0.50005  0.68174  0.40691  1.0000
  S   S1387     1.0  0.53378  0.78368  0.56561  1.0000
  C   C5157     1.0  0.84594  0.78064  0.42303  1.0000
  S   S1388     1.0  0.84794  0.82843  0.39823  1.0000
  H   H6167     1.0  0.58807  0.95150  0.52836  1.0000
  C   C5158     1.0  0.53139  0.64176  0.38566  1.0000
  H   H6168     1.0  0.94400  0.73757  0.38594  1.0000
  H   H6169     1.0  0.63973  0.69922  0.54885  1.0000
  C   C5159     1.0  0.58385  0.61140  0.39885  1.0000
  C   C5160     1.0  0.58795  0.89794  0.40201  1.0000
  C   C5161     1.0  0.99346  0.69931  0.48460  1.0000
  C   C5162     1.0  0.61065  0.57021  0.56195  1.0000
  H   H6170     1.0  0.85889  0.65976  0.41015  1.0000
  S   S1389     1.0  0.50261  0.89186  0.57269  1.0000
  H   H6171     1.0  0.85814  0.50669  0.57543  1.0000
  H   H6172     1.0  0.50146  0.78452  0.54192  1.0000
  H   H6173     1.0  0.87614  0.96411  0.47990  1.0000
  C   C5163     1.0  0.72288  0.49585  0.46809  1.0000
  H   H6174     1.0  0.53734  0.83524  0.57945  1.0000
  H   H6175     1.0  0.52485  0.81826  0.56792  1.0000
  H   H6176     1.0  0.99574  0.72129  0.55069  1.0000
  N   N345      1.0  0.55898  0.90323  0.39447  1.0000
  H   H6177     1.0  0.67687  0.97832  0.47390  1.0000
  H   H6178     1.0  0.98636  0.80411  0.48606  1.0000
  H   H6179     1.0  0.50619  0.82199  0.50594  1.0000
  C   C5164     1.0  0.87959  0.96120  0.49242  1.0000
  H   H6180     1.0  0.83916  0.54456  0.50880  1.0000
  N   N346      1.0  0.72265  0.49936  0.43745  1.0000
  C   C5165     1.0  0.98851  0.85201  0.57366  1.0000
  C   C5166     1.0  0.98826  0.65755  0.40466  1.0000
  H   H6181     1.0  0.97116  0.73651  0.57985  1.0000
  C   C5167     1.0  0.78245  0.94997  0.46782  1.0000
  H   H6182     1.0  0.90023  0.61228  0.57387  1.0000
  H   H6183     1.0  0.69030  0.49751  0.50277  1.0000
  C   C5168     1.0  0.93822  0.86486  0.57594  1.0000
  H   H6184     1.0  0.50008  0.75124  0.53994  1.0000
  S   S1390     1.0  0.80623  0.98168  0.56998  1.0000
  C   C5169     1.0  0.58678  0.63947  0.39803  1.0000
  H   H6185     1.0  0.52821  0.76038  0.40076  1.0000
  H   H6186     1.0  0.59817  0.68430  0.57384  1.0000
  H   H6187     1.0  0.61277  0.89179  0.40814  1.0000
  C   C5170     1.0  0.90616  0.93055  0.57961  1.0000
  C   C5171     1.0  0.86587  0.91223  0.57105  1.0000
  C   C5172     1.0  0.86683  0.78129  0.39675  1.0000
  S   S1391     1.0  0.65035  0.89821  0.57792  1.0000
  C   C5173     1.0  0.85713  0.53538  0.54968  1.0000
  H   H6188     1.0  0.52012  0.76146  0.43085  1.0000
  H   H6189     1.0  0.54192  0.78416  0.50947  1.0000
  H   H6190     1.0  0.57098  0.86963  0.39272  1.0000
  C   C5174     1.0  0.71982  0.98641  0.44242  1.0000
  C   C5175     1.0  0.63608  0.55239  0.58089  1.0000
  C   C5176     1.0  0.87823  0.97285  0.51699  1.0000
  H   H6191     1.0  0.84995  0.97037  0.58204  1.0000
  H   H6192     1.0  0.61974  0.62443  0.39644  1.0000
  Fe  Fe693     1.0  0.82400  0.95614  0.57400  1.0000
  H   H6193     1.0  0.84159  0.79462  0.41932  1.0000
  C   C5177     1.0  0.60703  0.87031  0.40348  1.0000
  Fe  Fe694     1.0  0.54421  0.71944  0.57874  1.0000
  C   C5178     1.0  0.57543  0.89209  0.39783  1.0000
  C   C5179     1.0  0.89260  0.88313  0.39416  1.0000
  C   C5180     1.0  0.89465  0.90887  0.57440  1.0000
  H   H6194     1.0  0.95298  0.86062  0.41344  1.0000
  H   H6195     1.0  0.52203  0.81929  0.51779  1.0000
  C   C5181     1.0  0.62588  0.54383  0.57654  1.0000
  H   H6196     1.0  0.54252  0.68064  0.39317  1.0000
  C   C5182     1.0  0.69200  0.97852  0.44866  1.0000
  H   H6197     1.0  0.52102  0.78089  0.46693  1.0000
  C   C5183     1.0  0.51297  0.77472  0.42742  1.0000
  H   H6198     1.0  0.87088  0.59508  0.39092  1.0000
  H   H6199     1.0  0.58603  0.91074  0.40345  1.0000
  C   C5184     1.0  0.88651  0.95661  0.52497  1.0000
  H   H6200     1.0  0.87414  0.87862  0.57334  1.0000
  H   H6201     1.0  0.83191  0.80186  0.39551  1.0000
  C   C5185     1.0  0.97390  0.79080  0.56262  1.0000
  N   N347      1.0  0.96570  0.73368  0.39702  1.0000
  C   C5186     1.0  0.94814  0.86222  0.38913  1.0000
  H   H6202     1.0  0.84380  0.74745  0.39840  1.0000
  H   H6203     1.0  0.59489  0.64909  0.39272  1.0000
  Fe  Fe695     1.0  0.66924  0.62041  0.57372  1.0000
  C   C5187     1.0  0.98869  0.79057  0.56745  1.0000
  H   H6204     1.0  0.50629  0.72659  0.52813  1.0000
  C   C5188     1.0  0.51322  0.78179  0.47942  1.0000
  H   H6205     1.0  0.94793  0.73738  0.42056  1.0000
  H   H6206     1.0  0.53021  0.77186  0.52745  1.0000
  H   H6207     1.0  0.63308  0.66317  0.57587  1.0000
  C   C5189     1.0  0.61821  0.49674  0.41995  1.0000
  S   S1392     1.0  0.63787  0.97728  0.57693  1.0000
  H   H6208     1.0  0.94822  0.71868  0.41432  1.0000
  H   H6209     1.0  0.85223  0.74747  0.42335  1.0000
  C   C5190     1.0  0.62009  0.57906  0.56638  1.0000
  H   H6210     1.0  0.97237  0.71995  0.49036  1.0000
  H   H6211     1.0  0.80417  0.54779  0.55344  1.0000
  C   C5191     1.0  0.51818  0.81347  0.50938  1.0000
  C   C5192     1.0  0.61057  0.61586  0.40047  1.0000
  C   C5193     1.0  0.82127  0.49000  0.55070  1.0000
  H   H6212     1.0  0.87472  0.51022  0.58264  1.0000
  H   H6213     1.0  0.80885  0.49302  0.54758  1.0000
  H   H6214     1.0  0.60638  0.54578  0.56327  1.0000
  H   H6215     1.0  0.99700  0.82911  0.51067  1.0000
  H   H6216     1.0  0.86838  0.74813  0.40394  1.0000
  H   H6217     1.0  0.53044  0.78182  0.39490  1.0000
  H   H6218     1.0  0.56525  0.92755  0.39044  1.0000
  H   H6219     1.0  0.50376  0.71114  0.51058  1.0000
  Fe  Fe696     1.0  0.91045  0.82634  0.38896  1.0000
  H   H6220     1.0  0.61372  0.68849  0.58216  1.0000
  H   H6221     1.0  0.89650  0.94144  0.54667  1.0000
  C   C5194     1.0  0.73007  0.49835  0.53205  1.0000
  C   C5195     1.0  0.84960  0.53853  0.57867  1.0000
  C   C5196     1.0  0.87397  0.98606  0.52592  1.0000
  C   C5197     1.0  0.85496  0.98153  0.50223  1.0000
  Fe  Fe697     1.0  0.79391  0.49642  0.48251  1.0000
  C   C5198     1.0  0.97339  0.86817  0.39306  1.0000
  H   H6222     1.0  0.83307  0.49055  0.39021  1.0000
  C   C5199     1.0  0.66095  0.52916  0.58246  1.0000
  C   C5200     1.0  0.55777  0.78757  0.58052  1.0000
  Fe  Fe698     1.0  0.52802  0.88345  0.58022  1.0000
  H   H6223     1.0  0.98987  0.80151  0.57117  1.0000
  H   H6224     1.0  0.66172  0.96309  0.38829  1.0000
  C   C5201     1.0  0.85411  0.66556  0.57856  1.0000
  Fe  Fe699     1.0  0.79117  0.93417  0.38668  1.0000
  H   H6225     1.0  0.51302  0.70412  0.38753  1.0000
  H   H6226     1.0  0.65453  0.51906  0.58276  1.0000
  H   H6227     1.0  0.75162  0.97910  0.44953  1.0000
  C   C5202     1.0  0.54310  0.82201  0.57969  1.0000
  H   H6228     1.0  0.84534  0.64488  0.57589  1.0000
  H   H6229     1.0  0.59976  0.87819  0.58035  1.0000
  H   H6230     1.0  0.66655  0.55979  0.58032  1.0000
  H   H6231     1.0  0.56346  0.77429  0.58089  1.0000
  C   C5203     1.0  0.71624  0.98791  0.45951  1.0000
  H   H6232     1.0  0.62823  0.64281  0.58456  1.0000
  C   C5204     1.0  0.85550  0.64860  0.57886  1.0000
  C   C5205     1.0  0.82403  0.76240  0.38599  1.0000
  H   H6233     1.0  0.92685  0.62507  0.58158  1.0000
  H   H6234     1.0  0.58184  0.91993  0.58293  1.0000
  H   H6235     1.0  0.84293  0.67489  0.57537  1.0000
  C   C5206     1.0  0.83990  0.77430  0.39899  1.0000
  C   C5207     1.0  0.59958  0.56157  0.39035  1.0000
  H   H6236     1.0  0.92140  0.84740  0.58444  1.0000
  H   H6237     1.0  0.91626  0.64626  0.58223  1.0000
  C   C5208     1.0  0.86715  0.67047  0.58224  1.0000
  H   H6238     1.0  0.86600  0.68366  0.58214  1.0000
  H   H6239     1.0  0.99777  0.67310  0.46888  1.0000
  C   C5209     1.0  0.99630  0.72802  0.48112  1.0000
  C   C5210     1.0  0.87012  0.63652  0.58234  1.0000
  H   H6240     1.0  0.87045  0.62371  0.58197  1.0000
  H   H6241     1.0  0.72181  0.49333  0.49458  1.0000
  H   H6242     1.0  0.83870  0.53212  0.58224  1.0000
  C   C5211     1.0  0.99324  0.65495  0.58415  1.0000
  H   H6243     1.0  0.87294  0.77551  0.38553  1.0000
  H   H6244     1.0  0.64859  0.49135  0.38790  1.0000
  S   S1393     1.0  0.99737  0.66223  0.53814  1.0000
  C   C5212     1.0  0.99801  0.73232  0.55403  1.0000
  C   C5213     1.0  0.69550  0.50087  0.46061  1.0000
  H   H6245     1.0  0.68736  0.50286  0.45194  1.0000
  Fe  Fe700     1.0  0.62360  0.48945  0.53506  1.0000
  C   C5214     1.0  0.71453  0.49551  0.48499  1.0000
  C   C5215     1.0  0.73746  0.98846  0.41321  1.0000
  C   C5216     1.0  0.69678  0.49780  0.48968  1.0000
  H   H6246     1.0  0.67351  0.50192  0.48129  1.0000
  H   H6247     1.0  0.56254  0.93633  0.58494  1.0000
  H   H6248     1.0  0.95448  0.52375  0.62174  1.0000
  H   H6249     1.0  0.80752  0.59234  0.59783  1.0000
  H   H6250     1.0  0.98150  0.57117  0.61196  1.0000
  C   C5217     1.0  0.84878  0.94875  0.60286  1.0000
  C   C5218     1.0  0.95853  0.93801  0.73088  1.0000
  C   C5219     1.0  0.59146  0.67614  0.73687  1.0000
  H   H6251     1.0  0.97699  0.58835  0.69474  1.0000
  Fe  Fe701     1.0  0.90319  0.94863  0.76673  1.0000
  S   S1394     1.0  0.90686  0.95796  0.73831  1.0000
  H   H6252     1.0  0.51554  0.55739  0.67221  1.0000
  C   C5220     1.0  0.63476  0.95795  0.62701  1.0000
  H   H6253     1.0  0.65487  0.95945  0.60446  1.0000
  H   H6254     1.0  0.96199  0.90786  0.68086  1.0000
  C   C5221     1.0  0.59604  0.50041  0.60157  1.0000
  H   H6255     1.0  0.87333  0.97842  0.58929  1.0000
  H   H6256     1.0  0.79510  0.55055  0.60273  1.0000
  N   N348      1.0  0.51357  0.98866  0.73831  1.0000
  Fe  Fe702     1.0  0.92088  0.91759  0.66067  1.0000
  S   S1395     1.0  0.92892  0.94085  0.64304  1.0000
  S   S1396     1.0  0.91828  0.90890  0.68902  1.0000
  Fe  Fe703     1.0  0.92016  0.90238  0.63163  1.0000
  S   S1397     1.0  0.92855  0.92404  0.61176  1.0000
  S   S1398     1.0  0.91284  0.88066  0.62647  1.0000
  Fe  Fe704     1.0  0.94681  0.92251  0.62767  1.0000
  S   S1399     1.0  0.97490  0.92090  0.61689  1.0000
  Fe  Fe705     1.0  0.90975  0.94033  0.62869  1.0000
  S   S1400     1.0  0.89234  0.96307  0.61578  1.0000
  S   S1401     1.0  0.94005  0.89927  0.64616  1.0000
  S   S1402     1.0  0.90016  0.91863  0.64778  1.0000
  C   C5222     1.0  0.81926  0.57429  0.62475  1.0000
  H   H6257     1.0  0.51999  0.93711  0.69690  1.0000
  H   H6258     1.0  0.94948  0.91449  0.69956  1.0000
  H   H6259     1.0  0.53923  0.58135  0.71928  1.0000
  H   H6260     1.0  0.57114  0.55651  0.77770  1.0000
  H   H6261     1.0  0.60876  0.92458  0.58683  1.0000
  C   C5223     1.0  0.86941  0.49619  0.67317  1.0000
  H   H6262     1.0  0.97751  0.59517  0.75120  1.0000
  H   H6263     1.0  0.94031  0.89167  0.59902  1.0000
  H   H6264     1.0  0.49975  0.49369  0.73200  1.0000
  S   S1403     1.0  0.65833  0.62308  0.60065  1.0000
  H   H6265     1.0  0.96957  0.89979  0.70027  1.0000
  H   H6266     1.0  0.53695  0.97731  0.72276  1.0000
  S   S1404     1.0  0.56891  0.87057  0.59803  1.0000
  C   C5224     1.0  0.57469  0.93050  0.58943  1.0000
  C   C5225     1.0  0.50424  0.58575  0.72230  1.0000
  C   C5226     1.0  0.91993  0.50212  0.63858  1.0000
  S   S1405     1.0  0.92596  0.94229  0.77847  1.0000
  Fe  Fe706     1.0  0.56632  0.60435  0.69876  1.0000
  S   S1406     1.0  0.56105  0.58841  0.68399  1.0000
  S   S1407     1.0  0.56492  0.59288  0.72666  1.0000
  Fe  Fe707     1.0  0.56690  0.63457  0.66867  1.0000
  S   S1408     1.0  0.56097  0.62119  0.65206  1.0000
  S   S1409     1.0  0.57193  0.66080  0.65775  1.0000
  Fe  Fe708     1.0  0.54226  0.61169  0.67509  1.0000
  H   H6267     1.0  0.91610  0.98554  0.75470  1.0000
  Fe  Fe709     1.0  0.58049  0.59944  0.66243  1.0000
  S   S1410     1.0  0.59903  0.58503  0.64340  1.0000
  S   S1411     1.0  0.54635  0.62710  0.69096  1.0000
  S   S1412     1.0  0.58754  0.61331  0.67805  1.0000
  Fe  Fe710     1.0  0.54269  0.88400  0.60910  1.0000
  S   S1413     1.0  0.53673  0.89113  0.63437  1.0000
  S   S1414     1.0  0.52961  0.86565  0.60524  1.0000
  Fe  Fe711     1.0  0.55168  0.95588  0.69425  1.0000
  S   S1415     1.0  0.54143  0.93986  0.71943  1.0000
  Fe  Fe712     1.0  0.58100  0.96490  0.66505  1.0000
  S   S1416     1.0  0.60949  0.95721  0.65562  1.0000
  Fe  Fe713     1.0  0.54657  0.96831  0.65808  1.0000
  S   S1417     1.0  0.53466  0.96599  0.63796  1.0000
  S   S1418     1.0  0.57006  0.97249  0.69006  1.0000
  S   S1419     1.0  0.56442  0.94621  0.67044  1.0000
  C   C5227     1.0  0.99063  0.49775  0.70245  1.0000
  S   S1420     1.0  0.91318  0.61441  0.75242  1.0000
  N   N349      1.0  0.60817  0.66349  0.59259  1.0000
  H   H6268     1.0  0.54253  0.56665  0.75488  1.0000
  Fe  Fe714     1.0  0.91306  0.56958  0.68402  1.0000
  S   S1421     1.0  0.93724  0.55908  0.66713  1.0000
  S   S1422     1.0  0.91475  0.56076  0.71154  1.0000
  Fe  Fe715     1.0  0.89444  0.58301  0.65482  1.0000
  S   S1423     1.0  0.91717  0.57317  0.63599  1.0000
  S   S1424     1.0  0.87077  0.59729  0.64496  1.0000
  Fe  Fe716     1.0  0.92043  0.54993  0.65654  1.0000
  S   S1425     1.0  0.92735  0.52272  0.65446  1.0000
  Fe  Fe717     1.0  0.93173  0.58335  0.64827  1.0000
  S   S1426     1.0  0.95294  0.59527  0.63048  1.0000
  S   S1427     1.0  0.89643  0.55880  0.67455  1.0000
  S   S1428     1.0  0.90877  0.59497  0.66596  1.0000
  S   S1429     1.0  0.92690  0.67138  0.59489  1.0000
  C   C5228     1.0  0.94573  0.61649  0.62093  1.0000
  C   C5229     1.0  0.93138  0.62675  0.62914  1.0000
  C   C5230     1.0  0.92592  0.64374  0.62127  1.0000
  C   C5231     1.0  0.93456  0.65041  0.60506  1.0000
  C   C5232     1.0  0.94909  0.64021  0.59707  1.0000
  C   C5233     1.0  0.95463  0.62329  0.60492  1.0000
  H   H6269     1.0  0.92462  0.62171  0.64164  1.0000
  H   H6270     1.0  0.91481  0.65162  0.62768  1.0000
  H   H6271     1.0  0.82591  0.50148  0.61731  1.0000
  H   H6272     1.0  0.96589  0.61549  0.59863  1.0000
  C   C5234     1.0  0.86374  0.58073  0.60027  1.0000
  C   C5235     1.0  0.87461  0.56985  0.61068  1.0000
  C   C5236     1.0  0.87690  0.57484  0.62440  1.0000
  C   C5237     1.0  0.86811  0.59067  0.62792  1.0000
  C   C5238     1.0  0.85704  0.60145  0.61766  1.0000
  C   C5239     1.0  0.85496  0.59655  0.60380  1.0000
  H   H6273     1.0  0.88127  0.55752  0.60814  1.0000
  H   H6274     1.0  0.88524  0.56632  0.63240  1.0000
  H   H6275     1.0  0.85020  0.61370  0.62034  1.0000
  H   H6276     1.0  0.97929  0.53833  0.64074  1.0000
  C   C5240     1.0  0.92080  0.51866  0.63805  1.0000
  C   C5241     1.0  0.91682  0.53162  0.62431  1.0000
  C   C5242     1.0  0.91214  0.52799  0.61109  1.0000
  H   H6277     1.0  0.91747  0.54441  0.62374  1.0000
  H   H6278     1.0  0.90925  0.53800  0.60039  1.0000
  C   C5243     1.0  0.91492  0.59936  0.74067  1.0000
  C   C5244     1.0  0.92177  0.58214  0.74614  1.0000
  C   C5245     1.0  0.92184  0.57039  0.73700  1.0000
  C   C5246     1.0  0.91549  0.57585  0.72213  1.0000
  C   C5247     1.0  0.90925  0.59311  0.71634  1.0000
  C   C5248     1.0  0.90884  0.60480  0.72567  1.0000
  H   H6279     1.0  0.92686  0.57785  0.75746  1.0000
  H   H6280     1.0  0.92682  0.55705  0.74146  1.0000
  H   H6281     1.0  0.90431  0.59742  0.70490  1.0000
  H   H6282     1.0  0.90362  0.61812  0.72132  1.0000
  C   C5249     1.0  0.61709  0.96173  0.63362  1.0000
  H   H6283     1.0  0.54182  0.56308  0.67020  1.0000
  C   C5250     1.0  0.53619  0.91202  0.63504  1.0000
  C   C5251     1.0  0.53707  0.91537  0.65017  1.0000
  C   C5252     1.0  0.53686  0.93185  0.65110  1.0000
  C   C5253     1.0  0.53537  0.94516  0.63700  1.0000
  C   C5254     1.0  0.53414  0.94189  0.62195  1.0000
  C   C5255     1.0  0.53475  0.92532  0.62091  1.0000
  H   H6284     1.0  0.53809  0.90514  0.66117  1.0000
  H   H6285     1.0  0.53756  0.93427  0.66283  1.0000
  H   H6286     1.0  0.53281  0.95219  0.61106  1.0000
  H   H6287     1.0  0.53386  0.92293  0.60927  1.0000
  H   H6288     1.0  0.57001  0.95098  0.60962  1.0000
  H   H6289     1.0  0.92303  0.49208  0.64915  1.0000
  H   H6290     1.0  0.87302  0.51116  0.63076  1.0000
  H   H6291     1.0  0.53376  0.59685  0.64877  1.0000
  H   H6292     1.0  0.80283  0.52012  0.60339  1.0000
  C   C5256     1.0  0.54301  0.68965  0.61581  1.0000
  C   C5257     1.0  0.55744  0.69450  0.61683  1.0000
  C   C5258     1.0  0.56619  0.68572  0.62984  1.0000
  C   C5259     1.0  0.56067  0.67191  0.64172  1.0000
  C   C5260     1.0  0.54618  0.66713  0.64077  1.0000
  C   C5261     1.0  0.53731  0.67605  0.62791  1.0000
  H   H6293     1.0  0.56186  0.70502  0.60763  1.0000
  H   H6294     1.0  0.57731  0.68956  0.63062  1.0000
  H   H6295     1.0  0.54163  0.65672  0.65010  1.0000
  H   H6296     1.0  0.52608  0.67235  0.62729  1.0000
  C   C5262     1.0  0.87682  0.52370  0.66438  1.0000
  H   H6297     1.0  0.63141  0.54463  0.61453  1.0000
  H   H6298     1.0  0.64350  0.95192  0.63543  1.0000
  C   C5263     1.0  0.96202  0.59429  0.71839  1.0000
  C   C5264     1.0  0.52557  0.49270  0.73314  1.0000
  H   H6299     1.0  0.94983  0.59623  0.71498  1.0000
  C   C5265     1.0  0.50778  0.82234  0.61258  1.0000
  H   H6300     1.0  0.52437  0.58251  0.63163  1.0000
  C   C5266     1.0  0.52090  0.59465  0.65227  1.0000
  C   C5267     1.0  0.86910  0.49689  0.65648  1.0000
  H   H6301     1.0  0.96841  0.95150  0.67492  1.0000
  C   C5268     1.0  0.64272  0.61148  0.61266  1.0000
  C   C5269     1.0  0.63866  0.59945  0.60658  1.0000
  C   C5270     1.0  0.62541  0.59112  0.61617  1.0000
  C   C5271     1.0  0.61610  0.59493  0.63178  1.0000
  C   C5272     1.0  0.62033  0.60682  0.63785  1.0000
  C   C5273     1.0  0.63370  0.61490  0.62844  1.0000
  H   H6302     1.0  0.64574  0.59657  0.59455  1.0000
  H   H6303     1.0  0.62217  0.58195  0.61140  1.0000
  H   H6304     1.0  0.61344  0.60972  0.64988  1.0000
  H   H6305     1.0  0.63689  0.62404  0.63331  1.0000
  C   C5274     1.0  0.97308  0.67282  0.60206  1.0000
  C   C5275     1.0  0.61237  0.97440  0.60526  1.0000
  S   S1430     1.0  0.83262  0.94215  0.59811  1.0000
  C   C5276     1.0  0.82269  0.51498  0.61698  1.0000
  C   C5277     1.0  0.87625  0.52436  0.64778  1.0000
  H   H6306     1.0  0.57097  0.92462  0.60309  1.0000
  H   H6307     1.0  0.95491  0.51478  0.67686  1.0000
  C   C5278     1.0  0.56324  0.56464  0.64961  1.0000
  C   C5279     1.0  0.59415  0.65430  0.59693  1.0000
  C   C5280     1.0  0.93925  0.51676  0.72624  1.0000
  C   C5281     1.0  0.95841  0.55717  0.60868  1.0000
  H   H6308     1.0  0.88997  0.87949  0.66002  1.0000
  C   C5282     1.0  0.98435  0.93201  0.62539  1.0000
  H   H6309     1.0  0.51685  0.54512  0.75975  1.0000
  H   H6310     1.0  0.59225  0.97234  0.62762  1.0000
  H   H6311     1.0  0.97644  0.86206  0.61193  1.0000
  H   H6312     1.0  0.51112  0.53820  0.59449  1.0000
  C   C5283     1.0  0.97510  0.94702  0.63052  1.0000
  C   C5284     1.0  0.89916  0.62670  0.60807  1.0000
  H   H6313     1.0  0.91059  0.61740  0.61186  1.0000
  H   H6314     1.0  0.52248  0.51192  0.67471  1.0000
  H   H6315     1.0  0.96207  0.95209  0.62896  1.0000
  C   C5285     1.0  0.87544  0.95768  0.61090  1.0000
  C   C5286     1.0  0.86891  0.94361  0.62082  1.0000
  C   C5287     1.0  0.85557  0.93926  0.61689  1.0000
  H   H6316     1.0  0.87384  0.93625  0.63177  1.0000
  H   H6317     1.0  0.85053  0.92845  0.62475  1.0000
  C   C5288     1.0  0.91089  0.51150  0.61182  1.0000
  C   C5289     1.0  0.58100  0.61766  0.76019  1.0000
  C   C5290     1.0  0.58750  0.62094  0.74266  1.0000
  C   C5291     1.0  0.58222  0.61382  0.73216  1.0000
  C   C5292     1.0  0.57033  0.60349  0.73916  1.0000
  C   C5293     1.0  0.56350  0.60054  0.75664  1.0000
  H   H6318     1.0  0.94874  0.94464  0.68540  1.0000
  H   H6319     1.0  0.59697  0.62867  0.73728  1.0000
  H   H6320     1.0  0.58777  0.61580  0.71877  1.0000
  H   H6321     1.0  0.92905  0.51184  0.69184  1.0000
  C   C5294     1.0  0.59710  0.63667  0.60409  1.0000
  C   C5295     1.0  0.55842  0.94277  0.76575  1.0000
  C   C5296     1.0  0.54397  0.93632  0.76778  1.0000
  C   C5297     1.0  0.53898  0.93520  0.75350  1.0000
  C   C5298     1.0  0.54831  0.94070  0.73716  1.0000
  C   C5299     1.0  0.56270  0.94714  0.73519  1.0000
  C   C5300     1.0  0.56775  0.94814  0.74943  1.0000
  H   H6322     1.0  0.93234  0.53097  0.69532  1.0000
  H   H6323     1.0  0.52776  0.93030  0.75508  1.0000
  H   H6324     1.0  0.57017  0.95109  0.72273  1.0000
  H   H6325     1.0  0.57898  0.95306  0.74779  1.0000
  C   C5301     1.0  0.90917  0.94429  0.72489  1.0000
  C   C5302     1.0  0.91015  0.92692  0.73114  1.0000
  C   C5303     1.0  0.91270  0.91627  0.71998  1.0000
  C   C5304     1.0  0.91424  0.92291  0.70254  1.0000
  C   C5305     1.0  0.91319  0.94028  0.69627  1.0000
  C   C5306     1.0  0.91070  0.95093  0.70743  1.0000
  H   H6326     1.0  0.90909  0.92169  0.74455  1.0000
  H   H6327     1.0  0.91363  0.90281  0.72490  1.0000
  H   H6328     1.0  0.91444  0.94550  0.68285  1.0000
  H   H6329     1.0  0.91002  0.96437  0.70254  1.0000
  H   H6330     1.0  0.89007  0.60558  0.59582  1.0000
  H   H6331     1.0  0.51512  0.54894  0.65497  1.0000
  C   C5307     1.0  0.85521  0.96290  0.59285  1.0000
  H   H6332     1.0  0.55158  0.65984  0.59728  1.0000
  H   H6333     1.0  0.53591  0.78499  0.62189  1.0000
  C   C5308     1.0  0.57424  0.55748  0.63644  1.0000
  H   H6334     1.0  0.50954  0.63667  0.61848  1.0000
  H   H6335     1.0  0.78835  0.56539  0.63791  1.0000
  H   H6336     1.0  0.50698  0.95193  0.67267  1.0000
  C   C5309     1.0  0.98666  0.55816  0.60944  1.0000
  C   C5310     1.0  0.97800  0.59370  0.73871  1.0000
  H   H6337     1.0  0.88245  0.91423  0.68424  1.0000
  C   C5311     1.0  0.95985  0.50613  0.70259  1.0000
  C   C5312     1.0  0.54757  0.54169  0.65805  1.0000
  C   C5313     1.0  0.88169  0.65845  0.58607  1.0000
  C   C5314     1.0  0.49868  0.58436  0.64682  1.0000
  H   H6338     1.0  0.49901  0.62012  0.63099  1.0000
  C   C5315     1.0  0.80967  0.52553  0.60916  1.0000
  C   C5316     1.0  0.61052  0.55276  0.75167  1.0000
  C   C5317     1.0  0.56787  0.66262  0.75177  1.0000
  C   C5318     1.0  0.51685  0.54544  0.66826  1.0000
  N   N350      1.0  0.97350  0.54767  0.61608  1.0000
  C   C5319     1.0  0.56945  0.51998  0.59685  1.0000
  H   H6339     1.0  0.83486  0.54344  0.63021  1.0000
  C   C5320     1.0  0.56041  0.51117  0.61171  1.0000
  H   H6340     1.0  0.53583  0.56277  0.71484  1.0000
  C   C5321     1.0  0.57205  0.54263  0.63378  1.0000
  C   C5322     1.0  0.93772  0.49120  0.71940  1.0000
  H   H6341     1.0  0.98453  0.64616  0.58697  1.0000
  C   C5323     1.0  0.97300  0.92935  0.70396  1.0000
  H   H6342     1.0  0.58054  0.53711  0.62344  1.0000
  C   C5324     1.0  0.52950  0.57309  0.75260  1.0000
  H   H6343     1.0  0.52192  0.49564  0.74547  1.0000
  H   H6344     1.0  0.53668  0.93223  0.78030  1.0000
  H   H6345     1.0  0.56501  0.57623  0.65155  1.0000
  C   C5325     1.0  0.97422  0.93758  0.73411  1.0000
  H   H6346     1.0  0.82956  0.91092  0.66680  1.0000
  H   H6347     1.0  0.90129  0.49591  0.68898  1.0000
  H   H6348     1.0  0.50273  0.54535  0.61385  1.0000
  H   H6349     1.0  0.82469  0.57542  0.59159  1.0000
  H   H6350     1.0  0.60394  0.66560  0.61840  1.0000
  S   S1431     1.0  0.90433  0.50737  0.59547  1.0000
  H   H6351     1.0  0.51427  0.58779  0.71117  1.0000
  C   C5326     1.0  0.52476  0.79377  0.61791  1.0000
  H   H6352     1.0  0.67003  0.54568  0.59983  1.0000
  S   S1432     1.0  0.56646  0.82601  0.59515  1.0000
  H   H6353     1.0  0.62400  0.98634  0.65195  1.0000
  C   C5327     1.0  0.90056  0.61159  0.58718  1.0000
  C   C5328     1.0  0.52165  0.81077  0.61847  1.0000
  H   H6354     1.0  0.86826  0.90501  0.60290  1.0000
  C   C5329     1.0  0.50123  0.53687  0.60644  1.0000
  N   N351      1.0  0.97182  0.92544  0.68823  1.0000
  H   H6355     1.0  0.57710  0.56590  0.75563  1.0000
  H   H6356     1.0  0.99769  0.55277  0.61575  1.0000
  C   C5330     1.0  0.86508  0.52453  0.70074  1.0000
  C   C5331     1.0  0.55751  0.81437  0.58668  1.0000
  S   S1433     1.0  0.61819  0.49312  0.59520  1.0000
  C   C5332     1.0  0.85567  0.61809  0.78159  1.0000
  H   H6357     1.0  0.90452  0.94053  0.58618  1.0000
  C   C5333     1.0  0.92935  0.51833  0.70162  1.0000
  N   N352      1.0  0.87724  0.88920  0.69156  1.0000
  H   H6358     1.0  0.51401  0.96326  0.73686  1.0000
  C   C5334     1.0  0.96202  0.94058  0.67836  1.0000
  C   C5335     1.0  0.99017  0.49747  0.60560  1.0000
  C   C5336     1.0  0.50492  0.97562  0.73771  1.0000
  S   S1434     1.0  0.51467  0.61160  0.67787  1.0000
  H   H6359     1.0  0.60170  0.68169  0.73714  1.0000
  H   H6360     1.0  0.81544  0.58822  0.62403  1.0000
  C   C5337     1.0  0.97305  0.50360  0.61247  1.0000
  C   C5338     1.0  0.58093  0.66991  0.75199  1.0000
  C   C5339     1.0  0.64060  0.53485  0.60794  1.0000
  N   N353      1.0  0.99102  0.66316  0.59836  1.0000
  H   H6361     1.0  0.60954  0.62971  0.60635  1.0000
  H   H6362     1.0  0.96128  0.55764  0.59487  1.0000
  H   H6363     1.0  0.84646  0.60500  0.59600  1.0000
  H   H6364     1.0  0.64998  0.52764  0.61599  1.0000
  H   H6365     1.0  0.53047  0.81511  0.62289  1.0000
  H   H6366     1.0  0.89899  0.63887  0.61100  1.0000
  C   C5340     1.0  0.63002  0.97062  0.59864  1.0000
  N   N354      1.0  0.63280  0.90718  0.63037  1.0000
  C   C5341     1.0  0.63375  0.91228  0.64562  1.0000
  C   C5342     1.0  0.64694  0.89215  0.62798  1.0000
  C   C5343     1.0  0.63580  0.92119  0.61559  1.0000
  C   C5344     1.0  0.61596  0.90354  0.63167  1.0000
  C   C5345     1.0  0.61403  0.89420  0.62083  1.0000
  C   C5346     1.0  0.60080  0.91023  0.64272  1.0000
  C   C5347     1.0  0.59820  0.89085  0.62171  1.0000
  C   C5348     1.0  0.58501  0.90685  0.64346  1.0000
  C   C5349     1.0  0.58375  0.89700  0.63313  1.0000
  H   H6367     1.0  0.63016  0.90277  0.65734  1.0000
  H   H6368     1.0  0.64682  0.91376  0.64503  1.0000
  H   H6369     1.0  0.62534  0.92484  0.64696  1.0000
  H   H6370     1.0  0.64952  0.88937  0.61522  1.0000
  H   H6371     1.0  0.64411  0.88065  0.63763  1.0000
  H   H6372     1.0  0.65937  0.89409  0.62886  1.0000
  H   H6373     1.0  0.62545  0.93270  0.61673  1.0000
  H   H6374     1.0  0.64816  0.92471  0.61422  1.0000
  H   H6375     1.0  0.63629  0.91775  0.60358  1.0000
  H   H6376     1.0  0.62472  0.88954  0.61144  1.0000
  H   H6377     1.0  0.60078  0.91813  0.65093  1.0000
  H   H6378     1.0  0.59711  0.88341  0.61349  1.0000
  H   H6379     1.0  0.96695  0.89911  0.77486  1.0000
  H   H6380     1.0  0.57155  0.89417  0.63394  1.0000
  C   C5350     1.0  0.97946  0.53056  0.61227  1.0000
  C   C5351     1.0  0.56485  0.79715  0.58706  1.0000
  H   H6381     1.0  0.53451  0.54145  0.69180  1.0000
  H   H6382     1.0  0.90301  0.88784  0.67660  1.0000
  H   H6383     1.0  0.90186  0.87881  0.69848  1.0000
  C   C5352     1.0  0.86883  0.49437  0.70772  1.0000
  H   H6384     1.0  0.60843  0.94322  0.59349  1.0000
  H   H6385     1.0  0.88759  0.62223  0.61643  1.0000
  H   H6386     1.0  0.62439  0.66926  0.60545  1.0000
  H   H6387     1.0  0.88360  0.90382  0.70561  1.0000
  H   H6388     1.0  0.92550  0.51993  0.73260  1.0000
  C   C5353     1.0  0.87258  0.51091  0.64380  1.0000
  C   C5354     1.0  0.53566  0.52987  0.68731  1.0000
  H   H6389     1.0  0.85142  0.52698  0.70001  1.0000
  H   H6390     1.0  0.94576  0.50874  0.73653  1.0000
  H   H6391     1.0  0.58223  0.96575  0.59576  1.0000
  H   H6392     1.0  0.85495  0.88485  0.71126  1.0000
  H   H6393     1.0  0.98743  0.91769  0.66534  1.0000
  S   S1435     1.0  0.93862  0.62231  0.78109  1.0000
  H   H6394     1.0  0.50367  0.93840  0.72598  1.0000
  H   H6395     1.0  0.87973  0.60539  0.76944  1.0000
  H   H6396     1.0  0.52579  0.52314  0.69624  1.0000
  C   C5355     1.0  0.53307  0.51763  0.66582  1.0000
  H   H6397     1.0  0.78199  0.57112  0.61797  1.0000
  H   H6398     1.0  0.55926  0.65601  0.69329  1.0000
  H   H6399     1.0  0.94375  0.52889  0.72152  1.0000
  H   H6400     1.0  0.78676  0.58673  0.62548  1.0000
  H   H6401     1.0  0.53853  0.54064  0.74902  1.0000
  C   C5356     1.0  0.91472  0.49858  0.62563  1.0000
  C   C5357     1.0  0.52550  0.54777  0.74716  1.0000
  C   C5358     1.0  0.86841  0.96746  0.59699  1.0000
  H   H6402     1.0  0.58783  0.57296  0.78321  1.0000
  H   H6403     1.0  0.50585  0.66587  0.61447  1.0000
  C   C5359     1.0  0.58404  0.62771  0.60874  1.0000
  C   C5360     1.0  0.52118  0.98290  0.75348  1.0000
  S   S1436     1.0  0.53818  0.51831  0.61785  1.0000
  H   H6404     1.0  0.55426  0.59257  0.76214  1.0000
  C   C5361     1.0  0.92298  0.87467  0.60706  1.0000
  H   H6405     1.0  0.89831  0.51819  0.68673  1.0000
  C   C5362     1.0  0.57481  0.95647  0.59602  1.0000
  H   H6406     1.0  0.52057  0.57154  0.76516  1.0000
  H   H6407     1.0  0.99423  0.90140  0.59007  1.0000
  H   H6408     1.0  0.98102  0.61471  0.63954  1.0000
  C   C5363     1.0  0.57734  0.66236  0.59439  1.0000
  H   H6409     1.0  0.96755  0.84850  0.59486  1.0000
  C   C5364     1.0  0.50932  0.60032  0.66615  1.0000
  H   H6410     1.0  0.85531  0.49461  0.70799  1.0000
  C   C5365     1.0  0.60588  0.96958  0.62267  1.0000
  C   C5366     1.0  0.49938  0.95308  0.68512  1.0000
  H   H6411     1.0  0.57981  0.54339  0.76257  1.0000
  H   H6412     1.0  0.94672  0.94166  0.73978  1.0000
  C   C5367     1.0  0.98512  0.63720  0.62051  1.0000
  S   S1437     1.0  0.52565  0.50129  0.77575  1.0000
  N   N355      1.0  0.53360  0.53371  0.66960  1.0000
  H   H6413     1.0  0.51505  0.90446  0.77656  1.0000
  H   H6414     1.0  0.51654  0.77498  0.61099  1.0000
  C   C5368     1.0  0.99470  0.65007  0.61354  1.0000
  C   C5369     1.0  0.60546  0.52225  0.77832  1.0000
  C   C5370     1.0  0.55896  0.53479  0.64439  1.0000
  H   H6415     1.0  0.89564  0.50458  0.70752  1.0000
  C   C5371     1.0  0.86838  0.60363  0.77915  1.0000
  C   C5372     1.0  0.55008  0.55693  0.66026  1.0000
  H   H6416     1.0  0.99673  0.90883  0.68353  1.0000
  C   C5373     1.0  0.58707  0.49183  0.61663  1.0000
  H   H6417     1.0  0.84411  0.90587  0.68987  1.0000
  C   C5374     1.0  0.51557  0.58661  0.64259  1.0000
  H   H6418     1.0  0.87490  0.87557  0.71754  1.0000
  H   H6419     1.0  0.53128  0.97112  0.75288  1.0000
  C   C5375     1.0  0.96287  0.91129  0.69244  1.0000
  H   H6420     1.0  0.54769  0.66402  0.71160  1.0000
  H   H6421     1.0  0.88073  0.53401  0.66657  1.0000
  C   C5376     1.0  0.96437  0.51011  0.68459  1.0000
  H   H6422     1.0  0.49888  0.97958  0.72657  1.0000
  C   C5377     1.0  0.92535  0.85726  0.58736  1.0000
  H   H6423     1.0  0.94701  0.55152  0.61464  1.0000
  H   H6424     1.0  0.91266  0.60269  0.58978  1.0000
  N   N356      1.0  0.58517  0.94320  0.58658  1.0000
  H   H6425     1.0  0.88624  0.58091  0.75911  1.0000
  C   C5378     1.0  0.97922  0.85328  0.58992  1.0000
  S   S1438     1.0  0.56394  0.98665  0.65120  1.0000
  H   H6426     1.0  0.88557  0.88673  0.60225  1.0000
  H   H6427     1.0  0.54517  0.50801  0.66692  1.0000
  C   C5379     1.0  0.60044  0.93441  0.59387  1.0000
  H   H6428     1.0  0.95046  0.59976  0.74299  1.0000
  H   H6429     1.0  0.56250  0.49033  0.63318  1.0000
  H   H6430     1.0  0.99138  0.55950  0.59555  1.0000
  N   N357      1.0  0.80901  0.56864  0.61622  1.0000
  C   C5380     1.0  0.79077  0.57310  0.62478  1.0000
  C   C5381     1.0  0.58720  0.51451  0.59170  1.0000
  H   H6431     1.0  0.54842  0.52156  0.68865  1.0000
  C   C5382     1.0  0.81406  0.55025  0.61644  1.0000
  H   H6432     1.0  0.83311  0.57167  0.61866  1.0000
  C   C5383     1.0  0.80538  0.54290  0.60886  1.0000
  C   C5384     1.0  0.98152  0.50818  0.67596  1.0000
  S   S1439     1.0  0.49886  0.50750  0.65387  1.0000
  H   H6433     1.0  0.56008  0.65732  0.76364  1.0000
  H   H6434     1.0  0.80302  0.57593  0.59136  1.0000
  C   C5385     1.0  0.58083  0.55497  0.76585  1.0000
  H   H6435     1.0  0.94541  0.93465  0.71408  1.0000
  H   H6436     1.0  0.98073  0.88545  0.61813  1.0000
  H   H6437     1.0  0.96991  0.68308  0.59108  1.0000
  H   H6438     1.0  0.84158  0.51341  0.63062  1.0000
  C   C5386     1.0  0.87457  0.89434  0.59639  1.0000
  H   H6439     1.0  0.59673  0.92811  0.60736  1.0000
  N   N358      1.0  0.94184  0.50814  0.71219  1.0000
  Fe  Fe718     1.0  0.92204  0.60739  0.77703  1.0000
  H   H6440     1.0  0.50340  0.90140  0.60464  1.0000
  C   C5387     1.0  0.88379  0.64113  0.58591  1.0000
  Fe  Fe719     1.0  0.52364  0.49939  0.63616  1.0000
  C   C5388     1.0  0.99144  0.90622  0.76555  1.0000
  N   N359      1.0  0.57435  0.66546  0.70436  1.0000
  C   C5389     1.0  0.59057  0.65538  0.69611  1.0000
  C   C5390     1.0  0.56038  0.65690  0.70587  1.0000
  C   C5391     1.0  0.57067  0.68247  0.69320  1.0000
  C   C5392     1.0  0.57611  0.66721  0.72080  1.0000
  C   C5393     1.0  0.58909  0.67489  0.72147  1.0000
  C   C5394     1.0  0.56544  0.66119  0.73647  1.0000
  C   C5395     1.0  0.50749  0.57516  0.73797  1.0000
  C   C5396     1.0  0.56880  0.60762  0.76713  1.0000
  C   C5397     1.0  0.97494  0.90711  0.77550  1.0000
  H   H6441     1.0  0.60134  0.66198  0.69244  1.0000
  H   H6442     1.0  0.59443  0.64299  0.70464  1.0000
  H   H6443     1.0  0.58940  0.65270  0.68428  1.0000
  C   C5398     1.0  0.96238  0.59622  0.73418  1.0000
  H   H6444     1.0  0.56268  0.64369  0.71347  1.0000
  H   H6445     1.0  0.62091  0.64833  0.61273  1.0000
  H   H6446     1.0  0.58129  0.68920  0.69006  1.0000
  H   H6447     1.0  0.56873  0.68166  0.68087  1.0000
  H   H6448     1.0  0.55887  0.69061  0.69922  1.0000
  H   H6449     1.0  0.59771  0.67972  0.71010  1.0000
  H   H6450     1.0  0.55546  0.65483  0.73738  1.0000
  C   C5399     1.0  0.89554  0.88043  0.68787  1.0000
  C   C5400     1.0  0.96850  0.54590  0.63464  1.0000
  C   C5401     1.0  0.82742  0.53912  0.62419  1.0000
  C   C5402     1.0  0.86843  0.87853  0.70677  1.0000
  C   C5403     1.0  0.51301  0.49164  0.72545  1.0000
  C   C5404     1.0  0.85121  0.89805  0.65096  1.0000
  C   C5405     1.0  0.87651  0.90557  0.69555  1.0000
  S   S1440     1.0  0.56521  0.94451  0.78315  1.0000
  H   H6451     1.0  0.50458  0.89255  0.62628  1.0000
  C   C5406     1.0  0.99304  0.58743  0.71137  1.0000
  H   H6452     1.0  0.95760  0.53943  0.64038  1.0000
  H   H6453     1.0  0.89711  0.86755  0.68572  1.0000
  C   C5407     1.0  0.61459  0.66161  0.60795  1.0000
  H   H6454     1.0  0.95432  0.57045  0.61052  1.0000
  H   H6455     1.0  0.97578  0.96740  0.64117  1.0000
  H   H6456     1.0  0.98477  0.51138  0.66225  1.0000
  H   H6457     1.0  0.58450  0.56349  0.62834  1.0000
  H   H6458     1.0  0.92448  0.49207  0.72726  1.0000
  N   N360      1.0  0.59819  0.55392  0.76805  1.0000
  H   H6459     1.0  0.81766  0.56806  0.63841  1.0000
  H   H6460     1.0  0.58311  0.67035  0.76398  1.0000
  H   H6461     1.0  0.96088  0.93814  0.66640  1.0000
  H   H6462     1.0  0.56269  0.53102  0.58926  1.0000
  S   S1441     1.0  0.53210  0.69999  0.59935  1.0000
  S   S1442     1.0  0.55863  0.49234  0.73366  1.0000
  C   C5408     1.0  0.85125  0.90109  0.67872  1.0000
  C   C5409     1.0  0.98882  0.92902  0.70766  1.0000
  C   C5410     1.0  0.56436  0.65328  0.59903  1.0000
  C   C5411     1.0  0.56767  0.63602  0.60628  1.0000
  H   H6463     1.0  0.99468  0.55943  0.64538  1.0000
  C   C5412     1.0  0.98289  0.95573  0.63729  1.0000
  H   H6464     1.0  0.86826  0.86630  0.70413  1.0000
  H   H6465     1.0  0.50183  0.69274  0.59413  1.0000
  S   S1443     1.0  0.56519  0.50504  0.77199  1.0000
  H   H6466     1.0  0.86327  0.91232  0.70016  1.0000
  H   H6467     1.0  0.50003  0.65157  0.64167  1.0000
  H   H6468     1.0  0.86500  0.88632  0.59943  1.0000
  C   C5413     1.0  0.81117  0.57842  0.59850  1.0000
  H   H6469     1.0  0.87941  0.53504  0.63781  1.0000
  H   H6470     1.0  0.60385  0.52037  0.76672  1.0000
  H   H6471     1.0  0.55804  0.52336  0.64153  1.0000
  H   H6472     1.0  0.50594  0.53966  0.67629  1.0000
  C   C5414     1.0  0.87680  0.88630  0.66230  1.0000
  H   H6473     1.0  0.57601  0.79121  0.59247  1.0000
  H   H6474     1.0  0.52182  0.54214  0.73851  1.0000
  C   C5415     1.0  0.51385  0.78817  0.61175  1.0000
  S   S1444     1.0  0.58860  0.62596  0.77310  1.0000
  C   C5416     1.0  0.91777  0.86213  0.60285  1.0000
  H   H6475     1.0  0.91608  0.52078  0.70931  1.0000
  S   S1445     1.0  0.53223  0.97648  0.68227  1.0000
  S   S1446     1.0  0.88809  0.96780  0.78236  1.0000
  H   H6476     1.0  0.90787  0.85611  0.61162  1.0000
  C   C5417     1.0  0.98453  0.86118  0.59962  1.0000
  H   H6477     1.0  0.84460  0.90033  0.64082  1.0000
  H   H6478     1.0  0.87488  0.88482  0.63779  1.0000
  C   C5418     1.0  0.99385  0.58936  0.72742  1.0000
  H   H6479     1.0  0.60974  0.54236  0.74633  1.0000
  N   N361      1.0  0.89931  0.62863  0.59001  1.0000
  C   C5419     1.0  0.86859  0.89222  0.67744  1.0000
  Fe  Fe720     1.0  0.55552  0.85405  0.59160  1.0000
  H   H6480     1.0  0.87041  0.56826  0.76692  1.0000
  H   H6481     1.0  0.88095  0.92677  0.59062  1.0000
  H   H6482     1.0  0.50414  0.95118  0.77536  1.0000
  C   C5420     1.0  0.84276  0.90399  0.66562  1.0000
  Fe  Fe721     1.0  0.55198  0.49137  0.76167  1.0000
  C   C5421     1.0  0.88250  0.56988  0.76894  1.0000
  C   C5422     1.0  0.96777  0.51981  0.61593  1.0000
  H   H6483     1.0  0.96473  0.55846  0.63814  1.0000
  H   H6484     1.0  0.97111  0.49556  0.72482  1.0000
  H   H6485     1.0  0.56344  0.96370  0.59062  1.0000
  H   H6486     1.0  0.96378  0.49578  0.61523  1.0000
  C   C5423     1.0  0.49987  0.79959  0.60594  1.0000
  H   H6487     1.0  0.55128  0.56101  0.72686  1.0000
  H   H6488     1.0  0.50654  0.51271  0.59171  1.0000
  H   H6489     1.0  0.90091  0.58568  0.77890  1.0000
  N   N362      1.0  0.87499  0.50878  0.69493  1.0000
  C   C5424     1.0  0.86819  0.88928  0.64929  1.0000
  H   H6490     1.0  0.86544  0.52375  0.71407  1.0000
  H   H6491     1.0  0.50428  0.52379  0.61406  1.0000
  H   H6492     1.0  0.97463  0.94083  0.74557  1.0000
  N   N363      1.0  0.52492  0.56615  0.74040  1.0000
  H   H6493     1.0  0.61073  0.56962  0.77497  1.0000
  H   H6494     1.0  0.87016  0.53588  0.69322  1.0000
  C   C5425     1.0  0.99460  0.50221  0.68486  1.0000
  C   C5426     1.0  0.97731  0.58987  0.70703  1.0000
  H   H6495     1.0  0.62391  0.55069  0.75311  1.0000
  C   C5427     1.0  0.97354  0.49947  0.71121  1.0000
  H   H6496     1.0  0.59624  0.58103  0.76152  1.0000
  C   C5428     1.0  0.95790  0.93396  0.71606  1.0000
  H   H6497     1.0  0.58660  0.61431  0.61457  1.0000
  H   H6498     1.0  0.65216  0.56307  0.60021  1.0000
  C   C5429     1.0  0.83154  0.52175  0.62445  1.0000
  C   C5430     1.0  0.64120  0.96218  0.60950  1.0000
  C   C5431     1.0  0.56926  0.49707  0.62159  1.0000
  H   H6499     1.0  0.52936  0.58687  0.74786  1.0000
  H   H6500     1.0  0.60372  0.98116  0.59690  1.0000
  H   H6501     1.0  0.57365  0.91183  0.65216  1.0000
  H   H6502     1.0  0.56364  0.60510  0.78061  1.0000
  H   H6503     1.0  0.53083  0.51973  0.65291  1.0000
  C   C5432     1.0  0.89332  0.50686  0.69460  1.0000
  C   C5433     1.0  0.53832  0.56787  0.72460  1.0000
  H   H6504     1.0  0.99593  0.93077  0.67291  1.0000
  H   H6505     1.0  0.86947  0.49446  0.72075  1.0000
  C   C5434     1.0  0.99556  0.92832  0.77719  1.0000
  H   H6506     1.0  0.60803  0.56453  0.74180  1.0000
  H   H6507     1.0  0.97482  0.63697  0.61517  1.0000
  C   C5435     1.0  0.99384  0.87828  0.61964  1.0000
  S   S1447     1.0  0.89152  0.92727  0.78437  1.0000
  C   C5436     1.0  0.99689  0.52376  0.60562  1.0000
  C   C5437     1.0  0.60273  0.53875  0.78125  1.0000
  H   H6508     1.0  0.99298  0.86570  0.62818  1.0000
  H   H6509     1.0  0.51159  0.98000  0.76536  1.0000
  C   C5438     1.0  0.87327  0.50964  0.67765  1.0000
  H   H6510     1.0  0.50204  0.91514  0.61798  1.0000
  H   H6511     1.0  0.97068  0.67868  0.61309  1.0000
  C   C5439     1.0  0.59827  0.57000  0.77220  1.0000
  C   C5440     1.0  0.98933  0.93306  0.72255  1.0000
  H   H6512     1.0  0.89271  0.55860  0.76630  1.0000
  H   H6513     1.0  0.55751  0.62910  0.61017  1.0000
  H   H6514     1.0  0.57373  0.67574  0.58911  1.0000
  C   C5441     1.0  0.50693  0.94442  0.69891  1.0000
  H   H6515     1.0  0.62612  0.87668  0.58928  1.0000
  C   C5442     1.0  0.93606  0.88212  0.59581  1.0000
  C   C5443     1.0  0.65989  0.55335  0.59284  1.0000
  C   C5444     1.0  0.98874  0.92042  0.67711  1.0000
  H   H6516     1.0  0.85416  0.53685  0.59043  1.0000
  C   C5445     1.0  0.98853  0.62443  0.63455  1.0000
  H   H6517     1.0  0.89126  0.66286  0.58921  1.0000
  N   N364      1.0  0.64920  0.54273  0.59083  1.0000
  H   H6518     1.0  0.85759  0.63042  0.77403  1.0000
  C   C5446     1.0  0.54275  0.49018  0.72471  1.0000
  H   H6519     1.0  0.96360  0.66474  0.60505  1.0000
  H   H6520     1.0  0.63327  0.52574  0.60749  1.0000
  H   H6521     1.0  0.99634  0.89749  0.75708  1.0000
  H   H6522     1.0  0.50642  0.83534  0.61309  1.0000
  H   H6523     1.0  0.59268  0.68831  0.59491  1.0000
  C   C5447     1.0  0.60287  0.68192  0.58562  1.0000
  H   H6524     1.0  0.67191  0.52260  0.58871  1.0000
  S   S1448     1.0  0.98133  0.59193  0.78461  1.0000
  H   H6525     1.0  0.99831  0.88547  0.62633  1.0000
  S   S1449     1.0  0.53918  0.90270  0.58500  1.0000
  H   H6526     1.0  0.95636  0.64542  0.58502  1.0000
  H   H6527     1.0  0.90726  0.56343  0.78644  1.0000
  H   H6528     1.0  0.83065  0.60638  0.86625  1.0000
  Fe  Fe722     1.0  0.91434  0.79818  0.90112  1.0000
  S   S1450     1.0  0.91819  0.81398  0.91691  1.0000
  S   S1451     1.0  0.92344  0.76971  0.90648  1.0000
  Fe  Fe723     1.0  0.90077  0.82908  0.87585  1.0000
  S   S1452     1.0  0.90321  0.84729  0.88959  1.0000
  Fe  Fe724     1.0  0.92863  0.83009  0.89209  1.0000
  S   S1453     1.0  0.95210  0.84128  0.88292  1.0000
  Fe  Fe725     1.0  0.89235  0.82971  0.91286  1.0000
  S   S1454     1.0  0.87223  0.84089  0.93329  1.0000
  S   S1455     1.0  0.92692  0.81301  0.87661  1.0000
  S   S1456     1.0  0.88777  0.81267  0.89889  1.0000
  S   S1457     1.0  0.85005  0.94932  0.81306  1.0000
  S   S1458     1.0  0.89913  0.93950  0.81551  1.0000
  Fe  Fe726     1.0  0.77775  0.92351  0.93935  1.0000
  S   S1459     1.0  0.76441  0.90842  0.93103  1.0000
  H   H6529     1.0  0.50667  0.64978  0.83840  1.0000
  Fe  Fe727     1.0  0.80217  0.93022  0.90527  1.0000
  S   S1460     1.0  0.79055  0.91615  0.89383  1.0000
  S   S1461     1.0  0.82627  0.94012  0.89261  1.0000
  Fe  Fe728     1.0  0.76517  0.92902  0.90752  1.0000
  S   S1462     1.0  0.74294  0.93974  0.89439  1.0000
  Fe  Fe729     1.0  0.79070  0.89690  0.91820  1.0000
  S   S1463     1.0  0.79889  0.86965  0.91620  1.0000
  S   S1464     1.0  0.77679  0.94508  0.91671  1.0000
  S   S1465     1.0  0.80414  0.90997  0.92881  1.0000
  C   C5448     1.0  0.76542  0.55790  0.87322  1.0000
  C   C5449     1.0  0.67416  0.50488  0.97910  1.0000
  C   C5450     1.0  0.91552  0.74541  0.85412  1.0000
  C   C5451     1.0  0.77117  0.49487  0.92274  1.0000
  Fe  Fe730     1.0  0.54004  0.91064  0.83999  1.0000
  S   S1466     1.0  0.54349  0.88228  0.84726  1.0000
  Fe  Fe731     1.0  0.54591  0.94287  0.84513  1.0000
  S   S1467     1.0  0.55290  0.95578  0.86174  1.0000
  S   S1468     1.0  0.56255  0.92318  0.83092  1.0000
  Fe  Fe732     1.0  0.64599  0.94160  0.92716  1.0000
  S   S1469     1.0  0.62127  0.94991  0.94498  1.0000
  S   S1470     1.0  0.66921  0.93266  0.93902  1.0000
  Fe  Fe733     1.0  0.62776  0.94612  0.89878  1.0000
  S   S1471     1.0  0.60218  0.95508  0.91450  1.0000
  S   S1472     1.0  0.62813  0.94215  0.87320  1.0000
  Fe  Fe734     1.0  0.61545  0.97040  0.92257  1.0000
  C   C5452     1.0  0.69401  0.50927  0.94550  1.0000
  Fe  Fe735     1.0  0.61058  0.93370  0.93499  1.0000
  S   S1473     1.0  0.59206  0.91719  0.95094  1.0000
  S   S1474     1.0  0.64075  0.96319  0.90515  1.0000
  S   S1475     1.0  0.63570  0.92371  0.91900  1.0000
  Fe  Fe736     1.0  0.56356  0.80336  0.94397  1.0000
  S   S1476     1.0  0.57412  0.77590  0.94249  1.0000
  Fe  Fe737     1.0  0.57302  0.83769  0.93780  1.0000
  S   S1477     1.0  0.54680  0.84953  0.95054  1.0000
  S   S1478     1.0  0.59336  0.85288  0.92469  1.0000
  Fe  Fe738     1.0  0.54867  0.82508  0.96985  1.0000
  Fe  Fe739     1.0  0.53755  0.83612  0.93630  1.0000
  S   S1479     1.0  0.57566  0.81418  0.95827  1.0000
  S   S1480     1.0  0.56372  0.82582  0.92208  1.0000
  H   H6530     1.0  0.68615  0.92724  0.97338  1.0000
  H   H6531     1.0  0.95570  0.91907  0.79395  1.0000
  N   N365      1.0  0.88029  0.57222  0.78630  1.0000
  Fe  Fe740     1.0  0.57530  0.58344  0.82712  1.0000
  S   S1481     1.0  0.59986  0.58871  0.81006  1.0000
  S   S1482     1.0  0.57218  0.55685  0.83202  1.0000
  Fe  Fe741     1.0  0.56477  0.61776  0.83637  1.0000
  S   S1483     1.0  0.58862  0.62602  0.81998  1.0000
  S   S1484     1.0  0.54361  0.63224  0.85353  1.0000
  Fe  Fe742     1.0  0.58402  0.61420  0.80102  1.0000
  Fe  Fe743     1.0  0.60208  0.59970  0.83057  1.0000
  S   S1485     1.0  0.62611  0.58995  0.84073  1.0000
  S   S1486     1.0  0.55899  0.60804  0.81659  1.0000
  S   S1487     1.0  0.57861  0.59243  0.84841  1.0000
  Fe  Fe744     1.0  0.54599  0.66939  0.95450  1.0000
  S   S1488     1.0  0.55833  0.68849  0.93400  1.0000
  H   H6532     1.0  0.67024  0.52671  0.93974  1.0000
  Fe  Fe745     1.0  0.53227  0.70574  0.93689  1.0000
  S   S1489     1.0  0.52851  0.92403  0.81754  1.0000
  Fe  Fe746     1.0  0.54891  0.67818  0.91702  1.0000
  S   S1490     1.0  0.56745  0.67241  0.89328  1.0000
  S   S1491     1.0  0.53844  0.65778  0.93745  1.0000
  Fe  Fe747     1.0  0.64625  0.61473  0.91203  1.0000
  S   S1492     1.0  0.64741  0.58688  0.92222  1.0000
  S   S1493     1.0  0.63348  0.63037  0.89069  1.0000
  Fe  Fe748     1.0  0.65925  0.61843  0.94115  1.0000
  S   S1494     1.0  0.66162  0.59098  0.95332  1.0000
  S   S1495     1.0  0.66335  0.63499  0.95584  1.0000
  Fe  Fe749     1.0  0.67290  0.58671  0.92709  1.0000
  S   S1496     1.0  0.69674  0.56608  0.92312  1.0000
  Fe  Fe750     1.0  0.63618  0.59425  0.94728  1.0000
  C   C5453     1.0  0.90841  0.73263  0.96765  1.0000
  S   S1497     1.0  0.67245  0.61425  0.91505  1.0000
  S   S1498     1.0  0.63323  0.62193  0.93683  1.0000
  Fe  Fe751     1.0  0.78942  0.57603  0.91613  1.0000
  S   S1499     1.0  0.80429  0.56005  0.93572  1.0000
  S   S1500     1.0  0.76238  0.59045  0.92389  1.0000
  Fe  Fe752     1.0  0.81913  0.56852  0.88694  1.0000
  S   S1501     1.0  0.83614  0.55149  0.90402  1.0000
  S   S1502     1.0  0.82779  0.57435  0.85858  1.0000
  Fe  Fe753     1.0  0.81281  0.54153  0.91885  1.0000
  S   S1503     1.0  0.81467  0.51365  0.92960  1.0000
  Fe  Fe754     1.0  0.82617  0.57160  0.91927  1.0000
  S   S1504     1.0  0.84556  0.57763  0.92966  1.0000
  S   S1505     1.0  0.79654  0.55669  0.90028  1.0000
  S   S1506     1.0  0.81061  0.58947  0.90112  1.0000
  Fe  Fe755     1.0  0.92128  0.62243  0.80669  1.0000
  S   S1507     1.0  0.93653  0.59837  0.81958  1.0000
  S   S1508     1.0  0.90930  0.64588  0.81730  1.0000
  S   S1509     1.0  0.92991  0.89777  0.80757  1.0000
  Fe  Fe756     1.0  0.91941  0.58591  0.81269  1.0000
  S   S1510     1.0  0.90805  0.56499  0.83178  1.0000
  H   H6533     1.0  0.60644  0.51438  0.89507  1.0000
  H   H6534     1.0  0.63914  0.61394  0.97458  1.0000
  H   H6535     1.0  0.61104  0.51862  0.92081  1.0000
  Fe  Fe757     1.0  0.88324  0.69371  0.91665  1.0000
  S   S1511     1.0  0.90931  0.67831  0.91984  1.0000
  S   S1512     1.0  0.87289  0.72136  0.91767  1.0000
  Fe  Fe758     1.0  0.87001  0.66267  0.91780  1.0000
  S   S1513     1.0  0.89475  0.64478  0.92152  1.0000
  S   S1514     1.0  0.84614  0.65522  0.91728  1.0000
  Fe  Fe759     1.0  0.89497  0.66009  0.93940  1.0000
  S   S1515     1.0  0.89840  0.64843  0.96593  1.0000
  Fe  Fe760     1.0  0.90677  0.66444  0.90147  1.0000
  S   S1516     1.0  0.92868  0.65433  0.88165  1.0000
  S   S1517     1.0  0.86909  0.67632  0.93748  1.0000
  S   S1518     1.0  0.88186  0.68154  0.89645  1.0000
  H   H6536     1.0  0.51940  0.76851  0.93706  1.0000
  H   H6537     1.0  0.70761  0.95451  0.96181  1.0000
  C   C5454     1.0  0.62456  0.90354  0.98091  1.0000
  C   C5455     1.0  0.92075  0.66856  0.96267  1.0000
  C   C5456     1.0  0.92828  0.67788  0.96902  1.0000
  H   H6538     1.0  0.71533  0.91653  0.97767  1.0000
  H   H6539     1.0  0.99507  0.94350  0.80299  1.0000
  N   N366      1.0  0.86523  0.70420  0.97636  1.0000
  H   H6540     1.0  0.92431  0.66836  0.94939  1.0000
  H   H6541     1.0  0.93753  0.68495  0.96055  1.0000
  H   H6542     1.0  0.55787  0.59031  0.97423  1.0000
  H   H6543     1.0  0.60675  0.50564  0.95077  1.0000
  N   N367      1.0  0.50241  0.89495  0.80221  1.0000
  C   C5457     1.0  0.86653  0.58732  0.78907  1.0000
  H   H6544     1.0  0.97440  0.58150  0.82113  1.0000
  H   H6545     1.0  0.62865  0.56401  0.89340  1.0000
  C   C5458     1.0  0.91381  0.64709  0.83612  1.0000
  C   C5459     1.0  0.90508  0.66106  0.84339  1.0000
  C   C5460     1.0  0.90913  0.66301  0.85778  1.0000
  C   C5461     1.0  0.92209  0.65109  0.86485  1.0000
  C   C5462     1.0  0.93053  0.63690  0.85784  1.0000
  C   C5463     1.0  0.92631  0.63481  0.84358  1.0000
  H   H6546     1.0  0.89537  0.67057  0.83768  1.0000
  H   H6547     1.0  0.90264  0.67406  0.86301  1.0000
  H   H6548     1.0  0.94044  0.62759  0.86336  1.0000
  H   H6549     1.0  0.93324  0.62411  0.83798  1.0000
  C   C5464     1.0  0.84562  0.59920  0.92604  1.0000
  C   C5465     1.0  0.86026  0.60389  0.92683  1.0000
  C   C5466     1.0  0.86059  0.62106  0.92407  1.0000
  C   C5467     1.0  0.84615  0.63358  0.92087  1.0000
  C   C5468     1.0  0.83140  0.62885  0.92042  1.0000
  C   C5469     1.0  0.83119  0.61170  0.92281  1.0000
  H   H6550     1.0  0.87140  0.59423  0.92950  1.0000
  H   H6551     1.0  0.87198  0.62452  0.92449  1.0000
  H   H6552     1.0  0.82014  0.63848  0.91804  1.0000
  H   H6553     1.0  0.81977  0.60817  0.92240  1.0000
  C   C5470     1.0  0.85009  0.57214  0.85191  1.0000
  C   C5471     1.0  0.85681  0.58461  0.83900  1.0000
  C   C5472     1.0  0.87455  0.58276  0.83299  1.0000
  C   C5473     1.0  0.88573  0.56827  0.83970  1.0000
  C   C5474     1.0  0.87900  0.55586  0.85276  1.0000
  C   C5475     1.0  0.86123  0.55784  0.85894  1.0000
  H   H6554     1.0  0.84827  0.59592  0.83387  1.0000
  H   H6555     1.0  0.87944  0.59254  0.82312  1.0000
  H   H6556     1.0  0.88754  0.54463  0.85806  1.0000
  H   H6557     1.0  0.85616  0.54809  0.86887  1.0000
  C   C5476     1.0  0.76547  0.54888  0.95880  1.0000
  C   C5477     1.0  0.79727  0.50648  0.92833  1.0000
  C   C5478     1.0  0.78221  0.51790  0.92497  1.0000
  C   C5479     1.0  0.76909  0.51208  0.92231  1.0000
  H   H6558     1.0  0.78077  0.53124  0.92419  1.0000
  H   H6559     1.0  0.75779  0.52105  0.91904  1.0000
  C   C5480     1.0  0.71520  0.57265  0.92311  1.0000
  C   C5481     1.0  0.73160  0.56265  0.91864  1.0000
  C   C5482     1.0  0.74627  0.56793  0.91871  1.0000
  C   C5483     1.0  0.74456  0.58319  0.92337  1.0000
  C   C5484     1.0  0.72817  0.59302  0.92799  1.0000
  C   C5485     1.0  0.71359  0.58784  0.92777  1.0000
  H   H6560     1.0  0.73303  0.55098  0.91484  1.0000
  H   H6561     1.0  0.75886  0.56027  0.91510  1.0000
  H   H6562     1.0  0.72675  0.60482  0.93162  1.0000
  H   H6563     1.0  0.70108  0.59565  0.93128  1.0000
  H   H6564     1.0  0.51744  0.87360  0.81660  1.0000
  C   C5486     1.0  0.91888  0.88179  0.81971  1.0000
  H   H6565     1.0  0.82657  0.53233  0.87233  1.0000
  C   C5487     1.0  0.65169  0.98196  0.97267  1.0000
  H   H6566     1.0  0.98394  0.84983  0.87932  1.0000
  H   H6567     1.0  0.50133  0.98297  0.84060  1.0000
  C   C5488     1.0  0.92556  0.73953  0.98244  1.0000
  C   C5489     1.0  0.59304  0.61754  0.95549  1.0000
  C   C5490     1.0  0.58023  0.63220  0.95758  1.0000
  H   H6568     1.0  0.71909  0.49560  0.91020  1.0000
  H   H6569     1.0  0.89847  0.78460  0.87868  1.0000
  H   H6570     1.0  0.90617  0.60663  0.85319  1.0000
  C   C5491     1.0  0.55066  0.64292  0.86472  1.0000
  C   C5492     1.0  0.53963  0.64807  0.87910  1.0000
  C   C5493     1.0  0.54466  0.65715  0.88796  1.0000
  C   C5494     1.0  0.56083  0.66110  0.88242  1.0000
  C   C5495     1.0  0.57201  0.65572  0.86819  1.0000
  C   C5496     1.0  0.56697  0.64658  0.85939  1.0000
  H   H6571     1.0  0.52715  0.64503  0.88332  1.0000
  H   H6572     1.0  0.53598  0.66124  0.89894  1.0000
  H   H6573     1.0  0.58455  0.65873  0.86387  1.0000
  H   H6574     1.0  0.57561  0.64265  0.84834  1.0000
  C   C5497     1.0  0.62855  0.60154  0.85407  1.0000
  C   C5498     1.0  0.61932  0.61818  0.85399  1.0000
  C   C5499     1.0  0.62143  0.62716  0.86485  1.0000
  C   C5500     1.0  0.63227  0.61934  0.87622  1.0000
  C   C5501     1.0  0.64147  0.60270  0.87632  1.0000
  C   C5502     1.0  0.63975  0.59388  0.86512  1.0000
  H   H6575     1.0  0.61078  0.62422  0.84539  1.0000
  H   H6576     1.0  0.61446  0.64011  0.86458  1.0000
  H   H6577     1.0  0.65013  0.59671  0.88480  1.0000
  H   H6578     1.0  0.64709  0.58109  0.86504  1.0000
  C   C5503     1.0  0.54184  0.54560  0.80035  1.0000
  C   C5504     1.0  0.55359  0.53273  0.80820  1.0000
  C   C5505     1.0  0.56282  0.53640  0.81785  1.0000
  C   C5506     1.0  0.56080  0.55304  0.81925  1.0000
  C   C5507     1.0  0.54962  0.56614  0.81076  1.0000
  C   C5508     1.0  0.53990  0.56238  0.80151  1.0000
  H   H6579     1.0  0.55546  0.51988  0.80699  1.0000
  H   H6580     1.0  0.57164  0.52631  0.82417  1.0000
  H   H6581     1.0  0.54807  0.57905  0.81173  1.0000
  C   C5509     1.0  0.70099  0.49844  0.95929  1.0000
  C   C5510     1.0  0.56006  0.76418  0.94121  1.0000
  C   C5511     1.0  0.56582  0.74672  0.94182  1.0000
  C   C5512     1.0  0.55487  0.73710  0.94072  1.0000
  C   C5513     1.0  0.53813  0.74497  0.93894  1.0000
  C   C5514     1.0  0.54329  0.77198  0.93953  1.0000
  H   H6582     1.0  0.57880  0.74069  0.94309  1.0000
  H   H6583     1.0  0.55939  0.72367  0.94119  1.0000
  C   C5515     1.0  0.59337  0.89866  0.94423  1.0000
  C   C5516     1.0  0.60366  0.89580  0.92867  1.0000
  C   C5517     1.0  0.60389  0.88146  0.92307  1.0000
  C   C5518     1.0  0.59368  0.86996  0.93287  1.0000
  C   C5519     1.0  0.58347  0.87268  0.94853  1.0000
  C   C5520     1.0  0.58335  0.88701  0.95420  1.0000
  H   H6584     1.0  0.61122  0.90478  0.92076  1.0000
  H   H6585     1.0  0.61189  0.87940  0.91101  1.0000
  H   H6586     1.0  0.57559  0.86386  0.95620  1.0000
  H   H6587     1.0  0.57518  0.88922  0.96616  1.0000
  C   C5521     1.0  0.60761  0.94680  0.86870  1.0000
  C   C5522     1.0  0.60392  0.93716  0.85945  1.0000
  C   C5523     1.0  0.58727  0.93999  0.85678  1.0000
  C   C5524     1.0  0.57434  0.95275  0.86311  1.0000
  C   C5525     1.0  0.57825  0.96288  0.87168  1.0000
  C   C5526     1.0  0.59480  0.95992  0.87447  1.0000
  H   H6588     1.0  0.61395  0.92735  0.85457  1.0000
  H   H6589     1.0  0.58442  0.93225  0.84999  1.0000
  H   H6590     1.0  0.56838  0.97294  0.87637  1.0000
  H   H6591     1.0  0.59770  0.96794  0.88089  1.0000
  C   C5527     1.0  0.53486  0.87363  0.86835  1.0000
  C   C5528     1.0  0.54247  0.85722  0.87571  1.0000
  C   C5529     1.0  0.53639  0.85023  0.89274  1.0000
  H   H6592     1.0  0.78301  0.57388  0.85881  1.0000
  H   H6593     1.0  0.98440  0.89054  0.85968  1.0000
  H   H6594     1.0  0.55331  0.84998  0.86831  1.0000
  H   H6595     1.0  0.54239  0.83757  0.89830  1.0000
  H   H6596     1.0  0.85119  0.71072  0.95647  1.0000
  S   S1519     1.0  0.51549  0.85117  0.92404  1.0000
  C   C5530     1.0  0.98173  0.83990  0.92173  1.0000
  H   H6597     1.0  0.98194  0.89075  0.81595  1.0000
  H   H6598     1.0  0.78992  0.89573  0.96635  1.0000
  C   C5531     1.0  0.65754  0.62613  0.97749  1.0000
  S   S1520     1.0  0.52381  0.69703  0.91810  1.0000
  H   H6599     1.0  0.57682  0.64152  0.94664  1.0000
  C   C5532     1.0  0.89410  0.78907  0.97450  1.0000
  H   H6600     1.0  0.59926  0.61552  0.94293  1.0000
  N   N368      1.0  0.85423  0.62274  0.98203  1.0000
  C   C5533     1.0  0.72234  0.93833  0.90690  1.0000
  C   C5534     1.0  0.72009  0.93083  0.92413  1.0000
  C   C5535     1.0  0.70374  0.92924  0.93380  1.0000
  C   C5536     1.0  0.68941  0.93540  0.92642  1.0000
  C   C5537     1.0  0.69155  0.94317  0.90923  1.0000
  C   C5538     1.0  0.70802  0.94454  0.89948  1.0000
  H   H6601     1.0  0.73092  0.92626  0.93005  1.0000
  H   H6602     1.0  0.70226  0.92300  0.94697  1.0000
  H   H6603     1.0  0.68059  0.94792  0.90340  1.0000
  H   H6604     1.0  0.70966  0.95040  0.88616  1.0000
  C   C5539     1.0  0.83281  0.94212  0.87058  1.0000
  C   C5540     1.0  0.82124  0.94332  0.86077  1.0000
  C   C5541     1.0  0.82660  0.94586  0.84309  1.0000
  C   C5542     1.0  0.84363  0.94669  0.83520  1.0000
  C   C5543     1.0  0.85515  0.94552  0.84505  1.0000
  C   C5544     1.0  0.84971  0.94340  0.86267  1.0000
  H   H6605     1.0  0.80809  0.94265  0.86673  1.0000
  H   H6606     1.0  0.81759  0.94689  0.83551  1.0000
  H   H6607     1.0  0.86818  0.94649  0.83911  1.0000
  H   H6608     1.0  0.85866  0.94274  0.87017  1.0000
  C   C5545     1.0  0.90923  0.75652  0.90928  1.0000
  C   C5546     1.0  0.91581  0.73923  0.90959  1.0000
  C   C5547     1.0  0.90480  0.72829  0.91213  1.0000
  C   C5548     1.0  0.88713  0.73459  0.91456  1.0000
  C   C5549     1.0  0.88053  0.75186  0.91449  1.0000
  C   C5550     1.0  0.89154  0.76283  0.91176  1.0000
  H   H6609     1.0  0.92948  0.73425  0.90777  1.0000
  H   H6610     1.0  0.91001  0.71502  0.91212  1.0000
  H   H6611     1.0  0.86684  0.75678  0.91642  1.0000
  H   H6612     1.0  0.88632  0.77609  0.91181  1.0000
  C   C5551     1.0  0.96310  0.84086  0.89813  1.0000
  C   C5552     1.0  0.95656  0.83562  0.91542  1.0000
  C   C5553     1.0  0.96584  0.83524  0.92723  1.0000
  H   H6613     1.0  0.99128  0.61537  0.86471  1.0000
  H   H6614     1.0  0.75444  0.56837  0.87429  1.0000
  C   C5554     1.0  0.97884  0.84580  0.89268  1.0000
  H   H6615     1.0  0.94437  0.83188  0.91969  1.0000
  H   H6616     1.0  0.96081  0.83113  0.94060  1.0000
  H   H6617     1.0  0.93874  0.76460  0.85186  1.0000
  Fe  Fe761     1.0  0.95257  0.59709  0.79351  1.0000
  C   C5555     1.0  0.85134  0.84746  0.92952  1.0000
  C   C5556     1.0  0.83885  0.85815  0.93907  1.0000
  C   C5557     1.0  0.82257  0.86473  0.93529  1.0000
  C   C5558     1.0  0.81853  0.86017  0.92230  1.0000
  C   C5559     1.0  0.83071  0.84878  0.91333  1.0000
  C   C5560     1.0  0.84715  0.84262  0.91679  1.0000
  H   H6618     1.0  0.84181  0.86158  0.94925  1.0000
  H   H6619     1.0  0.81311  0.87320  0.94254  1.0000
  H   H6620     1.0  0.82763  0.84518  0.90330  1.0000
  H   H6621     1.0  0.85656  0.83424  0.90948  1.0000
  C   C5561     1.0  0.91734  0.85666  0.84232  1.0000
  C   C5562     1.0  0.92593  0.86945  0.83238  1.0000
  H   H6622     1.0  0.92287  0.84730  0.85214  1.0000
  H   H6623     1.0  0.93802  0.86977  0.83461  1.0000
  S   S1521     1.0  0.89114  0.83973  0.85186  1.0000
  H   H6624     1.0  0.70399  0.52388  0.90220  1.0000
  H   H6625     1.0  0.99188  0.81155  0.88924  1.0000
  C   C5563     1.0  0.50594  0.90906  0.78760  1.0000
  H   H6626     1.0  0.93288  0.78417  0.85841  1.0000
  H   H6627     1.0  0.83376  0.51012  0.87973  1.0000
  H   H6628     1.0  0.80954  0.51341  0.84698  1.0000
  C   C5564     1.0  0.67661  0.51798  0.94932  1.0000
  H   H6629     1.0  0.85467  0.86012  0.98399  1.0000
  H   H6630     1.0  0.86959  0.87118  0.95649  1.0000
  H   H6631     1.0  0.96588  0.64832  0.86321  1.0000
  H   H6632     1.0  0.65359  0.52231  0.96855  1.0000
  S   S1522     1.0  0.52082  0.68761  0.95913  1.0000
  H   H6633     1.0  0.61511  0.49801  0.81545  1.0000
  C   C5565     1.0  0.98670  0.58503  0.81681  1.0000
  C   C5566     1.0  0.52058  0.88276  0.87785  1.0000
  N   N369      1.0  0.55198  0.93524  0.91768  1.0000
  C   C5567     1.0  0.54139  0.95149  0.91024  1.0000
  C   C5568     1.0  0.54838  0.93414  0.93620  1.0000
  C   C5569     1.0  0.57022  0.93582  0.91053  1.0000
  C   C5570     1.0  0.54871  0.92023  0.91414  1.0000
  C   C5571     1.0  0.55631  0.90374  0.92199  1.0000
  C   C5572     1.0  0.53903  0.92139  0.90214  1.0000
  C   C5573     1.0  0.55385  0.88930  0.91867  1.0000
  C   C5574     1.0  0.53661  0.90681  0.89893  1.0000
  C   C5575     1.0  0.54394  0.89082  0.90726  1.0000
  H   H6634     1.0  0.52750  0.95147  0.91453  1.0000
  H   H6635     1.0  0.54348  0.96250  0.91379  1.0000
  H   H6636     1.0  0.54478  0.95418  0.89621  1.0000
  H   H6637     1.0  0.53511  0.93244  0.94229  1.0000
  H   H6638     1.0  0.55001  0.94570  0.93911  1.0000
  H   H6639     1.0  0.55729  0.92354  0.94270  1.0000
  H   H6640     1.0  0.57402  0.93455  0.89713  1.0000
  H   H6641     1.0  0.57287  0.94794  0.91089  1.0000
  H   H6642     1.0  0.57892  0.92547  0.91754  1.0000
  H   H6643     1.0  0.56447  0.90192  0.93055  1.0000
  H   H6644     1.0  0.53336  0.93337  0.89492  1.0000
  H   H6645     1.0  0.55984  0.87686  0.92485  1.0000
  S   S1523     1.0  0.55636  0.65323  0.97706  1.0000
  N   N370      1.0  0.98493  0.63639  0.84434  1.0000
  C   C5576     1.0  0.78148  0.56098  0.86448  1.0000
  H   H6646     1.0  0.89274  0.69922  0.96908  1.0000
  H   H6647     1.0  0.88013  0.76838  0.87629  1.0000
  H   H6648     1.0  0.95929  0.87163  0.85902  1.0000
  C   C5577     1.0  0.82210  0.52046  0.87921  1.0000
  C   C5578     1.0  0.89977  0.76941  0.95089  1.0000
  H   H6649     1.0  0.62209  0.54333  0.92035  1.0000
  C   C5579     1.0  0.88967  0.78583  0.94856  1.0000
  C   C5580     1.0  0.88887  0.75822  0.87080  1.0000
  H   H6650     1.0  0.50303  0.73528  0.98327  1.0000
  C   C5581     1.0  0.98820  0.84521  0.90444  1.0000
  H   H6651     1.0  0.97283  0.93734  0.79577  1.0000
  C   C5582     1.0  0.72850  0.96068  0.96763  1.0000
  H   H6652     1.0  0.52618  0.63854  0.97744  1.0000
  C   C5583     1.0  0.62349  0.55336  0.89370  1.0000
  H   H6653     1.0  0.61207  0.49529  0.78800  1.0000
  H   H6654     1.0  0.81956  0.98195  0.84928  1.0000
  H   H6655     1.0  0.86525  0.55303  0.79709  1.0000
  H   H6656     1.0  0.84837  0.57462  0.80957  1.0000
  H   H6657     1.0  0.90167  0.76230  0.94141  1.0000
  H   H6658     1.0  0.75840  0.54925  0.94959  1.0000
  H   H6659     1.0  0.88416  0.79105  0.93746  1.0000
  H   H6660     1.0  0.85102  0.69006  0.96952  1.0000
  H   H6661     1.0  0.84502  0.97487  0.87220  1.0000
  S   S1524     1.0  0.52382  0.73346  0.93780  1.0000
  C   C5584     1.0  0.49954  0.82598  0.90068  1.0000
  H   H6662     1.0  0.82665  0.59992  0.81317  1.0000
  H   H6663     1.0  0.98044  0.66133  0.84920  1.0000
  S   S1525     1.0  0.52994  0.54061  0.78886  1.0000
  H   H6664     1.0  0.50901  0.95473  0.80171  1.0000
  C   C5585     1.0  0.60395  0.53979  0.79745  1.0000
  H   H6665     1.0  0.50925  0.81939  0.89121  1.0000
  H   H6666     1.0  0.86644  0.73219  0.95023  1.0000
  H   H6667     1.0  0.51019  0.62723  0.97867  1.0000
  S   S1526     1.0  0.53658  0.81275  0.95705  1.0000
  H   H6668     1.0  0.86735  0.63978  0.96160  1.0000
  C   C5586     1.0  0.49934  0.62491  0.86525  1.0000
  C   C5587     1.0  0.77887  0.91544  0.98047  1.0000
  H   H6669     1.0  0.98875  0.60933  0.84709  1.0000
  H   H6670     1.0  0.51446  0.89532  0.87214  1.0000
  C   C5588     1.0  0.77777  0.52783  0.87984  1.0000
  H   H6671     1.0  0.97601  0.87152  0.82927  1.0000
  H   H6672     1.0  0.83089  0.62802  0.79574  1.0000
  S   S1527     1.0  0.60878  0.50323  0.98486  1.0000
  C   C5589     1.0  0.86485  0.73487  0.96249  1.0000
  C   C5590     1.0  0.62487  0.67332  0.94729  1.0000
  C   C5591     1.0  0.97843  0.63085  0.81908  1.0000
  C   C5592     1.0  0.51630  0.69482  0.87049  1.0000
  C   C5593     1.0  0.51915  0.88451  0.80573  1.0000
  H   H6673     1.0  0.90059  0.78536  0.83377  1.0000
  C   C5594     1.0  0.98370  0.61920  0.85471  1.0000
  C   C5595     1.0  0.97935  0.64819  0.85607  1.0000
  H   H6674     1.0  0.92896  0.74660  0.94010  1.0000
  C   C5596     1.0  0.71945  0.51836  0.92754  1.0000
  C   C5597     1.0  0.95496  0.64839  0.80632  1.0000
  H   H6675     1.0  0.86489  0.76123  0.95147  1.0000
  Fe  Fe762     1.0  0.87830  0.94602  0.80111  1.0000
  H   H6676     1.0  0.88303  0.86735  0.82405  1.0000
  H   H6677     1.0  0.95298  0.89100  0.86641  1.0000
  H   H6678     1.0  0.54237  0.49609  0.86085  1.0000
  H   H6679     1.0  0.75102  0.53899  0.88742  1.0000
  C   C5598     1.0  0.60480  0.49331  0.95808  1.0000
  H   H6680     1.0  0.60117  0.55170  0.80126  1.0000
  C   C5599     1.0  0.90891  0.65928  0.97361  1.0000
  C   C5600     1.0  0.96067  0.65513  0.83018  1.0000
  C   C5601     1.0  0.99300  0.59066  0.79955  1.0000
  H   H6681     1.0  0.81600  0.52182  0.89244  1.0000
  C   C5602     1.0  0.85080  0.70332  0.96971  1.0000
  H   H6682     1.0  0.50327  0.88270  0.90224  1.0000
  C   C5603     1.0  0.92854  0.77231  0.85998  1.0000
  N   N371      1.0  0.85405  0.88610  0.98377  1.0000
  C   C5604     1.0  0.97866  0.92888  0.78718  1.0000
  C   C5605     1.0  0.81569  0.98695  0.86106  1.0000
  H   H6683     1.0  0.80800  0.55069  0.85691  1.0000
  N   N372      1.0  0.79945  0.51804  0.98169  1.0000
  C   C5606     1.0  0.61365  0.52782  0.90910  1.0000
  S   S1528     1.0  0.61374  0.58701  0.96723  1.0000
  H   H6684     1.0  0.77536  0.51536  0.88600  1.0000
  H   H6685     1.0  0.91610  0.71939  0.96975  1.0000
  C   C5607     1.0  0.51419  0.87556  0.89482  1.0000
  C   C5608     1.0  0.97464  0.64091  0.83126  1.0000
  H   H6686     1.0  0.93386  0.74788  0.98249  1.0000
  C   C5609     1.0  0.99835  0.95070  0.78973  1.0000
  H   H6687     1.0  0.94201  0.73164  0.95349  1.0000
  N   N373      1.0  0.70475  0.51126  0.92815  1.0000
  C   C5610     1.0  0.81846  0.51563  0.85351  1.0000
  H   H6688     1.0  0.50334  0.64046  0.82295  1.0000
  C   C5611     1.0  0.91312  0.78282  0.83740  1.0000
  Fe  Fe763     1.0  0.51467  0.94363  0.83291  1.0000
  H   H6689     1.0  0.99796  0.85894  0.95693  1.0000
  H   H6690     1.0  0.73755  0.95745  0.95635  1.0000
  C   C5612     1.0  0.93310  0.74429  0.95218  1.0000
  H   H6691     1.0  0.79802  0.49597  0.87470  1.0000
  C   C5613     1.0  0.85185  0.89268  0.96610  1.0000
  N   N374      1.0  0.96946  0.89254  0.84159  1.0000
  C   C5614     1.0  0.97201  0.88560  0.82646  1.0000
  C   C5615     1.0  0.98555  0.88614  0.84800  1.0000
  C   C5616     1.0  0.95573  0.88569  0.85496  1.0000
  C   C5617     1.0  0.96444  0.91128  0.83711  1.0000
  C   C5618     1.0  0.97444  0.92206  0.83828  1.0000
  C   C5619     1.0  0.94913  0.91933  0.83118  1.0000
  C   C5620     1.0  0.96925  0.93971  0.83396  1.0000
  C   C5621     1.0  0.94412  0.93698  0.82681  1.0000
  C   C5622     1.0  0.95412  0.94715  0.82824  1.0000
  C   C5623     1.0  0.96691  0.86377  0.98020  1.0000
  C   C5624     1.0  0.83242  0.59066  0.97620  1.0000
  H   H6692     1.0  0.98793  0.78221  0.90072  1.0000
  H   H6693     1.0  0.49909  0.63674  0.86897  1.0000
  H   H6694     1.0  0.87910  0.80843  0.95845  1.0000
  H   H6695     1.0  0.66104  0.96786  0.95280  1.0000
  C   C5625     1.0  0.84065  0.61675  0.79377  1.0000
  H   H6696     1.0  0.69604  0.54508  0.95812  1.0000
  C   C5626     1.0  0.84085  0.60397  0.97250  1.0000
  H   H6697     1.0  0.98633  0.91723  0.84255  1.0000
  H   H6698     1.0  0.94088  0.91201  0.82984  1.0000
  H   H6699     1.0  0.97707  0.94763  0.83510  1.0000
  H   H6700     1.0  0.93239  0.94286  0.82228  1.0000
  H   H6701     1.0  0.95007  0.96085  0.82489  1.0000
  C   C5627     1.0  0.83857  0.91389  0.94415  1.0000
  H   H6702     1.0  0.54215  0.87954  0.90476  1.0000
  H   H6703     1.0  0.51152  0.91798  0.79101  1.0000
  H   H6704     1.0  0.81968  0.53176  0.97500  1.0000
  C   C5628     1.0  0.77354  0.56348  0.97541  1.0000
  H   H6705     1.0  0.88622  0.98063  0.81615  1.0000
  H   H6706     1.0  0.98734  0.64444  0.86573  1.0000
  H   H6707     1.0  0.64499  0.94548  0.96804  1.0000
  H   H6708     1.0  0.52709  0.98427  0.84833  1.0000
  H   H6709     1.0  0.66428  0.90718  0.98079  1.0000
  H   H6710     1.0  0.50602  0.83441  0.90364  1.0000
  H   H6711     1.0  0.61528  0.69067  0.96400  1.0000
  C   C5629     1.0  0.86001  0.62983  0.96372  1.0000
  C   C5630     1.0  0.59750  0.60534  0.96962  1.0000
  H   H6712     1.0  0.50249  0.87778  0.78715  1.0000
  C   C5631     1.0  0.76392  0.56361  0.96419  1.0000
  H   H6713     1.0  0.52248  0.57504  0.83815  1.0000
  H   H6714     1.0  0.72809  0.50975  0.93580  1.0000
  H   H6715     1.0  0.71500  0.53068  0.93158  1.0000
  N   N375      1.0  0.59371  0.87927  0.87265  1.0000
  C   C5632     1.0  0.58060  0.86879  0.88038  1.0000
  C   C5633     1.0  0.61015  0.86901  0.87696  1.0000
  C   C5634     1.0  0.58825  0.89420  0.88057  1.0000
  C   C5635     1.0  0.59613  0.88488  0.85404  1.0000
  C   C5636     1.0  0.58771  0.87957  0.84443  1.0000
  C   C5637     1.0  0.60755  0.89574  0.84490  1.0000
  C   C5638     1.0  0.59021  0.88526  0.82687  1.0000
  C   C5639     1.0  0.60987  0.90145  0.82736  1.0000
  C   C5640     1.0  0.60117  0.89627  0.81836  1.0000
  H   H6716     1.0  0.58435  0.85671  0.87594  1.0000
  H   H6717     1.0  0.57879  0.86509  0.89441  1.0000
  H   H6718     1.0  0.56790  0.87580  0.87753  1.0000
  H   H6719     1.0  0.61501  0.85803  0.87070  1.0000
  H   H6720     1.0  0.60877  0.86384  0.89081  1.0000
  H   H6721     1.0  0.62025  0.87651  0.87312  1.0000
  H   H6722     1.0  0.59813  0.90192  0.87694  1.0000
  H   H6723     1.0  0.57634  0.90268  0.87694  1.0000
  H   H6724     1.0  0.58574  0.89033  0.89462  1.0000
  H   H6725     1.0  0.57890  0.87122  0.85015  1.0000
  H   H6726     1.0  0.61473  0.89995  0.85129  1.0000
  H   H6727     1.0  0.58321  0.88144  0.81990  1.0000
  H   H6728     1.0  0.61833  0.91009  0.82072  1.0000
  H   H6729     1.0  0.60270  0.90099  0.80481  1.0000
  H   H6730     1.0  0.50788  0.66039  0.91785  1.0000
  H   H6731     1.0  0.88765  0.54530  0.79620  1.0000
  S   S1529     1.0  0.76825  0.92959  0.96512  1.0000
  H   H6732     1.0  0.89801  0.89038  0.80680  1.0000
  C   C5641     1.0  0.89496  0.86796  0.82644  1.0000
  C   C5642     1.0  0.51070  0.58465  0.83884  1.0000
  H   H6733     1.0  0.52146  0.60148  0.84550  1.0000
  H   H6734     1.0  0.99158  0.57929  0.84187  1.0000
  H   H6735     1.0  0.52378  0.75250  0.97481  1.0000
  C   C5643     1.0  0.90523  0.75986  0.86038  1.0000
  H   H6736     1.0  0.49969  0.65130  0.89600  1.0000
  C   C5644     1.0  0.80647  0.49992  0.88045  1.0000
  C   C5645     1.0  0.71136  0.49452  0.92342  1.0000
  C   C5646     1.0  0.86385  0.75159  0.96307  1.0000
  H   H6737     1.0  0.94353  0.88843  0.85070  1.0000
  C   C5647     1.0  0.90438  0.77273  0.97683  1.0000
  C   C5648     1.0  0.83825  0.60092  0.80350  1.0000
  H   H6738     1.0  0.59062  0.52160  0.87577  1.0000
  C   C5649     1.0  0.81678  0.52061  0.97250  1.0000
  C   C5650     1.0  0.79445  0.53061  0.87150  1.0000
  S   S1530     1.0  0.53472  0.95908  0.82309  1.0000
  H   H6739     1.0  0.88717  0.79312  0.86149  1.0000
  H   H6740     1.0  0.61443  0.64204  0.98162  1.0000
  H   H6741     1.0  0.82137  0.97898  0.89440  1.0000
  H   H6742     1.0  0.69090  0.53584  0.91732  1.0000
  H   H6743     1.0  0.63386  0.66487  0.95476  1.0000
  H   H6744     1.0  0.63551  0.98856  0.93153  1.0000
  H   H6745     1.0  0.84394  0.61014  0.95936  1.0000
  H   H6746     1.0  0.49905  0.85747  0.97543  1.0000
  C   C5651     1.0  0.69242  0.54245  0.97182  1.0000
  H   H6747     1.0  0.94052  0.75401  0.95067  1.0000
  H   H6748     1.0  0.77773  0.52318  0.95946  1.0000
  H   H6749     1.0  0.52933  0.69615  0.86876  1.0000
  H   H6750     1.0  0.52671  0.89214  0.80851  1.0000
  H   H6751     1.0  0.52229  0.49162  0.84640  1.0000
  C   C5652     1.0  0.78670  0.53336  0.97609  1.0000
  H   H6752     1.0  0.72762  0.52052  0.91456  1.0000
  C   C5653     1.0  0.86366  0.72189  0.97741  1.0000
  H   H6753     1.0  0.50754  0.64951  0.96946  1.0000
  C   C5654     1.0  0.86149  0.75593  0.97851  1.0000
  H   H6754     1.0  0.51378  0.83817  0.98176  1.0000
  C   C5655     1.0  0.66688  0.51568  0.96590  1.0000
  C   C5656     1.0  0.95112  0.65879  0.81779  1.0000
  N   N376      1.0  0.81000  0.51682  0.87123  1.0000
  H   H6755     1.0  0.59472  0.70985  0.94703  1.0000
  H   H6756     1.0  0.50871  0.89303  0.83417  1.0000
  H   H6757     1.0  0.82981  0.50488  0.85286  1.0000
  H   H6758     1.0  0.60874  0.52623  0.82198  1.0000
  C   C5657     1.0  0.51322  0.68318  0.86328  1.0000
  H   H6759     1.0  0.94706  0.65094  0.79719  1.0000
  H   H6760     1.0  0.92245  0.77404  0.82974  1.0000
  C   C5658     1.0  0.85926  0.88927  0.93670  1.0000
  H   H6761     1.0  0.80048  0.49977  0.89400  1.0000
  H   H6762     1.0  0.68853  0.89304  0.93480  1.0000
  H   H6763     1.0  0.81521  0.97567  0.87163  1.0000
  C   C5659     1.0  0.90000  0.78906  0.86473  1.0000
  N   N377      1.0  0.61165  0.53435  0.86304  1.0000
  C   C5660     1.0  0.62357  0.51853  0.85913  1.0000
  C   C5661     1.0  0.59381  0.53251  0.86551  1.0000
  C   C5662     1.0  0.61466  0.54829  0.84802  1.0000
  C   C5663     1.0  0.61427  0.53728  0.87864  1.0000
  C   C5664     1.0  0.62073  0.55127  0.87879  1.0000
  C   C5665     1.0  0.61095  0.52556  0.89426  1.0000
  C   C5666     1.0  0.52243  0.85947  0.90242  1.0000
  H   H6764     1.0  0.69843  0.58215  0.96204  1.0000
  S   S1531     1.0  0.52439  0.92903  0.85615  1.0000
  H   H6765     1.0  0.62138  0.50726  0.86941  1.0000
  H   H6766     1.0  0.62200  0.51572  0.84753  1.0000
  H   H6767     1.0  0.63714  0.51930  0.85728  1.0000
  H   H6768     1.0  0.61675  0.90640  0.97173  1.0000
  H   H6769     1.0  0.59150  0.53014  0.85400  1.0000
  H   H6770     1.0  0.58439  0.54415  0.86842  1.0000
  H   H6771     1.0  0.62820  0.54970  0.84446  1.0000
  H   H6772     1.0  0.61178  0.54615  0.83671  1.0000
  H   H6773     1.0  0.60624  0.56062  0.85026  1.0000
  H   H6774     1.0  0.62396  0.56069  0.86752  1.0000
  H   H6775     1.0  0.86635  0.88170  0.92742  1.0000
  C   C5667     1.0  0.69552  0.52272  0.91506  1.0000
  H   H6776     1.0  0.54968  0.85425  0.98105  1.0000
  H   H6777     1.0  0.53879  0.78543  0.93890  1.0000
  N   N378      1.0  0.58347  0.60915  0.90731  1.0000
  C   C5668     1.0  0.59908  0.59728  0.90052  1.0000
  C   C5669     1.0  0.57057  0.61113  0.89730  1.0000
  C   C5670     1.0  0.58797  0.62574  0.90453  1.0000
  C   C5671     1.0  0.57640  0.60340  0.92554  1.0000
  C   C5672     1.0  0.56077  0.61273  0.93361  1.0000
  C   C5673     1.0  0.58497  0.58902  0.93593  1.0000
  C   C5674     1.0  0.55412  0.60796  0.95093  1.0000
  C   C5675     1.0  0.57813  0.58429  0.95323  1.0000
  C   C5676     1.0  0.56280  0.59377  0.96073  1.0000
  H   H6778     1.0  0.59666  0.58440  0.90261  1.0000
  H   H6779     1.0  0.60352  0.60154  0.88664  1.0000
  H   H6780     1.0  0.61002  0.59646  0.90617  1.0000
  H   H6781     1.0  0.56603  0.59920  0.89984  1.0000
  H   H6782     1.0  0.57585  0.61461  0.88344  1.0000
  H   H6783     1.0  0.55921  0.62138  0.89999  1.0000
  H   H6784     1.0  0.59799  0.62471  0.91146  1.0000
  H   H6785     1.0  0.59299  0.63078  0.89093  1.0000
  H   H6786     1.0  0.57677  0.63556  0.90878  1.0000
  H   H6787     1.0  0.55376  0.62403  0.92661  1.0000
  H   H6788     1.0  0.59721  0.58145  0.93116  1.0000
  H   H6789     1.0  0.54237  0.61549  0.95684  1.0000
  H   H6790     1.0  0.58512  0.57357  0.96102  1.0000
  H   H6791     1.0  0.98600  0.83437  0.97263  1.0000
  N   N379      1.0  0.85459  0.88803  0.87795  1.0000
  C   C5677     1.0  0.83949  0.88940  0.89223  1.0000
  C   C5678     1.0  0.86264  0.86985  0.87887  1.0000
  C   C5679     1.0  0.86686  0.89656  0.88054  1.0000
  C   C5680     1.0  0.85022  0.89548  0.86116  1.0000
  C   C5681     1.0  0.83308  0.90007  0.85887  1.0000
  C   C5682     1.0  0.86334  0.89747  0.84635  1.0000
  C   C5683     1.0  0.82944  0.90655  0.84277  1.0000
  C   C5684     1.0  0.85951  0.90425  0.83036  1.0000
  C   C5685     1.0  0.84261  0.90877  0.82858  1.0000
  H   H6792     1.0  0.83266  0.90284  0.89193  1.0000
  H   H6793     1.0  0.83032  0.88200  0.89211  1.0000
  H   H6794     1.0  0.84316  0.88419  0.90472  1.0000
  H   H6795     1.0  0.85391  0.86290  0.87698  1.0000
  H   H6796     1.0  0.86611  0.86362  0.89132  1.0000
  H   H6797     1.0  0.87458  0.86795  0.86899  1.0000
  H   H6798     1.0  0.86170  0.91045  0.87883  1.0000
  H   H6799     1.0  0.86953  0.89176  0.89347  1.0000
  H   H6800     1.0  0.87953  0.89438  0.87177  1.0000
  H   H6801     1.0  0.82222  0.89894  0.86928  1.0000
  H   H6802     1.0  0.87670  0.89371  0.84691  1.0000
  H   H6803     1.0  0.81628  0.91036  0.84132  1.0000
  H   H6804     1.0  0.86967  0.90625  0.81929  1.0000
  H   H6805     1.0  0.83973  0.91443  0.81618  1.0000
  H   H6806     1.0  0.51260  0.61732  0.86500  1.0000
  H   H6807     1.0  0.97005  0.86342  0.96657  1.0000
  S   S1532     1.0  0.99368  0.83883  0.93639  1.0000
  C   C5686     1.0  0.57203  0.63480  0.97385  1.0000
  H   H6808     1.0  0.86868  0.61987  0.95708  1.0000
  C   C5687     1.0  0.88684  0.79565  0.96035  1.0000
  C   C5688     1.0  0.76355  0.54135  0.88071  1.0000
  C   C5689     1.0  0.53236  0.76239  0.93842  1.0000
  H   H6809     1.0  0.90511  0.80080  0.86115  1.0000
  C   C5690     1.0  0.90335  0.88106  0.81677  1.0000
  N   N380      1.0  0.74548  0.88115  0.90431  1.0000
  C   C5691     1.0  0.75082  0.86921  0.89279  1.0000
  C   C5692     1.0  0.75539  0.89467  0.89716  1.0000
  C   C5693     1.0  0.75029  0.87166  0.92063  1.0000
  C   C5694     1.0  0.72694  0.88876  0.90596  1.0000
  C   C5695     1.0  0.72044  0.89855  0.89151  1.0000
  C   C5696     1.0  0.71490  0.88682  0.92167  1.0000
  C   C5697     1.0  0.70302  0.90589  0.89270  1.0000
  C   C5698     1.0  0.69749  0.89422  0.92268  1.0000
  C   C5699     1.0  0.69157  0.90369  0.90824  1.0000
  H   H6810     1.0  0.74326  0.85914  0.89745  1.0000
  H   H6811     1.0  0.74909  0.87567  0.87976  1.0000
  H   H6812     1.0  0.76463  0.86291  0.89165  1.0000
  H   H6813     1.0  0.75412  0.90138  0.88408  1.0000
  H   H6814     1.0  0.76934  0.88962  0.89674  1.0000
  H   H6815     1.0  0.75086  0.90445  0.90490  1.0000
  H   H6816     1.0  0.74383  0.86082  0.92651  1.0000
  H   H6817     1.0  0.76432  0.86619  0.91896  1.0000
  H   H6818     1.0  0.74722  0.88007  0.92971  1.0000
  H   H6819     1.0  0.72882  0.90086  0.87920  1.0000
  H   H6820     1.0  0.71858  0.87988  0.93341  1.0000
  H   H6821     1.0  0.69838  0.91365  0.88157  1.0000
  H   H6822     1.0  0.64467  0.91318  0.96156  1.0000
  H   H6823     1.0  0.67813  0.90977  0.90921  1.0000
  N   N381      1.0  0.61145  0.67593  0.90669  1.0000
  C   C5700     1.0  0.60370  0.66091  0.91155  1.0000
  C   C5701     1.0  0.60095  0.68972  0.89607  1.0000
  C   C5702     1.0  0.62882  0.67181  0.89595  1.0000
  C   C5703     1.0  0.61244  0.68037  0.92221  1.0000
  C   C5704     1.0  0.60182  0.69500  0.92799  1.0000
  C   C5705     1.0  0.62385  0.66956  0.93247  1.0000
  C   C5706     1.0  0.60289  0.69860  0.94290  1.0000
  C   C5707     1.0  0.64069  0.90755  0.97484  1.0000
  C   C5708     1.0  0.61444  0.68783  0.95248  1.0000
  H   H6824     1.0  0.60263  0.65718  0.90021  1.0000
  H   H6825     1.0  0.61146  0.64972  0.91866  1.0000
  H   H6826     1.0  0.59063  0.66341  0.91961  1.0000
  H   H6827     1.0  0.60585  0.70158  0.89232  1.0000
  H   H6828     1.0  0.58725  0.69241  0.90261  1.0000
  H   H6829     1.0  0.60092  0.68617  0.88425  1.0000
  H   H6830     1.0  0.63569  0.68225  0.89312  1.0000
  H   H6831     1.0  0.63692  0.65998  0.90184  1.0000
  H   H6832     1.0  0.62832  0.66943  0.88371  1.0000
  H   H6833     1.0  0.59254  0.70386  0.92125  1.0000
  H   H6834     1.0  0.63211  0.65805  0.92917  1.0000
  H   H6835     1.0  0.79991  0.50253  0.96476  1.0000
  H   H6836     1.0  0.82962  0.58697  0.96600  1.0000
  N   N382      1.0  0.91846  0.74504  0.96693  1.0000
  C   C5709     1.0  0.84806  0.90455  0.93203  1.0000
  H   H6837     1.0  0.81840  0.48985  0.88018  1.0000
  Fe  Fe764     1.0  0.51414  0.67762  0.94030  1.0000
  H   H6838     1.0  0.92798  0.74575  0.84591  1.0000
  H   H6839     1.0  0.53092  0.57242  0.79530  1.0000
  H   H6840     1.0  0.52457  0.72593  0.97357  1.0000
  C   C5710     1.0  0.61169  0.50926  0.80599  1.0000
  H   H6841     1.0  0.97157  0.62632  0.79803  1.0000
  C   C5711     1.0  0.79578  0.54757  0.86351  1.0000
  H   H6842     1.0  0.84903  0.63593  0.95736  1.0000
  C   C5712     1.0  0.90189  0.85580  0.83932  1.0000
  N   N383      1.0  0.88313  0.61117  0.87236  1.0000
  C   C5713     1.0  0.88638  0.59377  0.88294  1.0000
  C   C5714     1.0  0.89204  0.61070  0.85458  1.0000
  C   C5715     1.0  0.89087  0.62183  0.87835  1.0000
  C   C5716     1.0  0.86452  0.61751  0.87325  1.0000
  C   C5717     1.0  0.85525  0.63291  0.87829  1.0000
  C   C5718     1.0  0.85511  0.60821  0.86884  1.0000
  C   C5719     1.0  0.83765  0.63840  0.87901  1.0000
  C   C5720     1.0  0.83755  0.61385  0.86953  1.0000
  C   C5721     1.0  0.82880  0.62885  0.87474  1.0000
  H   H6843     1.0  0.87859  0.59332  0.89606  1.0000
  H   H6844     1.0  0.88317  0.58436  0.87789  1.0000
  H   H6845     1.0  0.90009  0.58907  0.88367  1.0000
  H   H6846     1.0  0.88808  0.60173  0.84960  1.0000
  S   S1533     1.0  0.54208  0.49109  0.80948  1.0000
  H   H6847     1.0  0.88933  0.62343  0.84611  1.0000
  H   H6848     1.0  0.90481  0.61668  0.87774  1.0000
  H   H6849     1.0  0.88968  0.63490  0.87038  1.0000
  H   H6850     1.0  0.88482  0.62261  0.89173  1.0000
  H   H6851     1.0  0.86116  0.64084  0.88208  1.0000
  H   H6852     1.0  0.86128  0.59640  0.86495  1.0000
  H   H6853     1.0  0.83081  0.64995  0.88333  1.0000
  H   H6854     1.0  0.81511  0.63298  0.87565  1.0000
  S   S1534     1.0  0.92203  0.97834  0.80040  1.0000
  C   C5722     1.0  0.90751  0.76235  0.96504  1.0000
  C   C5723     1.0  0.84030  0.90809  0.96097  1.0000
  H   H6855     1.0  0.98893  0.61997  0.81899  1.0000
  H   H6856     1.0  0.81806  0.52298  0.95857  1.0000
  H   H6857     1.0  0.52906  0.90791  0.88990  1.0000
  H   H6858     1.0  0.97020  0.61854  0.86098  1.0000
  H   H6859     1.0  0.92821  0.76534  0.87333  1.0000
  H   H6860     1.0  0.58774  0.66260  0.97680  1.0000
  H   H6861     1.0  0.95649  0.66335  0.83906  1.0000
  C   C5724     1.0  0.50992  0.59980  0.84318  1.0000
  H   H6862     1.0  0.84650  0.90911  0.91907  1.0000
  H   H6863     1.0  0.87530  0.55725  0.81170  1.0000
  H   H6864     1.0  0.88309  0.68520  0.96381  1.0000
  Fe  Fe765     1.0  0.54959  0.93822  0.80960  1.0000
  C   C5725     1.0  0.77670  0.53394  0.96459  1.0000
  H   H6865     1.0  0.84984  0.98058  0.84965  1.0000
  H   H6866     1.0  0.91751  0.79501  0.83351  1.0000
  S   S1535     1.0  0.93705  0.58208  0.78779  1.0000
  C   C5726     1.0  0.64397  0.95584  0.97384  1.0000
  C   C5727     1.0  0.87687  0.55630  0.79837  1.0000
  H   H6867     1.0  0.82689  0.50935  0.97605  1.0000
  H   H6868     1.0  0.52731  0.87921  0.79469  1.0000
  S   S1536     1.0  0.90318  0.61009  0.80139  1.0000
  C   C5728     1.0  0.61989  0.54170  0.90883  1.0000
  C   C5729     1.0  0.84494  0.98589  0.86127  1.0000
  C   C5730     1.0  0.91001  0.73016  0.85847  1.0000
  C   C5731     1.0  0.88341  0.74298  0.87484  1.0000
  C   C5732     1.0  0.89401  0.72894  0.86888  1.0000
  H   H6869     1.0  0.91821  0.71916  0.85387  1.0000
  H   H6870     1.0  0.87103  0.74186  0.88311  1.0000
  H   H6871     1.0  0.88983  0.71705  0.87248  1.0000
  H   H6872     1.0  0.82965  0.92563  0.94051  1.0000
  H   H6873     1.0  0.51993  0.63014  0.83450  1.0000
  N   N384      1.0  0.91150  0.77577  0.85580  1.0000
  Fe  Fe766     1.0  0.91318  0.92250  0.79746  1.0000
  Fe  Fe767     1.0  0.53914  0.51317  0.78756  1.0000
  H   H6874     1.0  0.82304  0.52728  0.84605  1.0000
  H   H6875     1.0  0.89696  0.73323  0.97823  1.0000
  C   C5733     1.0  0.85095  0.58637  0.80127  1.0000
  C   C5734     1.0  0.60836  0.52520  0.80957  1.0000
  H   H6876     1.0  0.94013  0.66933  0.81754  1.0000
  H   H6877     1.0  0.50579  0.71365  0.88510  1.0000
  Fe  Fe768     1.0  0.91000  0.95976  0.79541  1.0000
  C   C5735     1.0  0.86109  0.88334  0.95347  1.0000
  H   H6878     1.0  0.57328  0.50196  0.84752  1.0000
  H   H6879     1.0  0.83234  0.91585  0.96971  1.0000
  H   H6880     1.0  0.68449  0.51795  0.91450  1.0000
  C   C5736     1.0  0.58241  0.49161  0.84257  1.0000
  C   C5737     1.0  0.51217  0.63938  0.97988  1.0000
  C   C5738     1.0  0.65311  0.96843  0.96533  1.0000
  H   H6881     1.0  0.66693  0.55576  0.97171  1.0000
  H   H6882     1.0  0.71748  0.52809  0.97503  1.0000
  H   H6883     1.0  0.99669  0.89015  0.83836  1.0000
  C   C5739     1.0  0.67565  0.54873  0.97986  1.0000
  C   C5740     1.0  0.78862  0.89950  0.97801  1.0000
  H   H6884     1.0  0.89540  0.57670  0.80097  1.0000
  C   C5741     1.0  0.99647  0.58369  0.82852  1.0000
  H   H6885     1.0  0.88227  0.70600  0.95152  1.0000
  C   C5742     1.0  0.96864  0.63447  0.80692  1.0000
  C   C5743     1.0  0.79707  0.50236  0.97849  1.0000
  C   C5744     1.0  0.70451  0.53293  0.98132  1.0000
  H   H6886     1.0  0.98885  0.87203  0.85141  1.0000
  C   C5745     1.0  0.88152  0.69852  0.96471  1.0000
  H   H6887     1.0  0.90397  0.73480  0.95577  1.0000
  C   C5746     1.0  0.61006  0.50777  0.79048  1.0000
  H   H6888     1.0  0.52378  0.67555  0.85594  1.0000
  H   H6889     1.0  0.96009  0.88869  0.82163  1.0000
  C   C5747     1.0  0.73384  0.96646  0.97901  1.0000
  H   H6890     1.0  0.57034  0.49463  0.82201  1.0000
  C   C5748     1.0  0.71168  0.95893  0.97074  1.0000
  C   C5749     1.0  0.50654  0.63763  0.83557  1.0000
  H   H6891     1.0  0.86089  0.76887  0.97894  1.0000
  C   C5750     1.0  0.50272  0.70461  0.88005  1.0000
  H   H6892     1.0  0.53160  0.77754  0.97653  1.0000
  H   H6893     1.0  0.75561  0.57530  0.95929  1.0000
  H   H6894     1.0  0.71416  0.49152  0.95739  1.0000
  C   C5751     1.0  0.89664  0.57463  0.78818  1.0000
  H   H6895     1.0  0.59635  0.89111  0.98155  1.0000
  H   H6896     1.0  0.49953  0.84277  0.86942  1.0000
  H   H6897     1.0  0.83827  0.70834  0.97761  1.0000
  H   H6898     1.0  0.74705  0.96757  0.97594  1.0000
  H   H6899     1.0  0.96603  0.87692  0.98122  1.0000
  C   C5752     1.0  0.99635  0.85629  0.98385  1.0000
  H   H6900     1.0  0.77258  0.57505  0.97928  1.0000
  C   C5753     1.0  0.78490  0.54867  0.98116  1.0000
  H   H6901     1.0  0.98659  0.95955  0.78617  1.0000
  C   C5754     1.0  0.96859  0.91840  0.78628  1.0000
  C   C5755     1.0  0.69119  0.49634  0.97580  1.0000
  H   H6902     1.0  0.89188  0.79670  0.98372  1.0000
  H   H6903     1.0  0.88015  0.87167  0.97810  1.0000
  H   H6904     1.0  0.87813  0.89357  0.97788  1.0000
  C   C5756     1.0  0.70179  0.57916  0.97423  1.0000
  C   C5757     1.0  0.87246  0.88227  0.98427  1.0000
  C   C5758     1.0  0.64562  0.61573  0.98328  1.0000
  H   H6905     1.0  0.67466  0.63680  0.98455  1.0000
  C   C5759     1.0  0.49997  0.84409  0.98253  1.0000
  H   H6906     1.0  0.87833  0.60541  0.98427  1.0000
  H   H6907     1.0  0.74118  0.91034  0.98268  1.0000
  H   H6908     1.0  0.72723  0.56584  0.96549  1.0000
  C   C5760     1.0  0.71801  0.56992  0.97627  1.0000
  H   H6909     1.0  0.78382  0.50038  0.98428  1.0000
  H   H6910     1.0  0.80588  0.49082  0.98395  1.0000
  H   H6911     1.0  0.93357  0.72642  0.98362  1.0000
  H   H6912     1.0  0.83111  0.64196  0.98460  1.0000
