data_image0
_chemical_formula_structural       FeS2FeSHFeSFeS3FeS2FeS2FeHFeS4C2H2C3HCH2CH2SHCNCH2C4HCH4C6H4C6H4C3H3C2HCNCHCHCH2C2H2CH2C2H2NC8H13C3H2C2FeNC6HSH4SH2CSNCHFeHSH3SCHNHC3H4CH4C4HCH2CH2CHC4H2C2H2CH4CH3SH2C2H3CH6CHC2HFeS2FeSHFeSFeS3FeS2FeS2FeHFeS3HC5H4NHCH2C4H3C4SCH4C6H5C5H3C3HNH2CSHNCH2C3H2CHSCH5CH3CNHCH2CHCH2C2SH3SH3NFeC2NC2HCNC2HCH4CH2CHC3HSCHCH2CSHCHCHC3HCSHCH2CSCHCHCHCH2FeHCH2C3H2CH2C6H2CH5CH2CH6CHCHFeCHC3H3C5H3SH2CH2NC4HCH2CHCH5CHC2HC2H5CH2C2H2C2H3CHFeS2HSH2SCFeSHS2FeSCFeSCFeSFeHS2HNHS2FeSFeSHCH3CHC6H7C3SCH3C3HC2SHC4H2CSC9H4CNC9H14CH2FeH2C2HCH2CH3C2H4CH3NHC3HSCSHSCHC2H2CHC2HFeC2FeHCH2C3HSCH3CHFeHSC2HCHCH2CHNCH3CHCH5NCH3SHC2H2C2H3C5H4CHFeS3C3H2FeSHSCFeS2FeS2FeSFeHS2CHFeS2FeSFeS2C4H2C6H4CHC5H3C4SC2HSHC3H2C11H5NC9H14FeNCHCH2C2H2C3H2CH7C2HCNCHSCFeCH3SHNH3CH3C2H6C5NHC2H2CHCH2CHCHSH5FeHS2HCH2CHNH2CSHCH7C3HC3H2FeHFeS2HC2H2CHCHFeS2FeHFeS3FeS2CHSH2C4HCHNHCH2CH2CH2CHC2SC2HC2SFeHC4HC6H3FeSHCHCSHC2HCSH3SH2CFeCSHC2SCH6CHCHC4HCH2CHSH2CHCH2CHSHC2HNFeC2HC3HC4HC3H5C2FeH2CH6C2HCH2CH2C2SH2S2HSHCHFeC2FeCH7CNCHCHNHSNH4CHSFeHC2HNCHNC2FeS2H2C6HFeS2H2FeCS2FeSHSH2CHSHCH2FeHNFeCHCH3C3SH3S2HC4FeCHC3HC6H3CSHCH2SCH2SHFeHCFeH8C2HSH4CSHSCFeHCNCHSFeS2C2HC2HCH2C2H3C2SFeH3CH3FeHC3SCH2NC8H9SCSHCH2CH3CH2CHCH4CHC3HCHC2HC2HCH3FeHFeS2FeS2CSFeSHSFeS2FeHCS3FeS2FeSFeSFeS3C4HCH4C6H4C6H3C6H3CH4CH3C4HCHC3FeHCHSHSHCHSCH4S2CH3C3HCH2FeH2CHCHNH2NC2NCH4C3HC2FeC3H3CHCHCNC9H17CSC4HSH4FeS2C5H3C2H2CHCSCH2NC6HCH9CHCH2Fe2SCH2SC3NH6CHCHCH2CHCHCHCH3CH2C2H2C2HNCH2CH4CH2C4H3CSFeS2FeS2HSFeSCSFeS2FeCFe2S2FeS2FeSFeSFeS2HC2HC4H3C7H3C6H3C6H3FeSH4SHC3HCHSHC4FeH2SCSHCH3SHSHC3HC2HC3H2CH2FeH5CSNC4SCHC3HCH5SH2C2FeCHCH3FeHSNC11H4CH4CH3C2SCNC7HCH14NC6H10CNC9H14SC2H2NC3H3CHC2H5CHCNHCH4CH6CH2CH3FeSH2SHSFeSCNFeS2FeS2FeHFeS3CSHCHCSCH4CH2C3H3CSHCHC10H3NC6H5C2H2C7H4C6H4C2HSH3CHC4H2CHCH3CH6CSC3SH4C2H2CSH3C2HFeCH3CHSCHFeCH2CH3NCNH3FeH2C3FeH2NHCHSHSCH2CH2CH2CH3N2C2HC3FeC2H2FeH2C3H2CHCHNCH2SH3C2HCH4C2HCHCHC2H2CH2CH4CHC4H2CHSH4C2HCSHC5H4CHSHCSHSFeSHNFeS2FeS2FeNFeS3HSCHS2CH3CH2CH5CH2SHSC2HCHC3H5CHC6H4CFeC2H2C6H4C6H4CNH3SH2CH3C2H5C2HCSCH2CH3CH3FeCHFeH2C2H3FeCH2CHC2H2NH2C2HCH2C3NC3H3CHSC3H2CH2NH2CHCSHFeCH2CH5SCH2CH2NHCHCSHCHCH2NC3H2CHCHFeCHCFeC4SH2C6HSH2C2SH2SCHFeS2FeS2FeSFe2S2C3HC4H2C3NCH2C2SCHCHSHCHCH2CFeHSCH2CFeC2HC3NSC3HSH2CH2C2H2CH4FeC2H3C2FeH3CH5CHC2H3CFeNCH2SHSHCHC2NHFeC5HCH2SC3FeH2C2HCH2CSCSFeHCH3CH3SFeSCHCH3CH4CH2CSC2H3CHCSCSCS2CH2CH2FeH5SH5C3HCHC4HCFeH2C3SC2FeS2FeS2FeSFeHS2CSC2H2C2H2C3H2C4HNHCHSH3SCHC2H3CHNSC2FeHC2HSH2FeSC2H3C2SCH3CH2CH2CH6C3H4C4SCSHFeS3CH3CHCHSCHC6NHCHCFeH3C2H2FeH2NCHSH2FeHCH2SFeH2C2H2C2SCH2CFeHC2HNC2H3CH4FeH4FeC2H4SH3CHCNC2HCHCHNC6HCHSC2H5C3H2C2H6C2HC2H4CHCH2CH2C3H3NC2HCH2CHC2H3NHCHSHNH3SH8C3H2CH5NC2HC2HC4HFeSFeS2HFeS5HCHCSCSCHC7H4C2HCHCHCH4CHC4H3CH3C2H5CHC2HCH2FeH2NC9H15NH2C2SHC2SHSCHC2H2FeHC3SFeCHFeHCS2CH3SH2Fe2C2H4CSC2HSH3CS2CHCNCH2SC2HCHCH7CFeC3SCH3NH2C2HC2FeCH2C2H2CHCHFeSFeS2FeCS4H3CH4SH2C6H4C2HCHCH5C2HC4H6C3HC3HC2H5CHCHC2HC2HC2HCNC2H2FeH2C3HSHCFeC2SH2CSHCH3CSNH3NCNHCHCHCSHCH3C3H4CSCH2C6HCH2C2HCHCHC2NS2HFeHCFeH3CFeHSFeHCH2NCH2CH2C2H4CFeHCHS2CH7C3HC6HCH2CHSFeS2FeHFeS3C2H2CFeS2FeS2FeSFeS3C2HC6H5CHC2H2C6H4C6H5SH2C2H2CHCH2C5H4SH7NHC5H2CH2C3H3SCHC2H2CH2CHCNHCH4CHCHSNHNH3CHC3H2CHCH4C2H2CH2FeC2HCH2C2NC3H5NH5CHC2H3C2NH2CSHC3H5CHCH5C2HCH2CHCHSHCHSFeS2FeCFeS3CH4FeS2FeS2FeSFeS3CH2C6H3CH7C6H4C6H8C2SH2CH2C4H2NHCSC6H8C2H6CH5NCH5C3HFeHCH2C6HFeH2CH4C3HC4SFeHCH6CHCH2NC6H2CHCH2C2HCH3CNHC2SHCH6NSHSH3SCHCS2FeSFeSFeSHFeSFeS3FeS3C2FeHFeS4H2NSNCH2C6H3C6H4C4H3C5H3C3HCFeH4SCNC9H13CH2C2HC2H2C2HCH2FeH3SC2HCHFeHCNC9H11SC2H2CHSH4CSCHC2NHFeCH2CHC2HFeS2C3FeC2HNC9H5SH8CNSC2SC3FeHCH2CH2CH5CHSFeHSHCHCH2SHSHCH3NSCHCHC4H2C5H3C3H3CH5SH2S2FeSFeSFeSCFeSFeHS2FeS2C2SFeNFeS3H5CHCHC6SH2C6H4C4H2CHC3H2CHCH2C2H6C2SC2H3CH3CH3CH2CHC2HCHCH6FeNC9H14C2H3C2S2C3NSHCFe2HSFeS2HFeHSC3H3FeCHSCH3CH3CSH3C3H2CS3CFeC2SHCNH3CH2CHC2HCHC2H3C2HCNC4S2HCHCH2C2HNC2H6C3HCHCHC2FeCH2NH3CHCHNCH3CH2CH2C3HCH2CH2CH4CH2CH2C2HSHFeCFeS3H3CHSCSCSH2SHC5Fe3SFeHNSHFeS2FeSFeS3C6HC5H4C4H5C2H3C2H2C6H8C4H2CH2C2HC4HCSFeH3C3H2C2H4C3SH6CH2CNC9H14NHSCH2CSH3SHCSNCHFe2CFeCH2SH3C4H3NCH2C2H2CHC2HCH5CH2C3HFeSHFeHFeHS2FeHCH3FeSCSCS2C2SNH3Fe2SFeHCSHFeS2FeSFeS3C6HC4NSH3C5H2SHC2H2CH2CHC6H5C4SC6H5CH4SCHSH2CHC2HCH4C2H3CH2CH2FeH4C3NC9H14NC4H2SH4FeC2H3SC2SHC2HCSCSC2HFeH2SHSH2C2S2C4HCH3CH5CHCHC3HNH2
_chemical_formula_sum              "Fe256 S512 H2304 C1920 N128"
_cell_length_a       61.6591
_cell_length_b       61.7387
_cell_length_c       48.0595
_cell_angle_alpha    90.4548
_cell_angle_beta     90.3429
_cell_angle_gamma    85.222

_space_group_name_H-M_alt    "P 1"
_space_group_IT_number       1

loop_
  _space_group_symop_operation_xyz
  'x, y, z'

loop_
  _atom_site_type_symbol
  _atom_site_label
  _atom_site_symmetry_multiplicity
  _atom_site_fract_x
  _atom_site_fract_y
  _atom_site_fract_z
  _atom_site_occupancy
  Fe  Fe1       1.0  0.12129  0.26953  0.32480  1.0000
  S   S1        1.0  0.10942  0.23794  0.33830  1.0000
  S   S2        1.0  0.15618  0.27743  0.32453  1.0000
  Fe  Fe2       1.0  0.07612  0.28847  0.30651  1.0000
  S   S3        1.0  0.06057  0.25837  0.31857  1.0000
  H   H1        1.0  0.17076  0.27645  0.41224  1.0000
  Fe  Fe3       1.0  0.08175  0.25889  0.35708  1.0000
  S   S4        1.0  0.06831  0.25665  0.40063  1.0000
  Fe  Fe4       1.0  0.08983  0.24040  0.29864  1.0000
  S   S5        1.0  0.08786  0.21083  0.27121  1.0000
  S   S6        1.0  0.09513  0.29056  0.34627  1.0000
  S   S7        1.0  0.10390  0.27029  0.28385  1.0000
  Fe  Fe5       1.0  0.06502  0.22488  0.08546  1.0000
  S   S8        1.0  0.09359  0.20146  0.07492  1.0000
  S   S9        1.0  0.03004  0.21729  0.07925  1.0000
  Fe  Fe6       1.0  0.09435  0.26023  0.10369  1.0000
  S   S10       1.0  0.12476  0.23954  0.09382  1.0000
  S   S11       1.0  0.09597  0.29348  0.12252  1.0000
  Fe  Fe7       1.0  0.10708  0.23034  0.05489  1.0000
  H   H2        1.0  0.07225  0.28469  0.24181  1.0000
  Fe  Fe8       1.0  0.10779  0.21359  0.11492  1.0000
  S   S12       1.0  0.12400  0.19336  0.14898  1.0000
  S   S13       1.0  0.07767  0.25323  0.06329  1.0000
  S   S14       1.0  0.07817  0.23477  0.12691  1.0000
  S   S15       1.0  0.06002  0.31832  0.28527  1.0000
  C   C1        1.0  0.12721  0.27573  0.41218  1.0000
  C   C2        1.0  0.12165  0.30378  0.12615  1.0000
  H   H3        1.0  0.19711  0.29018  0.25617  1.0000
  H   H4        1.0  0.11004  0.28292  0.41168  1.0000
  C   C3        1.0  0.03251  0.32730  0.29138  1.0000
  C   C4        1.0  0.16111  0.29959  0.13270  1.0000
  C   C5        1.0  0.14106  0.29032  0.12922  1.0000
  H   H5        1.0  0.19536  0.28854  0.08706  1.0000
  C   C6        1.0  0.06356  0.13024  0.48317  1.0000
  H   H6        1.0  0.17604  0.28934  0.13543  1.0000
  H   H7        1.0  0.14054  0.27289  0.12957  1.0000
  C   C7        1.0  0.04365  0.29901  0.20426  1.0000
  H   H8        1.0  0.04021  0.24396  0.20447  1.0000
  H   H9        1.0  0.22725  0.25766  0.36634  1.0000
  S   S16       1.0  0.00533  0.12180  0.04977  1.0000
  H   H10       1.0  0.17151  0.21030  0.48549  1.0000
  C   C8        1.0  0.01818  0.31362  0.30320  1.0000
  N   N1        1.0  0.04515  0.27702  0.21660  1.0000
  C   C9        1.0  0.00355  0.17993  0.19521  1.0000
  H   H11       1.0  0.02505  0.18751  0.13091  1.0000
  H   H12       1.0  0.02414  0.29761  0.31023  1.0000
  C   C10       1.0  0.08283  0.24509  0.42938  1.0000
  C   C11       1.0  0.09918  0.22805  0.42661  1.0000
  C   C12       1.0  0.10938  0.21867  0.45053  1.0000
  C   C13       1.0  0.10319  0.22617  0.47726  1.0000
  H   H13       1.0  0.16756  0.22780  0.03624  1.0000
  C   C14       1.0  0.07693  0.25268  0.45602  1.0000
  H   H14       1.0  0.10368  0.22188  0.40613  1.0000
  H   H15       1.0  0.12177  0.20530  0.44832  1.0000
  H   H16       1.0  0.22278  0.26628  0.02558  1.0000
  H   H17       1.0  0.06436  0.26588  0.45836  1.0000
  C   C15       1.0  0.09870  0.20716  0.23742  1.0000
  C   C16       1.0  0.10521  0.22434  0.22136  1.0000
  C   C17       1.0  0.11218  0.22050  0.19368  1.0000
  C   C18       1.0  0.11362  0.19930  0.18256  1.0000
  C   C19       1.0  0.10795  0.18217  0.19910  1.0000
  C   C20       1.0  0.10020  0.18613  0.22615  1.0000
  H   H18       1.0  0.10493  0.24047  0.23019  1.0000
  H   H19       1.0  0.11702  0.23376  0.18118  1.0000
  H   H20       1.0  0.10928  0.16576  0.19082  1.0000
  H   H21       1.0  0.09538  0.17273  0.23844  1.0000
  C   C21       1.0  0.02349  0.18651  0.15324  1.0000
  C   C22       1.0  0.16280  0.27477  0.43279  1.0000
  C   C23       1.0  0.19582  0.26642  0.34810  1.0000
  C   C24       1.0  0.17377  0.26264  0.34764  1.0000
  C   C25       1.0  0.16622  0.24691  0.36512  1.0000
  C   C26       1.0  0.18065  0.23533  0.38342  1.0000
  H   H22       1.0  0.20186  0.27833  0.33435  1.0000
  H   H23       1.0  0.14931  0.24373  0.36481  1.0000
  H   H24       1.0  0.17475  0.22332  0.39714  1.0000
  H   H25       1.0  0.24468  0.31296  0.01942  1.0000
  C   C27       1.0  0.03887  0.17264  0.07456  1.0000
  C   C28       1.0  0.02389  0.19066  0.07052  1.0000
  C   C29       1.0  0.07766  0.14666  0.48131  1.0000
  H   H26       1.0  0.00573  0.19373  0.46767  1.0000
  H   H27       1.0  0.04469  0.13772  0.07118  1.0000
  H   H28       1.0  0.05484  0.17485  0.08300  1.0000
  C   C30       1.0  0.06758  0.27185  0.22706  1.0000
  C   C31       1.0  0.10143  0.32292  0.23074  1.0000
  H   H29       1.0  0.20087  0.23029  0.46540  1.0000
  C   C32       1.0  0.03133  0.31711  0.21646  1.0000
  N   N2        1.0  0.16973  0.30050  0.22961  1.0000
  C   C33       1.0  0.04178  0.19038  0.16934  1.0000
  H   H30       1.0  0.16254  0.25695  0.43612  1.0000
  C   C34       1.0  0.12990  0.28534  0.46097  1.0000
  H   H31       1.0  0.12642  0.31797  0.42120  1.0000
  C   C35       1.0  0.03009  0.27497  0.24032  1.0000
  H   H32       1.0  0.02396  0.26466  0.18561  1.0000
  H   H33       1.0  0.06919  0.25606  0.23828  1.0000
  C   C36       1.0  0.03278  0.15730  0.48414  1.0000
  C   C37       1.0  0.14628  0.30794  0.23050  1.0000
  H   H34       1.0  0.19531  0.22320  0.16654  1.0000
  H   H35       1.0  0.16842  0.28238  0.19086  1.0000
  C   C38       1.0  0.04672  0.17449  0.48248  1.0000
  H   H36       1.0  0.19962  0.31262  0.21616  1.0000
  H   H37       1.0  0.05239  0.25893  0.17836  1.0000
  C   C39       1.0  0.04019  0.26050  0.19534  1.0000
  C   C40       1.0  0.17868  0.22282  0.49761  1.0000
  H   H38       1.0  0.15184  0.31007  0.40559  1.0000
  H   H39       1.0  0.03109  0.25810  0.24860  1.0000
  N   N3        1.0  0.17450  0.21763  0.27522  1.0000
  C   C41       1.0  0.17230  0.19446  0.28168  1.0000
  C   C42       1.0  0.19085  0.22560  0.29484  1.0000
  C   C43       1.0  0.15339  0.23023  0.28073  1.0000
  C   C44       1.0  0.18037  0.21972  0.24557  1.0000
  C   C45       1.0  0.19997  0.22826  0.23687  1.0000
  C   C46       1.0  0.16637  0.21282  0.22429  1.0000
  C   C47       1.0  0.20521  0.22938  0.20866  1.0000
  C   C48       1.0  0.17171  0.21417  0.19615  1.0000
  H   H40       1.0  0.18072  0.25661  0.10383  1.0000
  H   H41       1.0  0.18756  0.18424  0.27672  1.0000
  H   H42       1.0  0.16863  0.19216  0.30410  1.0000
  H   H43       1.0  0.15881  0.18773  0.26978  1.0000
  H   H44       1.0  0.20710  0.21650  0.29237  1.0000
  H   H45       1.0  0.18617  0.22350  0.31695  1.0000
  H   H46       1.0  0.19256  0.24329  0.29214  1.0000
  H   H47       1.0  0.13956  0.22357  0.26944  1.0000
  H   H48       1.0  0.14918  0.23015  0.30322  1.0000
  H   H49       1.0  0.15388  0.24751  0.27459  1.0000
  H   H50       1.0  0.21167  0.23414  0.25133  1.0000
  H   H51       1.0  0.15122  0.20607  0.22922  1.0000
  H   H52       1.0  0.22035  0.23580  0.20256  1.0000
  C   C49       1.0  0.13490  0.31257  0.25579  1.0000
  C   C50       1.0  0.11288  0.32014  0.25571  1.0000
  C   C51       1.0  0.06944  0.16846  0.48086  1.0000
  H   H53       1.0  0.19061  0.27390  0.21283  1.0000
  H   H54       1.0  0.02153  0.18259  0.23361  1.0000
  C   C52       1.0  0.16166  0.32226  0.13284  1.0000
  C   C53       1.0  0.18180  0.31737  0.21626  1.0000
  Fe  Fe9       1.0  0.24536  0.29305  0.19086  1.0000
  N   N4        1.0  0.18668  0.26211  0.06032  1.0000
  C   C54       1.0  0.18560  0.24745  0.08451  1.0000
  C   C55       1.0  0.20130  0.27915  0.06829  1.0000
  C   C56       1.0  0.16471  0.27306  0.05507  1.0000
  C   C57       1.0  0.19398  0.24927  0.03538  1.0000
  C   C58       1.0  0.17313  0.28011  0.21305  1.0000
  C   C59       1.0  0.01446  0.20131  0.48508  1.0000
  H   H55       1.0  0.17350  0.23526  0.08147  1.0000
  S   S17       1.0  0.23685  0.27491  0.22953  1.0000
  H   H56       1.0  0.07975  0.27077  0.20999  1.0000
  H   H57       1.0  0.15235  0.26132  0.05065  1.0000
  H   H58       1.0  0.15863  0.28301  0.07330  1.0000
  H   H59       1.0  0.16485  0.28414  0.03693  1.0000
  S   S18       1.0  0.24795  0.32404  0.12147  1.0000
  H   H60       1.0  0.03426  0.28544  0.25822  1.0000
  H   H61       1.0  0.23160  0.25943  0.28501  1.0000
  C   C60       1.0  0.00313  0.18748  0.06002  1.0000
  S   S19       1.0  0.12451  0.22902  0.01325  1.0000
  N   N5        1.0  0.03846  0.19771  0.48193  1.0000
  C   C61       1.0  0.09982  0.29782  0.49214  1.0000
  H   H62       1.0  0.02202  0.31581  0.23524  1.0000
  Fe  Fe10      1.0  0.21883  0.31907  0.14755  1.0000
  H   H63       1.0  0.14189  0.30891  0.18542  1.0000
  S   S20       1.0  0.22702  0.28347  0.15271  1.0000
  H   H64       1.0  0.17903  0.31113  0.27067  1.0000
  H   H65       1.0  0.13385  0.27733  0.39086  1.0000
  H   H66       1.0  0.03755  0.19850  0.43715  1.0000
  S   S21       1.0  0.22023  0.22595  0.40852  1.0000
  C   C62       1.0  0.11210  0.31853  0.20561  1.0000
  H   H67       1.0  0.10123  0.30673  0.44960  1.0000
  N   N6        1.0  0.14054  0.28609  0.43343  1.0000
  H   H68       1.0  0.03821  0.22476  0.45353  1.0000
  C   C63       1.0  0.14250  0.30901  0.42527  1.0000
  C   C64       1.0  0.02194  0.18387  0.21111  1.0000
  C   C65       1.0  0.05579  0.30310  0.18011  1.0000
  H   H69       1.0  0.06224  0.20671  0.45215  1.0000
  H   H70       1.0  0.08054  0.24842  0.00401  1.0000
  H   H71       1.0  0.20171  0.23840  0.08849  1.0000
  H   H72       1.0  0.17683  0.32020  0.19420  1.0000
  C   C66       1.0  0.18209  0.23195  0.02572  1.0000
  H   H73       1.0  0.00399  0.16016  0.11584  1.0000
  H   H74       1.0  0.06994  0.11336  0.48377  1.0000
  H   H75       1.0  0.20246  0.29132  0.05150  1.0000
  H   H76       1.0  0.01287  0.27932  0.23416  1.0000
  C   C67       1.0  0.17959  0.29616  0.25754  1.0000
  C   C68       1.0  0.01222  0.14843  0.05752  1.0000
  C   C69       1.0  0.20263  0.23947  0.38430  1.0000
  C   C70       1.0  0.08716  0.24342  0.47973  1.0000
  H   H77       1.0  0.16085  0.20853  0.18030  1.0000
  C   C71       1.0  0.21271  0.25351  0.01990  1.0000
  H   H78       1.0  0.12673  0.25811  0.41629  1.0000
  H   H79       1.0  0.03023  0.12276  0.48648  1.0000
  C   C72       1.0  0.04099  0.18909  0.19822  1.0000
  H   H80       1.0  0.17362  0.28149  0.44871  1.0000
  H   H81       1.0  0.06605  0.29034  0.17004  1.0000
  C   C73       1.0  0.19112  0.22239  0.18836  1.0000
  H   H82       1.0  0.21802  0.27194  0.07347  1.0000
  C   C74       1.0  0.10970  0.29752  0.46598  1.0000
  C   C75       1.0  0.21023  0.25479  0.36631  1.0000
  C   C76       1.0  0.04119  0.13555  0.48448  1.0000
  C   C77       1.0  0.04434  0.20731  0.45508  1.0000
  H   H83       1.0  0.15093  0.31795  0.44177  1.0000
  H   H84       1.0  0.05525  0.19189  0.21065  1.0000
  C   C78       1.0  0.03306  0.15161  0.06797  1.0000
  C   C79       1.0  0.19504  0.23424  0.48629  1.0000
  H   H85       1.0  0.02853  0.21196  0.01755  1.0000
  H   H86       1.0  0.05675  0.19412  0.15930  1.0000
  C   C80       1.0  0.00374  0.18125  0.16564  1.0000
  H   H87       1.0  0.17131  0.28353  0.26873  1.0000
  H   H88       1.0  0.06469  0.32646  0.15007  1.0000
  H   H89       1.0  0.08108  0.18058  0.47929  1.0000
  H   H90       1.0  0.10459  0.32377  0.27526  1.0000
  C   C81       1.0  0.05530  0.32386  0.16862  1.0000
  H   H91       1.0  0.01531  0.16010  0.48584  1.0000
  H   H92       1.0  0.16360  0.26719  0.22164  1.0000
  H   H93       1.0  0.09508  0.14252  0.48032  1.0000
  S   S22       1.0  0.23499  0.32860  0.18714  1.0000
  H   H94       1.0  0.10331  0.32092  0.18609  1.0000
  H   H95       1.0  0.15366  0.26203  0.48130  1.0000
  C   C82       1.0  0.13894  0.27258  0.48339  1.0000
  C   C83       1.0  0.12239  0.32632  0.12691  1.0000
  H   H96       1.0  0.08441  0.30726  0.49549  1.0000
  H   H97       1.0  0.12214  0.28300  0.00155  1.0000
  H   H98       1.0  0.14258  0.31055  0.27599  1.0000
  C   C84       1.0  0.13422  0.31141  0.20543  1.0000
  H   H99       1.0  0.05474  0.17851  0.02221  1.0000
  H   H100      1.0  0.05244  0.22360  0.00579  1.0000
  H   H101      1.0  0.21713  0.25831  0.49193  1.0000
  H   H102      1.0  0.00885  0.21894  0.48510  1.0000
  H   H103      1.0  0.08430  0.32862  0.23098  1.0000
  H   H104      1.0  0.03447  0.15302  0.00201  1.0000
  C   C85       1.0  0.24584  0.26852  0.28487  1.0000
  H   H105      1.0  0.07592  0.19134  0.00552  1.0000
  C   C86       1.0  0.18861  0.21957  0.00227  1.0000
  C   C87       1.0  0.06145  0.18204  0.00146  1.0000
  H   H106      1.0  0.08261  0.24982  0.49988  1.0000
  Fe  Fe11      1.0  0.12114  0.26909  0.82254  1.0000
  S   S23       1.0  0.10472  0.23898  0.83266  1.0000
  S   S24       1.0  0.15695  0.27085  0.81567  1.0000
  Fe  Fe12      1.0  0.07864  0.29757  0.81718  1.0000
  S   S25       1.0  0.05886  0.26979  0.82683  1.0000
  H   H107      1.0  0.00467  0.29686  0.70701  1.0000
  Fe  Fe13      1.0  0.08379  0.26153  0.86050  1.0000
  S   S26       1.0  0.07063  0.25507  0.90345  1.0000
  Fe  Fe14      1.0  0.08168  0.25013  0.79824  1.0000
  S   S27       1.0  0.06885  0.22848  0.76487  1.0000
  S   S28       1.0  0.10204  0.29096  0.85269  1.0000
  S   S29       1.0  0.09966  0.27847  0.78615  1.0000
  Fe  Fe15      1.0  0.05760  0.22013  0.58136  1.0000
  S   S30       1.0  0.08605  0.19546  0.57633  1.0000
  S   S31       1.0  0.02270  0.21097  0.57993  1.0000
  Fe  Fe16      1.0  0.08813  0.25683  0.59099  1.0000
  S   S32       1.0  0.11810  0.23432  0.58582  1.0000
  S   S33       1.0  0.09180  0.29211  0.59999  1.0000
  Fe  Fe17      1.0  0.09995  0.22080  0.54967  1.0000
  H   H108      1.0  0.17075  0.31398  0.80511  1.0000
  Fe  Fe18      1.0  0.10017  0.21248  0.61313  1.0000
  S   S34       1.0  0.11370  0.19620  0.65232  1.0000
  S   S35       1.0  0.07079  0.24484  0.55339  1.0000
  S   S36       1.0  0.07082  0.23565  0.61953  1.0000
  H   H109      1.0  0.19427  0.28960  0.73869  1.0000
  C   C88       1.0  0.20218  0.22596  0.86909  1.0000
  C   C89       1.0  0.11788  0.30064  0.60746  1.0000
  C   C90       1.0  0.13546  0.28635  0.61638  1.0000
  C   C91       1.0  0.15588  0.29427  0.62230  1.0000
  C   C92       1.0  0.15870  0.31642  0.61901  1.0000
  H   H110      1.0  0.09655  0.30260  0.66278  1.0000
  H   H111      1.0  0.23780  0.23834  0.77601  1.0000
  H   H112      1.0  0.13327  0.26933  0.61913  1.0000
  H   H113      1.0  0.16944  0.28328  0.62899  1.0000
  N   N7        1.0  0.04589  0.17232  0.65732  1.0000
  H   H114      1.0  0.15840  0.27140  0.98436  1.0000
  C   C93       1.0  0.14698  0.27958  0.97003  1.0000
  H   H115      1.0  0.19176  0.27715  0.97051  1.0000
  H   H116      1.0  0.06416  0.28405  0.64963  1.0000
  C   C94       1.0  0.03820  0.21505  0.99871  1.0000
  C   C95       1.0  0.17323  0.32829  0.73697  1.0000
  C   C96       1.0  0.00838  0.19228  0.96091  1.0000
  C   C97       1.0  0.02313  0.32206  0.74419  1.0000
  H   H117      1.0  0.14544  0.30902  0.73124  1.0000
  H   H118      1.0  0.19271  0.28457  0.77533  1.0000
  H   H119      1.0  0.03256  0.31232  0.83681  1.0000
  C   C98       1.0  0.08656  0.24870  0.93345  1.0000
  C   C99       1.0  0.10823  0.23996  0.93195  1.0000
  C   C100      1.0  0.11971  0.23381  0.95651  1.0000
  C   C101      1.0  0.18429  0.29332  0.75762  1.0000
  S   S37       1.0  0.22337  0.31794  0.68863  1.0000
  C   C102      1.0  0.07669  0.25159  0.95961  1.0000
  H   H120      1.0  0.11595  0.23757  0.91188  1.0000
  H   H121      1.0  0.13632  0.22675  0.95523  1.0000
  H   H122      1.0  0.16700  0.27363  0.88738  1.0000
  H   H123      1.0  0.05999  0.25843  0.96094  1.0000
  C   C103      1.0  0.08499  0.22170  0.73539  1.0000
  C   C104      1.0  0.09604  0.20101  0.73333  1.0000
  C   C105      1.0  0.10579  0.19388  0.70818  1.0000
  C   C106      1.0  0.10415  0.20714  0.68460  1.0000
  C   C107      1.0  0.09394  0.22823  0.68699  1.0000
  C   C108      1.0  0.08421  0.23542  0.71224  1.0000
  H   H124      1.0  0.09636  0.19016  0.75094  1.0000
  H   H125      1.0  0.11378  0.17763  0.70664  1.0000
  H   H126      1.0  0.09345  0.23901  0.66942  1.0000
  H   H127      1.0  0.07556  0.25137  0.71357  1.0000
  H   H128      1.0  0.06219  0.15172  0.62599  1.0000
  C   C109      1.0  0.08825  0.24575  0.98407  1.0000
  C   C110      1.0  0.19657  0.25450  0.83475  1.0000
  C   C111      1.0  0.17413  0.25265  0.83526  1.0000
  C   C112      1.0  0.16577  0.23685  0.85193  1.0000
  C   C113      1.0  0.17983  0.22338  0.86868  1.0000
  H   H129      1.0  0.20324  0.26655  0.82181  1.0000
  H   H130      1.0  0.14849  0.23530  0.85250  1.0000
  H   H131      1.0  0.17332  0.21151  0.88206  1.0000
  C   C114      1.0  0.02687  0.14865  0.55066  1.0000
  C   C115      1.0  0.03245  0.16913  0.55980  1.0000
  C   C116      1.0  0.01622  0.18510  0.56784  1.0000
  H   H132      1.0  0.15934  0.19750  0.72340  1.0000
  N   N8        1.0  0.04493  0.19444  0.98385  1.0000
  H   H133      1.0  0.03958  0.13636  0.54474  1.0000
  H   H134      1.0  0.04934  0.17241  0.56066  1.0000
  C   C117      1.0  0.11020  0.29527  0.96220  1.0000
  S   S38       1.0  0.18380  0.32764  0.62438  1.0000
  H   H135      1.0  0.20822  0.27856  0.94068  1.0000
  N   N9        1.0  0.03093  0.29943  0.73641  1.0000
  C   C118      1.0  0.00385  0.15116  0.98272  1.0000
  H   H136      1.0  0.23568  0.27665  0.52289  1.0000
  H   H137      1.0  0.14691  0.23272  0.78542  1.0000
  C   C119      1.0  0.08355  0.30161  0.67770  1.0000
  C   C120      1.0  0.04891  0.29967  0.71610  1.0000
  C   C121      1.0  0.12620  0.28607  0.98008  1.0000
  H   H138      1.0  0.09925  0.31905  0.70993  1.0000
  H   H139      1.0  0.06106  0.14416  0.67800  1.0000
  C   C122      1.0  0.16497  0.32151  0.78510  1.0000
  H   H140      1.0  0.19296  0.24378  0.92549  1.0000
  S   S39       1.0  0.06540  0.33112  0.80353  1.0000
  C   C123      1.0  0.13577  0.29202  0.92404  1.0000
  H   H141      1.0  0.00936  0.20821  0.95208  1.0000
  H   H142      1.0  0.05247  0.16629  0.70111  1.0000
  H   H143      1.0  0.00972  0.32259  0.75971  1.0000
  H   H144      1.0  0.21041  0.25227  0.58323  1.0000
  H   H145      1.0  0.11341  0.27095  0.71230  1.0000
  C   C124      1.0  0.13036  0.26471  0.71229  1.0000
  H   H146      1.0  0.01557  0.17106  0.69883  1.0000
  H   H147      1.0  0.17436  0.24455  0.95400  1.0000
  H   H148      1.0  0.16867  0.28580  0.75486  1.0000
  C   C125      1.0  0.22085  0.28626  0.53070  1.0000
  N   N10       1.0  0.18120  0.31713  0.76270  1.0000
  H   H149      1.0  0.05918  0.18457  0.94447  1.0000
  C   C126      1.0  0.01188  0.28858  0.72582  1.0000
  H   H150      1.0  0.23342  0.24471  0.98487  1.0000
  H   H151      1.0  0.17786  0.29472  0.54366  1.0000
  C   C127      1.0  0.20235  0.32416  0.77289  1.0000
  H   H152      1.0  0.05814  0.20372  0.66356  1.0000
  C   C128      1.0  0.19715  0.25574  0.52945  1.0000
  H   H153      1.0  0.07480  0.17618  0.63321  1.0000
  H   H154      1.0  0.03611  0.33102  0.75396  1.0000
  C   C129      1.0  0.05569  0.19950  0.95738  1.0000
  C   C130      1.0  0.18086  0.24334  0.54054  1.0000
  S   S40       1.0  0.11504  0.21322  0.50716  1.0000
  H   H155      1.0  0.18966  0.30139  0.94988  1.0000
  H   H156      1.0  0.21198  0.29419  0.51278  1.0000
  H   H157      1.0  0.16418  0.24343  0.91926  1.0000
  S   S41       1.0  0.24396  0.26581  0.89814  1.0000
  H   H158      1.0  0.17670  0.29888  0.89969  1.0000
  H   H159      1.0  0.19365  0.21748  0.78235  1.0000
  H   H160      1.0  0.17721  0.26933  0.67695  1.0000
  N   N11       1.0  0.20672  0.27256  0.54671  1.0000
  Fe  Fe19      1.0  0.21445  0.31198  0.64413  1.0000
  C   C131      1.0  0.19161  0.28331  0.94890  1.0000
  C   C132      1.0  0.06808  0.30981  0.72312  1.0000
  N   N12       1.0  0.16812  0.22277  0.75131  1.0000
  C   C133      1.0  0.18798  0.22920  0.76581  1.0000
  C   C134      1.0  0.15215  0.21793  0.77300  1.0000
  H   H161      1.0  0.17957  0.18881  0.74915  1.0000
  C   C135      1.0  0.15982  0.24006  0.73185  1.0000
  N   N13       1.0  0.17434  0.27462  0.93137  1.0000
  C   C136      1.0  0.13781  0.24905  0.73175  1.0000
  C   C137      1.0  0.15250  0.28254  0.94172  1.0000
  H   H162      1.0  0.20201  0.23012  0.75157  1.0000
  C   C138      1.0  0.14446  0.27190  0.69248  1.0000
  H   H163      1.0  0.18491  0.24539  0.77595  1.0000
  H   H164      1.0  0.07607  0.16784  0.68044  1.0000
  H   H165      1.0  0.04452  0.20285  0.52546  1.0000
  H   H166      1.0  0.13747  0.21124  0.76380  1.0000
  C   C139      1.0  0.17166  0.22732  0.52468  1.0000
  H   H167      1.0  0.15916  0.20561  0.78809  1.0000
  H   H168      1.0  0.18688  0.20438  0.71995  1.0000
  C   C140      1.0  0.10972  0.23662  0.98266  1.0000
  H   H169      1.0  0.02809  0.22667  0.98551  1.0000
  C   C141      1.0  0.02562  0.32755  0.82841  1.0000
  C   C142      1.0  0.02263  0.16165  0.98862  1.0000
  C   C143      1.0  0.18933  0.28741  0.55963  1.0000
  H   H170      1.0  0.05212  0.29581  0.77231  1.0000
  S   S42       1.0  0.24614  0.32212  0.62778  1.0000
  C   C144      1.0  0.03890  0.28774  0.76178  1.0000
  H   H171      1.0  0.13812  0.29444  0.90208  1.0000
  C   C145      1.0  0.05935  0.16219  0.68022  1.0000
  H   H172      1.0  0.21515  0.32153  0.75667  1.0000
  H   H173      1.0  0.13378  0.32525  0.68648  1.0000
  C   C146      1.0  0.20717  0.22405  0.98770  1.0000
  S   S43       1.0  0.23034  0.26106  0.72423  1.0000
  H   H174      1.0  0.22692  0.29945  0.54385  1.0000
  C   C147      1.0  0.04241  0.19604  0.66267  1.0000
  H   H175      1.0  0.12589  0.24401  0.74618  1.0000
  C   C148      1.0  0.11495  0.29818  0.93426  1.0000
  H   H176      1.0  0.03420  0.19988  0.68283  1.0000
  C   C149      1.0  0.00501  0.14401  0.54876  1.0000
  C   C150      1.0  0.05873  0.16924  0.63132  1.0000
  C   C151      1.0  0.04842  0.20966  0.50495  1.0000
  H   H177      1.0  0.22780  0.24286  0.85138  1.0000
  C   C152      1.0  0.21053  0.24119  0.85164  1.0000
  S   S44       1.0  0.22512  0.27653  0.64543  1.0000
  H   H178      1.0  0.22809  0.27382  0.58230  1.0000
  C   C153      1.0  0.14106  0.33051  0.61037  1.0000
  H   H179      1.0  0.19612  0.30100  0.57139  1.0000
  H   H180      1.0  0.02583  0.28697  0.77757  1.0000
  C   C154      1.0  0.17374  0.20248  0.73529  1.0000
  S   S45       1.0  0.21935  0.21177  0.89323  1.0000
  C   C155      1.0  0.17372  0.24781  0.71138  1.0000
  H   H181      1.0  0.00192  0.13525  0.99137  1.0000
  C   C156      1.0  0.12078  0.32273  0.60490  1.0000
  H   H182      1.0  0.07003  0.31723  0.74338  1.0000
  C   C157      1.0  0.04804  0.29015  0.68908  1.0000
  H   H183      1.0  0.13853  0.28378  0.67718  1.0000
  C   C158      1.0  0.01685  0.15272  0.63152  1.0000
  H   H184      1.0  0.03228  0.20424  0.64587  1.0000
  H   H185      1.0  0.05019  0.17768  0.61352  1.0000
  Fe  Fe20      1.0  0.23691  0.28322  0.68872  1.0000
  H   H186      1.0  0.21222  0.21444  0.96947  1.0000
  C   C159      1.0  0.17661  0.25058  0.93263  1.0000
  H   H187      1.0  0.10165  0.28577  0.53410  1.0000
  H   H188      1.0  0.07146  0.20666  0.96108  1.0000
  C   C160      1.0  0.12879  0.27284  0.50940  1.0000
  C   C161      1.0  0.22015  0.26179  0.56912  1.0000
  C   C162      1.0  0.06518  0.29117  0.67029  1.0000
  H   H189      1.0  0.19497  0.27497  0.89514  1.0000
  H   H190      1.0  0.19055  0.24148  0.70977  1.0000
  C   C163      1.0  0.17832  0.28092  0.90217  1.0000
  H   H191      1.0  0.10220  0.30470  0.92025  1.0000
  H   H192      1.0  0.04569  0.21151  0.94454  1.0000
  C   C164      1.0  0.20424  0.25045  0.50187  1.0000
  C   C165      1.0  0.02459  0.16283  0.65594  1.0000
  C   C166      1.0  0.10945  0.28567  0.51389  1.0000
  C   C167      1.0  0.02546  0.18262  0.97784  1.0000
  C   C168      1.0  0.16617  0.26366  0.69225  1.0000
  C   C169      1.0  0.21909  0.24108  0.99641  1.0000
  H   H193      1.0  0.17525  0.24571  0.56169  1.0000
  H   H194      1.0  0.20848  0.31473  0.79145  1.0000
  C   C170      1.0  0.08503  0.31085  0.70412  1.0000
  H   H195      1.0  0.23346  0.25043  0.56042  1.0000
  H   H196      1.0  0.03431  0.28189  0.68182  1.0000
  H   H197      1.0  0.01639  0.27114  0.72079  1.0000
  H   H198      1.0  0.04540  0.27079  0.75679  1.0000
  H   H199      1.0  0.17968  0.27918  0.57514  1.0000
  C   C171      1.0  0.15454  0.32168  0.72289  1.0000
  H   H200      1.0  0.15904  0.21819  0.53346  1.0000
  H   H201      1.0  0.13566  0.26268  0.52607  1.0000
  C   C172      1.0  0.24401  0.25415  0.77808  1.0000
  H   H202      1.0  0.02604  0.15133  0.61248  1.0000
  H   H203      1.0  0.06755  0.16645  0.99132  1.0000
  H   H204      1.0  0.14924  0.31468  0.78015  1.0000
  H   H205      1.0  0.04251  0.22721  0.50519  1.0000
  H   H206      1.0  0.06641  0.20898  0.50355  1.0000
  H   H207      1.0  0.09387  0.29951  0.96981  1.0000
  C   C173      1.0  0.01081  0.16359  0.67957  1.0000
  H   H208      1.0  0.17911  0.20648  0.99537  1.0000
  C   C174      1.0  0.24269  0.26851  0.75557  1.0000
  H   H209      1.0  0.00904  0.19469  0.50518  1.0000
  Fe  Fe21      1.0  0.24943  0.22958  0.89881  1.0000
  C   C175      1.0  0.14755  0.33098  0.69757  1.0000
  H   H210      1.0  0.01712  0.33151  0.72567  1.0000
  C   C176      1.0  0.00317  0.52176  0.24126  1.0000
  C   C177      1.0  0.00545  0.53780  0.34206  1.0000
  C   C178      1.0  0.02772  0.64148  0.42348  1.0000
  H   H211      1.0  0.17917  0.33323  0.22741  1.0000
  H   H212      1.0  0.10753  0.33682  0.12478  1.0000
  H   H213      1.0  0.01608  0.50806  0.24219  1.0000
  C   C179      1.0  0.02451  0.34806  0.28237  1.0000
  C   C180      1.0  0.00507  0.53054  0.29171  1.0000
  C   C181      1.0  0.03337  0.66288  0.42079  1.0000
  C   C182      1.0  0.03112  0.33787  0.20496  1.0000
  C   C183      1.0  0.04301  0.34123  0.18104  1.0000
  H   H214      1.0  0.14256  0.35299  0.13020  1.0000
  H   H215      1.0  0.03023  0.55220  0.23686  1.0000
  H   H216      1.0  0.03919  0.62807  0.41743  1.0000
  S   S46       1.0  0.18585  0.33524  0.13680  1.0000
  H   H217      1.0  0.00342  0.62064  0.43637  1.0000
  H   H218      1.0  0.03550  0.35868  0.27311  1.0000
  C   C184      1.0  0.02826  0.54644  0.25854  1.0000
  H   H219      1.0  0.00782  0.56219  0.31167  1.0000
  H   H220      1.0  0.00599  0.54927  0.35926  1.0000
  N   N14       1.0  0.00647  0.53857  0.26285  1.0000
  C   C185      1.0  0.00232  0.35514  0.28519  1.0000
  C   C186      1.0  0.00319  0.50829  0.29801  1.0000
  C   C187      1.0  0.00224  0.50125  0.32554  1.0000
  C   C188      1.0  0.00633  0.54504  0.31465  1.0000
  H   H221      1.0  0.04138  0.53332  0.26267  1.0000
  C   C189      1.0  0.00742  0.63721  0.43425  1.0000
  H   H222      1.0  0.03119  0.56034  0.27257  1.0000
  H   H223      1.0  0.04284  0.35734  0.17221  1.0000
  C   C190      1.0  0.14225  0.33548  0.12998  1.0000
  H   H224      1.0  0.02185  0.35146  0.21492  1.0000
  C   C191      1.0  0.00326  0.51599  0.34751  1.0000
  H   H225      1.0  0.00222  0.51061  0.36884  1.0000
  H   H226      1.0  0.00196  0.49595  0.28214  1.0000
  H   H227      1.0  0.00360  0.52848  0.21984  1.0000
  H   H228      1.0  0.00048  0.48424  0.32972  1.0000
  H   H229      1.0  0.03881  0.36976  0.78866  1.0000
  C   C192      1.0  0.01129  0.61434  0.89339  1.0000
  H   H230      1.0  0.02959  0.64217  0.96319  1.0000
  C   C193      1.0  0.00396  0.33490  0.83442  1.0000
  C   C194      1.0  0.00732  0.36721  0.80717  1.0000
  H   H231      1.0  0.14308  0.34763  0.60776  1.0000
  C   C195      1.0  0.02908  0.35996  0.80139  1.0000
  C   C196      1.0  0.01610  0.65352  0.95709  1.0000
  H   H232      1.0  0.02712  0.66006  0.52042  1.0000
  H   H233      1.0  0.20098  0.34156  0.77934  1.0000
  H   H234      1.0  0.00631  0.59820  0.89999  1.0000
  H   H235      1.0  0.19782  0.35208  0.73425  1.0000
  H   H236      1.0  0.10733  0.33391  0.59825  1.0000
  C   C197      1.0  0.01987  0.65644  0.87422  1.0000
  H   H237      1.0  0.02786  0.61156  0.88431  1.0000
  H   H238      1.0  0.01226  0.62415  0.91280  1.0000
  C   C198      1.0  0.18364  0.34570  0.72504  1.0000
  C   C199      1.0  0.17643  0.35494  0.69980  1.0000
  H   H239      1.0  0.15353  0.35424  0.66598  1.0000
  H   H240      1.0  0.03021  0.64931  0.89051  1.0000
  C   C200      1.0  0.03829  0.34011  0.81199  1.0000
  C   C201      1.0  0.15859  0.34745  0.68597  1.0000
  H   H241      1.0  0.18512  0.36759  0.69043  1.0000
  H   H242      1.0  0.16149  0.33927  0.78878  1.0000
  H   H243      1.0  0.00899  0.60861  0.83663  1.0000
  C   C202      1.0  0.00186  0.64622  0.86313  1.0000
  H   H244      1.0  0.00037  0.38255  0.79900  1.0000
  Fe  Fe22      1.0  0.08288  0.81316  0.15662  1.0000
  S   S47       1.0  0.11559  0.82690  0.15610  1.0000
  S   S48       1.0  0.07989  0.77837  0.14452  1.0000
  H   H245      1.0  0.01637  0.70690  0.03818  1.0000
  S   S49       1.0  0.23003  0.76229  0.10802  1.0000
  H   H246      1.0  0.03084  0.68166  0.04943  1.0000
  H   H247      1.0  0.13963  0.75649  0.44892  1.0000
  S   S50       1.0  0.23431  0.76323  0.03974  1.0000
  C   C203      1.0  0.09605  0.72594  0.05128  1.0000
  Fe  Fe23      1.0  0.21373  0.78074  0.07249  1.0000
  S   S51       1.0  0.17774  0.78276  0.06390  1.0000
  H   H248      1.0  0.14780  0.82370  0.03917  1.0000
  S   S52       1.0  0.23416  0.80922  0.07537  1.0000
  S   S53       1.0  0.06194  0.76344  0.34233  1.0000
  Fe  Fe24      1.0  0.07806  0.74025  0.37358  1.0000
  S   S54       1.0  0.09121  0.70578  0.36632  1.0000
  C   C204      1.0  0.00720  0.87480  0.15769  1.0000
  Fe  Fe25      1.0  0.08969  0.73918  0.43490  1.0000
  S   S55       1.0  0.10357  0.70452  0.43298  1.0000
  C   C205      1.0  0.18194  0.71000  0.45262  1.0000
  Fe  Fe26      1.0  0.11920  0.71400  0.39332  1.0000
  S   S56       1.0  0.15319  0.69867  0.38617  1.0000
  Fe  Fe27      1.0  0.07444  0.69903  0.40633  1.0000
  H   H249      1.0  0.10267  0.77963  0.03693  1.0000
  S   S57       1.0  0.10757  0.74916  0.39711  1.0000
  S   S58       1.0  0.05902  0.73305  0.41175  1.0000
  H   H250      1.0  0.21381  0.72010  0.44468  1.0000
  N   N15       1.0  0.24076  0.73593  0.24172  1.0000
  H   H251      1.0  0.02087  0.82862  0.08560  1.0000
  S   S59       1.0  0.20817  0.79613  0.33028  1.0000
  S   S60       1.0  0.23548  0.73762  0.33323  1.0000
  Fe  Fe28      1.0  0.22497  0.81321  0.29656  1.0000
  S   S61       1.0  0.20850  0.81957  0.25478  1.0000
  Fe  Fe29      1.0  0.22614  0.81578  0.36104  1.0000
  S   S62       1.0  0.21040  0.82596  0.40223  1.0000
  H   H252      1.0  0.11514  0.78811  0.43624  1.0000
  C   C206      1.0  0.14494  0.79091  0.00466  1.0000
  H   H253      1.0  0.23218  0.75355  0.39508  1.0000
  H   H254      1.0  0.05329  0.78490  0.24510  1.0000
  H   H255      1.0  0.14688  0.84503  0.01421  1.0000
  C   C207      1.0  0.20027  0.72084  0.45903  1.0000
  H   H256      1.0  0.02877  0.88140  0.22578  1.0000
  C   C208      1.0  0.17533  0.71078  0.37160  1.0000
  C   C209      1.0  0.19403  0.69727  0.36530  1.0000
  C   C210      1.0  0.21221  0.70581  0.35364  1.0000
  C   C211      1.0  0.21214  0.72807  0.34860  1.0000
  C   C212      1.0  0.19358  0.74180  0.35546  1.0000
  C   C213      1.0  0.17507  0.73314  0.36667  1.0000
  H   H257      1.0  0.19437  0.67999  0.36913  1.0000
  H   H258      1.0  0.22641  0.69505  0.34853  1.0000
  H   H259      1.0  0.19326  0.75899  0.35184  1.0000
  H   H260      1.0  0.16060  0.74364  0.37119  1.0000
  H   H261      1.0  0.01567  0.72062  0.35779  1.0000
  H   H262      1.0  0.02148  0.74658  0.46297  1.0000
  H   H263      1.0  0.07560  0.72185  0.49206  1.0000
  C   C214      1.0  0.22493  0.81493  0.22496  1.0000
  C   C215      1.0  0.21512  0.81260  0.19879  1.0000
  C   C216      1.0  0.22790  0.80842  0.17487  1.0000
  S   S63       1.0  0.05223  0.82620  0.13468  1.0000
  C   C217      1.0  0.13260  0.80140  0.48700  1.0000
  H   H264      1.0  0.19759  0.81416  0.19690  1.0000
  H   H265      1.0  0.22015  0.80676  0.15477  1.0000
  H   H266      1.0  0.03244  0.72950  0.00381  1.0000
  C   C218      1.0  0.22762  0.81179  0.48248  1.0000
  C   C219      1.0  0.21559  0.81827  0.45849  1.0000
  C   C220      1.0  0.22589  0.81919  0.43255  1.0000
  H   H267      1.0  0.08909  0.71246  0.01172  1.0000
  C   C221      1.0  0.15133  0.82735  0.01701  1.0000
  C   C222      1.0  0.08276  0.71581  0.03239  1.0000
  S   S64       1.0  0.09213  0.76161  0.47181  1.0000
  H   H268      1.0  0.01803  0.68376  0.01583  1.0000
  C   C223      1.0  0.02106  0.72851  0.30072  1.0000
  C   C224      1.0  0.07596  0.73578  0.26683  1.0000
  C   C225      1.0  0.07468  0.73917  0.29578  1.0000
  C   C226      1.0  0.06548  0.75899  0.30636  1.0000
  H   H269      1.0  0.08285  0.72035  0.25866  1.0000
  H   H270      1.0  0.08047  0.72637  0.30982  1.0000
  C   C227      1.0  0.24228  0.74773  0.41248  1.0000
  S   S65       1.0  0.05915  0.66705  0.40719  1.0000
  C   C228      1.0  0.22657  0.75644  0.24466  1.0000
  C   C229      1.0  0.12910  0.79634  0.42797  1.0000
  C   C230      1.0  0.01930  0.91280  0.20862  1.0000
  C   C231      1.0  0.13303  0.81453  0.13073  1.0000
  C   C232      1.0  0.12465  0.80227  0.10927  1.0000
  C   C233      1.0  0.13858  0.79224  0.08921  1.0000
  C   C234      1.0  0.16098  0.79452  0.09036  1.0000
  C   C235      1.0  0.16948  0.80668  0.11192  1.0000
  C   C236      1.0  0.15547  0.81677  0.13204  1.0000
  H   H271      1.0  0.10736  0.80076  0.10788  1.0000
  H   H272      1.0  0.13192  0.78257  0.07294  1.0000
  H   H273      1.0  0.18676  0.80855  0.11289  1.0000
  H   H274      1.0  0.16203  0.82635  0.14854  1.0000
  C   C237      1.0  0.06836  0.75230  0.24843  1.0000
  N   N16       1.0  0.13686  0.78820  0.22545  1.0000
  C   C238      1.0  0.11861  0.80367  0.23473  1.0000
  C   C239      1.0  0.15445  0.80111  0.21524  1.0000
  C   C240      1.0  0.12933  0.77537  0.20148  1.0000
  C   C241      1.0  0.14376  0.77356  0.24873  1.0000
  C   C242      1.0  0.12931  0.75890  0.25923  1.0000
  C   C243      1.0  0.16441  0.77375  0.26216  1.0000
  C   C244      1.0  0.13525  0.74497  0.28127  1.0000
  C   C245      1.0  0.17019  0.75971  0.28423  1.0000
  C   C246      1.0  0.15569  0.74527  0.29363  1.0000
  H   H275      1.0  0.12335  0.81322  0.25321  1.0000
  H   H276      1.0  0.11337  0.81544  0.21801  1.0000
  H   H277      1.0  0.10401  0.79527  0.24051  1.0000
  H   H278      1.0  0.14890  0.81154  0.19730  1.0000
  H   H279      1.0  0.16871  0.79039  0.20795  1.0000
  H   H280      1.0  0.15993  0.81244  0.23151  1.0000
  H   H281      1.0  0.11415  0.76752  0.20597  1.0000
  H   H282      1.0  0.12542  0.78576  0.18298  1.0000
  H   H283      1.0  0.14199  0.76242  0.19512  1.0000
  H   H284      1.0  0.11315  0.75828  0.25061  1.0000
  H   H285      1.0  0.17627  0.78480  0.25628  1.0000
  H   H286      1.0  0.12381  0.73401  0.28896  1.0000
  H   H287      1.0  0.18588  0.76021  0.29446  1.0000
  H   H288      1.0  0.16018  0.73443  0.31074  1.0000
  C   C247      1.0  0.16437  0.71071  0.47100  1.0000
  H   H289      1.0  0.00811  0.85055  0.06624  1.0000
  H   H290      1.0  0.17904  0.74096  0.02383  1.0000
  Fe  Fe30      1.0  0.23832  0.77364  0.33115  1.0000
  H   H291      1.0  0.21530  0.74102  0.48892  1.0000
  H   H292      1.0  0.23481  0.77085  0.23816  1.0000
  C   C248      1.0  0.02127  0.69298  0.27893  1.0000
  C   C249      1.0  0.17598  0.74130  0.00153  1.0000
  H   H293      1.0  0.16925  0.82388  0.01459  1.0000
  C   C250      1.0  0.08845  0.73167  0.07779  1.0000
  H   H294      1.0  0.02272  0.86760  0.15039  1.0000
  H   H295      1.0  0.02575  0.67678  0.49070  1.0000
  C   C251      1.0  0.17118  0.79013  0.48613  1.0000
  H   H296      1.0  0.12907  0.79313  0.40513  1.0000
  H   H297      1.0  0.09855  0.74009  0.09213  1.0000
  H   H298      1.0  0.01446  0.70959  0.47562  1.0000
  C   C252      1.0  0.06153  0.71065  0.03974  1.0000
  C   C253      1.0  0.03087  0.71002  0.35397  1.0000
  H   H299      1.0  0.11649  0.80362  0.47798  1.0000
  H   H300      1.0  0.11136  0.81734  0.02484  1.0000
  H   H301      1.0  0.21349  0.71624  0.24406  1.0000
  H   H302      1.0  0.02247  0.73952  0.31811  1.0000
  C   C254      1.0  0.07710  0.77050  0.00961  1.0000
  H   H303      1.0  0.02425  0.76866  0.02889  1.0000
  H   H304      1.0  0.14142  0.78760  0.02676  1.0000
  H   H305      1.0  0.04433  0.72054  0.35003  1.0000
  N   N17       1.0  0.15004  0.78826  0.44125  1.0000
  H   H306      1.0  0.12576  0.81420  0.43103  1.0000
  C   C255      1.0  0.16764  0.79789  0.42575  1.0000
  C   C256      1.0  0.15272  0.76434  0.43786  1.0000
  C   C257      1.0  0.02745  0.69270  0.03144  1.0000
  H   H307      1.0  0.01708  0.69295  0.23431  1.0000
  S   S66       1.0  0.06680  0.81078  0.19810  1.0000
  C   C258      1.0  0.24153  0.71246  0.19768  1.0000
  S   S67       1.0  0.23888  0.83633  0.32710  1.0000
  H   H308      1.0  0.21154  0.75601  0.23179  1.0000
  S   S68       1.0  0.02933  0.78591  0.16497  1.0000
  C   C259      1.0  0.00800  0.84240  0.08673  1.0000
  H   H309      1.0  0.05065  0.79077  0.29605  1.0000
  C   C260      1.0  0.02333  0.70551  0.30358  1.0000
  C   C261      1.0  0.04890  0.68051  0.32819  1.0000
  H   H310      1.0  0.16619  0.79549  0.40283  1.0000
  H   H311      1.0  0.11206  0.73003  0.04503  1.0000
  C   C262      1.0  0.11557  0.81929  0.00254  1.0000
  H   H312      1.0  0.15208  0.75939  0.41560  1.0000
  C   C263      1.0  0.01836  0.68013  0.42836  1.0000
  C   C264      1.0  0.05792  0.77546  0.28794  1.0000
  H   H313      1.0  0.22534  0.72211  0.27700  1.0000
  Fe  Fe31      1.0  0.04791  0.79101  0.12585  1.0000
  C   C265      1.0  0.22925  0.71840  0.25473  1.0000
  C   C266      1.0  0.01607  0.72123  0.49218  1.0000
  Fe  Fe32      1.0  0.06179  0.77677  0.18473  1.0000
  H   H314      1.0  0.18582  0.78336  0.47601  1.0000
  C   C267      1.0  0.20109  0.73256  0.48385  1.0000
  H   H315      1.0  0.14324  0.73196  0.00525  1.0000
  H   H316      1.0  0.15068  0.70201  0.46448  1.0000
  C   C268      1.0  0.07195  0.78125  0.05819  1.0000
  C   C269      1.0  0.00385  0.93058  0.20877  1.0000
  C   C270      1.0  0.08551  0.77759  0.03497  1.0000
  H   H317      1.0  0.18415  0.79056  0.43120  1.0000
  S   S69       1.0  0.07042  0.74782  0.21229  1.0000
  C   C271      1.0  0.04991  0.77767  0.05618  1.0000
  H   H318      1.0  0.03795  0.71472  0.07395  1.0000
  H   H319      1.0  0.23945  0.70265  0.25469  1.0000
  H   H320      1.0  0.07864  0.78628  0.07782  1.0000
  C   C272      1.0  0.05945  0.77218  0.25907  1.0000
  H   H321      1.0  0.19832  0.82267  0.46012  1.0000
  Fe  Fe33      1.0  0.03568  0.82038  0.17511  1.0000
  H   H322      1.0  0.01361  0.67290  0.35849  1.0000
  S   S70       1.0  0.03282  0.78072  0.08539  1.0000
  C   C273      1.0  0.16486  0.72219  0.49677  1.0000
  C   C274      1.0  0.01733  0.89573  0.22692  1.0000
  H   H323      1.0  0.16858  0.75735  0.44623  1.0000
  C   C275      1.0  0.24841  0.81444  0.43110  1.0000
  H   H324      1.0  0.01664  0.75573  0.27285  1.0000
  C   C276      1.0  0.04136  0.77115  0.03062  1.0000
  H   H325      1.0  0.22684  0.81488  0.00290  1.0000
  H   H326      1.0  0.01308  0.85411  0.10274  1.0000
  C   C277      1.0  0.05492  0.76769  0.00731  1.0000
  H   H327      1.0  0.06236  0.68996  0.32086  1.0000
  N   N18       1.0  0.02827  0.69461  0.33052  1.0000
  C   C278      1.0  0.06748  0.72744  0.08542  1.0000
  H   H328      1.0  0.06133  0.73274  0.10568  1.0000
  H   H329      1.0  0.02247  0.69670  0.42595  1.0000
  H   H330      1.0  0.16734  0.81573  0.42961  1.0000
  C   C279      1.0  0.24065  0.75844  0.43805  1.0000
  H   H331      1.0  0.22163  0.75962  0.26668  1.0000
  C   C280      1.0  0.05411  0.71711  0.06678  1.0000
  H   H332      1.0  0.03490  0.70134  0.37380  1.0000
  H   H333      1.0  0.03235  0.91184  0.19352  1.0000
  H   H334      1.0  0.00489  0.94335  0.19357  1.0000
  H   H335      1.0  0.01464  0.73303  0.23058  1.0000
  H   H336      1.0  0.23355  0.69965  0.20751  1.0000
  N   N19       1.0  0.04794  0.69958  0.01945  1.0000
  C   C281      1.0  0.15121  0.79367  0.47129  1.0000
  H   H337      1.0  0.24377  0.69415  0.15909  1.0000
  H   H338      1.0  0.16258  0.78640  0.00133  1.0000
  H   H339      1.0  0.22917  0.77259  0.44050  1.0000
  S   S71       1.0  0.00760  0.84078  0.19479  1.0000
  H   H340      1.0  0.05401  0.67311  0.34852  1.0000
  C   C282      1.0  0.24611  0.73185  0.21200  1.0000
  C   C283      1.0  0.01980  0.74245  0.48470  1.0000
  H   H341      1.0  0.12055  0.71739  0.48910  1.0000
  H   H342      1.0  0.18135  0.70088  0.43327  1.0000
  C   C284      1.0  0.01767  0.73817  0.27466  1.0000
  C   C285      1.0  0.01051  0.68095  0.33794  1.0000
  H   H343      1.0  0.24687  0.86194  0.22525  1.0000
  H   H344      1.0  0.00662  0.90230  0.13009  1.0000
  H   H345      1.0  0.00178  0.80770  0.11665  1.0000
  C   C286      1.0  0.06035  0.67979  0.00820  1.0000
  C   C287      1.0  0.01650  0.72539  0.25080  1.0000
  C   C288      1.0  0.01806  0.70283  0.25295  1.0000
  C   C289      1.0  0.24766  0.81332  0.22696  1.0000
  C   C290      1.0  0.24734  0.70901  0.16976  1.0000
  H   H346      1.0  0.02254  0.67543  0.27951  1.0000
  H   H347      1.0  0.06760  0.66940  0.02524  1.0000
  H   H348      1.0  0.00859  0.66772  0.32254  1.0000
  H   H349      1.0  0.04760  0.66671  0.31350  1.0000
  C   C291      1.0  0.99992  0.89638  0.24549  1.0000
  H   H350      1.0  0.02514  0.77462  0.49935  1.0000
  Fe  Fe34      1.0  0.08054  0.79899  0.65103  1.0000
  S   S72       1.0  0.10967  0.81858  0.64827  1.0000
  S   S73       1.0  0.08873  0.76311  0.65407  1.0000
  S   S74       1.0  0.04759  0.67745  0.93677  1.0000
  C   C292      1.0  0.22577  0.75986  0.94777  1.0000
  C   C293      1.0  0.22393  0.86301  0.70483  1.0000
  C   C294      1.0  0.00527  0.85228  0.65954  1.0000
  H   H351      1.0  0.21865  0.72032  0.92847  1.0000
  H   H352      1.0  0.16818  0.72273  0.55335  1.0000
  Fe  Fe35      1.0  0.21422  0.76840  0.57948  1.0000
  S   S75       1.0  0.17895  0.76267  0.57562  1.0000
  H   H353      1.0  0.22802  0.87072  0.74806  1.0000
  S   S76       1.0  0.22854  0.80069  0.58049  1.0000
  C   C295      1.0  0.18863  0.74786  0.95412  1.0000
  Fe  Fe36      1.0  0.06574  0.74695  0.88434  1.0000
  S   S77       1.0  0.07532  0.71133  0.87813  1.0000
  S   S78       1.0  0.04936  0.76784  0.85061  1.0000
  Fe  Fe37      1.0  0.08376  0.74760  0.94309  1.0000
  S   S79       1.0  0.09474  0.71224  0.94107  1.0000
  S   S80       1.0  0.09486  0.76509  0.98141  1.0000
  Fe  Fe38      1.0  0.10670  0.71909  0.89837  1.0000
  S   S81       1.0  0.13920  0.70243  0.88600  1.0000
  Fe  Fe39      1.0  0.06230  0.70774  0.92134  1.0000
  H   H354      1.0  0.16409  0.74222  0.92238  1.0000
  S   S82       1.0  0.09815  0.75489  0.90165  1.0000
  S   S83       1.0  0.05028  0.74297  0.92644  1.0000
  C   C296      1.0  0.23401  0.81439  0.98238  1.0000
  H   H355      1.0  0.20740  0.75059  0.99284  1.0000
  Fe  Fe40      1.0  0.23097  0.77157  0.83106  1.0000
  S   S84       1.0  0.20316  0.79683  0.83316  1.0000
  S   S85       1.0  0.22367  0.73654  0.83262  1.0000
  Fe  Fe41      1.0  0.21932  0.81174  0.79710  1.0000
  S   S86       1.0  0.20094  0.81854  0.75666  1.0000
  Fe  Fe42      1.0  0.22529  0.81458  0.86093  1.0000
  S   S87       1.0  0.21339  0.82666  0.90313  1.0000
  S   S88       1.0  0.24635  0.78538  0.79384  1.0000
  C   C297      1.0  0.00163  0.84097  0.72749  1.0000
  C   C298      1.0  0.08292  0.76895  0.52674  1.0000
  C   C299      1.0  0.07009  0.75212  0.76070  1.0000
  C   C300      1.0  0.16793  0.74251  0.94435  1.0000
  H   H356      1.0  0.13171  0.79741  0.90306  1.0000
  H   H357      1.0  0.05646  0.71967  0.98522  1.0000
  C   C301      1.0  0.16109  0.71327  0.86898  1.0000
  C   C302      1.0  0.17894  0.69882  0.86207  1.0000
  C   C303      1.0  0.19756  0.70629  0.85021  1.0000
  C   C304      1.0  0.19880  0.72842  0.84541  1.0000
  C   C305      1.0  0.18075  0.74309  0.85167  1.0000
  C   C306      1.0  0.16182  0.73549  0.86337  1.0000
  H   H358      1.0  0.18520  0.74241  0.52156  1.0000
  H   H359      1.0  0.21130  0.69482  0.84540  1.0000
  H   H360      1.0  0.18141  0.76018  0.84785  1.0000
  H   H361      1.0  0.14800  0.74674  0.86854  1.0000
  C   C307      1.0  0.15428  0.80342  0.52897  1.0000
  H   H362      1.0  0.01664  0.84643  0.71951  1.0000
  C   C308      1.0  0.19308  0.72216  0.76105  1.0000
  C   C309      1.0  0.21762  0.81239  0.72733  1.0000
  C   C310      1.0  0.20841  0.80886  0.70101  1.0000
  C   C311      1.0  0.22185  0.80407  0.67771  1.0000
  C   C312      1.0  0.00048  0.81904  0.73325  1.0000
  H   H363      1.0  0.15171  0.73461  0.73771  1.0000
  H   H364      1.0  0.19094  0.80998  0.69848  1.0000
  H   H365      1.0  0.21471  0.80183  0.65738  1.0000
  C   C313      1.0  0.06983  0.74239  0.55814  1.0000
  C   C314      1.0  0.07648  0.76314  0.55346  1.0000
  C   C315      1.0  0.22100  0.81988  0.95891  1.0000
  C   C316      1.0  0.23007  0.81928  0.93217  1.0000
  S   S89       1.0  0.05355  0.79620  0.61977  1.0000
  C   C317      1.0  0.24025  0.81105  0.73013  1.0000
  C   C318      1.0  0.19220  0.74702  0.98338  1.0000
  H   H366      1.0  0.20387  0.82454  0.96151  1.0000
  S   S90       1.0  0.03718  0.75848  0.66164  1.0000
  H   H367      1.0  0.11555  0.71087  0.52444  1.0000
  C   C319      1.0  0.07977  0.74012  0.78283  1.0000
  C   C320      1.0  0.07367  0.74501  0.81042  1.0000
  C   C321      1.0  0.05767  0.76183  0.81610  1.0000
  H   H368      1.0  0.09203  0.72694  0.77863  1.0000
  H   H369      1.0  0.08130  0.73567  0.82725  1.0000
  C   C322      1.0  0.17265  0.79516  0.51446  1.0000
  C   C323      1.0  0.08265  0.75411  0.50453  1.0000
  C   C324      1.0  0.06981  0.72745  0.53596  1.0000
  C   C325      1.0  0.12846  0.71038  0.50827  1.0000
  C   C326      1.0  0.24454  0.80303  0.68068  1.0000
  C   C327      1.0  0.12925  0.80389  0.62762  1.0000
  C   C328      1.0  0.12282  0.78770  0.60966  1.0000
  C   C329      1.0  0.13831  0.77501  0.59420  1.0000
  C   C330      1.0  0.16035  0.77861  0.59622  1.0000
  C   C331      1.0  0.16693  0.79504  0.61383  1.0000
  C   C332      1.0  0.15134  0.80770  0.62959  1.0000
  H   H370      1.0  0.10579  0.78503  0.60746  1.0000
  H   H371      1.0  0.13310  0.76237  0.58070  1.0000
  H   H372      1.0  0.18394  0.79800  0.61532  1.0000
  H   H373      1.0  0.15638  0.82030  0.64336  1.0000
  H   H374      1.0  0.19008  0.75863  0.79229  1.0000
  N   N20       1.0  0.12491  0.80456  0.73279  1.0000
  C   C333      1.0  0.11099  0.78905  0.71916  1.0000
  C   C334      1.0  0.11328  0.82651  0.73091  1.0000
  C   C335      1.0  0.14537  0.80434  0.71661  1.0000
  C   C336      1.0  0.12983  0.79937  0.76232  1.0000
  C   C337      1.0  0.14407  0.81182  0.77786  1.0000
  C   C338      1.0  0.12042  0.78241  0.77669  1.0000
  C   C339      1.0  0.14873  0.80746  0.80586  1.0000
  C   C340      1.0  0.12522  0.77816  0.80471  1.0000
  C   C341      1.0  0.13940  0.79061  0.81924  1.0000
  H   H375      1.0  0.09458  0.78964  0.72881  1.0000
  H   H376      1.0  0.10830  0.79271  0.69674  1.0000
  H   H377      1.0  0.11840  0.77207  0.72025  1.0000
  H   H378      1.0  0.09794  0.82748  0.74315  1.0000
  H   H379      1.0  0.10882  0.83072  0.70894  1.0000
  H   H380      1.0  0.12331  0.83941  0.73879  1.0000
  H   H381      1.0  0.15530  0.78862  0.71890  1.0000
  H   H382      1.0  0.14209  0.80682  0.69395  1.0000
  H   H383      1.0  0.15567  0.81744  0.72313  1.0000
  H   H384      1.0  0.15169  0.82511  0.76847  1.0000
  H   H385      1.0  0.10911  0.77227  0.76688  1.0000
  H   H386      1.0  0.15958  0.81735  0.81718  1.0000
  H   H387      1.0  0.11761  0.76528  0.81526  1.0000
  H   H388      1.0  0.14298  0.78729  0.84097  1.0000
  Fe  Fe43      1.0  0.06530  0.76490  0.68955  1.0000
  N   N21       1.0  0.19320  0.74485  0.75101  1.0000
  C   C342      1.0  0.16030  0.74111  0.72052  1.0000
  H   H389      1.0  0.01531  0.72902  0.56289  1.0000
  C   C343      1.0  0.21628  0.75009  0.75016  1.0000
  H   H390      1.0  0.18137  0.77688  0.76476  1.0000
  H   H391      1.0  0.16537  0.84387  0.97299  1.0000
  C   C344      1.0  0.01960  0.75310  0.53304  1.0000
  C   C345      1.0  0.18179  0.75965  0.77161  1.0000
  H   H392      1.0  0.11990  0.81214  0.52702  1.0000
  H   H393      1.0  0.15042  0.75571  0.53142  1.0000
  C   C346      1.0  0.13426  0.80625  0.51538  1.0000
  C   C347      1.0  0.15183  0.73692  0.96265  1.0000
  C   C348      1.0  0.21159  0.73438  0.91610  1.0000
  H   H394      1.0  0.13278  0.73839  0.69299  1.0000
  H   H395      1.0  0.22368  0.73806  0.89999  1.0000
  C   C349      1.0  0.19693  0.77191  0.91656  1.0000
  H   H396      1.0  0.04825  0.76284  0.98759  1.0000
  H   H397      1.0  0.04482  0.68173  0.51799  1.0000
  H   H398      1.0  0.01677  0.70307  0.83657  1.0000
  H   H399      1.0  0.02971  0.69238  0.56647  1.0000
  H   H400      1.0  0.04990  0.66966  0.99545  1.0000
  H   H401      1.0  0.18806  0.79244  0.52545  1.0000
  H   H402      1.0  0.10530  0.80858  0.99045  1.0000
  C   C350      1.0  0.01259  0.68735  0.84386  1.0000
  C   C351      1.0  0.00259  0.68750  0.93620  1.0000
  H   H403      1.0  0.23777  0.76476  0.93224  1.0000
  C   C352      1.0  0.01363  0.68810  0.55826  1.0000
  N   N22       1.0  0.01158  0.69231  0.52789  1.0000
  C   C353      1.0  0.18370  0.73325  0.50246  1.0000
  H   H404      1.0  0.14213  0.71374  0.55997  1.0000
  S   S91       1.0  0.06086  0.73485  0.59116  1.0000
  C   C354      1.0  0.15584  0.73625  0.99117  1.0000
  Fe  Fe44      1.0  0.06016  0.76019  0.62576  1.0000
  C   C355      1.0  0.15764  0.83330  0.95871  1.0000
  H   H405      1.0  0.12418  0.74664  0.53663  1.0000
  H   H406      1.0  0.22233  0.77402  0.96196  1.0000
  H   H407      1.0  0.18785  0.76536  0.65688  1.0000
  S   S92       1.0  0.23556  0.75461  0.54506  1.0000
  H   H408      1.0  0.16474  0.75576  0.77503  1.0000
  N   N23       1.0  0.14694  0.72279  0.51724  1.0000
  H   H409      1.0  0.08816  0.78500  0.52334  1.0000
  H   H410      1.0  0.17647  0.71764  0.76596  1.0000
  H   H411      1.0  0.22479  0.85385  0.66163  1.0000
  C   C356      1.0  0.15298  0.82279  0.91048  1.0000
  H   H412      1.0  0.18300  0.76784  0.90335  1.0000
  H   H413      1.0  0.17849  0.68165  0.86625  1.0000
  H   H414      1.0  0.22581  0.73974  0.73472  1.0000
  C   C357      1.0  0.04811  0.77401  0.79397  1.0000
  C   C358      1.0  0.05436  0.76922  0.76630  1.0000
  H   H415      1.0  0.20264  0.71959  0.78071  1.0000
  H   H416      1.0  0.20780  0.76140  0.70031  1.0000
  H   H417      1.0  0.07664  0.77473  0.57042  1.0000
  H   H418      1.0  0.13617  0.73291  0.95458  1.0000
  H   H419      1.0  0.01452  0.80758  0.72981  1.0000
  H   H420      1.0  0.19145  0.78637  0.92950  1.0000
  C   C359      1.0  0.16201  0.83586  0.93045  1.0000
  C   C360      1.0  0.14389  0.81742  0.96777  1.0000
  C   C361      1.0  0.18190  0.74722  0.72374  1.0000
  C   C362      1.0  0.14923  0.74337  0.69505  1.0000
  C   C363      1.0  0.18018  0.75857  0.67475  1.0000
  N   N24       1.0  0.13912  0.81397  0.99750  1.0000
  H   H421      1.0  0.22455  0.74730  0.77068  1.0000
  C   C364      1.0  0.15522  0.71349  0.54403  1.0000
  C   C365      1.0  0.02501  0.67670  0.86468  1.0000
  H   H422      1.0  0.23410  0.74626  0.95988  1.0000
  H   H423      1.0  0.24762  0.81459  0.74990  1.0000
  C   C366      1.0  0.13447  0.80477  0.94677  1.0000
  H   H424      1.0  0.04688  0.77859  0.74936  1.0000
  C   C367      1.0  0.13910  0.80735  0.91861  1.0000
  H   H425      1.0  0.02148  0.76538  0.54899  1.0000
  H   H426      1.0  0.15674  0.82474  0.88868  1.0000
  C   C368      1.0  0.13821  0.74561  0.52207  1.0000
  H   H427      1.0  0.03177  0.70691  0.98032  1.0000
  C   C369      1.0  0.07592  0.73337  0.50910  1.0000
  H   H428      1.0  0.20948  0.77705  0.90195  1.0000
  S   S93       1.0  0.23770  0.83339  0.82516  1.0000
  H   H429      1.0  0.02241  0.84683  0.65920  1.0000
  H   H430      1.0  0.03869  0.68423  0.87373  1.0000
  H   H431      1.0  0.12332  0.79280  0.95196  1.0000
  H   H432      1.0  0.03577  0.78709  0.79826  1.0000
  H   H433      1.0  0.06470  0.71139  0.53954  1.0000
  Fe  Fe45      1.0  0.03231  0.79493  0.65759  1.0000
  H   H434      1.0  0.21961  0.81111  0.50238  1.0000
  S   S94       1.0  0.05874  0.80120  0.68846  1.0000
  S   S95       1.0  0.07884  0.74567  0.72655  1.0000
  H   H435      1.0  0.16216  0.69639  0.54128  1.0000
  C   C370      1.0  0.15910  0.75223  0.67226  1.0000
  H   H436      1.0  0.20635  0.86347  0.70613  1.0000
  H   H437      1.0  0.13569  0.77952  0.99238  1.0000
  C   C371      1.0  0.23434  0.85763  0.67979  1.0000
  H   H438      1.0  0.17277  0.84791  0.92396  1.0000
  N   N25       1.0  0.20552  0.75346  0.93420  1.0000
  H   H439      1.0  0.20026  0.71037  0.74530  1.0000
  H   H440      1.0  0.15548  0.80731  0.55094  1.0000
  C   C372      1.0  0.19152  0.75612  0.70000  1.0000
  S   S96       1.0  0.23510  0.75293  0.61329  1.0000
  H   H441      1.0  0.21768  0.76750  0.74514  1.0000
  C   C373      1.0  0.02803  0.67717  0.51366  1.0000
  H   H442      1.0  0.19736  0.72871  0.90479  1.0000
  H   H443      1.0  0.13250  0.75349  0.50234  1.0000
  H   H444      1.0  0.15040  0.75420  0.65261  1.0000
  H   H445      1.0  0.00551  0.70246  0.92582  1.0000
  H   H446      1.0  0.01068  0.88636  0.66166  1.0000
  H   H447      1.0  0.13369  0.69292  0.50458  1.0000
  H   H448      1.0  0.00056  0.69747  0.57027  1.0000
  C   C374      1.0  0.02018  0.67288  0.94375  1.0000
  C   C375      1.0  0.01609  0.73189  0.54078  1.0000
  C   C376      1.0  0.23618  0.86701  0.72846  1.0000
  H   H449      1.0  0.07365  0.68366  0.99399  1.0000
  C   C377      1.0  0.04193  0.71455  0.99621  1.0000
  C   C378      1.0  0.02173  0.75831  0.50512  1.0000
  C   C379      1.0  0.01468  0.71512  0.52050  1.0000
  H   H450      1.0  0.11045  0.83633  0.99654  1.0000
  H   H451      1.0  0.01219  0.67068  0.56322  1.0000
  Fe  Fe46      1.0  0.41604  0.05077  0.44972  1.0000
  H   H452      1.0  0.27590  0.29690  0.24111  1.0000
  Fe  Fe47      1.0  0.38786  0.09321  0.44251  1.0000
  S   S97       1.0  0.35327  0.10609  0.43239  1.0000
  S   S98       1.0  0.40633  0.07095  0.41237  1.0000
  H   H453      1.0  0.38227  0.09076  0.29390  1.0000
  C   C380      1.0  0.46741  0.06836  0.30646  1.0000
  C   C381      1.0  0.39082  0.00302  0.17624  1.0000
  H   H454      1.0  0.47523  0.23821  0.27157  1.0000
  H   H455      1.0  0.40903  0.04829  0.09206  1.0000
  C   C382      1.0  0.44619  0.07209  0.10263  1.0000
  H   H456      1.0  0.32119  0.02577  0.40156  1.0000
  C   C383      1.0  0.48489  0.15744  0.19681  1.0000
  H   H457      1.0  0.41970  0.12760  0.36260  1.0000
  Fe  Fe48      1.0  0.30214  0.22812  0.41424  1.0000
  S   S99       1.0  0.30794  0.26349  0.41201  1.0000
  S   S100      1.0  0.33441  0.20817  0.41960  1.0000
  Fe  Fe49      1.0  0.27990  0.26938  0.44105  1.0000
  H   H458      1.0  0.29731  0.30039  0.28476  1.0000
  Fe  Fe50      1.0  0.28352  0.26561  0.37733  1.0000
  S   S101      1.0  0.29106  0.28636  0.34055  1.0000
  S   S102      1.0  0.27560  0.23390  0.44613  1.0000
  S   S103      1.0  0.27966  0.22975  0.37702  1.0000
  Fe  Fe51      1.0  0.25766  0.28895  0.12970  1.0000
  S   S104      1.0  0.27714  0.29533  0.16841  1.0000
  S   S105      1.0  0.43806  0.05726  0.20999  1.0000
  C   C384      1.0  0.36512  0.13311  0.00377  1.0000
  H   H459      1.0  0.42594  0.00040  0.38636  1.0000
  S   S106      1.0  0.27947  0.29572  0.47412  1.0000
  H   H460      1.0  0.46691  0.11836  0.33698  1.0000
  H   H461      1.0  0.49015  0.18076  0.24930  1.0000
  C   C385      1.0  0.45250  0.00650  0.26222  1.0000
  C   C386      1.0  0.48293  0.19778  0.25166  1.0000
  C   C387      1.0  0.27622  0.28250  0.30968  1.0000
  C   C388      1.0  0.35854  0.00365  0.41484  1.0000
  H   H462      1.0  0.33403  0.30099  0.40882  1.0000
  C   C389      1.0  0.42467  0.99897  0.47231  1.0000
  H   H463      1.0  0.47201  0.00732  0.13647  1.0000
  N   N26       1.0  0.32862  0.19593  0.00547  1.0000
  H   H464      1.0  0.31252  0.18959  0.04379  1.0000
  C   C390      1.0  0.27072  0.28973  0.26017  1.0000
  H   H465      1.0  0.44159  0.02455  0.49119  1.0000
  H   H466      1.0  0.48577  0.08981  0.09736  1.0000
  C   C391      1.0  0.40053  0.05142  0.27038  1.0000
  H   H467      1.0  0.32610  0.31641  0.36371  1.0000
  H   H468      1.0  0.35428  0.05987  0.41584  1.0000
  C   C392      1.0  0.32607  0.20027  0.49720  1.0000
  H   H469      1.0  0.48096  0.18557  0.06754  1.0000
  H   H470      1.0  0.37454  0.11752  0.00329  1.0000
  C   C393      1.0  0.25603  0.29236  0.05341  1.0000
  H   H471      1.0  0.29776  0.31026  0.38954  1.0000
  C   C394      1.0  0.27376  0.25740  0.04032  1.0000
  C   C395      1.0  0.45676  0.06709  0.35524  1.0000
  S   S107      1.0  0.41871  0.10654  0.02440  1.0000
  C   C396      1.0  0.45908  0.08938  0.35807  1.0000
  C   C397      1.0  0.45127  0.06308  0.07628  1.0000
  H   H472      1.0  0.36052  0.11813  0.37366  1.0000
  C   C398      1.0  0.44232  0.07294  0.05198  1.0000
  C   C399      1.0  0.35954  0.10708  0.35625  1.0000
  S   S108      1.0  0.45801  0.15228  0.20521  1.0000
  Fe  Fe52      1.0  0.43517  0.08895  0.42354  1.0000
  H   H473      1.0  0.41262  0.06315  0.27129  1.0000
  C   C400      1.0  0.43204  0.09091  0.10442  1.0000
  C   C401      1.0  0.40085  0.03488  0.29031  1.0000
  C   C402      1.0  0.36856  0.03794  0.24914  1.0000
  C   C403      1.0  0.38400  0.05337  0.25023  1.0000
  H   H474      1.0  0.35580  0.03934  0.23353  1.0000
  C   C404      1.0  0.34794  0.13437  0.42759  1.0000
  C   C405      1.0  0.36489  0.14802  0.42762  1.0000
  C   C406      1.0  0.36038  0.17054  0.42484  1.0000
  C   C407      1.0  0.33891  0.17965  0.42165  1.0000
  C   C408      1.0  0.32191  0.16598  0.42079  1.0000
  C   C409      1.0  0.32644  0.14336  0.42384  1.0000
  H   H475      1.0  0.38149  0.14132  0.42991  1.0000
  H   H476      1.0  0.37358  0.18105  0.42536  1.0000
  H   H477      1.0  0.30531  0.17288  0.41821  1.0000
  Fe  Fe53      1.0  0.46041  0.07421  0.23798  1.0000
  S   S109      1.0  0.38188  0.07557  0.22733  1.0000
  H   H478      1.0  0.48558  0.02808  0.17600  1.0000
  C   C410      1.0  0.42361  0.10107  0.08024  1.0000
  H   H479      1.0  0.31927  0.32734  0.01035  1.0000
  C   C411      1.0  0.48864  0.23560  0.25620  1.0000
  S   S110      1.0  0.45832  0.06005  0.13281  1.0000
  H   H480      1.0  0.32624  0.06947  0.33312  1.0000
  C   C412      1.0  0.49851  0.14189  0.10813  1.0000
  C   C413      1.0  0.42868  0.09218  0.05396  1.0000
  H   H481      1.0  0.48007  0.31404  0.03038  1.0000
  C   C414      1.0  0.30353  0.32203  0.07725  1.0000
  S   S111      1.0  0.39485  0.07131  0.47909  1.0000
  H   H482      1.0  0.47144  0.13508  0.14929  1.0000
  H   H483      1.0  0.41305  0.11593  0.08192  1.0000
  H   H484      1.0  0.45703  0.13042  0.11763  1.0000
  S   S112      1.0  0.43657  0.10257  0.24735  1.0000
  H   H485      1.0  0.28152  0.24178  0.04622  1.0000
  H   H486      1.0  0.46242  0.04865  0.07457  1.0000
  C   C415      1.0  0.25781  0.27072  0.30959  1.0000
  Fe  Fe54      1.0  0.41492  0.08620  0.21772  1.0000
  C   C416      1.0  0.25225  0.27804  0.26012  1.0000
  S   S113      1.0  0.47400  0.05498  0.27465  1.0000
  H   H487      1.0  0.39907  0.03576  0.18343  1.0000
  C   C417      1.0  0.40549  0.11757  0.36167  1.0000
  C   C418      1.0  0.33999  0.16242  0.49532  1.0000
  S   S114      1.0  0.47627  0.08978  0.20195  1.0000
  C   C419      1.0  0.26639  0.27228  0.06109  1.0000
  H   H488      1.0  0.31304  0.21798  0.03572  1.0000
  H   H489      1.0  0.37036  0.12725  0.48267  1.0000
  H   H490      1.0  0.45226  0.05790  0.37307  1.0000
  H   H491      1.0  0.38278  0.03839  0.08576  1.0000
  H   H492      1.0  0.39699  0.15527  0.33406  1.0000
  H   H493      1.0  0.41195  0.10028  0.36378  1.0000
  C   C420      1.0  0.43276  0.01090  0.08823  1.0000
  H   H494      1.0  0.48134  0.23896  0.23525  1.0000
  C   C421      1.0  0.35618  0.04330  0.42503  1.0000
  H   H495      1.0  0.33710  0.14629  0.48815  1.0000
  C   C422      1.0  0.36039  0.17030  0.02025  1.0000
  C   C423      1.0  0.47047  0.12370  0.13134  1.0000
  C   C424      1.0  0.26011  0.28252  0.00445  1.0000
  C   C425      1.0  0.36946  0.02081  0.26833  1.0000
  H   H496      1.0  0.35236  0.06789  0.29416  1.0000
  C   C426      1.0  0.29469  0.32345  0.40519  1.0000
  H   H497      1.0  0.44050  0.02218  0.10270  1.0000
  H   H498      1.0  0.46011  0.03921  0.32763  1.0000
  C   C427      1.0  0.37403  0.02901  0.38390  1.0000
  H   H499      1.0  0.30891  0.17495  0.47870  1.0000
  S   S115      1.0  0.42572  0.10416  0.18052  1.0000
  H   H500      1.0  0.33202  0.04632  0.38063  1.0000
  H   H501      1.0  0.37305  0.04578  0.37534  1.0000
  C   C428      1.0  0.37180  0.09199  0.31187  1.0000
  H   H502      1.0  0.33696  0.20311  0.04829  1.0000
  C   C429      1.0  0.43857  0.00756  0.49190  1.0000
  H   H503      1.0  0.47504  0.11285  0.07828  1.0000
  H   H504      1.0  0.34268  0.04242  0.44013  1.0000
  C   C430      1.0  0.49136  0.17559  0.08150  1.0000
  H   H505      1.0  0.37339  0.14852  0.35238  1.0000
  S   S116      1.0  0.41275  0.01497  0.44531  1.0000
  H   H506      1.0  0.41612  0.09993  0.31188  1.0000
  C   C431      1.0  0.32351  0.17881  0.48972  1.0000
  C   C432      1.0  0.33979  0.07956  0.33365  1.0000
  H   H507      1.0  0.38550  0.00086  0.19742  1.0000
  N   N27       1.0  0.40878  0.01308  0.09076  1.0000
  Fe  Fe55      1.0  0.42466  0.08931  0.48570  1.0000
  C   C433      1.0  0.27075  0.26253  0.01204  1.0000
  C   C434      1.0  0.46700  0.00382  0.15743  1.0000
  H   H508      1.0  0.40211  0.00187  0.04896  1.0000
  C   C435      1.0  0.38391  0.14387  0.33416  1.0000
  C   C436      1.0  0.47473  0.01547  0.17979  1.0000
  C   C437      1.0  0.46126  0.05654  0.32956  1.0000
  H   H509      1.0  0.42253  0.12752  0.31394  1.0000
  C   C438      1.0  0.46885  0.09076  0.30910  1.0000
  C   C439      1.0  0.48529  0.15528  0.08978  1.0000
  C   C440      1.0  0.34232  0.09374  0.35592  1.0000
  C   C441      1.0  0.40479  0.02569  0.14080  1.0000
  H   H510      1.0  0.41322  0.03398  0.30642  1.0000
  C   C442      1.0  0.40871  0.11704  0.31211  1.0000
  C   C443      1.0  0.25294  0.29747  0.02519  1.0000
  C   C444      1.0  0.37499  0.10646  0.33442  1.0000
  H   H511      1.0  0.37381  0.14690  0.31506  1.0000
  H   H512      1.0  0.44650  0.06609  0.03172  1.0000
  H   H513      1.0  0.41442  0.00918  0.23439  1.0000
  H   H514      1.0  0.29522  0.31107  0.09028  1.0000
  H   H515      1.0  0.44585  0.00321  0.28311  1.0000
  C   C445      1.0  0.48897  0.10669  0.09165  1.0000
  C   C446      1.0  0.40052  0.03527  0.08167  1.0000
  Fe  Fe56      1.0  0.25351  0.23854  0.40873  1.0000
  H   H516      1.0  0.39406  0.15764  0.47661  1.0000
  H   H517      1.0  0.47011  0.15013  0.08177  1.0000
  C   C447      1.0  0.35449  0.07871  0.31170  1.0000
  H   H518      1.0  0.32190  0.30356  0.44260  1.0000
  H   H519      1.0  0.47057  0.19794  0.26846  1.0000
  H   H520      1.0  0.39570  0.12207  0.38048  1.0000
  H   H521      1.0  0.40091  0.12072  0.29154  1.0000
  H   H522      1.0  0.47052  0.00555  0.26463  1.0000
  H   H523      1.0  0.37188  0.04231  0.43669  1.0000
  C   C448      1.0  0.39833  0.02268  0.16826  1.0000
  C   C449      1.0  0.32256  0.20187  0.03455  1.0000
  H   H524      1.0  0.41124  0.04099  0.13606  1.0000
  C   C450      1.0  0.28273  0.29182  0.28488  1.0000
  H   H525      1.0  0.47476  0.02111  0.22323  1.0000
  H   H526      1.0  0.47415  0.20170  0.23177  1.0000
  C   C451      1.0  0.49194  0.31719  0.01390  1.0000
  H   H527      1.0  0.39011  0.02599  0.39442  1.0000
  H   H528      1.0  0.43795  0.01462  0.06675  1.0000
  C   C452      1.0  0.30655  0.31717  0.04913  1.0000
  C   C453      1.0  0.38531  0.01956  0.28933  1.0000
  S   S117      1.0  0.25579  0.27454  0.40624  1.0000
  H   H529      1.0  0.47382  0.09995  0.29151  1.0000
  H   H530      1.0  0.45756  0.00075  0.41077  1.0000
  S   S118      1.0  0.44665  0.06703  0.45882  1.0000
  S   S119      1.0  0.45525  0.10307  0.39024  1.0000
  H   H531      1.0  0.42775  0.09795  0.12434  1.0000
  S   S120      1.0  0.41599  0.11288  0.45114  1.0000
  H   H532      1.0  0.33078  0.09473  0.37294  1.0000
  C   C454      1.0  0.46820  0.01134  0.20694  1.0000
  H   H533      1.0  0.36278  0.01213  0.45900  1.0000
  Fe  Fe57      1.0  0.45059  0.11717  0.20932  1.0000
  C   C455      1.0  0.46499  0.10116  0.33489  1.0000
  C   C456      1.0  0.36153  0.99938  0.44372  1.0000
  Fe  Fe58      1.0  0.45072  0.07606  0.17484  1.0000
  C   C457      1.0  0.37230  0.15002  0.01974  1.0000
  H   H534      1.0  0.44653  0.02356  0.25721  1.0000
  H   H535      1.0  0.30063  0.30251  0.04036  1.0000
  H   H536      1.0  0.48147  0.99901  0.45085  1.0000
  H   H537      1.0  0.31323  0.13288  0.42359  1.0000
  H   H538      1.0  0.40315  0.03776  0.05901  1.0000
  H   H539      1.0  0.47495  0.18786  0.17695  1.0000
  H   H540      1.0  0.33464  0.01871  0.36925  1.0000
  C   C458      1.0  0.32967  0.31274  0.42597  1.0000
  N   N28       1.0  0.39301  0.12090  0.33535  1.0000
  C   C459      1.0  0.33506  0.02929  0.38805  1.0000
  H   H541      1.0  0.46537  0.10812  0.13957  1.0000
  C   C460      1.0  0.48860  0.17670  0.18300  1.0000
  H   H542      1.0  0.28504  0.31626  0.42175  1.0000
  N   N29       1.0  0.35601  0.02597  0.40341  1.0000
  H   H543      1.0  0.37400  0.01782  0.36578  1.0000
  S   S121      1.0  0.26998  0.26506  0.09630  1.0000
  N   N30       1.0  0.49160  0.12052  0.11666  1.0000
  H   H544      1.0  0.25277  0.26338  0.32858  1.0000
  H   H545      1.0  0.35742  0.00903  0.26746  1.0000
  H   H546      1.0  0.35680  0.21464  0.00822  1.0000
  H   H547      1.0  0.36682  0.18297  0.03265  1.0000
  C   C461      1.0  0.34078  0.17420  0.00473  1.0000
  H   H548      1.0  0.38737  0.14732  0.03149  1.0000
  S   S122      1.0  0.38573  0.99932  0.31495  1.0000
  Fe  Fe59      1.0  0.26517  0.33041  0.16164  1.0000
  H   H549      1.0  0.34519  0.31808  0.43453  1.0000
  C   C462      1.0  0.40298  0.00930  0.12013  1.0000
  C   C463      1.0  0.39741  0.15610  0.49934  1.0000
  H   H550      1.0  0.31350  0.21297  0.49203  1.0000
  N   N31       1.0  0.31510  0.33151  0.41629  1.0000
  C   C464      1.0  0.31710  0.33119  0.03228  1.0000
  H   H551      1.0  0.25022  0.30393  0.06911  1.0000
  N   N32       1.0  0.49953  0.21325  0.25791  1.0000
  C   C465      1.0  0.44956  0.06290  0.60445  1.0000
  C   C466      1.0  0.43861  0.09776  0.58316  1.0000
  Fe  Fe60      1.0  0.38445  0.09495  0.93255  1.0000
  S   S123      1.0  0.35320  0.11147  0.91477  1.0000
  S   S124      1.0  0.40196  0.06673  0.90970  1.0000
  H   H552      1.0  0.28753  0.25349  0.50008  1.0000
  H   H553      1.0  0.49739  0.05651  0.87320  1.0000
  C   C467      1.0  0.38831  0.00598  0.78750  1.0000
  C   C468      1.0  0.40204  0.02281  0.79066  1.0000
  C   C469      1.0  0.34261  0.21230  0.99451  1.0000
  C   C470      1.0  0.25096  0.28882  0.75838  1.0000
  C   C471      1.0  0.44874  0.07364  0.84384  1.0000
  C   C472      1.0  0.27890  0.28732  0.50901  1.0000
  H   H554      1.0  0.33350  0.22852  0.99191  1.0000
  Fe  Fe61      1.0  0.29754  0.23020  0.91049  1.0000
  S   S125      1.0  0.29570  0.26683  0.91047  1.0000
  S   S126      1.0  0.33093  0.21381  0.92047  1.0000
  H   H555      1.0  0.41838  0.01023  0.59234  1.0000
  H   H556      1.0  0.48546  0.10279  0.82991  1.0000
  Fe  Fe62      1.0  0.27430  0.26436  0.87277  1.0000
  C   C473      1.0  0.48827  0.31013  0.85430  1.0000
  S   S127      1.0  0.26865  0.22866  0.93873  1.0000
  S   S128      1.0  0.27850  0.22784  0.87057  1.0000
  Fe  Fe63      1.0  0.25759  0.28685  0.63218  1.0000
  S   S129      1.0  0.27045  0.29052  0.67590  1.0000
  H   H557      1.0  0.48411  0.25031  0.88722  1.0000
  S   S130      1.0  0.27503  0.26557  0.59954  1.0000
  H   H558      1.0  0.37598  0.19410  0.52689  1.0000
  H   H559      1.0  0.47622  0.23699  0.84202  1.0000
  C   C474      1.0  0.43650  0.01748  0.88049  1.0000
  H   H560      1.0  0.32769  0.31256  0.80274  1.0000
  S   S131      1.0  0.39401  0.01548  0.95383  1.0000
  H   H561      1.0  0.36814  0.14625  0.55689  1.0000
  C   C475      1.0  0.27222  0.29628  0.55790  1.0000
  H   H562      1.0  0.30645  0.30607  0.77951  1.0000
  H   H563      1.0  0.44855  0.26150  0.86178  1.0000
  Fe  Fe64      1.0  0.41514  0.09017  0.98251  1.0000
  H   H564      1.0  0.47631  0.25390  0.81195  1.0000
  N   N33       1.0  0.37776  0.15046  0.51445  1.0000
  Fe  Fe65      1.0  0.43240  0.08086  0.92399  1.0000
  C   C476      1.0  0.48370  0.25113  0.83294  1.0000
  H   H565      1.0  0.45395  0.03593  0.57564  1.0000
  C   C477      1.0  0.48863  0.05116  0.83042  1.0000
  H   H566      1.0  0.36346  0.10399  0.79147  1.0000
  H   H567      1.0  0.34093  0.12326  0.97515  1.0000
  H   H568      1.0  0.48569  0.10786  0.75007  1.0000
  C   C478      1.0  0.27660  0.27441  0.56493  1.0000
  C   C479      1.0  0.28222  0.25907  0.54397  1.0000
  C   C480      1.0  0.28320  0.26546  0.51606  1.0000
  S   S132      1.0  0.38325  0.07672  0.97261  1.0000
  H   H569      1.0  0.32433  0.32138  0.74143  1.0000
  H   H570      1.0  0.31981  0.15808  0.97514  1.0000
  H   H571      1.0  0.47626  0.13150  0.76970  1.0000
  S   S133      1.0  0.41492  0.11049  0.94377  1.0000
  S   S134      1.0  0.42609  0.09202  0.68096  1.0000
  H   H572      1.0  0.34676  0.01221  0.81753  1.0000
  C   C481      1.0  0.31194  0.31910  0.79345  1.0000
  C   C482      1.0  0.44939  0.05312  0.57793  1.0000
  C   C483      1.0  0.37309  0.12821  0.50552  1.0000
  C   C484      1.0  0.49475  0.15417  0.57442  1.0000
  Fe  Fe66      1.0  0.40349  0.04992  0.95104  1.0000
  C   C485      1.0  0.44421  0.08530  0.60688  1.0000
  H   H573      1.0  0.43472  0.11510  0.58533  1.0000
  C   C486      1.0  0.40774  0.99844  0.97857  1.0000
  C   C487      1.0  0.37129  0.02460  0.74763  1.0000
  C   C488      1.0  0.38519  0.04132  0.75068  1.0000
  H   H574      1.0  0.35906  0.02552  0.73133  1.0000
  C   C489      1.0  0.34738  0.13997  0.91619  1.0000
  C   C490      1.0  0.36293  0.15377  0.92508  1.0000
  C   C491      1.0  0.35773  0.17638  0.92590  1.0000
  C   C492      1.0  0.33695  0.18537  0.91802  1.0000
  C   C493      1.0  0.32134  0.17157  0.90928  1.0000
  C   C494      1.0  0.32659  0.14895  0.90825  1.0000
  H   H575      1.0  0.37895  0.14704  0.93133  1.0000
  H   H576      1.0  0.36990  0.18694  0.93271  1.0000
  H   H577      1.0  0.30526  0.17833  0.90321  1.0000
  C   C495      1.0  0.26242  0.28016  0.80589  1.0000
  S   S135      1.0  0.38232  0.06419  0.72894  1.0000
  H   H578      1.0  0.34617  0.32961  0.76314  1.0000
  C   C496      1.0  0.49139  0.12745  0.85934  1.0000
  H   H579      1.0  0.44707  0.01358  0.76345  1.0000
  H   H580      1.0  0.41165  0.05297  0.77432  1.0000
  S   S136      1.0  0.48012  0.04742  0.77503  1.0000
  C   C497      1.0  0.45660  0.27587  0.85433  1.0000
  H   H581      1.0  0.45714  0.03624  0.90565  1.0000
  H   H582      1.0  0.44059  0.06933  0.80044  1.0000
  S   S137      1.0  0.43718  0.09134  0.74767  1.0000
  H   H583      1.0  0.49071  0.19483  0.61997  1.0000
  Fe  Fe67      1.0  0.45122  0.10539  0.70925  1.0000
  H   H584      1.0  0.47452  0.10480  0.78381  1.0000
  C   C498      1.0  0.47520  0.00058  0.71961  1.0000
  Fe  Fe68      1.0  0.26549  0.26499  0.93572  1.0000
  H   H585      1.0  0.27026  0.31970  0.52467  1.0000
  H   H586      1.0  0.38864  0.16499  0.55275  1.0000
  H   H587      1.0  0.43147  0.02065  0.98995  1.0000
  H   H588      1.0  0.35864  0.12274  0.51635  1.0000
  H   H589      1.0  0.46037  0.00047  0.52659  1.0000
  H   H590      1.0  0.46144  0.00896  0.94296  1.0000
  H   H591      1.0  0.48148  0.18010  0.71268  1.0000
  H   H592      1.0  0.37447  0.07637  0.79064  1.0000
  C   C499      1.0  0.44354  0.06557  0.55417  1.0000
  C   C500      1.0  0.46490  0.07031  0.86439  1.0000
  H   H593      1.0  0.26783  0.30818  0.57390  1.0000
  S   S138      1.0  0.43162  0.10451  0.52753  1.0000
  H   H594      1.0  0.47152  0.99999  0.77820  1.0000
  H   H595      1.0  0.29678  0.18549  0.99612  1.0000
  H   H596      1.0  0.31446  0.13836  0.90139  1.0000
  H   H597      1.0  0.48248  0.11996  0.87562  1.0000
  C   C501      1.0  0.40092  0.04010  0.77182  1.0000
  S   S139      1.0  0.25391  0.28868  0.96953  1.0000
  H   H598      1.0  0.43349  0.08268  0.84892  1.0000
  S   S140      1.0  0.43869  0.04514  0.71200  1.0000
  C   C502      1.0  0.43820  0.08798  0.55674  1.0000
  Fe  Fe69      1.0  0.45092  0.06361  0.67606  1.0000
  H   H599      1.0  0.29960  0.32123  0.81032  1.0000
  C   C503      1.0  0.49123  0.11799  0.59201  1.0000
  N   N34       1.0  0.48039  0.27083  0.85092  1.0000
  C   C504      1.0  0.30821  0.19721  0.98873  1.0000
  H   H600      1.0  0.44880  0.28110  0.83424  1.0000
  S   S141      1.0  0.45671  0.04696  0.63415  1.0000
  Fe  Fe70      1.0  0.46097  0.06290  0.73921  1.0000
  S   S142      1.0  0.47657  0.07767  0.70254  1.0000
  S   S143      1.0  0.43547  0.06192  0.96391  1.0000
  C   C505      1.0  0.35000  0.02183  0.86022  1.0000
  C   C506      1.0  0.45187  0.00572  0.92462  1.0000
  H   H601      1.0  0.49886  0.11360  0.69000  1.0000
  C   C507      1.0  0.45288  0.06630  0.81631  1.0000
  C   C508      1.0  0.40183  0.00593  0.67507  1.0000
  H   H602      1.0  0.48948  0.19866  0.58292  1.0000
  C   C509      1.0  0.27361  0.30275  0.53001  1.0000
  H   H603      1.0  0.48663  0.27841  0.89424  1.0000
  H   H604      1.0  0.34547  0.08306  0.78762  1.0000
  C   C510      1.0  0.36056  0.08732  0.79845  1.0000
  C   C511      1.0  0.42581  0.00482  0.99335  1.0000
  H   H605      1.0  0.28573  0.24214  0.54934  1.0000
  H   H606      1.0  0.34919  0.20725  0.97371  1.0000
  H   H607      1.0  0.44480  0.09317  0.62696  1.0000
  C   C512      1.0  0.48491  0.11497  0.77142  1.0000
  C   C513      1.0  0.34608  0.13638  0.98814  1.0000
  S   S144      1.0  0.46239  0.08261  0.89759  1.0000
  Fe  Fe71      1.0  0.25620  0.32513  0.67266  1.0000
  H   H608      1.0  0.38693  0.11602  0.51032  1.0000
  H   H609      1.0  0.40329  0.17169  0.50664  1.0000
  H   H610      1.0  0.44351  0.05790  0.53385  1.0000
  C   C514      1.0  0.34497  0.20545  0.51079  1.0000
  H   H611      1.0  0.41128  0.14352  0.50216  1.0000
  H   H612      1.0  0.39962  0.02203  0.68450  1.0000
  H   H613      1.0  0.47521  0.01442  0.73343  1.0000
  Fe  Fe72      1.0  0.41547  0.07439  0.71865  1.0000
  H   H614      1.0  0.27623  0.25090  0.99614  1.0000
  C   C515      1.0  0.34916  0.02558  0.83169  1.0000
  C   C516      1.0  0.48476  0.05897  0.85753  1.0000
  C   C517      1.0  0.48584  0.00232  0.69420  1.0000
  S   S145      1.0  0.46060  0.14021  0.70989  1.0000
  C   C518      1.0  0.41265  0.00297  0.64961  1.0000
  H   H615      1.0  0.39588  0.13658  0.54958  1.0000
  H   H616      1.0  0.29943  0.21370  0.98974  1.0000
  N   N35       1.0  0.35867  0.08606  0.82921  1.0000
  C   C519      1.0  0.33996  0.10122  0.83782  1.0000
  C   C520      1.0  0.37893  0.09364  0.84142  1.0000
  C   C521      1.0  0.35544  0.06395  0.83935  1.0000
  C   C522      1.0  0.35532  0.05971  0.86835  1.0000
  C   C523      1.0  0.35203  0.04623  0.82122  1.0000
  C   C524      1.0  0.35304  0.03889  0.87855  1.0000
  C   C525      1.0  0.49354  0.16742  0.70599  1.0000
  C   C526      1.0  0.48586  0.13406  0.57238  1.0000
  H   H617      1.0  0.32442  0.09608  0.82907  1.0000
  H   H618      1.0  0.34183  0.11814  0.83094  1.0000
  H   H619      1.0  0.33809  0.10199  0.86082  1.0000
  H   H620      1.0  0.39308  0.08158  0.83755  1.0000
  H   H621      1.0  0.38283  0.10948  0.83263  1.0000
  H   H622      1.0  0.37773  0.09638  0.86428  1.0000
  H   H623      1.0  0.35713  0.07247  0.88344  1.0000
  H   H624      1.0  0.35174  0.04775  0.79886  1.0000
  H   H625      1.0  0.35370  0.03601  0.90082  1.0000
  S   S146      1.0  0.49369  0.31101  0.93662  1.0000
  C   C527      1.0  0.44936  0.02119  0.90367  1.0000
  S   S147      1.0  0.27582  0.28752  0.83661  1.0000
  H   H626      1.0  0.41356  0.02254  0.80776  1.0000
  C   C528      1.0  0.33403  0.15660  0.98842  1.0000
  H   H627      1.0  0.31157  0.19395  0.96631  1.0000
  H   H628      1.0  0.26626  0.31067  0.78592  1.0000
  C   C529      1.0  0.49019  0.29001  0.83959  1.0000
  H   H629      1.0  0.25584  0.24839  0.81993  1.0000
  H   H630      1.0  0.48304  0.31731  0.99365  1.0000
  H   H631      1.0  0.43432  0.02976  0.86446  1.0000
  C   C530      1.0  0.47303  0.05531  0.80947  1.0000
  H   H632      1.0  0.44478  0.00662  0.60903  1.0000
  H   H633      1.0  0.41870  0.01730  0.64063  1.0000
  C   C531      1.0  0.49329  0.11766  0.83306  1.0000
  H   H634      1.0  0.48003  0.31174  0.87411  1.0000
  C   C532      1.0  0.48754  0.14612  0.70232  1.0000
  H   H635      1.0  0.47470  0.13083  0.55556  1.0000
  H   H636      1.0  0.49313  0.01720  0.68916  1.0000
  H   H637      1.0  0.48439  0.10240  0.59036  1.0000
  H   H638      1.0  0.34832  0.00567  0.86810  1.0000
  C   C533      1.0  0.37320  0.00666  0.76561  1.0000
  H   H639      1.0  0.34690  0.22223  0.51642  1.0000
  C   C534      1.0  0.26042  0.29476  0.78365  1.0000
  C   C535      1.0  0.38277  0.14961  0.54470  1.0000
  C   C536      1.0  0.36151  0.18920  0.51666  1.0000
  H   H640      1.0  0.45272  0.28905  0.86987  1.0000
  C   C537      1.0  0.35961  0.16717  0.50894  1.0000
  H   H641      1.0  0.49005  0.16614  0.55876  1.0000
  C   C538      1.0  0.25411  0.25986  0.80307  1.0000
  C   C539      1.0  0.49015  0.26532  0.87850  1.0000
  H   H642      1.0  0.25002  0.29997  0.74109  1.0000
  C   C540      1.0  0.49745  0.32844  0.84415  1.0000
  C   C541      1.0  0.43275  0.99846  0.59613  1.0000
  H   H643      1.0  0.49941  0.15421  0.88522  1.0000
  C   C542      1.0  0.47891  0.38595  0.37488  1.0000
  H   H644      1.0  0.37295  0.54566  0.27191  1.0000
  H   H645      1.0  0.32345  0.65623  0.05968  1.0000
  H   H646      1.0  0.46676  0.60817  0.43055  1.0000
  Fe  Fe73      1.0  0.43377  0.61284  0.32412  1.0000
  H   H647      1.0  0.42465  0.44815  0.31698  1.0000
  Fe  Fe74      1.0  0.44398  0.43014  0.45373  1.0000
  S   S148      1.0  0.41485  0.41100  0.45680  1.0000
  S   S149      1.0  0.47884  0.41673  0.44705  1.0000
  Fe  Fe75      1.0  0.41609  0.47312  0.45739  1.0000
  S   S150      1.0  0.38456  0.45744  0.46017  1.0000
  S   S151      1.0  0.41966  0.50898  0.45651  1.0000
  C   C543      1.0  0.43862  0.51051  0.16286  1.0000
  S   S152      1.0  0.39383  0.41359  0.02320  1.0000
  Fe  Fe76      1.0  0.39902  0.43511  0.42649  1.0000
  S   S153      1.0  0.38320  0.42082  0.38859  1.0000
  H   H648      1.0  0.35133  0.38487  0.11698  1.0000
  S   S154      1.0  0.42895  0.45277  0.42136  1.0000
  Fe  Fe77      1.0  0.44907  0.56936  0.29772  1.0000
  S   S155      1.0  0.41774  0.59030  0.29559  1.0000
  S   S156      1.0  0.44330  0.53465  0.30699  1.0000
  Fe  Fe78      1.0  0.47569  0.60827  0.29160  1.0000
  H   H649      1.0  0.42446  0.39522  0.38382  1.0000
  C   C544      1.0  0.45094  0.37554  0.03152  1.0000
  S   S157      1.0  0.36222  0.47192  0.27611  1.0000
  S   S158      1.0  0.46431  0.59080  0.32908  1.0000
  S   S159      1.0  0.46336  0.58449  0.26046  1.0000
  Fe  Fe79      1.0  0.37863  0.45630  0.17178  1.0000
  S   S160      1.0  0.40568  0.42977  0.17201  1.0000
  S   S161      1.0  0.36822  0.47132  0.13030  1.0000
  Fe  Fe80      1.0  0.37539  0.45619  0.23627  1.0000
  S   S162      1.0  0.40162  0.42914  0.23990  1.0000
  Fe  Fe81      1.0  0.41882  0.44787  0.20831  1.0000
  S   S163      1.0  0.45142  0.46108  0.21406  1.0000
  Fe  Fe82      1.0  0.38480  0.41448  0.20340  1.0000
  S   S164      1.0  0.37725  0.37915  0.20252  1.0000
  S   S165      1.0  0.39324  0.47547  0.20594  1.0000
  S   S166      1.0  0.44516  0.61658  0.48222  1.0000
  C   C545      1.0  0.35125  0.37365  0.19007  1.0000
  C   C546      1.0  0.33765  0.38991  0.17736  1.0000
  C   C547      1.0  0.31645  0.38592  0.16938  1.0000
  C   C548      1.0  0.30883  0.36539  0.17310  1.0000
  H   H650      1.0  0.42327  0.48104  0.15521  1.0000
  C   C549      1.0  0.34370  0.35300  0.19378  1.0000
  H   H651      1.0  0.34347  0.40554  0.17337  1.0000
  H   H652      1.0  0.30594  0.39883  0.16008  1.0000
  H   H653      1.0  0.38805  0.54208  0.17603  1.0000
  H   H654      1.0  0.29845  0.36002  0.43507  1.0000
  C   C550      1.0  0.44581  0.51478  0.28051  1.0000
  C   C551      1.0  0.46151  0.51515  0.25964  1.0000
  C   C552      1.0  0.46353  0.49842  0.23949  1.0000
  C   C553      1.0  0.44932  0.48180  0.23958  1.0000
  C   C554      1.0  0.43319  0.48196  0.25995  1.0000
  C   C555      1.0  0.43185  0.49803  0.28076  1.0000
  H   H655      1.0  0.47251  0.52792  0.25952  1.0000
  H   H656      1.0  0.47605  0.49837  0.22381  1.0000
  H   H657      1.0  0.42196  0.46943  0.26008  1.0000
  H   H658      1.0  0.41974  0.49757  0.29691  1.0000
  C   C556      1.0  0.37965  0.43579  0.35749  1.0000
  C   C557      1.0  0.37563  0.45845  0.35761  1.0000
  C   C558      1.0  0.37062  0.46953  0.33253  1.0000
  C   C559      1.0  0.37031  0.45812  0.30714  1.0000
  C   C560      1.0  0.37524  0.43559  0.30704  1.0000
  C   C561      1.0  0.37949  0.42445  0.33211  1.0000
  H   H659      1.0  0.37557  0.46732  0.37712  1.0000
  H   H660      1.0  0.37503  0.42660  0.28775  1.0000
  H   H661      1.0  0.38271  0.40696  0.33182  1.0000
  C   C562      1.0  0.38713  0.43018  0.05259  1.0000
  C   C563      1.0  0.38681  0.42047  0.07886  1.0000
  C   C564      1.0  0.38096  0.43295  0.10266  1.0000
  C   C565      1.0  0.37545  0.45532  0.10048  1.0000
  C   C566      1.0  0.37553  0.46503  0.07412  1.0000
  C   C567      1.0  0.38152  0.45254  0.05027  1.0000
  H   H662      1.0  0.39107  0.40320  0.08084  1.0000
  H   H663      1.0  0.38044  0.42514  0.12264  1.0000
  H   H664      1.0  0.38152  0.46016  0.03007  1.0000
  C   C568      1.0  0.44295  0.61566  0.39825  1.0000
  H   H665      1.0  0.36680  0.48696  0.33284  1.0000
  H   H666      1.0  0.44819  0.59076  0.20160  1.0000
  H   H667      1.0  0.45999  0.58440  0.15256  1.0000
  H   H668      1.0  0.45438  0.61266  0.38149  1.0000
  C   C569      1.0  0.40918  0.62357  0.16885  1.0000
  H   H669      1.0  0.31522  0.40461  0.10580  1.0000
  H   H670      1.0  0.36407  0.52139  0.14733  1.0000
  H   H671      1.0  0.35517  0.38105  0.05576  1.0000
  C   C570      1.0  0.30561  0.38470  0.30967  1.0000
  C   C571      1.0  0.44996  0.61326  0.42596  1.0000
  C   C572      1.0  0.46496  0.39649  0.31604  1.0000
  C   C573      1.0  0.36254  0.52139  0.16976  1.0000
  H   H672      1.0  0.41653  0.55467  0.46614  1.0000
  C   C574      1.0  0.43918  0.59896  0.18485  1.0000
  H   H673      1.0  0.31275  0.36516  0.24323  1.0000
  C   C575      1.0  0.47517  0.35145  0.45059  1.0000
  C   C576      1.0  0.46993  0.37395  0.45314  1.0000
  C   C577      1.0  0.48562  0.38841  0.44763  1.0000
  Fe  Fe83      1.0  0.37633  0.64596  0.06100  1.0000
  H   H674      1.0  0.38996  0.63293  0.40975  1.0000
  C   C578      1.0  0.30792  0.36647  0.26483  1.0000
  H   H675      1.0  0.45369  0.38008  0.45906  1.0000
  S   S167      1.0  0.44630  0.63207  0.28924  1.0000
  H   H676      1.0  0.39506  0.63466  0.17326  1.0000
  S   S168      1.0  0.35713  0.44052  0.20198  1.0000
  H   H677      1.0  0.40151  0.54750  0.27577  1.0000
  C   C579      1.0  0.31203  0.38492  0.28129  1.0000
  H   H678      1.0  0.48254  0.65157  0.32028  1.0000
  S   S169      1.0  0.36179  0.57021  0.02689  1.0000
  C   C580      1.0  0.45304  0.40153  0.34080  1.0000
  H   H679      1.0  0.40576  0.56811  0.09477  1.0000
  H   H680      1.0  0.37090  0.48221  0.07208  1.0000
  H   H681      1.0  0.36047  0.52407  0.01834  1.0000
  H   H682      1.0  0.43987  0.40462  0.00969  1.0000
  S   S170      1.0  0.41209  0.64860  0.05474  1.0000
  S   S171      1.0  0.43399  0.45234  0.48943  1.0000
  C   C581      1.0  0.42531  0.49737  0.14799  1.0000
  H   H683      1.0  0.40493  0.49404  0.11274  1.0000
  H   H684      1.0  0.33277  0.36026  0.02916  1.0000
  H   H685      1.0  0.44693  0.64854  0.19537  1.0000
  C   C582      1.0  0.41581  0.62001  0.14126  1.0000
  C   C583      1.0  0.43537  0.61790  0.44784  1.0000
  C   C584      1.0  0.34504  0.37014  0.10731  1.0000
  H   H686      1.0  0.39179  0.52175  0.26772  1.0000
  C   C585      1.0  0.32473  0.35018  0.04343  1.0000
  H   H687      1.0  0.31873  0.42513  0.23441  1.0000
  H   H688      1.0  0.35530  0.38991  0.28088  1.0000
  Fe  Fe84      1.0  0.40342  0.43508  0.49017  1.0000
  H   H689      1.0  0.31273  0.39825  0.22636  1.0000
  H   H690      1.0  0.41689  0.51945  0.22529  1.0000
  C   C586      1.0  0.29545  0.36717  0.32055  1.0000
  H   H691      1.0  0.40209  0.62761  0.45851  1.0000
  C   C587      1.0  0.46242  0.40970  0.29255  1.0000
  H   H692      1.0  0.48596  0.65012  0.11681  1.0000
  N   N36       1.0  0.45594  0.38707  0.36525  1.0000
  H   H693      1.0  0.34517  0.40474  0.07462  1.0000
  H   H694      1.0  0.44615  0.43838  0.27464  1.0000
  N   N37       1.0  0.39068  0.54390  0.23317  1.0000
  C   C588      1.0  0.46705  0.35829  0.03370  1.0000
  C   C589      1.0  0.43402  0.60579  0.13529  1.0000
  N   N38       1.0  0.32310  0.40296  0.26903  1.0000
  C   C590      1.0  0.34576  0.39501  0.26198  1.0000
  H   H695      1.0  0.47684  0.62481  0.23759  1.0000
  H   H696      1.0  0.41623  0.65593  0.48478  1.0000
  H   H697      1.0  0.35447  0.40766  0.25133  1.0000
  H   H698      1.0  0.33144  0.37296  0.41744  1.0000
  C   C591      1.0  0.40506  0.54770  0.47963  1.0000
  C   C592      1.0  0.34200  0.34273  0.34731  1.0000
  C   C593      1.0  0.32402  0.42209  0.28785  1.0000
  H   H699      1.0  0.43358  0.36513  0.34911  1.0000
  C   C594      1.0  0.34009  0.38963  0.06453  1.0000
  C   C595      1.0  0.44796  0.42824  0.29295  1.0000
  Fe  Fe85      1.0  0.40666  0.63414  0.01259  1.0000
  C   C596      1.0  0.38905  0.53949  0.26342  1.0000
  C   C597      1.0  0.48373  0.63023  0.21776  1.0000
  C   C598      1.0  0.48525  0.35638  0.01557  1.0000
  H   H700      1.0  0.47639  0.38229  0.31466  1.0000
  H   H701      1.0  0.45165  0.35376  0.37580  1.0000
  H   H702      1.0  0.46979  0.63977  0.16029  1.0000
  C   C599      1.0  0.40275  0.52537  0.47878  1.0000
  H   H703      1.0  0.43709  0.37675  0.04545  1.0000
  C   C600      1.0  0.44207  0.39437  0.38926  1.0000
  H   H704      1.0  0.29080  0.36722  0.34227  1.0000
  C   C601      1.0  0.43596  0.43370  0.31683  1.0000
  N   N39       1.0  0.41498  0.54861  0.38852  1.0000
  C   C602      1.0  0.42148  0.52646  0.37748  1.0000
  C   C603      1.0  0.41225  0.56351  0.36446  1.0000
  C   C604      1.0  0.43321  0.55520  0.40610  1.0000
  C   C605      1.0  0.39466  0.54991  0.40498  1.0000
  C   C606      1.0  0.38638  0.57001  0.41693  1.0000
  C   C607      1.0  0.38275  0.53158  0.41006  1.0000
  C   C608      1.0  0.36778  0.57156  0.43355  1.0000
  C   C609      1.0  0.36417  0.53330  0.42677  1.0000
  C   C610      1.0  0.35679  0.55319  0.43864  1.0000
  H   H705      1.0  0.42453  0.51449  0.39460  1.0000
  H   H706      1.0  0.40896  0.52070  0.36305  1.0000
  H   H707      1.0  0.43688  0.52602  0.36539  1.0000
  H   H708      1.0  0.39852  0.55932  0.35086  1.0000
  H   H709      1.0  0.42715  0.56271  0.35143  1.0000
  H   H710      1.0  0.40906  0.58080  0.37089  1.0000
  H   H711      1.0  0.43590  0.54422  0.42429  1.0000
  H   H712      1.0  0.44873  0.55454  0.39428  1.0000
  H   H713      1.0  0.43024  0.57204  0.41430  1.0000
  H   H714      1.0  0.39456  0.58461  0.41402  1.0000
  H   H715      1.0  0.38790  0.51553  0.40229  1.0000
  H   H716      1.0  0.36220  0.58696  0.44313  1.0000
  H   H717      1.0  0.35585  0.51893  0.43123  1.0000
  H   H718      1.0  0.34278  0.55430  0.45224  1.0000
  H   H719      1.0  0.30194  0.38070  0.11275  1.0000
  H   H720      1.0  0.45190  0.54158  0.16508  1.0000
  H   H721      1.0  0.47718  0.62018  0.20091  1.0000
  C   C611      1.0  0.29145  0.34946  0.30369  1.0000
  S   S172      1.0  0.28223  0.36156  0.16169  1.0000
  C   C612      1.0  0.44582  0.59535  0.15713  1.0000
  C   C613      1.0  0.35912  0.51995  0.22761  1.0000
  C   C614      1.0  0.34528  0.50868  0.21069  1.0000
  C   C615      1.0  0.34709  0.50927  0.18185  1.0000
  H   H722      1.0  0.38884  0.57250  0.20714  1.0000
  S   S173      1.0  0.41484  0.60004  0.02735  1.0000
  H   H723      1.0  0.36909  0.57315  0.23445  1.0000
  H   H724      1.0  0.35710  0.51825  0.24978  1.0000
  H   H725      1.0  0.33351  0.49890  0.22010  1.0000
  H   H726      1.0  0.33681  0.49996  0.16878  1.0000
  Fe  Fe86      1.0  0.37903  0.60039  0.03549  1.0000
  S   S174      1.0  0.44191  0.60078  0.10064  1.0000
  S   S175      1.0  0.41250  0.62779  0.35814  1.0000
  C   C616      1.0  0.37636  0.53289  0.18643  1.0000
  C   C617      1.0  0.31031  0.38926  0.09620  1.0000
  C   C618      1.0  0.41359  0.62440  0.44190  1.0000
  C   C619      1.0  0.32179  0.35572  0.07204  1.0000
  C   C620      1.0  0.37537  0.53218  0.21593  1.0000
  H   H727      1.0  0.42864  0.42590  0.35831  1.0000
  H   H728      1.0  0.39703  0.57709  0.24211  1.0000
  H   H729      1.0  0.44692  0.50430  0.18148  1.0000
  C   C621      1.0  0.49787  0.65813  0.31596  1.0000
  C   C622      1.0  0.42139  0.62307  0.39241  1.0000
  H   H730      1.0  0.35071  0.38983  0.38083  1.0000
  H   H731      1.0  0.41715  0.54302  0.20359  1.0000
  C   C623      1.0  0.42082  0.61311  0.19067  1.0000
  H   H732      1.0  0.29794  0.39362  0.07978  1.0000
  C   C624      1.0  0.32626  0.34292  0.39423  1.0000
  S   S176      1.0  0.37053  0.63363  0.01762  1.0000
  C   C625      1.0  0.31163  0.41067  0.24323  1.0000
  H   H733      1.0  0.33773  0.36125  0.12445  1.0000
  H   H734      1.0  0.29406  0.41517  0.24720  1.0000
  N   N40       1.0  0.40663  0.53349  0.08711  1.0000
  C   C626      1.0  0.41136  0.55574  0.07882  1.0000
  C   C627      1.0  0.41389  0.51846  0.06410  1.0000
  C   C628      1.0  0.38268  0.53349  0.09002  1.0000
  C   C629      1.0  0.41745  0.52613  0.11339  1.0000
  C   C630      1.0  0.41488  0.50499  0.12365  1.0000
  C   C631      1.0  0.43096  0.53926  0.12925  1.0000
  H   H735      1.0  0.40691  0.62852  0.12466  1.0000
  C   C632      1.0  0.44139  0.53143  0.15356  1.0000
  H   H736      1.0  0.42543  0.54465  0.23882  1.0000
  H   H737      1.0  0.42905  0.55689  0.07519  1.0000
  H   H738      1.0  0.40284  0.56077  0.05911  1.0000
  H   H739      1.0  0.43196  0.51686  0.06249  1.0000
  H   H740      1.0  0.40731  0.52431  0.04362  1.0000
  H   H741      1.0  0.40842  0.50189  0.06679  1.0000
  H   H742      1.0  0.37656  0.54481  0.10688  1.0000
  H   H743      1.0  0.37403  0.53882  0.07050  1.0000
  H   H744      1.0  0.37749  0.51712  0.09481  1.0000
  C   C633      1.0  0.45246  0.39135  0.01131  1.0000
  H   H745      1.0  0.43399  0.55555  0.12313  1.0000
  C   C634      1.0  0.40670  0.62733  0.41425  1.0000
  H   H746      1.0  0.28367  0.33585  0.31224  1.0000
  H   H747      1.0  0.32380  0.35047  0.45207  1.0000
  Fe  Fe87      1.0  0.43312  0.60727  0.26098  1.0000
  Fe  Fe88      1.0  0.41640  0.61441  0.07020  1.0000
  S   S177      1.0  0.38106  0.61258  0.07952  1.0000
  C   C635      1.0  0.38619  0.56762  0.22902  1.0000
  H   H748      1.0  0.46169  0.35714  0.34163  1.0000
  H   H749      1.0  0.30011  0.33640  0.45667  1.0000
  S   S178      1.0  0.41211  0.61865  0.22486  1.0000
  C   C636      1.0  0.31099  0.34099  0.08862  1.0000
  C   C637      1.0  0.34905  0.36333  0.35186  1.0000
  C   C638      1.0  0.41346  0.53745  0.22478  1.0000
  N   N41       1.0  0.32925  0.37585  0.08456  1.0000
  H   H750      1.0  0.35792  0.37106  0.33583  1.0000
  H   H751      1.0  0.46287  0.34034  0.45451  1.0000
  H   H752      1.0  0.49063  0.38013  0.35849  1.0000
  H   H753      1.0  0.34644  0.38073  0.24771  1.0000
  H   H754      1.0  0.46509  0.34639  0.04965  1.0000
  H   H755      1.0  0.44617  0.41051  0.39724  1.0000
  C   C639      1.0  0.29760  0.34918  0.27585  1.0000
  H   H756      1.0  0.32903  0.39506  0.04710  1.0000
  C   C640      1.0  0.43842  0.42064  0.34053  1.0000
  H   H757      1.0  0.33383  0.41808  0.30691  1.0000
  C   C641      1.0  0.37660  0.55175  0.00472  1.0000
  H   H758      1.0  0.33196  0.43554  0.27768  1.0000
  H   H759      1.0  0.49326  0.59891  0.39091  1.0000
  C   C642      1.0  0.37288  0.52966  0.00495  1.0000
  H   H760      1.0  0.28413  0.33672  0.39527  1.0000
  C   C643      1.0  0.45047  0.36484  0.35752  1.0000
  H   H761      1.0  0.30744  0.42884  0.29407  1.0000
  C   C644      1.0  0.34490  0.37390  0.37721  1.0000
  H   H762      1.0  0.48345  0.40216  0.38225  1.0000
  C   C645      1.0  0.33373  0.36394  0.39820  1.0000
  H   H763      1.0  0.30833  0.39779  0.32396  1.0000
  H   H764      1.0  0.35927  0.35961  0.09950  1.0000
  H   H765      1.0  0.44441  0.38306  0.40711  1.0000
  C   C646      1.0  0.32254  0.34881  0.18514  1.0000
  H   H766      1.0  0.48175  0.37447  0.39251  1.0000
  H   H767      1.0  0.47171  0.40561  0.27386  1.0000
  C   C647      1.0  0.49621  0.34321  0.44300  1.0000
  C   C648      1.0  0.48201  0.65139  0.16132  1.0000
  H   H768      1.0  0.48503  0.65615  0.41365  1.0000
  H   H769      1.0  0.35420  0.34026  0.20346  1.0000
  C   C649      1.0  0.39283  0.56116  0.49825  1.0000
  C   C650      1.0  0.30915  0.34535  0.44098  1.0000
  H   H770      1.0  0.30807  0.34408  0.11054  1.0000
  N   N42       1.0  0.47844  0.65382  0.21342  1.0000
  C   C651      1.0  0.45442  0.65827  0.21182  1.0000
  H   H771      1.0  0.44635  0.65410  0.23154  1.0000
  H   H772      1.0  0.47800  0.66033  0.25771  1.0000
  C   C652      1.0  0.38781  0.51655  0.49642  1.0000
  H   H773      1.0  0.34526  0.33444  0.32759  1.0000
  H   H774      1.0  0.38592  0.49930  0.49583  1.0000
  H   H775      1.0  0.31682  0.33287  0.18797  1.0000
  H   H776      1.0  0.45977  0.66219  0.37385  1.0000
  C   C653      1.0  0.46866  0.66341  0.41719  1.0000
  H   H777      1.0  0.39472  0.57838  0.49845  1.0000
  H   H778      1.0  0.29441  0.33545  0.26264  1.0000
  C   C654      1.0  0.49125  0.65715  0.13623  1.0000
  C   C655      1.0  0.33085  0.33259  0.36814  1.0000
  C   C656      1.0  0.48844  0.66031  0.18715  1.0000
  C   C657      1.0  0.33263  0.39467  0.80044  1.0000
  H   H779      1.0  0.32614  0.41714  0.57617  1.0000
  H   H780      1.0  0.37323  0.36230  0.79207  1.0000
  H   H781      1.0  0.39714  0.41051  0.85723  1.0000
  C   C658      1.0  0.48383  0.65474  0.95070  1.0000
  S   S179      1.0  0.36549  0.56917  0.54220  1.0000
  Fe  Fe89      1.0  0.43071  0.42444  0.93201  1.0000
  S   S180      1.0  0.40081  0.40801  0.94269  1.0000
  S   S181      1.0  0.46122  0.40906  0.91147  1.0000
  Fe  Fe90      1.0  0.41028  0.46889  0.95001  1.0000
  S   S182      1.0  0.37868  0.45618  0.96215  1.0000
  S   S183      1.0  0.41742  0.50394  0.94940  1.0000
  H   H782      1.0  0.34162  0.40498  0.84147  1.0000
  S   S184      1.0  0.39132  0.42291  0.53115  1.0000
  Fe  Fe91      1.0  0.38253  0.43679  0.92248  1.0000
  S   S185      1.0  0.35332  0.43351  0.89492  1.0000
  C   C659      1.0  0.29451  0.36341  0.61957  1.0000
  S   S186      1.0  0.41237  0.45168  0.90879  1.0000
  Fe  Fe92      1.0  0.46561  0.57060  0.78477  1.0000
  S   S187      1.0  0.43030  0.58094  0.79039  1.0000
  S   S188      1.0  0.48080  0.53769  0.77159  1.0000
  Fe  Fe93      1.0  0.48002  0.61530  0.80232  1.0000
  C   C660      1.0  0.30030  0.34718  0.60007  1.0000
  Fe  Fe94      1.0  0.44121  0.59682  0.82981  1.0000
  Fe  Fe95      1.0  0.43798  0.61201  0.77022  1.0000
  S   S189      1.0  0.47630  0.58433  0.82547  1.0000
  S   S190      1.0  0.47254  0.60034  0.76118  1.0000
  Fe  Fe96      1.0  0.37621  0.46102  0.68204  1.0000
  S   S191      1.0  0.39997  0.43215  0.68968  1.0000
  S   S192      1.0  0.37484  0.47919  0.64097  1.0000
  Fe  Fe97      1.0  0.35762  0.45869  0.74087  1.0000
  S   S193      1.0  0.37944  0.42932  0.75189  1.0000
  Fe  Fe98      1.0  0.40503  0.44746  0.73155  1.0000
  S   S194      1.0  0.43771  0.44887  0.75236  1.0000
  Fe  Fe99      1.0  0.37154  0.41739  0.70903  1.0000
  S   S195      1.0  0.36541  0.38262  0.69794  1.0000
  S   S196      1.0  0.38352  0.47753  0.72263  1.0000
  H   H783      1.0  0.38059  0.54043  0.79263  1.0000
  C   C661      1.0  0.33837  0.37544  0.69514  1.0000
  C   C662      1.0  0.33424  0.35497  0.68429  1.0000
  H   H784      1.0  0.39868  0.64547  0.68602  1.0000
  C   C663      1.0  0.29549  0.36267  0.69246  1.0000
  C   C664      1.0  0.29965  0.38322  0.70293  1.0000
  C   C665      1.0  0.32097  0.38959  0.70429  1.0000
  C   C666      1.0  0.38757  0.37101  0.78902  1.0000
  H   H785      1.0  0.36969  0.49026  0.58291  1.0000
  H   H786      1.0  0.28628  0.39424  0.71027  1.0000
  H   H787      1.0  0.32394  0.40534  0.71284  1.0000
  C   C667      1.0  0.46743  0.51388  0.76575  1.0000
  C   C668      1.0  0.48039  0.49427  0.76341  1.0000
  C   C669      1.0  0.47094  0.47465  0.75939  1.0000
  C   C670      1.0  0.44838  0.47434  0.75699  1.0000
  C   C671      1.0  0.43518  0.49397  0.75930  1.0000
  C   C672      1.0  0.44471  0.51377  0.76385  1.0000
  C   C673      1.0  0.49835  0.35178  0.91549  1.0000
  H   H788      1.0  0.48126  0.45963  0.75773  1.0000
  H   H789      1.0  0.41770  0.49385  0.75807  1.0000
  H   H790      1.0  0.43460  0.52885  0.76580  1.0000
  C   C674      1.0  0.34948  0.44617  0.86234  1.0000
  C   C675      1.0  0.36690  0.45081  0.84537  1.0000
  C   C676      1.0  0.36288  0.45842  0.81802  1.0000
  C   C677      1.0  0.34140  0.46225  0.80819  1.0000
  C   C678      1.0  0.32414  0.45853  0.82574  1.0000
  C   C679      1.0  0.32817  0.45016  0.85242  1.0000
  H   H791      1.0  0.38335  0.44818  0.85314  1.0000
  H   H792      1.0  0.30755  0.46159  0.81838  1.0000
  H   H793      1.0  0.31463  0.44657  0.86537  1.0000
  C   C680      1.0  0.38995  0.44000  0.56080  1.0000
  C   C681      1.0  0.39520  0.43089  0.58684  1.0000
  C   C682      1.0  0.39109  0.44299  0.61140  1.0000
  C   C683      1.0  0.38152  0.46427  0.61020  1.0000
  C   C684      1.0  0.37705  0.47376  0.58408  1.0000
  C   C685      1.0  0.38128  0.46166  0.55941  1.0000
  H   H794      1.0  0.40202  0.41418  0.58804  1.0000
  H   H795      1.0  0.39507  0.43566  0.63126  1.0000
  H   H796      1.0  0.37689  0.46875  0.53942  1.0000
  Fe  Fe100     1.0  0.38333  0.59942  0.54490  1.0000
  S   S197      1.0  0.42259  0.58823  0.86791  1.0000
  H   H797      1.0  0.44731  0.59668  0.71437  1.0000
  H   H798      1.0  0.45774  0.58813  0.66580  1.0000
  H   H799      1.0  0.40494  0.58393  0.92226  1.0000
  H   H800      1.0  0.43038  0.43841  0.84239  1.0000
  S   S198      1.0  0.42013  0.64952  0.97452  1.0000
  H   H801      1.0  0.43917  0.63051  0.87776  1.0000
  C   C686      1.0  0.40179  0.52187  0.97130  1.0000
  C   C687      1.0  0.40517  0.54399  0.97072  1.0000
  C   C688      1.0  0.43153  0.62549  0.89656  1.0000
  H   H802      1.0  0.35178  0.40227  0.56854  1.0000
  C   C689      1.0  0.43396  0.61175  0.64825  1.0000
  H   H803      1.0  0.41750  0.54971  0.95732  1.0000
  S   S199      1.0  0.33541  0.47246  0.77463  1.0000
  H   H804      1.0  0.28023  0.35064  0.78300  1.0000
  C   C690      1.0  0.46405  0.34646  0.93754  1.0000
  C   C691      1.0  0.45661  0.36817  0.93225  1.0000
  C   C692      1.0  0.47001  0.38175  0.91849  1.0000
  C   C693      1.0  0.47001  0.38996  0.99311  1.0000
  Fe  Fe101     1.0  0.39982  0.42892  0.98149  1.0000
  H   H805      1.0  0.40890  0.43530  0.81743  1.0000
  H   H806      1.0  0.44058  0.37441  0.93901  1.0000
  S   S200      1.0  0.41656  0.62961  0.73813  1.0000
  C   C694      1.0  0.33268  0.37208  0.84114  1.0000
  S   S201      1.0  0.34742  0.44553  0.69932  1.0000
  H   H807      1.0  0.38798  0.56572  0.83121  1.0000
  C   C695      1.0  0.34258  0.41210  0.58476  1.0000
  H   H808      1.0  0.33282  0.40885  0.65383  1.0000
  H   H809      1.0  0.41454  0.38612  0.86494  1.0000
  H   H810      1.0  0.37153  0.38134  0.60288  1.0000
  S   S202      1.0  0.44211  0.60544  0.61413  1.0000
  H   H811      1.0  0.36208  0.38002  0.63804  1.0000
  S   S203      1.0  0.43142  0.44316  0.97219  1.0000
  H   H812      1.0  0.35212  0.49831  0.84940  1.0000
  C   C696      1.0  0.39254  0.55886  0.98728  1.0000
  C   C697      1.0  0.38558  0.51469  0.98839  1.0000
  C   C698      1.0  0.42280  0.62211  0.70358  1.0000
  H   H813      1.0  0.37627  0.46173  0.80470  1.0000
  C   C699      1.0  0.37568  0.53009  0.51540  1.0000
  C   C700      1.0  0.47068  0.65947  0.74946  1.0000
  H   H814      1.0  0.45648  0.40427  0.85225  1.0000
  C   C701      1.0  0.48492  0.33823  0.92921  1.0000
  C   C702      1.0  0.41706  0.62768  0.65390  1.0000
  C   C703      1.0  0.33335  0.41645  0.63297  1.0000
  H   H815      1.0  0.47295  0.51964  0.55519  1.0000
  H   H816      1.0  0.43776  0.40321  0.77606  1.0000
  C   C704      1.0  0.41475  0.38326  0.75836  1.0000
  H   H817      1.0  0.33637  0.65613  0.55786  1.0000
  H   H818      1.0  0.33518  0.37014  0.86338  1.0000
  Fe  Fe102     1.0  0.41897  0.61687  0.57999  1.0000
  H   H819      1.0  0.40373  0.60782  0.96404  1.0000
  H   H820      1.0  0.36452  0.52322  0.52949  1.0000
  H   H821      1.0  0.32276  0.34031  0.83611  1.0000
  H   H822      1.0  0.31699  0.42442  0.62779  1.0000
  H   H823      1.0  0.45363  0.33607  0.94834  1.0000
  C   C705      1.0  0.44491  0.60073  0.67016  1.0000
  S   S204      1.0  0.44569  0.62917  0.81008  1.0000
  N   N43       1.0  0.42550  0.40514  0.83099  1.0000
  C   C706      1.0  0.42536  0.42859  0.82428  1.0000
  C   C707      1.0  0.41431  0.40332  0.85809  1.0000
  C   C708      1.0  0.44839  0.39611  0.83475  1.0000
  C   C709      1.0  0.41532  0.39356  0.80786  1.0000
  S   S205      1.0  0.38396  0.62540  0.51249  1.0000
  C   C710      1.0  0.42400  0.39406  0.78058  1.0000
  H   H824      1.0  0.48563  0.65311  0.73829  1.0000
  C   C711      1.0  0.32174  0.35732  0.79597  1.0000
  C   C712      1.0  0.31285  0.34854  0.68303  1.0000
  C   C713      1.0  0.47111  0.46580  0.84058  1.0000
  H   H825      1.0  0.43669  0.43165  0.80713  1.0000
  C   C714      1.0  0.31887  0.34839  0.58401  1.0000
  H   H826      1.0  0.42250  0.41200  0.87502  1.0000
  H   H827      1.0  0.45843  0.39821  0.81599  1.0000
  H   H828      1.0  0.42136  0.38429  0.73757  1.0000
  H   H829      1.0  0.44924  0.37843  0.83946  1.0000
  H   H830      1.0  0.36244  0.50698  0.80214  1.0000
  S   S206      1.0  0.42315  0.64423  0.55078  1.0000
  H   H831      1.0  0.46696  0.45669  0.90981  1.0000
  H   H832      1.0  0.41369  0.53580  0.55597  1.0000
  C   C715      1.0  0.49083  0.37347  0.90998  1.0000
  C   C716      1.0  0.32544  0.37774  0.78420  1.0000
  Fe  Fe103     1.0  0.38648  0.64792  0.54919  1.0000
  C   C717      1.0  0.32661  0.38243  0.60756  1.0000
  H   H833      1.0  0.34619  0.36598  0.57478  1.0000
  C   C718      1.0  0.37844  0.55240  0.51655  1.0000
  H   H834      1.0  0.40979  0.49591  0.54929  1.0000
  H   H835      1.0  0.33093  0.34879  0.74134  1.0000
  H   H836      1.0  0.38930  0.36368  0.74516  1.0000
  Fe  Fe104     1.0  0.42027  0.61992  0.51645  1.0000
  H   H837      1.0  0.35116  0.42713  0.58743  1.0000
  S   S207      1.0  0.26844  0.35530  0.69267  1.0000
  N   N44       1.0  0.43992  0.51044  0.55705  1.0000
  C   C719      1.0  0.42714  0.49423  0.54274  1.0000
  C   C720      1.0  0.43063  0.53231  0.54827  1.0000
  C   C721      1.0  0.46264  0.50706  0.54701  1.0000
  C   C722      1.0  0.43978  0.50878  0.58779  1.0000
  C   C723      1.0  0.44943  0.52447  0.60458  1.0000
  C   C724      1.0  0.43089  0.49142  0.60193  1.0000
  C   C725      1.0  0.44964  0.52315  0.63364  1.0000
  C   C726      1.0  0.43133  0.49020  0.63099  1.0000
  C   C727      1.0  0.44067  0.50601  0.64680  1.0000
  C   C728      1.0  0.39668  0.38174  0.81143  1.0000
  C   C729      1.0  0.33626  0.39180  0.82884  1.0000
  H   H838      1.0  0.43400  0.47724  0.54655  1.0000
  H   H839      1.0  0.47031  0.49088  0.55349  1.0000
  H   H840      1.0  0.43774  0.65450  0.91969  1.0000
  H   H841      1.0  0.42719  0.49624  0.51971  1.0000
  C   C730      1.0  0.39659  0.37174  0.76258  1.0000
  H   H842      1.0  0.44037  0.54560  0.55552  1.0000
  H   H843      1.0  0.45925  0.64643  0.74926  1.0000
  H   H844      1.0  0.38866  0.38071  0.83122  1.0000
  H   H845      1.0  0.42354  0.47848  0.59109  1.0000
  C   C731      1.0  0.33184  0.36577  0.58757  1.0000
  H   H846      1.0  0.42431  0.47686  0.64132  1.0000
  H   H847      1.0  0.44102  0.50490  0.66933  1.0000
  H   H848      1.0  0.28011  0.36229  0.63222  1.0000
  C   C732      1.0  0.43071  0.63904  0.92030  1.0000
  C   C733      1.0  0.37613  0.53672  0.81375  1.0000
  S   S208      1.0  0.38252  0.62228  0.58163  1.0000
  C   C734      1.0  0.36009  0.51306  0.84633  1.0000
  N   N45       1.0  0.44893  0.52260  0.86483  1.0000
  C   C735      1.0  0.42610  0.52492  0.87455  1.0000
  C   C736      1.0  0.46237  0.53497  0.88401  1.0000
  C   C737      1.0  0.44942  0.53294  0.83707  1.0000
  C   C738      1.0  0.45699  0.49931  0.86465  1.0000
  C   C739      1.0  0.45829  0.48737  0.88982  1.0000
  C   C740      1.0  0.46349  0.48778  0.83991  1.0000
  C   C741      1.0  0.46601  0.46543  0.89027  1.0000
  H   H849      1.0  0.48088  0.63055  0.65114  1.0000
  C   C742      1.0  0.47248  0.45469  0.86574  1.0000
  H   H850      1.0  0.41951  0.54226  0.87480  1.0000
  H   H851      1.0  0.41547  0.51564  0.86092  1.0000
  H   H852      1.0  0.42454  0.51906  0.89613  1.0000
  H   H853      1.0  0.46090  0.53000  0.90606  1.0000
  H   H854      1.0  0.45731  0.55275  0.88359  1.0000
  H   H855      1.0  0.47988  0.53276  0.87822  1.0000
  H   H856      1.0  0.43874  0.52526  0.82182  1.0000
  H   H857      1.0  0.44346  0.55044  0.83804  1.0000
  H   H858      1.0  0.46627  0.53218  0.82867  1.0000
  H   H859      1.0  0.45333  0.49490  0.90942  1.0000
  H   H860      1.0  0.46300  0.49537  0.81975  1.0000
  H   H861      1.0  0.47089  0.40217  0.97710  1.0000
  H   H862      1.0  0.34764  0.34395  0.67708  1.0000
  H   H863      1.0  0.45700  0.53540  0.64604  1.0000
  N   N46       1.0  0.35795  0.52136  0.89761  1.0000
  C   C743      1.0  0.36376  0.53745  0.91901  1.0000
  C   C744      1.0  0.33409  0.51985  0.89892  1.0000
  C   C745      1.0  0.36911  0.49999  0.90529  1.0000
  C   C746      1.0  0.36414  0.52706  0.86901  1.0000
  C   C747      1.0  0.37421  0.54637  0.86270  1.0000
  C   C748      1.0  0.38021  0.55094  0.83546  1.0000
  H   H864      1.0  0.35916  0.53264  0.94036  1.0000
  H   H865      1.0  0.38163  0.53896  0.91963  1.0000
  H   H866      1.0  0.35520  0.55379  0.91536  1.0000
  H   H867      1.0  0.32507  0.53532  0.89219  1.0000
  H   H868      1.0  0.32875  0.51631  0.92042  1.0000
  H   H869      1.0  0.32863  0.50660  0.88541  1.0000
  H   H870      1.0  0.38704  0.49996  0.90283  1.0000
  H   H871      1.0  0.36604  0.49587  0.92737  1.0000
  H   H872      1.0  0.36358  0.48635  0.89253  1.0000
  H   H873      1.0  0.37783  0.55822  0.87838  1.0000
  C   C749      1.0  0.42084  0.63260  0.94479  1.0000
  N   N47       1.0  0.38249  0.55680  0.62804  1.0000
  C   C750      1.0  0.38037  0.53559  0.61383  1.0000
  C   C751      1.0  0.36114  0.56968  0.62562  1.0000
  C   C752      1.0  0.39899  0.56816  0.61283  1.0000
  C   C753      1.0  0.38903  0.55475  0.65770  1.0000
  C   C754      1.0  0.39096  0.57364  0.67432  1.0000
  C   C755      1.0  0.39414  0.53434  0.67077  1.0000
  C   C756      1.0  0.39734  0.57217  0.70225  1.0000
  C   C757      1.0  0.40100  0.53310  0.69856  1.0000
  C   C758      1.0  0.40255  0.55196  0.71427  1.0000
  H   H874      1.0  0.36792  0.52629  0.62404  1.0000
  H   H875      1.0  0.37515  0.53775  0.59168  1.0000
  H   H876      1.0  0.39606  0.52534  0.61360  1.0000
  H   H877      1.0  0.34848  0.56223  0.63794  1.0000
  H   H878      1.0  0.35536  0.57073  0.60357  1.0000
  H   H879      1.0  0.36177  0.58674  0.63289  1.0000
  H   H880      1.0  0.41551  0.55968  0.61523  1.0000
  H   H881      1.0  0.39514  0.56933  0.59022  1.0000
  H   H882      1.0  0.40002  0.58509  0.62048  1.0000
  H   H883      1.0  0.38770  0.58975  0.66580  1.0000
  H   H884      1.0  0.39300  0.51905  0.66001  1.0000
  H   H885      1.0  0.39842  0.58682  0.71463  1.0000
  H   H886      1.0  0.40510  0.51740  0.70801  1.0000
  H   H887      1.0  0.40780  0.55095  0.73581  1.0000
  S   S209      1.0  0.41939  0.59227  0.54581  1.0000
  C   C759      1.0  0.41221  0.59927  0.92162  1.0000
  C   C760      1.0  0.32550  0.35502  0.82509  1.0000
  H   H888      1.0  0.45709  0.53781  0.59540  1.0000
  H   H889      1.0  0.49903  0.37250  0.97980  1.0000
  N   N48       1.0  0.34101  0.40027  0.61137  1.0000
  C   C761      1.0  0.41155  0.61273  0.94534  1.0000
  C   C762      1.0  0.42222  0.60558  0.89721  1.0000
  C   C763      1.0  0.43921  0.60576  0.69774  1.0000
  H   H890      1.0  0.46341  0.50769  0.52383  1.0000
  H   H891      1.0  0.34449  0.42972  0.63514  1.0000
  H   H892      1.0  0.37378  0.40373  0.62601  1.0000
  C   C764      1.0  0.36302  0.39094  0.61982  1.0000
  H   H893      1.0  0.43008  0.53371  0.52520  1.0000
  C   C765      1.0  0.41155  0.63293  0.68161  1.0000
  C   C766      1.0  0.36599  0.51786  0.81915  1.0000
  H   H894      1.0  0.47860  0.43772  0.86636  1.0000
  H   H895      1.0  0.40853  0.63623  0.63699  1.0000
  H   H896      1.0  0.33521  0.41019  0.79102  1.0000
  H   H897      1.0  0.38291  0.49765  0.98907  1.0000
  H   H898      1.0  0.32262  0.38089  0.76233  1.0000
  C   C767      1.0  0.29242  0.34680  0.76631  1.0000
  H   H899      1.0  0.30224  0.39242  0.63947  1.0000
  C   C768      1.0  0.48619  0.37274  0.99500  1.0000
  N   N49       1.0  0.31407  0.33969  0.77825  1.0000
  H   H900      1.0  0.47529  0.66193  0.77160  1.0000
  C   C769      1.0  0.30745  0.38077  0.62348  1.0000
  H   H901      1.0  0.46934  0.65003  0.96106  1.0000
  H   H902      1.0  0.44022  0.66194  0.70944  1.0000
  H   H903      1.0  0.29279  0.36155  0.75331  1.0000
  H   H904      1.0  0.49221  0.60844  0.69216  1.0000
  C   C770      1.0  0.49393  0.63540  0.66454  1.0000
  H   H905      1.0  0.39494  0.57592  0.98624  1.0000
  H   H906      1.0  0.30981  0.33269  0.67486  1.0000
  H   H907      1.0  0.47613  0.45747  0.82142  1.0000
  H   H908      1.0  0.32333  0.33566  0.56891  1.0000
  H   H909      1.0  0.49793  0.49421  0.76489  1.0000
  H   H910      1.0  0.49606  0.34350  0.85601  1.0000
  C   C771      1.0  0.48980  0.64567  0.92495  1.0000
  H   H911      1.0  0.49900  0.66392  0.64092  1.0000
  H   H912      1.0  0.47985  0.63392  0.91540  1.0000
  C   C772      1.0  0.32957  0.33467  0.75513  1.0000
  H   H913      1.0  0.28617  0.33410  0.75248  1.0000
  H   H914      1.0  0.29046  0.33354  0.59760  1.0000
  H   H915      1.0  0.45333  0.66166  0.50090  1.0000
  Fe  Fe105     1.0  0.25257  0.74707  0.07538  1.0000
  S   S210      1.0  0.39500  0.91509  0.04458  1.0000
  H   H916      1.0  0.42211  0.67766  0.38158  1.0000
  H   H917      1.0  0.43521  0.83757  0.16920  1.0000
  S   S211      1.0  0.40744  0.86305  0.03434  1.0000
  H   H918      1.0  0.41563  0.94432  0.40552  1.0000
  S   S212      1.0  0.38917  0.89969  0.46772  1.0000
  Fe  Fe106     1.0  0.40575  0.88620  0.07053  1.0000
  S   S213      1.0  0.38859  0.87684  0.10946  1.0000
  C   C773      1.0  0.45450  0.66686  0.39470  1.0000
  N   N50       1.0  0.43240  0.68478  0.47764  1.0000
  Fe  Fe107     1.0  0.39741  0.91952  0.31292  1.0000
  S   S214      1.0  0.36794  0.94028  0.32684  1.0000
  S   S215      1.0  0.42067  0.90174  0.34280  1.0000
  Fe  Fe108     1.0  0.39186  0.93401  0.25232  1.0000
  S   S216      1.0  0.36161  0.95554  0.26165  1.0000
  S   S217      1.0  0.40873  0.93739  0.21133  1.0000
  Fe  Fe109     1.0  0.37978  0.96586  0.29933  1.0000
  H   H919      1.0  0.46777  0.80417  0.09286  1.0000
  Fe  Fe110     1.0  0.35283  0.92748  0.28804  1.0000
  S   S218      1.0  0.31857  0.91721  0.29006  1.0000
  S   S219      1.0  0.41048  0.94607  0.28853  1.0000
  S   S220      1.0  0.38178  0.90501  0.27550  1.0000
  C   C774      1.0  0.25672  0.74739  0.19660  1.0000
  S   S221      1.0  0.30240  0.82093  0.32465  1.0000
  H   H920      1.0  0.37315  0.85925  0.41005  1.0000
  C   C775      1.0  0.34313  0.83678  0.38508  1.0000
  H   H921      1.0  0.38184  0.99684  0.07402  1.0000
  C   C776      1.0  0.31730  0.85789  0.41438  1.0000
  S   S222      1.0  0.25576  0.79225  0.36310  1.0000
  C   C777      1.0  0.30840  0.88803  0.15732  1.0000
  H   H922      1.0  0.47190  0.96677  0.24692  1.0000
  H   H923      1.0  0.27049  0.75590  0.15741  1.0000
  H   H924      1.0  0.27799  0.80839  0.20472  1.0000
  H   H925      1.0  0.25785  0.72108  0.38930  1.0000
  C   C778      1.0  0.49253  0.79078  0.11964  1.0000
  H   H926      1.0  0.34358  0.85935  0.09391  1.0000
  H   H927      1.0  0.29477  0.71871  0.02098  1.0000
  C   C779      1.0  0.27543  0.85878  0.43893  1.0000
  C   C780      1.0  0.32131  0.82838  0.10832  1.0000
  C   C781      1.0  0.46168  0.66875  0.44425  1.0000
  H   H928      1.0  0.27795  0.80517  0.45370  1.0000
  H   H929      1.0  0.42481  0.84768  0.09506  1.0000
  H   H930      1.0  0.39585  0.97515  0.11560  1.0000
  C   C782      1.0  0.44015  0.67804  0.44946  1.0000
  S   S223      1.0  0.25433  0.78944  0.29578  1.0000
  H   H931      1.0  0.35991  0.95034  0.39304  1.0000
  C   C783      1.0  0.47983  0.96485  0.45740  1.0000
  H   H932      1.0  0.35522  0.87431  0.43343  1.0000
  C   C784      1.0  0.43344  0.98761  0.37209  1.0000
  C   C785      1.0  0.27027  0.72208  0.43149  1.0000
  C   C786      1.0  0.26964  0.73318  0.45760  1.0000
  C   C787      1.0  0.39039  0.98604  0.15703  1.0000
  C   C788      1.0  0.33346  0.68560  0.07841  1.0000
  C   C789      1.0  0.32658  0.70663  0.08774  1.0000
  C   C790      1.0  0.30464  0.71459  0.08554  1.0000
  C   C791      1.0  0.28938  0.70147  0.07421  1.0000
  C   C792      1.0  0.29624  0.68041  0.06484  1.0000
  C   C793      1.0  0.32217  0.86653  0.01836  1.0000
  H   H933      1.0  0.33827  0.71676  0.09688  1.0000
  H   H934      1.0  0.29952  0.73070  0.09309  1.0000
  H   H935      1.0  0.29441  0.84323  0.22883  1.0000
  N   N51       1.0  0.43662  0.96621  0.38615  1.0000
  C   C794      1.0  0.31485  0.89075  0.30158  1.0000
  C   C795      1.0  0.29393  0.88573  0.30907  1.0000
  C   C796      1.0  0.28999  0.86443  0.31622  1.0000
  C   C797      1.0  0.30693  0.84791  0.31597  1.0000
  C   C798      1.0  0.32800  0.85302  0.30915  1.0000
  C   C799      1.0  0.33197  0.87438  0.30197  1.0000
  H   H936      1.0  0.28067  0.89837  0.30920  1.0000
  H   H937      1.0  0.27386  0.86093  0.32213  1.0000
  H   H938      1.0  0.34125  0.84037  0.30908  1.0000
  H   H939      1.0  0.34817  0.87804  0.29625  1.0000
  H   H940      1.0  0.35623  0.98724  0.37456  1.0000
  C   C800      1.0  0.44613  0.98362  0.18912  1.0000
  C   C801      1.0  0.32978  0.89767  0.19698  1.0000
  H   H941      1.0  0.39893  0.67764  0.47004  1.0000
  H   H942      1.0  0.41015  0.97016  0.45853  1.0000
  C   C802      1.0  0.42955  0.96990  0.01692  1.0000
  C   C803      1.0  0.39395  0.89370  0.13782  1.0000
  C   C804      1.0  0.40615  0.91154  0.13416  1.0000
  C   C805      1.0  0.41063  0.92478  0.15696  1.0000
  C   C806      1.0  0.40279  0.92034  0.18344  1.0000
  C   C807      1.0  0.39062  0.90247  0.18717  1.0000
  C   C808      1.0  0.38624  0.88911  0.16434  1.0000
  H   H943      1.0  0.41208  0.91523  0.11375  1.0000
  H   H944      1.0  0.42014  0.93854  0.15403  1.0000
  H   H945      1.0  0.38484  0.89883  0.20767  1.0000
  H   H946      1.0  0.37694  0.87521  0.16727  1.0000
  C   C809      1.0  0.39834  0.90019  0.43321  1.0000
  C   C810      1.0  0.42010  0.89448  0.42642  1.0000
  C   C811      1.0  0.42680  0.89470  0.39854  1.0000
  C   C812      1.0  0.41180  0.90074  0.37741  1.0000
  C   C813      1.0  0.39002  0.90619  0.38421  1.0000
  C   C814      1.0  0.38333  0.90595  0.41200  1.0000
  H   H947      1.0  0.43170  0.88953  0.44254  1.0000
  H   H948      1.0  0.44363  0.89017  0.39337  1.0000
  H   H949      1.0  0.37823  0.91015  0.36804  1.0000
  H   H950      1.0  0.36644  0.91012  0.41709  1.0000
  C   C815      1.0  0.41264  0.67384  0.48471  1.0000
  C   C816      1.0  0.43034  0.83427  0.14737  1.0000
  H   H951      1.0  0.44608  0.93310  0.37313  1.0000
  S   S224      1.0  0.26716  0.80346  0.14713  1.0000
  H   H952      1.0  0.35624  0.88755  0.06510  1.0000
  H   H953      1.0  0.31295  0.72254  0.45752  1.0000
  H   H954      1.0  0.28254  0.81933  0.09368  1.0000
  C   C817      1.0  0.33917  0.87586  0.38126  1.0000
  H   H955      1.0  0.33546  0.89168  0.39220  1.0000
  C   C818      1.0  0.45289  0.98776  0.16210  1.0000
  C   C819      1.0  0.45158  0.96609  0.41042  1.0000
  C   C820      1.0  0.34441  0.87714  0.05671  1.0000
  C   C821      1.0  0.30853  0.72339  0.00909  1.0000
  H   H956      1.0  0.33119  0.83514  0.36794  1.0000
  H   H957      1.0  0.35949  0.83553  0.37520  1.0000
  C   C822      1.0  0.45385  0.96891  0.24871  1.0000
  H   H958      1.0  0.40344  0.95966  0.37734  1.0000
  C   C823      1.0  0.39645  0.98900  0.12938  1.0000
  H   H959      1.0  0.40764  0.97269  0.41035  1.0000
  H   H960      1.0  0.26970  0.75228  0.25125  1.0000
  H   H961      1.0  0.27610  0.85159  0.25662  1.0000
  C   C824      1.0  0.47499  0.98426  0.44325  1.0000
  H   H962      1.0  0.38524  0.97049  0.16364  1.0000
  H   H963      1.0  0.44705  0.95629  0.23533  1.0000
  H   H964      1.0  0.26314  0.90772  0.22963  1.0000
  H   H965      1.0  0.31513  0.70909  0.49063  1.0000
  H   H966      1.0  0.26319  0.85642  0.39719  1.0000
  H   H967      1.0  0.44961  0.96525  0.27052  1.0000
  C   C825      1.0  0.33686  0.86077  0.07313  1.0000
  S   S225      1.0  0.44232  0.95272  0.04228  1.0000
  C   C826      1.0  0.29247  0.88101  0.17503  1.0000
  C   C827      1.0  0.32662  0.70852  0.00486  1.0000
  C   C828      1.0  0.36327  0.96052  0.43559  1.0000
  S   S226      1.0  0.27615  0.77255  0.07854  1.0000
  H   H968      1.0  0.30120  0.69697  0.46330  1.0000
  H   H969      1.0  0.33838  0.80612  0.06275  1.0000
  H   H970      1.0  0.38799  0.67998  0.01126  1.0000
  H   H971      1.0  0.34218  0.82248  0.39886  1.0000
  C   C829      1.0  0.47784  0.82193  0.15906  1.0000
  C   C830      1.0  0.28807  0.85741  0.24170  1.0000
  H   H972      1.0  0.31432  0.81523  0.12035  1.0000
  H   H973      1.0  0.44710  0.97847  0.14475  1.0000
  C   C831      1.0  0.25060  0.80705  0.17690  1.0000
  S   S227      1.0  0.46638  0.84140  0.02373  1.0000
  H   H974      1.0  0.35882  0.84503  0.43534  1.0000
  H   H975      1.0  0.34415  0.90434  0.20553  1.0000
  H   H976      1.0  0.44976  0.67571  0.20741  1.0000
  C   C832      1.0  0.31405  0.89064  0.21486  1.0000
  C   C833      1.0  0.25393  0.75124  0.46038  1.0000
  H   H977      1.0  0.28161  0.82933  0.05913  1.0000
  Fe  Fe111     1.0  0.25229  0.78935  0.10852  1.0000
  C   C834      1.0  0.32042  0.80785  0.06579  1.0000
  H   H978      1.0  0.29590  0.75690  0.48678  1.0000
  H   H979      1.0  0.34316  0.89268  0.01679  1.0000
  H   H980      1.0  0.25544  0.81550  0.24686  1.0000
  C   C835      1.0  0.30401  0.71304  0.47262  1.0000
  H   H981      1.0  0.41425  0.98049  0.22774  1.0000
  S   S228      1.0  0.27325  0.80307  0.00850  1.0000
  C   C836      1.0  0.43879  0.83548  0.09882  1.0000
  H   H982      1.0  0.33925  0.90189  0.15450  1.0000
  Fe  Fe112     1.0  0.26771  0.81159  0.32769  1.0000
  C   C837      1.0  0.31454  0.85916  0.44376  1.0000
  H   H983      1.0  0.43535  0.97086  0.19169  1.0000
  H   H984      1.0  0.44996  0.93165  0.41971  1.0000
  C   C838      1.0  0.43327  0.67568  0.39911  1.0000
  H   H985      1.0  0.47274  0.83362  0.17506  1.0000
  H   H986      1.0  0.31707  0.89204  0.23699  1.0000
  H   H987      1.0  0.35530  0.87625  0.37103  1.0000
  N   N52       1.0  0.28342  0.72539  0.48148  1.0000
  C   C839      1.0  0.28919  0.83156  0.07990  1.0000
  N   N53       1.0  0.44543  0.99118  0.24067  1.0000
  H   H988      1.0  0.26079  0.76249  0.20601  1.0000
  H   H989      1.0  0.44111  0.71750  0.47230  1.0000
  H   H990      1.0  0.45974  0.86368  0.15205  1.0000
  Fe  Fe113     1.0  0.44240  0.87063  0.03158  1.0000
  H   H991      1.0  0.31649  0.84387  0.11952  1.0000
  H   H992      1.0  0.30316  0.83979  0.02488  1.0000
  C   C840      1.0  0.27042  0.89383  0.24215  1.0000
  C   C841      1.0  0.32151  0.84677  0.06252  1.0000
  C   C842      1.0  0.43675  0.99053  0.01241  1.0000
  Fe  Fe114     1.0  0.43060  0.91911  0.04018  1.0000
  H   H993      1.0  0.41329  0.71368  0.46373  1.0000
  H   H994      1.0  0.28368  0.90010  0.25484  1.0000
  N   N54       1.0  0.27824  0.87527  0.22402  1.0000
  H   H995      1.0  0.25946  0.85886  0.44831  1.0000
  C   C843      1.0  0.42085  0.97697  0.47345  1.0000
  H   H996      1.0  0.36673  0.97523  0.47579  1.0000
  S   S229      1.0  0.36113  0.67642  0.08198  1.0000
  H   H997      1.0  0.47431  0.93109  0.45990  1.0000
  S   S230      1.0  0.44121  0.89199  0.06965  1.0000
  C   C844      1.0  0.39967  0.99743  0.07107  1.0000
  H   H998      1.0  0.32707  0.87496  0.36413  1.0000
  H   H999      1.0  0.42550  0.81731  0.14630  1.0000
  C   C845      1.0  0.29816  0.85683  0.39798  1.0000
  H   H1000     1.0  0.32618  0.69259  0.01393  1.0000
  H   H1001     1.0  0.25175  0.76010  0.47975  1.0000
  C   C846      1.0  0.35721  0.85905  0.42085  1.0000
  H   H1002     1.0  0.45104  0.83829  0.08262  1.0000
  H   H1003     1.0  0.28318  0.84793  0.08786  1.0000
  C   C847      1.0  0.25782  0.72457  0.15536  1.0000
  H   H1004     1.0  0.27846  0.87483  0.16514  1.0000
  H   H1005     1.0  0.49000  0.96451  0.47591  1.0000
  H   H1006     1.0  0.30184  0.86249  0.25453  1.0000
  N   N55       1.0  0.33889  0.85743  0.40087  1.0000
  N   N56       1.0  0.44796  0.83748  0.12732  1.0000
  C   C848      1.0  0.44525  0.95000  0.36518  1.0000
  C   C849      1.0  0.29386  0.85950  0.45570  1.0000
  H   H1007     1.0  0.31266  0.80584  0.04505  1.0000
  C   C850      1.0  0.33709  0.88003  0.02943  1.0000
  C   C851      1.0  0.29480  0.88223  0.20450  1.0000
  C   C852      1.0  0.32699  0.89635  0.16827  1.0000
  Fe  Fe115     1.0  0.25608  0.79004  0.04534  1.0000
  C   C853      1.0  0.47086  0.94604  0.44842  1.0000
  C   C854      1.0  0.45689  0.94658  0.42538  1.0000
  H   H1008     1.0  0.40599  0.94761  0.00507  1.0000
  H   H1009     1.0  0.44065  0.87227  0.12579  1.0000
  Fe  Fe116     1.0  0.40013  0.89253  0.00792  1.0000
  H   H1010     1.0  0.43470  0.94998  0.34628  1.0000
  H   H1011     1.0  0.36539  0.94412  0.44368  1.0000
  C   C855      1.0  0.37280  0.69101  0.01317  1.0000
  C   C856      1.0  0.42619  0.68134  0.42599  1.0000
  C   C857      1.0  0.41492  0.96043  0.39524  1.0000
  H   H1012     1.0  0.32805  0.85981  0.45805  1.0000
  H   H1013     1.0  0.31615  0.79392  0.07864  1.0000
  C   C858      1.0  0.26049  0.80855  0.45511  1.0000
  H   H1014     1.0  0.29895  0.85536  0.37558  1.0000
  C   C859      1.0  0.45444  0.85999  0.13054  1.0000
  H   H1015     1.0  0.41555  0.84543  0.14311  1.0000
  N   N57       1.0  0.31334  0.82903  0.07905  1.0000
  C   C860      1.0  0.31450  0.85007  0.03454  1.0000
  H   H1016     1.0  0.40959  0.68818  0.42821  1.0000
  H   H1017     1.0  0.33932  0.82508  0.10942  1.0000
  S   S231      1.0  0.43517  0.89833  0.00178  1.0000
  H   H1018     1.0  0.43262  0.81927  0.09518  1.0000
  H   H1019     1.0  0.41502  0.99007  0.26243  1.0000
  H   H1020     1.0  0.28098  0.70767  0.42772  1.0000
  C   C861      1.0  0.41160  0.96352  0.00198  1.0000
  C   C862      1.0  0.27757  0.85740  0.41013  1.0000
  H   H1021     1.0  0.40779  0.98070  0.07305  1.0000
  C   C863      1.0  0.35809  0.98531  0.39684  1.0000
  H   H1022     1.0  0.48996  0.68775  0.33927  1.0000
  H   H1023     1.0  0.46811  0.86288  0.11635  1.0000
  H   H1024     1.0  0.37653  0.70509  0.02645  1.0000
  H   H1025     1.0  0.49376  0.80227  0.03051  1.0000
  C   C864      1.0  0.46685  0.82166  0.13301  1.0000
  C   C865      1.0  0.25885  0.86731  0.20997  1.0000
  H   H1026     1.0  0.46193  0.95323  0.35860  1.0000
  C   C866      1.0  0.36390  0.97811  0.45376  1.0000
  H   H1027     1.0  0.45081  0.99545  0.02361  1.0000
  C   C867      1.0  0.46109  0.98500  0.42010  1.0000
  H   H1028     1.0  0.30624  0.88723  0.13494  1.0000
  C   C868      1.0  0.36027  0.96409  0.40718  1.0000
  C   C869      1.0  0.31828  0.67252  0.06676  1.0000
  H   H1029     1.0  0.36117  0.68183  0.02490  1.0000
  H   H1030     1.0  0.28447  0.67017  0.05611  1.0000
  C   C870      1.0  0.47472  0.80552  0.11341  1.0000
  H   H1031     1.0  0.44911  0.99292  0.36432  1.0000
  H   H1032     1.0  0.26337  0.85301  0.19636  1.0000
  C   C871      1.0  0.49581  0.80729  0.16489  1.0000
  H   H1033     1.0  0.27269  0.72327  0.25505  1.0000
  H   H1034     1.0  0.29207  0.86015  0.47815  1.0000
  H   H1035     1.0  0.48252  0.68329  0.23674  1.0000
  H   H1036     1.0  0.26571  0.69697  0.48590  1.0000
  C   C872      1.0  0.25016  0.80699  0.48080  1.0000
  H   H1037     1.0  0.25794  0.88921  0.25720  1.0000
  C   C873      1.0  0.48814  0.83475  0.04690  1.0000
  C   C874      1.0  0.26043  0.80943  0.20302  1.0000
  C   C875      1.0  0.42128  0.99279  0.24119  1.0000
  C   C876      1.0  0.49463  0.84962  0.06672  1.0000
  H   H1038     1.0  0.29407  0.75577  0.00174  1.0000
  H   H1039     1.0  0.48637  0.86575  0.06791  1.0000
  C   C877      1.0  0.42685  0.70862  0.47825  1.0000
  H   H1040     1.0  0.42227  0.98708  0.35382  1.0000
  S   S232      1.0  0.26172  0.71102  0.07133  1.0000
  H   H1041     1.0  0.25673  0.81593  0.41167  1.0000
  H   H1042     1.0  0.25799  0.74008  0.28045  1.0000
  H   H1043     1.0  0.26231  0.72176  0.13372  1.0000
  H   H1044     1.0  0.43960  0.99406  0.09299  1.0000
  C   C878      1.0  0.26245  0.74375  0.16874  1.0000
  C   C879      1.0  0.26115  0.73799  0.25773  1.0000
  H   H1045     1.0  0.46365  0.68815  0.49709  1.0000
  C   C880      1.0  0.43126  0.96344  0.49354  1.0000
  S   S233      1.0  0.45056  0.89993  0.49563  1.0000
  H   H1046     1.0  0.42859  0.94638  0.49363  1.0000
  C   C881      1.0  0.45315  0.99566  0.21233  1.0000
  C   C882      1.0  0.28959  0.74374  0.49937  1.0000
  C   C883      1.0  0.25689  0.72947  0.40927  1.0000
  C   C884      1.0  0.49918  0.81398  0.04528  1.0000
  C   C885      1.0  0.27100  0.71084  0.49842  1.0000
  H   H1047     1.0  0.49861  0.77892  0.10421  1.0000
  H   H1048     1.0  0.42150  0.71442  0.49935  1.0000
  H   H1049     1.0  0.47335  0.66513  0.46071  1.0000
  H   H1050     1.0  0.25004  0.88023  0.19720  1.0000
  C   C886      1.0  0.48608  0.66538  0.23842  1.0000
  H   H1051     1.0  0.41580  0.99642  0.86018  1.0000
  S   S234      1.0  0.41129  0.91979  0.53773  1.0000
  H   H1052     1.0  0.47853  0.95258  0.66693  1.0000
  C   C887      1.0  0.30862  0.85792  0.92879  1.0000
  S   S235      1.0  0.42029  0.86747  0.52907  1.0000
  H   H1053     1.0  0.25320  0.86163  0.92572  1.0000
  S   S236      1.0  0.37526  0.89560  0.97329  1.0000
  Fe  Fe117     1.0  0.42010  0.89105  0.56473  1.0000
  S   S237      1.0  0.40052  0.88424  0.60261  1.0000
  H   H1054     1.0  0.25969  0.81334  0.90883  1.0000
  N   N58       1.0  0.36398  0.69809  0.98563  1.0000
  Fe  Fe118     1.0  0.39766  0.90533  0.81651  1.0000
  S   S238      1.0  0.36699  0.92708  0.82072  1.0000
  S   S239      1.0  0.41416  0.88666  0.85194  1.0000
  Fe  Fe119     1.0  0.40369  0.91768  0.75547  1.0000
  S   S240      1.0  0.37315  0.94014  0.75492  1.0000
  S   S241      1.0  0.42844  0.91777  0.72111  1.0000
  Fe  Fe120     1.0  0.38435  0.95133  0.79669  1.0000
  N   N59       1.0  0.29422  0.85866  0.70123  1.0000
  Fe  Fe121     1.0  0.35883  0.91335  0.77886  1.0000
  S   S242      1.0  0.32475  0.90338  0.77176  1.0000
  S   S243      1.0  0.41571  0.93054  0.79582  1.0000
  S   S244      1.0  0.38868  0.88992  0.77593  1.0000
  H   H1055     1.0  0.44522  0.68991  0.77545  1.0000
  S   S245      1.0  0.29950  0.81267  0.81796  1.0000
  C   C888      1.0  0.46010  0.85246  0.61705  1.0000
  H   H1056     1.0  0.32898  0.87062  0.85053  1.0000
  S   S246      1.0  0.37223  0.68288  0.54761  1.0000
  S   S247      1.0  0.27618  0.77189  0.58073  1.0000
  C   C889      1.0  0.33040  0.67306  0.55977  1.0000
  H   H1057     1.0  0.41348  0.93109  0.91610  1.0000
  H   H1058     1.0  0.38854  0.72068  0.98077  1.0000
  H   H1059     1.0  0.46106  0.82647  0.57268  1.0000
  C   C890      1.0  0.25233  0.81329  0.92914  1.0000
  H   H1060     1.0  0.41498  0.93511  0.86749  1.0000
  H   H1061     1.0  0.36988  0.85461  0.90305  1.0000
  C   C891      1.0  0.40722  0.96457  0.65100  1.0000
  H   H1062     1.0  0.30872  0.73376  0.56713  1.0000
  H   H1063     1.0  0.29800  0.86331  0.65708  1.0000
  H   H1064     1.0  0.41759  0.96047  0.85124  1.0000
  H   H1065     1.0  0.33580  0.88780  0.87902  1.0000
  H   H1066     1.0  0.41860  0.84330  0.62215  1.0000
  C   C892      1.0  0.47741  0.96611  0.68150  1.0000
  H   H1067     1.0  0.32172  0.84200  0.72242  1.0000
  H   H1068     1.0  0.42418  0.81560  0.63198  1.0000
  S   S248      1.0  0.45973  0.95438  0.53656  1.0000
  H   H1069     1.0  0.38370  0.95324  0.89573  1.0000
  S   S249      1.0  0.47715  0.84144  0.51856  1.0000
  C   C893      1.0  0.26994  0.86026  0.91865  1.0000
  C   C894      1.0  0.30835  0.67873  0.56583  1.0000
  H   H1070     1.0  0.46606  0.66604  0.69534  1.0000
  C   C895      1.0  0.30361  0.84294  0.72216  1.0000
  H   H1071     1.0  0.49225  0.70321  0.84504  1.0000
  C   C896      1.0  0.34460  0.68930  0.55604  1.0000
  C   C897      1.0  0.33661  0.71120  0.55850  1.0000
  C   C898      1.0  0.44660  0.96384  0.61371  1.0000
  H   H1072     1.0  0.44324  0.94775  0.62212  1.0000
  H   H1073     1.0  0.35756  0.83030  0.86703  1.0000
  H   H1074     1.0  0.40892  0.94823  0.64262  1.0000
  H   H1075     1.0  0.34754  0.72385  0.55578  1.0000
  H   H1076     1.0  0.47457  0.85360  0.60357  1.0000
  C   C899      1.0  0.30039  0.70063  0.56849  1.0000
  H   H1077     1.0  0.44213  0.80815  0.58481  1.0000
  C   C900      1.0  0.31816  0.87842  0.78570  1.0000
  C   C901      1.0  0.29630  0.87524  0.79083  1.0000
  C   C902      1.0  0.29034  0.85510  0.80036  1.0000
  C   C903      1.0  0.30623  0.83795  0.80488  1.0000
  C   C904      1.0  0.32814  0.84119  0.79989  1.0000
  C   C905      1.0  0.33410  0.86136  0.79045  1.0000
  H   H1078     1.0  0.28389  0.88841  0.78735  1.0000
  H   H1079     1.0  0.27346  0.85293  0.80412  1.0000
  H   H1080     1.0  0.34056  0.82801  0.80327  1.0000
  H   H1081     1.0  0.35099  0.86356  0.78636  1.0000
  C   C906      1.0  0.25358  0.80619  0.70703  1.0000
  Fe  Fe122     1.0  0.41493  0.89658  0.50157  1.0000
  C   C907      1.0  0.30165  0.88038  0.70779  1.0000
  C   C908      1.0  0.48703  0.98511  0.67523  1.0000
  H   H1082     1.0  0.43357  0.83624  0.57810  1.0000
  H   H1083     1.0  0.44528  0.99569  0.79195  1.0000
  C   C909      1.0  0.40824  0.89437  0.63515  1.0000
  C   C910      1.0  0.42800  0.90366  0.63878  1.0000
  C   C911      1.0  0.43413  0.91073  0.66532  1.0000
  C   C912      1.0  0.42037  0.90885  0.68817  1.0000
  C   C913      1.0  0.40048  0.89989  0.68445  1.0000
  C   C914      1.0  0.39452  0.89251  0.65801  1.0000
  H   H1084     1.0  0.43863  0.90521  0.62125  1.0000
  H   H1085     1.0  0.44953  0.91768  0.66819  1.0000
  H   H1086     1.0  0.38980  0.89842  0.70200  1.0000
  H   H1087     1.0  0.37921  0.88534  0.65525  1.0000
  C   C915      1.0  0.38691  0.89456  0.94002  1.0000
  C   C916      1.0  0.37546  0.90459  0.91767  1.0000
  C   C917      1.0  0.38379  0.90249  0.89058  1.0000
  C   C918      1.0  0.40359  0.89033  0.88571  1.0000
  C   C919      1.0  0.41517  0.88061  0.90815  1.0000
  C   C920      1.0  0.40691  0.88278  0.93527  1.0000
  H   H1088     1.0  0.35998  0.91374  0.92129  1.0000
  H   H1089     1.0  0.37471  0.91000  0.87352  1.0000
  H   H1090     1.0  0.43051  0.87119  0.90452  1.0000
  H   H1091     1.0  0.41574  0.87481  0.95236  1.0000
  C   C921      1.0  0.44132  0.68761  0.75308  1.0000
  N   N60       1.0  0.45265  0.97949  0.75261  1.0000
  H   H1092     1.0  0.44494  0.68832  0.69743  1.0000
  H   H1093     1.0  0.45350  0.95822  0.78818  1.0000
  H   H1094     1.0  0.43324  0.83754  0.65350  1.0000
  S   S250      1.0  0.27237  0.70705  0.57468  1.0000
  H   H1095     1.0  0.34500  0.67021  0.98196  1.0000
  H   H1096     1.0  0.38818  0.97743  0.91551  1.0000
  C   C922      1.0  0.48508  0.70439  0.71114  1.0000
  H   H1097     1.0  0.29669  0.88615  0.72897  1.0000
  H   H1098     1.0  0.35655  0.87072  0.86148  1.0000
  H   H1099     1.0  0.26762  0.86895  0.74599  1.0000
  C   C923      1.0  0.48278  0.78806  0.66273  1.0000
  C   C924      1.0  0.34495  0.71414  0.98954  1.0000
  H   H1100     1.0  0.41656  0.95293  0.93960  1.0000
  H   H1101     1.0  0.29845  0.83520  0.66775  1.0000
  H   H1102     1.0  0.35698  0.74134  0.96657  1.0000
  H   H1103     1.0  0.45780  0.97143  0.62831  1.0000
  H   H1104     1.0  0.39611  0.97731  0.58733  1.0000
  C   C925      1.0  0.46480  0.98162  0.72641  1.0000
  C   C926      1.0  0.47674  0.69620  0.73618  1.0000
  H   H1105     1.0  0.46473  0.85702  0.63861  1.0000
  C   C927      1.0  0.44569  0.97178  0.51256  1.0000
  S   S251      1.0  0.45607  0.89421  0.56398  1.0000
  C   C928      1.0  0.46618  0.80277  0.65244  1.0000
  H   H1106     1.0  0.45555  0.96061  0.59387  1.0000
  H   H1107     1.0  0.26109  0.85778  0.87554  1.0000
  C   C929      1.0  0.44702  0.82504  0.58677  1.0000
  H   H1108     1.0  0.45716  0.94436  0.75589  1.0000
  H   H1109     1.0  0.38768  0.97801  0.87819  1.0000
  H   H1110     1.0  0.49272  0.81930  0.59520  1.0000
  C   C930      1.0  0.42844  0.98202  0.89903  1.0000
  H   H1111     1.0  0.49160  0.67706  0.98300  1.0000
  H   H1112     1.0  0.33806  0.81894  0.88940  1.0000
  H   H1113     1.0  0.29741  0.66610  0.56853  1.0000
  Fe  Fe123     1.0  0.25115  0.78422  0.61231  1.0000
  C   C931      1.0  0.41206  0.96763  0.58962  1.0000
  H   H1114     1.0  0.42222  0.99343  0.73609  1.0000
  Fe  Fe124     1.0  0.26409  0.80608  0.82347  1.0000
  H   H1115     1.0  0.43388  0.70337  0.74497  1.0000
  H   H1116     1.0  0.28274  0.80431  0.95011  1.0000
  C   C932      1.0  0.35720  0.67880  0.97030  1.0000
  C   C933      1.0  0.42196  0.94616  0.91907  1.0000
  H   H1117     1.0  0.42852  0.67582  0.75256  1.0000
  H   H1118     1.0  0.32965  0.83087  0.85704  1.0000
  H   H1119     1.0  0.37694  0.71134  0.94839  1.0000
  Fe  Fe125     1.0  0.45585  0.87251  0.52623  1.0000
  C   C934      1.0  0.28699  0.85997  0.93783  1.0000
  H   H1120     1.0  0.49540  0.98657  0.65565  1.0000
  H   H1121     1.0  0.44220  0.68434  0.52094  1.0000
  C   C935      1.0  0.26546  0.80839  0.95264  1.0000
  H   H1122     1.0  0.29868  0.82633  0.71789  1.0000
  C   C936      1.0  0.46894  0.81451  0.62750  1.0000
  C   C937      1.0  0.39308  0.96789  0.89641  1.0000
  H   H1123     1.0  0.40640  0.67867  0.50576  1.0000
  H   H1124     1.0  0.44074  0.94674  0.86832  1.0000
  N   N61       1.0  0.33638  0.85390  0.88946  1.0000
  H   H1125     1.0  0.32149  0.85047  0.67394  1.0000
  H   H1126     1.0  0.42651  0.96447  0.73168  1.0000
  C   C938      1.0  0.35309  0.85515  0.91170  1.0000
  C   C939      1.0  0.31374  0.85606  0.89997  1.0000
  H   H1127     1.0  0.44744  0.86504  0.60968  1.0000
  C   C940      1.0  0.29592  0.85598  0.88112  1.0000
  H   H1128     1.0  0.28091  0.70388  0.51614  1.0000
  H   H1129     1.0  0.28334  0.86111  0.95986  1.0000
  C   C941      1.0  0.34063  0.83261  0.87516  1.0000
  C   C942      1.0  0.27440  0.85809  0.89037  1.0000
  C   C943      1.0  0.39668  0.96766  0.67657  1.0000
  N   N62       1.0  0.45200  0.83053  0.61615  1.0000
  C   C944      1.0  0.40064  0.97780  0.98305  1.0000
  C   C945      1.0  0.33950  0.87149  0.86930  1.0000
  C   C946      1.0  0.25889  0.86565  0.72712  1.0000
  H   H1130     1.0  0.35058  0.87063  0.92369  1.0000
  H   H1131     1.0  0.35297  0.84140  0.92648  1.0000
  H   H1132     1.0  0.45144  0.80478  0.66451  1.0000
  C   C947      1.0  0.43119  0.83163  0.63177  1.0000
  H   H1133     1.0  0.29849  0.85410  0.85901  1.0000
  S   S252      1.0  0.38958  0.98502  0.81216  1.0000
  C   C948      1.0  0.45430  0.99797  0.77232  1.0000
  C   C949      1.0  0.27011  0.85992  0.70204  1.0000
  C   C950      1.0  0.46616  0.96448  0.70645  1.0000
  H   H1134     1.0  0.39071  0.95390  0.68720  1.0000
  H   H1135     1.0  0.43968  0.94102  0.92017  1.0000
  C   C951      1.0  0.31463  0.71686  0.56491  1.0000
  H   H1136     1.0  0.37127  0.66655  0.96650  1.0000
  H   H1137     1.0  0.41971  0.97560  0.76507  1.0000
  N   N63       1.0  0.41689  0.96198  0.89630  1.0000
  H   H1138     1.0  0.25615  0.71956  0.50749  1.0000
  H   H1139     1.0  0.44067  0.99502  0.57558  1.0000
  C   C952      1.0  0.46097  0.95936  0.76727  1.0000
  H   H1140     1.0  0.27102  0.80516  0.70946  1.0000
  C   C953      1.0  0.42283  0.95066  0.86971  1.0000
  S   S253      1.0  0.26225  0.79998  0.65193  1.0000
  H   H1141     1.0  0.32100  0.85777  0.94476  1.0000
  Fe  Fe126     1.0  0.44728  0.92123  0.53372  1.0000
  C   C954      1.0  0.25707  0.85603  0.67827  1.0000
  H   H1142     1.0  0.47893  0.95877  0.77017  1.0000
  H   H1143     1.0  0.31972  0.88031  0.70732  1.0000
  C   C955      1.0  0.30811  0.74426  0.99825  1.0000
  H   H1144     1.0  0.29476  0.89281  0.69280  1.0000
  H   H1145     1.0  0.27583  0.75110  0.51199  1.0000
  H   H1146     1.0  0.32520  0.76659  0.97452  1.0000
  H   H1147     1.0  0.30225  0.73851  0.51508  1.0000
  H   H1148     1.0  0.45846  0.94965  0.71000  1.0000
  S   S254      1.0  0.26620  0.79925  0.51013  1.0000
  C   C956      1.0  0.42929  0.97818  0.74603  1.0000
  H   H1149     1.0  0.40887  0.95094  0.59607  1.0000
  H   H1150     1.0  0.48028  0.69888  0.69081  1.0000
  C   C957      1.0  0.30337  0.85162  0.67376  1.0000
  H   H1151     1.0  0.29846  0.84732  0.74364  1.0000
  H   H1152     1.0  0.38664  0.97278  0.97177  1.0000
  N   N64       1.0  0.42646  0.97829  0.60947  1.0000
  H   H1153     1.0  0.34989  0.68345  0.94975  1.0000
  C   C958      1.0  0.25634  0.80885  0.97931  1.0000
  H   H1154     1.0  0.44389  0.97542  0.93984  1.0000
  C   C959      1.0  0.48481  0.70442  0.76154  1.0000
  S   S255      1.0  0.25249  0.78829  0.86061  1.0000
  H   H1155     1.0  0.48419  0.66581  0.83025  1.0000
  C   C960      1.0  0.39375  0.98835  0.68840  1.0000
  H   H1156     1.0  0.31666  0.86881  0.99706  1.0000
  C   C961      1.0  0.44919  0.99392  0.51194  1.0000
  H   H1157     1.0  0.41945  0.96578  0.56852  1.0000
  H   H1158     1.0  0.47959  0.69868  0.78138  1.0000
  N   N65       1.0  0.46068  0.67963  0.73652  1.0000
  C   C962      1.0  0.38208  0.70658  0.96987  1.0000
  C   C963      1.0  0.41536  0.98214  0.63655  1.0000
  C   C964      1.0  0.44165  0.98638  0.92247  1.0000
  H   H1159     1.0  0.26394  0.85103  0.65838  1.0000
  H   H1160     1.0  0.36239  0.99382  0.76324  1.0000
  C   C965      1.0  0.34393  0.73556  0.97856  1.0000
  H   H1161     1.0  0.48042  0.77937  0.68184  1.0000
  C   C966      1.0  0.32572  0.75031  0.98297  1.0000
  H   H1162     1.0  0.38528  0.99073  0.70801  1.0000
  Fe  Fe127     1.0  0.25817  0.74193  0.57894  1.0000
  C   C967      1.0  0.45276  0.67386  0.70837  1.0000
  H   H1163     1.0  0.39610  0.69402  0.96756  1.0000
  C   C968      1.0  0.48929  0.81072  0.61392  1.0000
  Fe  Fe128     1.0  0.25200  0.78544  0.54882  1.0000
  C   C969      1.0  0.49639  0.66996  0.96302  1.0000
  C   C970      1.0  0.49958  0.67194  0.82500  1.0000
  C   C971      1.0  0.42608  0.99826  0.87819  1.0000
  C   C972      1.0  0.44870  0.67951  0.50000  1.0000
  S   S256      1.0  0.72953  0.24948  0.34278  1.0000
  H   H1164     1.0  0.66940  0.27062  0.17165  1.0000
  H   H1165     1.0  0.62376  0.24637  0.24961  1.0000
  C   C973      1.0  0.63159  0.21884  0.31013  1.0000
  C   C974      1.0  0.54496  0.27410  0.04646  1.0000
  C   C975      1.0  0.59104  0.29878  0.27225  1.0000
  C   C976      1.0  0.50729  0.10838  0.13565  1.0000
  C   C977      1.0  0.55837  0.24944  0.32760  1.0000
  C   C978      1.0  0.53032  0.18212  0.31597  1.0000
  H   H1166     1.0  0.63656  0.24981  0.41073  1.0000
  S   S257      1.0  0.56546  0.24116  0.36156  1.0000
  H   H1167     1.0  0.53146  0.28617  0.04943  1.0000
  H   H1168     1.0  0.71630  0.30472  0.39804  1.0000
  C   C979      1.0  0.54546  0.26874  0.32272  1.0000
  C   C980      1.0  0.62142  0.20521  0.26554  1.0000
  S   S258      1.0  0.53816  0.26906  0.23906  1.0000
  H   H1169     1.0  0.53980  0.27895  0.33998  1.0000
  H   H1170     1.0  0.52930  0.14125  0.13174  1.0000
  S   S259      1.0  0.59230  0.27272  0.41659  1.0000
  C   C981      1.0  0.64523  0.31663  0.03737  1.0000
  H   H1171     1.0  0.67330  0.30159  0.28782  1.0000
  Fe  Fe129     1.0  0.56173  0.20792  0.17226  1.0000
  S   S260      1.0  0.53512  0.23488  0.16988  1.0000
  S   S261      1.0  0.55456  0.17277  0.17666  1.0000
  Fe  Fe130     1.0  0.59759  0.23915  0.17458  1.0000
  S   S262      1.0  0.57339  0.26819  0.17253  1.0000
  S   S263      1.0  0.63140  0.24905  0.18287  1.0000
  Fe  Fe131     1.0  0.55419  0.25066  0.20305  1.0000
  S   S264      1.0  0.70617  0.23224  0.09357  1.0000
  Fe  Fe132     1.0  0.55704  0.24962  0.13944  1.0000
  Fe  Fe133     1.0  0.56133  0.26728  0.39468  1.0000
  S   S265      1.0  0.57947  0.22282  0.20762  1.0000
  S   S266      1.0  0.58266  0.22144  0.13916  1.0000
  C   C982      1.0  0.65206  0.24345  0.15816  1.0000
  C   C983      1.0  0.68545  0.25370  0.13728  1.0000
  C   C984      1.0  0.66905  0.25710  0.15725  1.0000
  H   H1172     1.0  0.62900  0.18846  0.26920  1.0000
  C   C985      1.0  0.65697  0.21923  0.27016  1.0000
  C   C986      1.0  0.54627  0.26128  0.27294  1.0000
  C   C987      1.0  0.55916  0.24195  0.27786  1.0000
  C   C988      1.0  0.56499  0.23594  0.30514  1.0000
  H   H1173     1.0  0.56423  0.23134  0.26086  1.0000
  H   H1174     1.0  0.57434  0.22064  0.30895  1.0000
  C   C989      1.0  0.55358  0.26233  0.06937  1.0000
  C   C990      1.0  0.57077  0.24638  0.06549  1.0000
  C   C991      1.0  0.62418  0.24361  0.27245  1.0000
  N   N66       1.0  0.63404  0.22162  0.27964  1.0000
  C   C992      1.0  0.74268  0.29578  0.47110  1.0000
  H   H1175     1.0  0.60432  0.20599  0.27306  1.0000
  H   H1176     1.0  0.62306  0.26831  0.33444  1.0000
  C   C993      1.0  0.52764  0.16717  0.18429  1.0000
  C   C994      1.0  0.52392  0.14780  0.19784  1.0000
  S   S267      1.0  0.69277  0.28938  0.07595  1.0000
  C   C995      1.0  0.59812  0.29796  0.10897  1.0000
  H   H1177     1.0  0.66857  0.20867  0.10547  1.0000
  C   C996      1.0  0.51865  0.21785  0.33351  1.0000
  H   H1178     1.0  0.53758  0.13659  0.20374  1.0000
  S   S268      1.0  0.56542  0.30950  0.45500  1.0000
  H   H1179     1.0  0.63875  0.21534  0.14006  1.0000
  C   C997      1.0  0.65278  0.23734  0.48951  1.0000
  H   H1180     1.0  0.59994  0.29325  0.36412  1.0000
  C   C998      1.0  0.63041  0.28068  0.34645  1.0000
  H   H1181     1.0  0.59730  0.28202  0.05274  1.0000
  H   H1182     1.0  0.68453  0.24693  0.04250  1.0000
  C   C999      1.0  0.57960  0.24255  0.03886  1.0000
  Fe  Fe134     1.0  0.71980  0.26419  0.08537  1.0000
  H   H1183     1.0  0.69828  0.26452  0.13656  1.0000
  S   S269      1.0  0.72014  0.26507  0.27832  1.0000
  C   C1000     1.0  0.53927  0.27454  0.29546  1.0000
  H   H1184     1.0  0.57735  0.23707  0.08294  1.0000
  H   H1185     1.0  0.63765  0.28785  0.42858  1.0000
  C   C1001     1.0  0.72368  0.30214  0.41836  1.0000
  Fe  Fe135     1.0  0.53614  0.30104  0.43028  1.0000
  C   C1002     1.0  0.65277  0.28276  0.34479  1.0000
  C   C1003     1.0  0.70481  0.32509  0.17365  1.0000
  H   H1186     1.0  0.60708  0.24637  0.27986  1.0000
  C   C1004     1.0  0.64135  0.31088  0.06490  1.0000
  C   C1005     1.0  0.61727  0.29480  0.36338  1.0000
  C   C1006     1.0  0.66865  0.22225  0.11984  1.0000
  N   N67       1.0  0.62045  0.29012  0.10014  1.0000
  S   S270      1.0  0.73593  0.28406  0.11744  1.0000
  C   C1007     1.0  0.62256  0.26602  0.10065  1.0000
  C   C1008     1.0  0.63593  0.29775  0.12120  1.0000
  C   C1009     1.0  0.62432  0.29766  0.07155  1.0000
  H   H1187     1.0  0.61107  0.25873  0.08619  1.0000
  S   S271      1.0  0.74097  0.27409  0.05045  1.0000
  H   H1188     1.0  0.59535  0.31593  0.10701  1.0000
  H   H1189     1.0  0.52527  0.32512  0.04929  1.0000
  C   C1010     1.0  0.52057  0.18734  0.29027  1.0000
  H   H1190     1.0  0.68913  0.31167  0.26081  1.0000
  H   H1191     1.0  0.63480  0.31581  0.12286  1.0000
  C   C1011     1.0  0.66386  0.25216  0.47336  1.0000
  C   C1012     1.0  0.74525  0.29321  0.42053  1.0000
  H   H1192     1.0  0.61904  0.25977  0.12168  1.0000
  H   H1193     1.0  0.63933  0.25946  0.09485  1.0000
  C   C1013     1.0  0.60599  0.30652  0.29088  1.0000
  H   H1194     1.0  0.63273  0.29147  0.14234  1.0000
  H   H1195     1.0  0.65308  0.29189  0.11629  1.0000
  H   H1196     1.0  0.64470  0.24713  0.03612  1.0000
  H   H1197     1.0  0.50938  0.11751  0.15541  1.0000
  Fe  Fe136     1.0  0.70977  0.30973  0.10635  1.0000
  C   C1014     1.0  0.62640  0.31097  0.37899  1.0000
  C   C1015     1.0  0.67733  0.24983  0.02210  1.0000
  H   H1198     1.0  0.65148  0.30651  0.20325  1.0000
  H   H1199     1.0  0.66810  0.26878  0.26012  1.0000
  H   H1200     1.0  0.51843  0.22981  0.35023  1.0000
  C   C1016     1.0  0.59773  0.29186  0.24581  1.0000
  C   C1017     1.0  0.51644  0.21115  0.23604  1.0000
  Fe  Fe137     1.0  0.71481  0.30092  0.04329  1.0000
  H   H1201     1.0  0.64877  0.22785  0.43136  1.0000
  H   H1202     1.0  0.57419  0.29821  0.27830  1.0000
  H   H1203     1.0  0.51536  0.19894  0.08492  1.0000
  C   C1018     1.0  0.67210  0.31119  0.26829  1.0000
  H   H1204     1.0  0.58595  0.28580  0.23145  1.0000
  H   H1205     1.0  0.59507  0.29378  0.13100  1.0000
  H   H1206     1.0  0.50953  0.21557  0.21523  1.0000
  H   H1207     1.0  0.66605  0.32823  0.27340  1.0000
  H   H1208     1.0  0.69534  0.31565  0.44069  1.0000
  C   C1019     1.0  0.64111  0.24480  0.43237  1.0000
  H   H1209     1.0  0.65467  0.29345  0.45761  1.0000
  C   C1020     1.0  0.63516  0.30053  0.25632  1.0000
  C   C1021     1.0  0.64878  0.31317  0.37730  1.0000
  H   H1210     1.0  0.65883  0.32606  0.03261  1.0000
  H   H1211     1.0  0.53910  0.17634  0.11686  1.0000
  H   H1212     1.0  0.62381  0.28724  0.21710  1.0000
  C   C1022     1.0  0.67432  0.26150  0.42601  1.0000
  Fe  Fe138     1.0  0.74539  0.28059  0.34919  1.0000
  N   N68       1.0  0.65595  0.25968  0.44560  1.0000
  C   C1023     1.0  0.65491  0.24993  0.01845  1.0000
  H   H1213     1.0  0.52951  0.22208  0.24040  1.0000
  H   H1214     1.0  0.62540  0.24479  0.44365  1.0000
  S   S272      1.0  0.71848  0.30173  0.32893  1.0000
  H   H1215     1.0  0.68423  0.27517  0.43131  1.0000
  S   S273      1.0  0.72871  0.32469  0.07272  1.0000
  H   H1216     1.0  0.63848  0.31329  0.29891  1.0000
  C   C1024     1.0  0.61461  0.29777  0.02183  1.0000
  H   H1217     1.0  0.68530  0.24626  0.42548  1.0000
  C   C1025     1.0  0.52942  0.19739  0.33752  1.0000
  C   C1026     1.0  0.61084  0.29164  0.04920  1.0000
  N   N69       1.0  0.65799  0.30139  0.24724  1.0000
  H   H1218     1.0  0.52347  0.10489  0.12570  1.0000
  Fe  Fe139     1.0  0.73675  0.29482  0.28902  1.0000
  C   C1027     1.0  0.64404  0.28137  0.44885  1.0000
  C   C1028     1.0  0.72239  0.30341  0.21104  1.0000
  C   C1029     1.0  0.50261  0.14298  0.20421  1.0000
  C   C1030     1.0  0.71244  0.30478  0.18450  1.0000
  C   C1031     1.0  0.66773  0.27908  0.24116  1.0000
  H   H1219     1.0  0.68479  0.27917  0.23366  1.0000
  C   C1032     1.0  0.65851  0.31456  0.22158  1.0000
  H   H1220     1.0  0.69088  0.27288  0.47577  1.0000
  H   H1221     1.0  0.67541  0.31742  0.21570  1.0000
  S   S274      1.0  0.54310  0.26868  0.10263  1.0000
  C   C1033     1.0  0.67498  0.21607  0.28877  1.0000
  C   C1034     1.0  0.70059  0.21554  0.25066  1.0000
  C   C1035     1.0  0.68335  0.21870  0.23187  1.0000
  Fe  Fe140     1.0  0.57390  0.27349  0.45626  1.0000
  H   H1222     1.0  0.59303  0.23031  0.03596  1.0000
  H   H1223     1.0  0.71729  0.21422  0.24336  1.0000
  C   C1036     1.0  0.65178  0.22603  0.13937  1.0000
  C   C1037     1.0  0.55367  0.27021  0.01980  1.0000
  H   H1224     1.0  0.62032  0.20759  0.24266  1.0000
  C   C1038     1.0  0.69641  0.21423  0.27901  1.0000
  H   H1225     1.0  0.70997  0.21204  0.29352  1.0000
  H   H1226     1.0  0.63972  0.23137  0.32213  1.0000
  C   C1039     1.0  0.51822  0.15003  0.11751  1.0000
  S   S275      1.0  0.66854  0.26496  0.32288  1.0000
  C   C1040     1.0  0.68546  0.23620  0.11866  1.0000
  S   S276      1.0  0.55215  0.30287  0.38840  1.0000
  Fe  Fe141     1.0  0.70405  0.27031  0.31978  1.0000
  H   H1227     1.0  0.61420  0.22072  0.31661  1.0000
  C   C1041     1.0  0.66188  0.22045  0.24141  1.0000
  H   H1228     1.0  0.63346  0.25641  0.28225  1.0000
  H   H1229     1.0  0.64912  0.22287  0.22602  1.0000
  H   H1230     1.0  0.67304  0.21540  0.31105  1.0000
  C   C1042     1.0  0.57112  0.25451  0.01603  1.0000
  H   H1231     1.0  0.68660  0.21978  0.20976  1.0000
  H   H1232     1.0  0.63839  0.20247  0.31694  1.0000
  H   H1233     1.0  0.51246  0.19611  0.16539  1.0000
  S   S277      1.0  0.54332  0.26472  0.43486  1.0000
  Fe  Fe142     1.0  0.58207  0.30801  0.41356  1.0000
  S   S278      1.0  0.70202  0.31109  0.00053  1.0000
  C   C1043     1.0  0.72128  0.30507  0.46905  1.0000
  H   H1234     1.0  0.72834  0.28775  0.21925  1.0000
  C   C1044     1.0  0.66199  0.29900  0.36027  1.0000
  H   H1235     1.0  0.52911  0.28941  0.29184  1.0000
  H   H1236     1.0  0.66851  0.26493  0.40434  1.0000
  H   H1237     1.0  0.52428  0.19433  0.23407  1.0000
  C   C1045     1.0  0.51072  0.18313  0.09118  1.0000
  H   H1238     1.0  0.67926  0.30055  0.35942  1.0000
  H   H1239     1.0  0.58534  0.29056  0.09653  1.0000
  H   H1240     1.0  0.65865  0.27077  0.22475  1.0000
  H   H1241     1.0  0.60414  0.29271  0.00518  1.0000
  C   C1046     1.0  0.61942  0.29277  0.23785  1.0000
  H   H1242     1.0  0.62986  0.28079  0.46303  1.0000
  H   H1243     1.0  0.71044  0.29012  0.17263  1.0000
  C   C1047     1.0  0.71185  0.30832  0.44256  1.0000
  S   S279      1.0  0.59435  0.25706  0.49041  1.0000
  C   C1048     1.0  0.62778  0.30733  0.28325  1.0000
  C   C1049     1.0  0.68224  0.26072  0.48594  1.0000
  H   H1244     1.0  0.65211  0.31679  0.08051  1.0000
  H   H1245     1.0  0.53732  0.19355  0.35731  1.0000
  H   H1246     1.0  0.63798  0.23080  0.48244  1.0000
  C   C1050     1.0  0.63195  0.31006  0.01590  1.0000
  H   H1247     1.0  0.53870  0.16618  0.31920  1.0000
  C   C1051     1.0  0.72526  0.32240  0.22637  1.0000
  S   S280      1.0  0.69154  0.32761  0.14109  1.0000
  C   C1052     1.0  0.50903  0.22334  0.30783  1.0000
  S   S281      1.0  0.50170  0.31494  0.43852  1.0000
  C   C1053     1.0  0.50988  0.18150  0.17666  1.0000
  S   S282      1.0  0.61004  0.32719  0.40208  1.0000
  S   S283      1.0  0.70619  0.31353  0.49903  1.0000
  C   C1054     1.0  0.52412  0.17035  0.10907  1.0000
  H   H1248     1.0  0.60066  0.31190  0.31148  1.0000
  H   H1249     1.0  0.52174  0.17498  0.27416  1.0000
  C   C1055     1.0  0.50965  0.20815  0.28537  1.0000
  H   H1250     1.0  0.50156  0.09241  0.14165  1.0000
  H   H1251     1.0  0.50426  0.30292  0.01352  1.0000
  Fe  Fe143     1.0  0.74734  0.24706  0.30213  1.0000
  H   H1252     1.0  0.50389  0.10562  0.07863  1.0000
  H   H1253     1.0  0.65595  0.32555  0.38953  1.0000
  H   H1254     1.0  0.64948  0.33079  0.22445  1.0000
  H   H1255     1.0  0.70794  0.25361  0.00252  1.0000
  H   H1256     1.0  0.54697  0.27935  0.00220  1.0000
  S   S284      1.0  0.73937  0.32204  0.25843  1.0000
  H   H1257     1.0  0.50161  0.23974  0.30606  1.0000
  H   H1258     1.0  0.49998  0.12828  0.21529  1.0000
  H   H1259     1.0  0.50043  0.24811  0.25968  1.0000
  H   H1260     1.0  0.53259  0.32443  0.00096  1.0000
  H   H1261     1.0  0.74955  0.32386  0.16442  1.0000
  C   C1056     1.0  0.55419  0.26527  0.81747  1.0000
  C   C1057     1.0  0.55460  0.25843  0.76769  1.0000
  C   C1058     1.0  0.73425  0.28588  0.97279  1.0000
  H   H1262     1.0  0.51884  0.08478  0.76654  1.0000
  C   C1059     1.0  0.65855  0.25717  0.96852  1.0000
  H   H1263     1.0  0.70548  0.30236  0.74202  1.0000
  C   C1060     1.0  0.65360  0.29329  0.84869  1.0000
  C   C1061     1.0  0.51510  0.17239  0.70132  1.0000
  C   C1062     1.0  0.60154  0.30080  0.55074  1.0000
  C   C1063     1.0  0.71403  0.31797  0.67501  1.0000
  H   H1264     1.0  0.71052  0.21738  0.66356  1.0000
  C   C1064     1.0  0.71422  0.30637  0.72356  1.0000
  Fe  Fe144     1.0  0.69719  0.26250  0.81395  1.0000
  H   H1265     1.0  0.68892  0.20002  0.60127  1.0000
  H   H1266     1.0  0.61547  0.26341  0.81927  1.0000
  C   C1065     1.0  0.55692  0.27245  0.79030  1.0000
  C   C1066     1.0  0.73702  0.30507  0.72396  1.0000
  C   C1067     1.0  0.61765  0.30385  0.86743  1.0000
  S   S285      1.0  0.58202  0.26480  0.90680  1.0000
  C   C1068     1.0  0.61565  0.32938  0.80111  1.0000
  C   C1069     1.0  0.63621  0.28204  0.54044  1.0000
  Fe  Fe145     1.0  0.56755  0.19558  0.68122  1.0000
  S   S286      1.0  0.54285  0.22398  0.67622  1.0000
  S   S287      1.0  0.55827  0.16125  0.68765  1.0000
  Fe  Fe146     1.0  0.60611  0.22319  0.67133  1.0000
  S   S288      1.0  0.58396  0.25335  0.66444  1.0000
  S   S289      1.0  0.64202  0.22728  0.67793  1.0000
  Fe  Fe147     1.0  0.56588  0.24250  0.70138  1.0000
  S   S290      1.0  0.55806  0.26816  0.73400  1.0000
  Fe  Fe148     1.0  0.56328  0.23194  0.63978  1.0000
  H   H1267     1.0  0.60894  0.23916  0.54283  1.0000
  S   S291      1.0  0.58900  0.21343  0.70987  1.0000
  S   S292      1.0  0.58697  0.20238  0.64312  1.0000
  C   C1070     1.0  0.65924  0.23055  0.64931  1.0000
  S   S293      1.0  0.54386  0.24174  0.60152  1.0000
  C   C1071     1.0  0.66947  0.24990  0.64676  1.0000
  C   C1072     1.0  0.52029  0.12710  0.76368  1.0000
  H   H1268     1.0  0.66472  0.26362  0.66016  1.0000
  H   H1269     1.0  0.65499  0.26367  0.71346  1.0000
  C   C1073     1.0  0.54933  0.23715  0.77233  1.0000
  C   C1074     1.0  0.54602  0.23013  0.79963  1.0000
  H   H1270     1.0  0.54741  0.22627  0.75487  1.0000
  H   H1271     1.0  0.54163  0.21378  0.80322  1.0000
  C   C1075     1.0  0.55821  0.24574  0.57083  1.0000
  C   C1076     1.0  0.58066  0.24036  0.56918  1.0000
  C   C1077     1.0  0.59160  0.24342  0.54415  1.0000
  H   H1272     1.0  0.58951  0.23372  0.58710  1.0000
  H   H1273     1.0  0.71365  0.16102  0.71459  1.0000
  C   C1078     1.0  0.58016  0.25207  0.52090  1.0000
  C   C1079     1.0  0.68328  0.21410  0.61358  1.0000
  C   C1080     1.0  0.53089  0.15600  0.69320  1.0000
  C   C1081     1.0  0.52487  0.13476  0.68940  1.0000
  H   H1274     1.0  0.70994  0.29946  0.89960  1.0000
  N   N70       1.0  0.62897  0.28097  0.73666  1.0000
  H   H1275     1.0  0.70205  0.19690  0.78042  1.0000
  C   C1082     1.0  0.50938  0.15873  0.59626  1.0000
  H   H1276     1.0  0.53695  0.12202  0.68291  1.0000
  S   S294      1.0  0.69939  0.29214  0.57564  1.0000
  H   H1277     1.0  0.53339  0.09333  0.79690  1.0000
  H   H1278     1.0  0.62205  0.24000  0.94722  1.0000
  H   H1279     1.0  0.62609  0.20235  0.75053  1.0000
  S   S295      1.0  0.60075  0.31970  0.89038  1.0000
  C   C1083     1.0  0.53371  0.18216  0.62182  1.0000
  H   H1280     1.0  0.65716  0.21560  0.73412  1.0000
  C   C1084     1.0  0.62717  0.31680  0.51865  1.0000
  C   C1085     1.0  0.54680  0.25425  0.54753  1.0000
  H   H1281     1.0  0.66222  0.27125  0.74805  1.0000
  H   H1282     1.0  0.51269  0.14357  0.75834  1.0000
  H   H1283     1.0  0.60340  0.26166  0.75056  1.0000
  C   C1086     1.0  0.65236  0.27671  0.72954  1.0000
  H   H1284     1.0  0.63141  0.30593  0.58819  1.0000
  N   N71       1.0  0.62459  0.30388  0.54411  1.0000
  S   S296      1.0  0.54133  0.29739  0.88221  1.0000
  C   C1087     1.0  0.64164  0.30877  0.77152  1.0000
  C   C1088     1.0  0.64480  0.27766  0.83173  1.0000
  Fe  Fe149     1.0  0.72732  0.26738  0.58239  1.0000
  H   H1285     1.0  0.65566  0.26625  0.89765  1.0000
  C   C1089     1.0  0.62476  0.29815  0.75813  1.0000
  C   C1090     1.0  0.60897  0.28804  0.85073  1.0000
  H   H1286     1.0  0.63422  0.27148  0.55878  1.0000
  S   S297      1.0  0.71574  0.24035  0.84394  1.0000
  H   H1287     1.0  0.62441  0.24689  0.73140  1.0000
  H   H1288     1.0  0.66417  0.16618  0.77709  1.0000
  Fe  Fe150     1.0  0.73729  0.27790  0.78799  1.0000
  S   S298      1.0  0.71724  0.23375  0.59056  1.0000
  C   C1091     1.0  0.63279  0.28056  0.94191  1.0000
  C   C1092     1.0  0.71665  0.29551  0.91997  1.0000
  H   H1289     1.0  0.67082  0.29537  0.84798  1.0000
  H   H1290     1.0  0.56080  0.28895  0.78691  1.0000
  H   H1291     1.0  0.62525  0.28428  0.92121  1.0000
  C   C1093     1.0  0.51221  0.15640  0.84382  1.0000
  C   C1094     1.0  0.73629  0.28253  0.92227  1.0000
  S   S299      1.0  0.71590  0.29154  0.82285  1.0000
  C   C1095     1.0  0.74500  0.27779  0.94875  1.0000
  H   H1292     1.0  0.61909  0.27883  0.95643  1.0000
  H   H1293     1.0  0.68766  0.21730  0.80115  1.0000
  H   H1294     1.0  0.55640  0.27614  0.83464  1.0000
  C   C1096     1.0  0.73677  0.31682  0.67562  1.0000
  H   H1295     1.0  0.66903  0.23307  0.75896  1.0000
  H   H1296     1.0  0.65901  0.29146  0.72096  1.0000
  C   C1097     1.0  0.63997  0.30657  0.86629  1.0000
  H   H1297     1.0  0.60005  0.29086  0.56979  1.0000
  H   H1298     1.0  0.53842  0.19979  0.57328  1.0000
  C   C1098     1.0  0.71879  0.17703  0.71039  1.0000
  H   H1299     1.0  0.53709  0.12853  0.77168  1.0000
  H   H1300     1.0  0.65193  0.31548  0.56682  1.0000
  H   H1301     1.0  0.52944  0.25849  0.54878  1.0000
  H   H1302     1.0  0.52536  0.14383  0.63324  1.0000
  H   H1303     1.0  0.64675  0.31878  0.87923  1.0000
  H   H1304     1.0  0.59003  0.22093  0.82375  1.0000
  C   C1099     1.0  0.62122  0.26033  0.74677  1.0000
  C   C1100     1.0  0.62245  0.27518  0.83266  1.0000
  C   C1101     1.0  0.70614  0.30409  0.94412  1.0000
  H   H1305     1.0  0.62401  0.22100  0.85097  1.0000
  H   H1306     1.0  0.64674  0.22651  0.93377  1.0000
  H   H1307     1.0  0.68347  0.17309  0.75139  1.0000
  H   H1308     1.0  0.62126  0.30344  0.70334  1.0000
  C   C1102     1.0  0.69382  0.23330  0.61150  1.0000
  C   C1103     1.0  0.61706  0.28724  0.71063  1.0000
  C   C1104     1.0  0.51422  0.14673  0.81741  1.0000
  C   C1105     1.0  0.54843  0.24425  0.82223  1.0000
  S   S300      1.0  0.66119  0.26125  0.80885  1.0000
  C   C1106     1.0  0.51445  0.14194  0.61593  1.0000
  S   S301      1.0  0.54382  0.23570  0.85628  1.0000
  H   H1309     1.0  0.67596  0.24945  0.91587  1.0000
  Fe  Fe151     1.0  0.52763  0.29723  0.92533  1.0000
  S   S302      1.0  0.71697  0.25068  0.77708  1.0000
  S   S303      1.0  0.55896  0.30404  0.94674  1.0000
  S   S304      1.0  0.74731  0.19565  0.79938  1.0000
  C   C1107     1.0  0.68650  0.25137  0.62768  1.0000
  H   H1310     1.0  0.65178  0.21931  0.52768  1.0000
  H   H1311     1.0  0.65505  0.17726  0.74417  1.0000
  H   H1312     1.0  0.51950  0.17150  0.84810  1.0000
  C   C1108     1.0  0.62632  0.20617  0.77252  1.0000
  H   H1313     1.0  0.50927  0.10949  0.62923  1.0000
  C   C1109     1.0  0.66988  0.21619  0.75054  1.0000
  H   H1314     1.0  0.52541  0.18056  0.64211  1.0000
  S   S305      1.0  0.53308  0.26099  0.93035  1.0000
  C   C1110     1.0  0.60553  0.21665  0.81374  1.0000
  H   H1315     1.0  0.68617  0.18883  0.80888  1.0000
  C   C1111     1.0  0.50497  0.12684  0.81134  1.0000
  C   C1112     1.0  0.51704  0.09342  0.78696  1.0000
  C   C1113     1.0  0.64625  0.20596  0.78753  1.0000
  C   C1114     1.0  0.50061  0.19758  0.60120  1.0000
  C   C1115     1.0  0.66746  0.17830  0.76093  1.0000
  C   C1116     1.0  0.60631  0.21147  0.78550  1.0000
  N   N72       1.0  0.66723  0.20045  0.77318  1.0000
  H   H1316     1.0  0.50813  0.26250  0.87691  1.0000
  C   C1117     1.0  0.64483  0.21120  0.81639  1.0000
  H   H1317     1.0  0.54043  0.19833  0.62228  1.0000
  C   C1118     1.0  0.62473  0.21651  0.82912  1.0000
  Fe  Fe152     1.0  0.54907  0.26153  0.88859  1.0000
  H   H1318     1.0  0.65857  0.19759  0.63458  1.0000
  H   H1319     1.0  0.74116  0.28191  0.99291  1.0000
  H   H1320     1.0  0.52210  0.11795  0.74369  1.0000
  C   C1119     1.0  0.66598  0.21275  0.63232  1.0000
  C   C1120     1.0  0.68652  0.20087  0.79181  1.0000
  H   H1321     1.0  0.68582  0.21304  0.73984  1.0000
  H   H1322     1.0  0.62098  0.27524  0.69355  1.0000
  Fe  Fe153     1.0  0.56547  0.26782  0.94804  1.0000
  H   H1323     1.0  0.69468  0.26618  0.62661  1.0000
  H   H1324     1.0  0.59129  0.21167  0.77362  1.0000
  N   N73       1.0  0.50689  0.11594  0.78379  1.0000
  C   C1121     1.0  0.55778  0.25756  0.52264  1.0000
  H   H1325     1.0  0.59174  0.28605  0.85127  1.0000
  S   S306      1.0  0.74506  0.28691  0.61317  1.0000
  H   H1326     1.0  0.62924  0.25538  0.76679  1.0000
  H   H1327     1.0  0.65904  0.21198  0.82948  1.0000
  Fe  Fe154     1.0  0.57333  0.30056  0.90389  1.0000
  H   H1328     1.0  0.68517  0.31425  0.69889  1.0000
  C   C1122     1.0  0.50537  0.12197  0.61380  1.0000
  H   H1329     1.0  0.70412  0.26045  0.52114  1.0000
  H   H1330     1.0  0.52005  0.18507  0.55345  1.0000
  S   S307      1.0  0.74653  0.27839  0.54626  1.0000
  Fe  Fe155     1.0  0.71975  0.30480  0.54180  1.0000
  H   H1331     1.0  0.54795  0.16984  0.62073  1.0000
  H   H1332     1.0  0.58954  0.29705  0.75736  1.0000
  C   C1123     1.0  0.71016  0.18881  0.68774  1.0000
  C   C1124     1.0  0.70275  0.31309  0.69920  1.0000
  H   H1333     1.0  0.59909  0.28799  0.71321  1.0000
  H   H1334     1.0  0.65862  0.30509  0.76668  1.0000
  C   C1125     1.0  0.63599  0.24191  0.93309  1.0000
  C   C1126     1.0  0.72287  0.25659  0.69085  1.0000
  S   S308      1.0  0.58311  0.25020  0.98324  1.0000
  C   C1127     1.0  0.74818  0.31061  0.70004  1.0000
  H   H1335     1.0  0.72806  0.27233  0.68334  1.0000
  H   H1336     1.0  0.51996  0.30691  0.78475  1.0000
  C   C1128     1.0  0.71493  0.29931  0.97063  1.0000
  Fe  Fe156     1.0  0.71756  0.31220  0.60553  1.0000
  H   H1337     1.0  0.68494  0.23357  0.54737  1.0000
  C   C1129     1.0  0.67901  0.23883  0.52703  1.0000
  C   C1130     1.0  0.64562  0.25354  0.99212  1.0000
  H   H1338     1.0  0.52303  0.15519  0.80213  1.0000
  N   N74       1.0  0.64821  0.26081  0.94084  1.0000
  C   C1131     1.0  0.68139  0.25704  0.97299  1.0000
  C   C1132     1.0  0.66397  0.26384  0.91819  1.0000
  H   H1339     1.0  0.69261  0.25983  0.95650  1.0000
  H   H1340     1.0  0.50418  0.04260  0.82545  1.0000
  H   H1341     1.0  0.62890  0.24358  0.91177  1.0000
  C   C1133     1.0  0.60315  0.30433  0.76676  1.0000
  H   H1342     1.0  0.62990  0.27360  0.52189  1.0000
  H   H1343     1.0  0.65400  0.28283  0.53752  1.0000
  H   H1344     1.0  0.63514  0.31458  0.99467  1.0000
  H   H1345     1.0  0.70935  0.25268  0.67694  1.0000
  Fe  Fe157     1.0  0.73629  0.26831  0.85035  1.0000
  H   H1346     1.0  0.62817  0.25343  0.99039  1.0000
  H   H1347     1.0  0.67292  0.27853  0.92188  1.0000
  H   H1348     1.0  0.64121  0.29504  0.94849  1.0000
  H   H1349     1.0  0.59361  0.29195  0.53376  1.0000
  Fe  Fe158     1.0  0.73756  0.23114  0.80787  1.0000
  C   C1134     1.0  0.66042  0.23073  0.51583  1.0000
  C   C1135     1.0  0.71735  0.20911  0.68172  1.0000
  H   H1350     1.0  0.58214  0.32354  0.79488  1.0000
  H   H1351     1.0  0.69809  0.18210  0.67437  1.0000
  H   H1352     1.0  0.71613  0.25926  0.71213  1.0000
  H   H1353     1.0  0.51954  0.18880  0.70446  1.0000
  S   S309      1.0  0.69966  0.32491  0.64397  1.0000
  H   H1354     1.0  0.50710  0.08325  0.79985  1.0000
  H   H1355     1.0  0.69126  0.31460  0.94223  1.0000
  H   H1356     1.0  0.54386  0.17092  0.56860  1.0000
  C   C1136     1.0  0.73333  0.21839  0.69837  1.0000
  H   H1357     1.0  0.50697  0.21391  0.60356  1.0000
  C   C1137     1.0  0.53068  0.18408  0.57221  1.0000
  N   N75       1.0  0.51852  0.18016  0.59800  1.0000
  C   C1138     1.0  0.50326  0.12991  0.69353  1.0000
  C   C1139     1.0  0.73423  0.18577  0.72748  1.0000
  H   H1358     1.0  0.50132  0.24591  0.83048  1.0000
  C   C1140     1.0  0.50189  0.28941  0.81412  1.0000
  H   H1359     1.0  0.59189  0.31662  0.55432  1.0000
  C   C1141     1.0  0.74136  0.20622  0.72182  1.0000
  H   H1360     1.0  0.74098  0.17655  0.74511  1.0000
  N   N76       1.0  0.74124  0.23952  0.69066  1.0000
  C   C1142     1.0  0.63404  0.31473  0.56849  1.0000
  C   C1143     1.0  0.64813  0.32210  0.51032  1.0000
  C   C1144     1.0  0.50879  0.32730  0.81914  1.0000
  C   C1145     1.0  0.50089  0.14674  0.86475  1.0000
  C   C1146     1.0  0.51095  0.30785  0.80413  1.0000
  C   C1147     1.0  0.60937  0.32402  0.50112  1.0000
  H   H1361     1.0  0.74561  0.32106  0.65735  1.0000
  C   C1148     1.0  0.59873  0.31959  0.78807  1.0000
  H   H1362     1.0  0.73800  0.23556  0.64597  1.0000
  S   S310      1.0  0.73424  0.32854  0.57074  1.0000
  C   C1149     1.0  0.63702  0.32415  0.79265  1.0000
  C   C1150     1.0  0.68981  0.25391  0.51220  1.0000
  H   H1363     1.0  0.54890  0.26439  0.50483  1.0000
  H   H1364     1.0  0.59282  0.32070  0.50544  1.0000
  H   H1365     1.0  0.65018  0.33155  0.80318  1.0000
  H   H1366     1.0  0.50467  0.27482  0.80163  1.0000
  H   H1367     1.0  0.66249  0.31692  0.52231  1.0000
  C   C1151     1.0  0.69051  0.25344  0.99946  1.0000
  C   C1152     1.0  0.51456  0.61474  0.41873  1.0000
  C   C1153     1.0  0.67336  0.64303  0.20805  1.0000
  H   H1368     1.0  0.52840  0.35140  0.43246  1.0000
  H   H1369     1.0  0.59887  0.34091  0.46352  1.0000
  C   C1154     1.0  0.63334  0.34059  0.46933  1.0000
  C   C1155     1.0  0.70726  0.34388  0.18938  1.0000
  H   H1370     1.0  0.70137  0.35960  0.18124  1.0000
  H   H1371     1.0  0.53719  0.63160  0.44185  1.0000
  H   H1372     1.0  0.51818  0.35393  0.05162  1.0000
  H   H1373     1.0  0.63562  0.34935  0.45022  1.0000
  H   H1374     1.0  0.72721  0.35021  0.47974  1.0000
  H   H1375     1.0  0.67879  0.63749  0.22916  1.0000
  C   C1156     1.0  0.50634  0.60954  0.39267  1.0000
  C   C1157     1.0  0.51213  0.35762  0.43829  1.0000
  H   H1376     1.0  0.53805  0.63774  0.35168  1.0000
  C   C1158     1.0  0.56812  0.65364  0.42706  1.0000
  C   C1159     1.0  0.53204  0.63149  0.37085  1.0000
  H   H1377     1.0  0.73660  0.37269  0.46125  1.0000
  H   H1378     1.0  0.50765  0.60822  0.43730  1.0000
  H   H1379     1.0  0.73610  0.35163  0.01521  1.0000
  H   H1380     1.0  0.57380  0.63777  0.43653  1.0000
  C   C1160     1.0  0.53351  0.65476  0.29485  1.0000
  H   H1381     1.0  0.58244  0.66352  0.42719  1.0000
  C   C1161     1.0  0.51360  0.64613  0.30000  1.0000
  H   H1382     1.0  0.55583  0.66241  0.44087  1.0000
  H   H1383     1.0  0.72001  0.35731  0.22695  1.0000
  C   C1162     1.0  0.50682  0.38018  0.44061  1.0000
  H   H1384     1.0  0.54571  0.64560  0.28242  1.0000
  H   H1385     1.0  0.58292  0.62437  0.38731  1.0000
  C   C1163     1.0  0.51166  0.33801  0.04683  1.0000
  C   C1164     1.0  0.51497  0.61802  0.36880  1.0000
  C   C1165     1.0  0.57784  0.64137  0.38105  1.0000
  H   H1386     1.0  0.68851  0.64469  0.19610  1.0000
  H   H1387     1.0  0.66472  0.62981  0.19811  1.0000
  H   H1388     1.0  0.51906  0.39129  0.43638  1.0000
  N   N77       1.0  0.55951  0.65079  0.39843  1.0000
  C   C1166     1.0  0.64164  0.66056  0.22971  1.0000
  C   C1167     1.0  0.54116  0.63678  0.39698  1.0000
  H   H1389     1.0  0.63119  0.64764  0.22281  1.0000
  C   C1168     1.0  0.53167  0.62821  0.42103  1.0000
  H   H1390     1.0  0.50848  0.61407  0.34849  1.0000
  H   H1391     1.0  0.57367  0.64120  0.35851  1.0000
  C   C1169     1.0  0.74199  0.35696  0.47132  1.0000
  H   H1392     1.0  0.50167  0.62616  0.21887  1.0000
  C   C1170     1.0  0.65107  0.33394  0.48613  1.0000
  C   C1171     1.0  0.61256  0.33572  0.47687  1.0000
  H   H1393     1.0  0.49966  0.33500  0.06323  1.0000
  H   H1394     1.0  0.66724  0.33774  0.48016  1.0000
  H   H1395     1.0  0.74790  0.34518  0.45487  1.0000
  N   N78       1.0  0.50207  0.33792  0.01842  1.0000
  H   H1396     1.0  0.59235  0.65097  0.38293  1.0000
  C   C1172     1.0  0.71777  0.34257  0.21531  1.0000
  H   H1397     1.0  0.64837  0.65588  0.25058  1.0000
  S   S311      1.0  0.50902  0.62028  0.28643  1.0000
  H   H1398     1.0  0.50386  0.66162  0.24206  1.0000
  N   N79       1.0  0.65909  0.66362  0.20927  1.0000
  H   H1399     1.0  0.52892  0.35350  0.00092  1.0000
  H   H1400     1.0  0.73793  0.33624  0.97041  1.0000
  H   H1401     1.0  0.51435  0.33757  0.97645  1.0000
  S   S312      1.0  0.51127  0.63195  0.79985  1.0000
  H   H1402     1.0  0.73274  0.36168  0.52386  1.0000
  H   H1403     1.0  0.56909  0.64253  0.74918  1.0000
  H   H1404     1.0  0.54991  0.64418  0.88738  1.0000
  H   H1405     1.0  0.54236  0.63420  0.75265  1.0000
  H   H1406     1.0  0.57978  0.66326  0.71234  1.0000
  H   H1407     1.0  0.54753  0.65648  0.79319  1.0000
  H   H1408     1.0  0.53402  0.66473  0.86756  1.0000
  H   H1409     1.0  0.61224  0.34073  0.81818  1.0000
  C   C1173     1.0  0.55492  0.63742  0.73699  1.0000
  C   C1174     1.0  0.74692  0.37055  0.51752  1.0000
  C   C1175     1.0  0.52024  0.33850  0.99832  1.0000
  H   H1410     1.0  0.57091  0.64543  0.68548  1.0000
  H   H1411     1.0  0.56332  0.65397  0.93546  1.0000
  C   C1176     1.0  0.50041  0.62290  0.68759  1.0000
  H   H1412     1.0  0.51184  0.64417  0.89138  1.0000
  H   H1413     1.0  0.56036  0.62186  0.72630  1.0000
  H   H1414     1.0  0.51451  0.34557  0.90910  1.0000
  H   H1415     1.0  0.74065  0.38754  0.51266  1.0000
  H   H1416     1.0  0.51614  0.34143  0.81148  1.0000
  N   N80       1.0  0.54673  0.65427  0.71670  1.0000
  C   C1177     1.0  0.52867  0.64751  0.69899  1.0000
  C   C1178     1.0  0.52105  0.66035  0.67596  1.0000
  H   H1417     1.0  0.50130  0.38393  0.89939  1.0000
  C   C1179     1.0  0.50839  0.65170  0.91141  1.0000
  C   C1180     1.0  0.56554  0.65935  0.69936  1.0000
  H   H1418     1.0  0.52156  0.61828  0.72216  1.0000
  C   C1181     1.0  0.54699  0.66195  0.88360  1.0000
  C   C1182     1.0  0.51749  0.62875  0.70465  1.0000
  C   C1183     1.0  0.51528  0.65866  0.81048  1.0000
  C   C1184     1.0  0.50414  0.65418  0.65885  1.0000
  H   H1419     1.0  0.62661  0.33170  0.57096  1.0000
  Fe  Fe159     1.0  0.60911  0.76053  0.09688  1.0000
  S   S313      1.0  0.64405  0.76835  0.09719  1.0000
  Fe  Fe160     1.0  0.56339  0.78308  0.10028  1.0000
  S   S314      1.0  0.54801  0.75165  0.09627  1.0000
  S   S315      1.0  0.54507  0.81599  0.10601  1.0000
  H   H1420     1.0  0.53839  0.68044  0.39979  1.0000
  Fe  Fe161     1.0  0.57420  0.73829  0.12579  1.0000
  S   S316      1.0  0.58746  0.77055  0.13272  1.0000
  S   S317      1.0  0.58634  0.77610  0.06490  1.0000
  S   S318      1.0  0.68120  0.79666  0.44317  1.0000
  S   S319      1.0  0.60359  0.78961  0.35729  1.0000
  S   S320      1.0  0.61408  0.69548  0.41532  1.0000
  H   H1421     1.0  0.68960  0.76943  0.10693  1.0000
  C   C1185     1.0  0.57341  0.71244  0.21839  1.0000
  H   H1422     1.0  0.55666  0.70851  0.21948  1.0000
  C   C1186     1.0  0.55330  0.81624  0.00568  1.0000
  S   S321      1.0  0.52746  0.71228  0.33704  1.0000
  C   C1187     1.0  0.65319  0.76953  0.31296  1.0000
  S   S322      1.0  0.57882  0.74343  0.31130  1.0000
  C   C1188     1.0  0.66640  0.73166  0.04256  1.0000
  H   H1423     1.0  0.64459  0.75631  0.30312  1.0000
  C   C1189     1.0  0.62097  0.68026  0.14846  1.0000
  C   C1190     1.0  0.66082  0.79389  0.41784  1.0000
  C   C1191     1.0  0.64799  0.77620  0.41891  1.0000
  C   C1192     1.0  0.63070  0.77456  0.40000  1.0000
  C   C1193     1.0  0.62569  0.79099  0.38053  1.0000
  C   C1194     1.0  0.63850  0.80868  0.37948  1.0000
  C   C1195     1.0  0.65620  0.80999  0.39784  1.0000
  H   H1424     1.0  0.65146  0.76371  0.43433  1.0000
  H   H1425     1.0  0.62095  0.76080  0.40092  1.0000
  H   H1426     1.0  0.63473  0.82143  0.36447  1.0000
  H   H1427     1.0  0.66588  0.82382  0.39709  1.0000
  C   C1196     1.0  0.52335  0.82301  0.08292  1.0000
  C   C1197     1.0  0.51688  0.80817  0.06302  1.0000
  H   H1428     1.0  0.56631  0.77491  0.42546  1.0000
  C   C1198     1.0  0.56005  0.77437  0.47889  1.0000
  H   H1429     1.0  0.70036  0.80292  0.49795  1.0000
  C   C1199     1.0  0.51213  0.84371  0.08479  1.0000
  H   H1430     1.0  0.52529  0.79211  0.06162  1.0000
  C   C1200     1.0  0.65795  0.67698  0.13199  1.0000
  H   H1431     1.0  0.60127  0.75881  0.48701  1.0000
  H   H1432     1.0  0.51711  0.85525  0.10013  1.0000
  H   H1433     1.0  0.54641  0.78734  0.48019  1.0000
  H   H1434     1.0  0.57950  0.70703  0.26219  1.0000
  C   C1201     1.0  0.69105  0.72951  0.15543  1.0000
  H   H1435     1.0  0.73336  0.74479  0.00794  1.0000
  C   C1202     1.0  0.65435  0.73735  0.13715  1.0000
  C   C1203     1.0  0.66181  0.75305  0.11956  1.0000
  C   C1204     1.0  0.68378  0.75708  0.12016  1.0000
  C   C1205     1.0  0.69844  0.74500  0.13754  1.0000
  H   H1436     1.0  0.66289  0.71464  0.17003  1.0000
  H   H1437     1.0  0.66952  0.67865  0.11538  1.0000
  H   H1438     1.0  0.70022  0.73946  0.32902  1.0000
  C   C1206     1.0  0.57373  0.78835  0.43668  1.0000
  H   H1439     1.0  0.66540  0.78719  0.20553  1.0000
  H   H1440     1.0  0.60351  0.71261  0.01713  1.0000
  H   H1441     1.0  0.54683  0.67200  0.36560  1.0000
  C   C1207     1.0  0.51410  0.68073  0.16103  1.0000
  C   C1208     1.0  0.61685  0.72184  0.21573  1.0000
  H   H1442     1.0  0.55392  0.76062  0.46687  1.0000
  H   H1443     1.0  0.72592  0.78068  0.24342  1.0000
  H   H1444     1.0  0.62214  0.82795  0.18086  1.0000
  H   H1445     1.0  0.55308  0.68177  0.30137  1.0000
  H   H1446     1.0  0.61576  0.67394  0.19087  1.0000
  C   C1209     1.0  0.69078  0.75472  0.01838  1.0000
  H   H1447     1.0  0.70464  0.78102  0.06093  1.0000
  C   C1210     1.0  0.71735  0.77389  0.04641  1.0000
  C   C1211     1.0  0.71198  0.77217  0.24946  1.0000
  H   H1448     1.0  0.62584  0.70060  0.47323  1.0000
  C   C1212     1.0  0.66885  0.72611  0.15572  1.0000
  H   H1449     1.0  0.61298  0.80668  0.45020  1.0000
  H   H1450     1.0  0.66078  0.72511  0.06186  1.0000
  Fe  Fe162     1.0  0.71483  0.79950  0.42561  1.0000
  H   H1451     1.0  0.58803  0.79189  0.42401  1.0000
  H   H1452     1.0  0.63738  0.73415  0.13674  1.0000
  N   N81       1.0  0.63182  0.79510  0.19447  1.0000
  C   C1213     1.0  0.61902  0.81082  0.17627  1.0000
  C   C1214     1.0  0.65531  0.79808  0.19127  1.0000
  C   C1215     1.0  0.62825  0.77300  0.18406  1.0000
  C   C1216     1.0  0.62528  0.79881  0.22386  1.0000
  C   C1217     1.0  0.61658  0.78258  0.24038  1.0000
  C   C1218     1.0  0.62724  0.81934  0.23675  1.0000
  C   C1219     1.0  0.60961  0.78704  0.26762  1.0000
  C   C1220     1.0  0.62032  0.82357  0.26409  1.0000
  C   C1221     1.0  0.61132  0.80751  0.27940  1.0000
  H   H1453     1.0  0.68281  0.66867  0.16172  1.0000
  H   H1454     1.0  0.62299  0.80799  0.15383  1.0000
  H   H1455     1.0  0.60121  0.80941  0.17860  1.0000
  H   H1456     1.0  0.65913  0.81503  0.19573  1.0000
  H   H1457     1.0  0.72309  0.73908  0.47659  1.0000
  H   H1458     1.0  0.60373  0.68433  0.14459  1.0000
  H   H1459     1.0  0.61092  0.76947  0.18605  1.0000
  H   H1460     1.0  0.63217  0.77122  0.16156  1.0000
  H   H1461     1.0  0.63877  0.76028  0.19511  1.0000
  H   H1462     1.0  0.61470  0.76634  0.23276  1.0000
  H   H1463     1.0  0.63392  0.83238  0.22561  1.0000
  H   H1464     1.0  0.60274  0.77454  0.27969  1.0000
  H   H1465     1.0  0.62173  0.83945  0.27341  1.0000
  H   H1466     1.0  0.60577  0.81083  0.30054  1.0000
  H   H1467     1.0  0.52669  0.69206  0.16081  1.0000
  N   N82       1.0  0.57962  0.78244  0.46585  1.0000
  H   H1468     1.0  0.54226  0.77586  0.00636  1.0000
  H   H1469     1.0  0.53821  0.82479  0.01449  1.0000
  C   C1222     1.0  0.59609  0.71095  0.49494  1.0000
  C   C1223     1.0  0.58777  0.80131  0.48065  1.0000
  S   S323      1.0  0.70950  0.71446  0.17733  1.0000
  H   H1470     1.0  0.51443  0.67625  0.11661  1.0000
  C   C1224     1.0  0.60371  0.72329  0.19164  1.0000
  C   C1225     1.0  0.57354  0.71558  0.49254  1.0000
  S   S324      1.0  0.55917  0.73288  0.02106  1.0000
  H   H1471     1.0  0.68695  0.74201  0.45656  1.0000
  S   S325      1.0  0.72365  0.81051  0.38307  1.0000
  C   C1226     1.0  0.65630  0.72695  0.01752  1.0000
  H   H1472     1.0  0.62603  0.83828  0.47354  1.0000
  C   C1227     1.0  0.59695  0.76432  0.46550  1.0000
  C   C1228     1.0  0.67146  0.73014  0.49272  1.0000
  H   H1473     1.0  0.64309  0.71647  0.01734  1.0000
  H   H1474     1.0  0.67829  0.67772  0.24140  1.0000
  Fe  Fe163     1.0  0.60651  0.71759  0.31153  1.0000
  H   H1475     1.0  0.66099  0.79424  0.16962  1.0000
  C   C1229     1.0  0.63579  0.68160  0.12692  1.0000
  C   C1230     1.0  0.60522  0.81208  0.46947  1.0000
  C   C1231     1.0  0.60850  0.70469  0.47121  1.0000
  S   S326      1.0  0.59754  0.72714  0.09166  1.0000
  Fe  Fe164     1.0  0.60212  0.71060  0.37480  1.0000
  C   C1232     1.0  0.58200  0.71833  0.19283  1.0000
  H   H1476     1.0  0.67868  0.78334  0.35214  1.0000
  Fe  Fe165     1.0  0.59446  0.75543  0.35021  1.0000
  H   H1477     1.0  0.54616  0.71785  0.46441  1.0000
  C   C1233     1.0  0.59852  0.70378  0.44492  1.0000
  S   S327      1.0  0.73526  0.76790  0.42312  1.0000
  S   S328      1.0  0.57450  0.73624  0.37806  1.0000
  C   C1234     1.0  0.57605  0.70888  0.44267  1.0000
  H   H1478     1.0  0.71549  0.74773  0.13694  1.0000
  H   H1479     1.0  0.61053  0.72749  0.17193  1.0000
  H   H1480     1.0  0.71201  0.78509  0.29030  1.0000
  S   S329      1.0  0.62512  0.71344  0.27108  1.0000
  H   H1481     1.0  0.51743  0.78078  0.14945  1.0000
  H   H1482     1.0  0.72538  0.75877  0.05570  1.0000
  Fe  Fe166     1.0  0.56245  0.72064  0.33905  1.0000
  Fe  Fe167     1.0  0.57264  0.74359  0.06251  1.0000
  C   C1235     1.0  0.71010  0.73429  0.48958  1.0000
  C   C1236     1.0  0.53776  0.67520  0.30569  1.0000
  H   H1483     1.0  0.64622  0.77167  0.33419  1.0000
  H   H1484     1.0  0.63374  0.72513  0.21449  1.0000
  H   H1485     1.0  0.59174  0.75008  0.45368  1.0000
  H   H1486     1.0  0.56804  0.70821  0.42279  1.0000
  C   C1237     1.0  0.61297  0.83012  0.48284  1.0000
  S   S330      1.0  0.62297  0.73074  0.34910  1.0000
  C   C1238     1.0  0.52210  0.68716  0.32178  1.0000
  C   C1239     1.0  0.56360  0.71434  0.46638  1.0000
  H   H1487     1.0  0.56564  0.68359  0.38811  1.0000
  S   S331      1.0  0.56561  0.71808  0.16258  1.0000
  H   H1488     1.0  0.69057  0.74801  0.06322  1.0000
  H   H1489     1.0  0.65537  0.73136  0.48335  1.0000
  H   H1490     1.0  0.64875  0.78477  0.30139  1.0000
  C   C1240     1.0  0.58634  0.71164  0.24263  1.0000
  S   S332      1.0  0.58930  0.69381  0.33706  1.0000
  S   S333      1.0  0.74277  0.75534  0.34679  1.0000
  C   C1241     1.0  0.60817  0.71613  0.24133  1.0000
  H   H1491     1.0  0.70385  0.77883  0.33466  1.0000
  C   C1242     1.0  0.50725  0.67182  0.13608  1.0000
  N   N83       1.0  0.67716  0.76471  0.31389  1.0000
  C   C1243     1.0  0.68608  0.78210  0.33101  1.0000
  H   H1492     1.0  0.67641  0.74449  0.35024  1.0000
  H   H1493     1.0  0.70974  0.75602  0.20983  1.0000
  S   S334      1.0  0.74862  0.76003  0.17403  1.0000
  C   C1244     1.0  0.68599  0.76301  0.28527  1.0000
  C   C1245     1.0  0.68927  0.73602  0.47766  1.0000
  H   H1494     1.0  0.68303  0.79831  0.32114  1.0000
  C   C1246     1.0  0.68229  0.74378  0.32834  1.0000
  H   H1495     1.0  0.67465  0.73015  0.31789  1.0000
  C   C1247     1.0  0.70374  0.77457  0.27649  1.0000
  H   H1496     1.0  0.56184  0.80294  0.43601  1.0000
  H   H1497     1.0  0.63011  0.68657  0.10637  1.0000
  H   H1498     1.0  0.63112  0.67584  0.23323  1.0000
  H   H1499     1.0  0.72999  0.78570  0.04575  1.0000
  H   H1500     1.0  0.66447  0.73874  0.27088  1.0000
  H   H1501     1.0  0.66194  0.69696  0.22084  1.0000
  H   H1502     1.0  0.61206  0.76889  0.45549  1.0000
  C   C1248     1.0  0.67740  0.74871  0.26547  1.0000
  Fe  Fe168     1.0  0.74573  0.77966  0.38168  1.0000
  C   C1249     1.0  0.68576  0.74649  0.23851  1.0000
  C   C1250     1.0  0.55225  0.67261  0.38761  1.0000
  C   C1251     1.0  0.70301  0.75819  0.23055  1.0000
  S   S335      1.0  0.74089  0.81681  0.44717  1.0000
  C   C1252     1.0  0.68351  0.74515  0.04309  1.0000
  H   H1503     1.0  0.68539  0.79813  0.01963  1.0000
  H   H1504     1.0  0.57953  0.77529  0.00558  1.0000
  H   H1505     1.0  0.67925  0.73524  0.22383  1.0000
  N   N84       1.0  0.70822  0.76984  0.01832  1.0000
  H   H1506     1.0  0.56074  0.80610  0.02281  1.0000
  H   H1507     1.0  0.71205  0.80314  0.00722  1.0000
  C   C1253     1.0  0.69949  0.79118  0.00715  1.0000
  C   C1254     1.0  0.66538  0.67107  0.15863  1.0000
  H   H1508     1.0  0.51114  0.68257  0.20476  1.0000
  C   C1255     1.0  0.50494  0.67511  0.18627  1.0000
  C   C1256     1.0  0.50318  0.79180  0.14517  1.0000
  Fe  Fe169     1.0  0.74341  0.72462  0.17027  1.0000
  C   C1257     1.0  0.65072  0.66940  0.18108  1.0000
  H   H1509     1.0  0.74040  0.73376  0.29421  1.0000
  H   H1510     1.0  0.68632  0.68350  0.20674  1.0000
  C   C1258     1.0  0.67198  0.68116  0.22000  1.0000
  C   C1259     1.0  0.62819  0.67423  0.17517  1.0000
  H   H1511     1.0  0.50426  0.80809  0.18467  1.0000
  H   H1512     1.0  0.56467  0.82877  0.00083  1.0000
  C   C1260     1.0  0.50210  0.67861  0.32675  1.0000
  H   H1513     1.0  0.66474  0.82017  0.49904  1.0000
  C   C1261     1.0  0.72642  0.76093  0.00042  1.0000
  H   H1514     1.0  0.73991  0.77182  0.00010  1.0000
  Fe  Fe170     1.0  0.61373  0.74818  0.58789  1.0000
  S   S336      1.0  0.64923  0.74940  0.57886  1.0000
  Fe  Fe171     1.0  0.57274  0.77880  0.59152  1.0000
  S   S337      1.0  0.55144  0.75128  0.59392  1.0000
  S   S338      1.0  0.56041  0.81427  0.59229  1.0000
  Fe  Fe172     1.0  0.57265  0.73579  0.56012  1.0000
  C   C1262     1.0  0.67447  0.76409  0.75264  1.0000
  S   S339      1.0  0.59639  0.76507  0.62391  1.0000
  S   S340      1.0  0.59197  0.76458  0.55556  1.0000
  S   S341      1.0  0.70093  0.78020  0.92804  1.0000
  S   S342      1.0  0.62721  0.78436  0.83523  1.0000
  H   H1515     1.0  0.58010  0.83301  0.53949  1.0000
  H   H1516     1.0  0.69321  0.75780  0.58816  1.0000
  H   H1517     1.0  0.67186  0.77926  0.50149  1.0000
  C   C1263     1.0  0.60864  0.77341  0.94628  1.0000
  H   H1518     1.0  0.72539  0.69737  0.86300  1.0000
  H   H1519     1.0  0.70793  0.81912  0.52679  1.0000
  H   H1520     1.0  0.67673  0.69709  0.77323  1.0000
  H   H1521     1.0  0.72138  0.75897  0.97836  1.0000
  S   S343      1.0  0.58534  0.74648  0.87305  1.0000
  H   H1522     1.0  0.55129  0.70327  0.89068  1.0000
  H   H1523     1.0  0.51545  0.77340  0.65672  1.0000
  C   C1264     1.0  0.68109  0.78154  0.90146  1.0000
  C   C1265     1.0  0.66294  0.76958  0.90451  1.0000
  C   C1266     1.0  0.64662  0.77024  0.88402  1.0000
  C   C1267     1.0  0.64801  0.78334  0.86062  1.0000
  C   C1268     1.0  0.66616  0.79540  0.85749  1.0000
  C   C1269     1.0  0.68281  0.79434  0.87777  1.0000
  H   H1524     1.0  0.66162  0.75955  0.92268  1.0000
  H   H1525     1.0  0.63275  0.76083  0.88658  1.0000
  H   H1526     1.0  0.66729  0.80565  0.83950  1.0000
  H   H1527     1.0  0.69669  0.80380  0.87542  1.0000
  C   C1270     1.0  0.53758  0.82191  0.57130  1.0000
  C   C1271     1.0  0.52887  0.80691  0.55337  1.0000
  H   H1528     1.0  0.53304  0.77411  0.97107  1.0000
  C   C1272     1.0  0.53556  0.81774  0.96115  1.0000
  H   H1529     1.0  0.70791  0.70184  0.74217  1.0000
  C   C1273     1.0  0.52779  0.84324  0.57288  1.0000
  H   H1530     1.0  0.53623  0.79040  0.55214  1.0000
  H   H1531     1.0  0.56601  0.80775  0.92661  1.0000
  H   H1532     1.0  0.72895  0.69856  0.55925  1.0000
  H   H1533     1.0  0.53450  0.85489  0.58674  1.0000
  H   H1534     1.0  0.57401  0.72435  0.92168  1.0000
  C   C1274     1.0  0.58358  0.77937  0.98457  1.0000
  C   C1275     1.0  0.69681  0.73012  0.64916  1.0000
  H   H1535     1.0  0.68625  0.71010  0.86695  1.0000
  C   C1276     1.0  0.66021  0.73088  0.62962  1.0000
  C   C1277     1.0  0.66687  0.74252  0.60675  1.0000
  C   C1278     1.0  0.68823  0.74841  0.60551  1.0000
  C   C1279     1.0  0.70309  0.74246  0.62678  1.0000
  H   H1536     1.0  0.56614  0.80199  0.51700  1.0000
  H   H1537     1.0  0.65272  0.73108  0.77156  1.0000
  H   H1538     1.0  0.64435  0.80096  0.56897  1.0000
  H   H1539     1.0  0.73584  0.77502  0.76331  1.0000
  H   H1540     1.0  0.50382  0.80158  0.52317  1.0000
  H   H1541     1.0  0.71453  0.80484  0.57121  1.0000
  C   C1280     1.0  0.50924  0.84952  0.55676  1.0000
  C   C1281     1.0  0.67935  0.80328  0.56453  1.0000
  C   C1282     1.0  0.68018  0.74945  0.99317  1.0000
  H   H1542     1.0  0.50177  0.86598  0.55809  1.0000
  C   C1283     1.0  0.72861  0.71483  0.86384  1.0000
  C   C1284     1.0  0.60298  0.76961  0.97367  1.0000
  C   C1285     1.0  0.58344  0.71138  0.74279  1.0000
  H   H1543     1.0  0.56207  0.66723  0.87405  1.0000
  C   C1286     1.0  0.53753  0.69747  0.90269  1.0000
  C   C1287     1.0  0.66322  0.73574  0.99282  1.0000
  H   H1544     1.0  0.57580  0.71168  0.76298  1.0000
  H   H1545     1.0  0.72445  0.75559  0.72123  1.0000
  H   H1546     1.0  0.53059  0.80875  0.94229  1.0000
  H   H1547     1.0  0.59971  0.79019  0.90844  1.0000
  H   H1548     1.0  0.67708  0.70940  0.82125  1.0000
  C   C1288     1.0  0.57573  0.79731  0.94060  1.0000
  H   H1549     1.0  0.69620  0.71655  0.55384  1.0000
  C   C1289     1.0  0.65946  0.80246  0.60865  1.0000
  H   H1550     1.0  0.67866  0.80284  0.64617  1.0000
  C   C1290     1.0  0.60158  0.71181  0.94591  1.0000
  C   C1291     1.0  0.51052  0.81326  0.53701  1.0000
  H   H1551     1.0  0.65404  0.77978  0.53073  1.0000
  C   C1292     1.0  0.57912  0.80927  0.50651  1.0000
  C   C1293     1.0  0.68167  0.77478  0.77689  1.0000
  H   H1552     1.0  0.65534  0.73199  0.97330  1.0000
  C   C1294     1.0  0.57609  0.72511  0.99260  1.0000
  C   C1295     1.0  0.56052  0.67115  0.92857  1.0000
  H   H1553     1.0  0.60971  0.85185  0.51816  1.0000
  C   C1296     1.0  0.71654  0.75155  0.85093  1.0000
  N   N85       1.0  0.67924  0.80216  0.53370  1.0000
  C   C1297     1.0  0.57096  0.71729  0.71910  1.0000
  C   C1298     1.0  0.67120  0.78128  0.52455  1.0000
  H   H1554     1.0  0.62587  0.70035  0.97588  1.0000
  H   H1555     1.0  0.51883  0.74058  0.73745  1.0000
  Fe  Fe173     1.0  0.74817  0.73463  0.66571  1.0000
  H   H1556     1.0  0.50633  0.72627  0.69242  1.0000
  H   H1557     1.0  0.68693  0.74864  0.71375  1.0000
  C   C1299     1.0  0.60551  0.70445  0.74024  1.0000
  C   C1300     1.0  0.56777  0.72811  0.96555  1.0000
  C   C1301     1.0  0.58040  0.71665  0.69262  1.0000
  H   H1558     1.0  0.66957  0.83624  0.52960  1.0000
  S   S344      1.0  0.61744  0.70252  0.91698  1.0000
  H   H1559     1.0  0.52259  0.70060  0.88971  1.0000
  C   C1302     1.0  0.67877  0.80336  0.62365  1.0000
  Fe  Fe174     1.0  0.60786  0.75518  0.83907  1.0000
  C   C1303     1.0  0.58711  0.82722  0.51981  1.0000
  C   C1304     1.0  0.67432  0.72304  0.52004  1.0000
  S   S345      1.0  0.62119  0.69651  0.76996  1.0000
  H   H1560     1.0  0.63864  0.79028  0.77035  1.0000
  H   H1561     1.0  0.67032  0.71500  0.66805  1.0000
  C   C1305     1.0  0.69072  0.72714  0.86537  1.0000
  S   S346      1.0  0.58757  0.69759  0.84318  1.0000
  H   H1562     1.0  0.63204  0.69808  0.71148  1.0000
  C   C1306     1.0  0.70104  0.80357  0.52113  1.0000
  H   H1563     1.0  0.55388  0.72240  0.72130  1.0000
  H   H1564     1.0  0.64412  0.79359  0.73394  1.0000
  H   H1565     1.0  0.70862  0.78733  0.79894  1.0000
  C   C1307     1.0  0.53940  0.68787  0.81143  1.0000
  S   S347      1.0  0.58695  0.74246  0.80527  1.0000
  N   N86       1.0  0.54866  0.80321  0.98055  1.0000
  H   H1566     1.0  0.68487  0.75602  0.97353  1.0000
  H   H1567     1.0  0.62604  0.74458  0.76899  1.0000
  H   H1568     1.0  0.62342  0.76537  0.93776  1.0000
  N   N87       1.0  0.71117  0.72856  0.84952  1.0000
  C   C1308     1.0  0.59514  0.78731  0.92980  1.0000
  N   N88       1.0  0.73556  0.72402  0.53034  1.0000
  H   H1569     1.0  0.55884  0.68154  0.94754  1.0000
  C   C1309     1.0  0.58058  0.72183  0.94232  1.0000
  H   H1570     1.0  0.55445  0.69408  0.80511  1.0000
  C   C1310     1.0  0.67526  0.72452  0.65075  1.0000
  H   H1571     1.0  0.71731  0.75751  0.87283  1.0000
  C   C1311     1.0  0.60979  0.70846  0.97299  1.0000
  S   S348      1.0  0.56334  0.72220  0.66340  1.0000
  H   H1572     1.0  0.62844  0.74805  0.71952  1.0000
  C   C1312     1.0  0.52426  0.70094  0.82682  1.0000
  H   H1573     1.0  0.64368  0.72628  0.63064  1.0000
  H   H1574     1.0  0.73783  0.68923  0.52531  1.0000
  H   H1575     1.0  0.67035  0.78040  0.79304  1.0000
  C   C1313     1.0  0.71889  0.77191  0.76050  1.0000
  C   C1314     1.0  0.69503  0.72152  0.53230  1.0000
  C   C1315     1.0  0.59719  0.71536  0.99630  1.0000
  H   H1576     1.0  0.74215  0.72982  0.80901  1.0000
  H   H1577     1.0  0.74484  0.71619  0.85432  1.0000
  H   H1578     1.0  0.62056  0.78065  0.74510  1.0000
  H   H1579     1.0  0.71265  0.78977  0.52760  1.0000
  C   C1316     1.0  0.50414  0.69308  0.83328  1.0000
  S   S349      1.0  0.59591  0.71791  0.58988  1.0000
  C   C1317     1.0  0.66457  0.82023  0.52226  1.0000
  H   H1580     1.0  0.74602  0.81420  0.54739  1.0000
  H   H1581     1.0  0.73270  0.75399  0.84194  1.0000
  C   C1318     1.0  0.56933  0.79353  0.96845  1.0000
  C   C1319     1.0  0.71244  0.76107  0.73673  1.0000
  C   C1320     1.0  0.71368  0.72654  0.51722  1.0000
  C   C1321     1.0  0.65967  0.80249  0.57956  1.0000
  C   C1322     1.0  0.70840  0.70710  0.76377  1.0000
  C   C1323     1.0  0.70969  0.72139  0.82010  1.0000
  H   H1582     1.0  0.69228  0.73315  0.88717  1.0000
  C   C1324     1.0  0.69873  0.80439  0.58051  1.0000
  H   H1583     1.0  0.53549  0.70801  0.92151  1.0000
  H   H1584     1.0  0.65089  0.75971  0.70371  1.0000
  C   C1325     1.0  0.61501  0.70363  0.71371  1.0000
  C   C1326     1.0  0.69062  0.75715  0.73271  1.0000
  H   H1585     1.0  0.64539  0.75482  0.79229  1.0000
  C   C1327     1.0  0.64615  0.75011  0.72190  1.0000
  H   H1586     1.0  0.73314  0.75684  0.54620  1.0000
  C   C1328     1.0  0.60256  0.70999  0.68997  1.0000
  H   H1587     1.0  0.52451  0.67121  0.74536  1.0000
  C   C1329     1.0  0.53507  0.78558  0.98869  1.0000
  C   C1330     1.0  0.64357  0.74732  0.77141  1.0000
  N   N89       1.0  0.65107  0.76092  0.74870  1.0000
  S   S350      1.0  0.53084  0.72670  0.83865  1.0000
  S   S351      1.0  0.71600  0.72141  0.67478  1.0000
  H   H1588     1.0  0.71945  0.74739  0.62576  1.0000
  Fe  Fe175     1.0  0.60805  0.71150  0.81026  1.0000
  H   H1589     1.0  0.64430  0.80104  0.61955  1.0000
  C   C1331     1.0  0.70354  0.77873  0.78057  1.0000
  Fe  Fe176     1.0  0.56729  0.72936  0.83958  1.0000
  H   H1590     1.0  0.71342  0.80482  0.62132  1.0000
  H   H1591     1.0  0.65461  0.73347  0.72044  1.0000
  H   H1592     1.0  0.60996  0.70915  0.66958  1.0000
  C   C1332     1.0  0.63811  0.78229  0.74952  1.0000
  Fe  Fe177     1.0  0.57656  0.73608  0.62374  1.0000
  H   H1593     1.0  0.66035  0.71901  0.53203  1.0000
  S   S352      1.0  0.63004  0.72483  0.84233  1.0000
  Fe  Fe178     1.0  0.60656  0.71532  0.87473  1.0000
  H   H1594     1.0  0.57570  0.67560  0.91827  1.0000
  C   C1333     1.0  0.73660  0.73987  0.55354  1.0000
  H   H1595     1.0  0.67694  0.73732  0.85576  1.0000
  H   H1596     1.0  0.74044  0.71806  0.76051  1.0000
  N   N90       1.0  0.54133  0.67412  0.90972  1.0000
  C   C1334     1.0  0.72671  0.71626  0.77411  1.0000
  H   H1597     1.0  0.52022  0.82488  0.97102  1.0000
  H   H1598     1.0  0.51858  0.79205  0.99549  1.0000
  C   C1335     1.0  0.72744  0.72318  0.80184  1.0000
  H   H1599     1.0  0.69388  0.79001  0.98522  1.0000
  H   H1600     1.0  0.73024  0.71962  0.88611  1.0000
  C   C1336     1.0  0.73988  0.70175  0.54170  1.0000
  C   C1337     1.0  0.69082  0.70464  0.78123  1.0000
  H   H1601     1.0  0.55179  0.67936  0.74694  1.0000
  H   H1602     1.0  0.70410  0.76234  0.83977  1.0000
  H   H1603     1.0  0.53445  0.68793  0.71856  1.0000
  H   H1604     1.0  0.60387  0.71173  0.51513  1.0000
  C   C1338     1.0  0.69127  0.71178  0.80897  1.0000
  Fe  Fe179     1.0  0.73607  0.78490  0.91894  1.0000
  H   H1605     1.0  0.55142  0.73552  0.96253  1.0000
  C   C1339     1.0  0.69833  0.80442  0.60961  1.0000
  H   H1606     1.0  0.68104  0.76733  0.53411  1.0000
  S   S353      1.0  0.55706  0.72285  0.52149  1.0000
  S   S354      1.0  0.74866  0.77063  0.66983  1.0000
  C   C1340     1.0  0.60384  0.83775  0.50790  1.0000
  H   H1607     1.0  0.54466  0.83169  0.95468  1.0000
  H   H1608     1.0  0.64738  0.81915  0.52845  1.0000
  H   H1609     1.0  0.61341  0.75862  0.98637  1.0000
  H   H1610     1.0  0.72487  0.73704  0.57031  1.0000
  H   H1611     1.0  0.50557  0.72642  0.78156  1.0000
  H   H1612     1.0  0.56194  0.67390  0.68608  1.0000
  H   H1613     1.0  0.52123  0.79361  0.61369  1.0000
  C   C1341     1.0  0.52173  0.66704  0.92357  1.0000
  C   C1342     1.0  0.50728  0.72824  0.73703  1.0000
  C   C1343     1.0  0.51501  0.67613  0.94969  1.0000
  H   H1614     1.0  0.52819  0.67525  0.67089  1.0000
  C   C1344     1.0  0.50575  0.79604  0.62439  1.0000
  C   C1345     1.0  0.50058  0.83452  0.53876  1.0000
  C   C1346     1.0  0.53518  0.66669  0.80398  1.0000
  C   C1347     1.0  0.50251  0.78469  0.64870  1.0000
  C   C1348     1.0  0.53899  0.67405  0.73256  1.0000
  C   C1349     1.0  0.50008  0.72024  0.71171  1.0000
  H   H1615     1.0  0.52403  0.68823  0.95995  1.0000
  C   C1350     1.0  0.49977  0.72025  0.76187  1.0000
  H   H1616     1.0  0.56362  0.76790  0.50016  1.0000
  H   H1617     1.0  0.84607  0.14261  0.38633  1.0000
  C   C1351     1.0  0.77551  0.26886  0.22047  1.0000
  H   H1618     1.0  0.78571  0.17422  0.27250  1.0000
  S   S355      1.0  0.89944  0.11648  0.46646  1.0000
  Fe  Fe180     1.0  0.92411  0.12386  0.05214  1.0000
  S   S356      1.0  0.95001  0.09751  0.06134  1.0000
  S   S357      1.0  0.90156  0.13734  0.08578  1.0000
  Fe  Fe181     1.0  0.97123  0.11638  0.03449  1.0000
  H   H1619     1.0  0.85022  0.01165  0.11335  1.0000
  Fe  Fe182     1.0  0.93910  0.08164  0.02211  1.0000
  S   S358      1.0  0.92876  0.04751  0.02764  1.0000
  S   S359      1.0  0.94575  0.14389  0.02779  1.0000
  S   S360      1.0  0.91154  0.10706  0.01461  1.0000
  C   C1352     1.0  0.92774  0.01468  0.39801  1.0000
  C   C1353     1.0  0.90618  0.03347  0.35046  1.0000
  H   H1620     1.0  0.96804  0.08511  0.12815  1.0000
  H   H1621     1.0  0.82552  0.16354  0.27323  1.0000
  C   C1354     1.0  0.88288  0.06439  0.33370  1.0000
  Fe  Fe183     1.0  0.87701  0.15388  0.27975  1.0000
  S   S361      1.0  0.91366  0.14988  0.28234  1.0000
  S   S362      1.0  0.86240  0.18820  0.28793  1.0000
  Fe  Fe184     1.0  0.87395  0.10629  0.26688  1.0000
  S   S363      1.0  0.90998  0.09901  0.26805  1.0000
  S   S364      1.0  0.85592  0.07653  0.26032  1.0000
  Fe  Fe185     1.0  0.90881  0.11969  0.30639  1.0000
  S   S365      1.0  0.93000  0.10551  0.34130  1.0000
  Fe  Fe186     1.0  0.91142  0.12951  0.24369  1.0000
  S   S366      1.0  0.93668  0.12872  0.20950  1.0000
  S   S367      1.0  0.87243  0.12513  0.30711  1.0000
  S   S368      1.0  0.87505  0.13544  0.23932  1.0000
  C   C1355     1.0  0.82166  0.21221  0.40011  1.0000
  C   C1356     1.0  0.86902  0.05104  0.12513  1.0000
  H   H1622     1.0  0.98487  0.30971  0.31420  1.0000
  C   C1357     1.0  0.89264  0.03537  0.19374  1.0000
  C   C1358     1.0  0.87911  0.02562  0.21234  1.0000
  C   C1359     1.0  0.86720  0.03837  0.23225  1.0000
  C   C1360     1.0  0.86926  0.06078  0.23401  1.0000
  C   C1361     1.0  0.88271  0.07048  0.21531  1.0000
  C   C1362     1.0  0.89420  0.05785  0.19508  1.0000
  H   H1623     1.0  0.93663  0.32267  0.20360  1.0000
  H   H1624     1.0  0.85663  0.03083  0.24646  1.0000
  H   H1625     1.0  0.88413  0.08781  0.21624  1.0000
  H   H1626     1.0  0.90427  0.06564  0.18052  1.0000
  H   H1627     1.0  0.90689  0.00897  0.02045  1.0000
  C   C1363     1.0  0.83800  0.01422  0.40741  1.0000
  H   H1628     1.0  0.76657  0.31569  0.13550  1.0000
  C   C1364     1.0  0.99593  0.32050  0.30541  1.0000
  C   C1365     1.0  0.97031  0.06765  0.12197  1.0000
  H   H1629     1.0  0.82787  0.32499  0.41177  1.0000
  H   H1630     1.0  0.98137  0.16443  0.04536  1.0000
  C   C1366     1.0  0.92662  0.13057  0.17524  1.0000
  C   C1367     1.0  0.94085  0.12566  0.15300  1.0000
  C   C1368     1.0  0.93339  0.12794  0.12543  1.0000
  C   C1369     1.0  0.91159  0.13485  0.12001  1.0000
  C   C1370     1.0  0.89744  0.13984  0.14226  1.0000
  C   C1371     1.0  0.90492  0.13766  0.16980  1.0000
  H   H1631     1.0  0.95771  0.12038  0.15714  1.0000
  H   H1632     1.0  0.94456  0.12468  0.10845  1.0000
  H   H1633     1.0  0.88063  0.14546  0.13820  1.0000
  H   H1634     1.0  0.89394  0.14189  0.18673  1.0000
  C   C1372     1.0  0.90807  0.11299  0.43180  1.0000
  C   C1373     1.0  0.92875  0.10335  0.42536  1.0000
  C   C1374     1.0  0.93524  0.10109  0.39746  1.0000
  C   C1375     1.0  0.92118  0.10861  0.37593  1.0000
  C   C1376     1.0  0.90035  0.11795  0.38235  1.0000
  C   C1377     1.0  0.89379  0.12002  0.41026  1.0000
  H   H1635     1.0  0.93985  0.09789  0.44183  1.0000
  H   H1636     1.0  0.95136  0.09382  0.39255  1.0000
  H   H1637     1.0  0.88940  0.12365  0.36586  1.0000
  H   H1638     1.0  0.87773  0.12726  0.41529  1.0000
  H   H1639     1.0  0.89291  0.00153  0.34747  1.0000
  S   S369      1.0  0.90768  0.01999  0.16849  1.0000
  H   H1640     1.0  0.86396  0.04010  0.14080  1.0000
  H   H1641     1.0  0.84200  0.01959  0.47701  1.0000
  C   C1378     1.0  0.91196  0.04842  0.30495  1.0000
  C   C1379     1.0  0.95587  0.02736  0.09454  1.0000
  H   H1642     1.0  0.94043  0.04902  0.17409  1.0000
  H   H1643     1.0  0.95057  0.07502  0.17064  1.0000
  C   C1380     1.0  0.86768  0.00629  0.10987  1.0000
  H   H1644     1.0  0.83725  0.22811  0.29984  1.0000
  C   C1381     1.0  0.82603  0.21632  0.29383  1.0000
  H   H1645     1.0  0.77788  0.32113  0.02831  1.0000
  H   H1646     1.0  0.87691  0.01831  0.49843  1.0000
  C   C1382     1.0  0.83407  0.19513  0.28647  1.0000
  C   C1383     1.0  0.81946  0.17991  0.27894  1.0000
  C   C1384     1.0  0.79695  0.18601  0.27850  1.0000
  C   C1385     1.0  0.92257  0.32491  0.21798  1.0000
  C   C1386     1.0  0.90325  0.01184  0.35877  1.0000
  H   H1647     1.0  0.80328  0.24172  0.41383  1.0000
  H   H1648     1.0  0.96424  0.19348  0.11674  1.0000
  H   H1649     1.0  0.99508  0.14310  0.14274  1.0000
  H   H1650     1.0  0.90939  0.02169  0.07087  1.0000
  S   S370      1.0  0.76541  0.27662  0.31001  1.0000
  H   H1651     1.0  0.87143  0.03826  0.29378  1.0000
  H   H1652     1.0  0.87386  0.07202  0.31564  1.0000
  H   H1653     1.0  0.91235  0.04483  0.47828  1.0000
  H   H1654     1.0  0.83360  0.21399  0.41628  1.0000
  H   H1655     1.0  0.93038  0.06580  0.10031  1.0000
  H   H1656     1.0  0.77326  0.23587  0.20684  1.0000
  H   H1657     1.0  0.95089  0.17006  0.15038  1.0000
  N   N91       1.0  0.95287  0.05512  0.13328  1.0000
  H   H1658     1.0  0.96777  0.15790  0.17715  1.0000
  C   C1387     1.0  0.77537  0.25240  0.20052  1.0000
  C   C1388     1.0  0.93113  0.03584  0.39029  1.0000
  C   C1389     1.0  0.90092  0.01240  0.08662  1.0000
  C   C1390     1.0  0.80427  0.22830  0.39905  1.0000
  C   C1391     1.0  0.86819  0.07305  0.13262  1.0000
  H   H1659     1.0  0.77340  0.26502  0.24225  1.0000
  H   H1660     1.0  0.97632  0.15390  0.11651  1.0000
  C   C1392     1.0  0.92062  0.04510  0.36683  1.0000
  H   H1661     1.0  0.82847  0.00618  0.39201  1.0000
  H   H1662     1.0  0.98947  0.17568  0.20659  1.0000
  C   C1393     1.0  0.93192  0.02666  0.00229  1.0000
  C   C1394     1.0  0.80463  0.31883  0.16045  1.0000
  C   C1395     1.0  0.88350  0.05971  0.08020  1.0000
  H   H1663     1.0  0.77472  0.23998  0.37801  1.0000
  H   H1664     1.0  0.90549  0.02121  0.45899  1.0000
  H   H1665     1.0  0.85118  0.18019  0.42398  1.0000
  S   S371      1.0  0.78951  0.30395  0.08388  1.0000
  C   C1396     1.0  0.77794  0.25722  0.17252  1.0000
  H   H1666     1.0  0.92891  0.32003  0.23901  1.0000
  C   C1397     1.0  0.85819  0.18049  0.40270  1.0000
  C   C1398     1.0  0.82334  0.19468  0.38060  1.0000
  H   H1667     1.0  0.80563  0.30852  0.14133  1.0000
  H   H1668     1.0  0.77775  0.24438  0.15699  1.0000
  C   C1399     1.0  0.96502  0.17279  0.16421  1.0000
  H   H1669     1.0  0.77577  0.32873  0.48469  1.0000
  H   H1670     1.0  0.87465  0.02609  0.04529  1.0000
  C   C1400     1.0  0.85272  0.17656  0.35367  1.0000
  H   H1671     1.0  0.86685  0.02541  0.32606  1.0000
  C   C1401     1.0  0.80651  0.19428  0.36032  1.0000
  N   N92       1.0  0.84151  0.17735  0.38090  1.0000
  H   H1672     1.0  0.79758  0.23871  0.29929  1.0000
  C   C1402     1.0  0.97871  0.19605  0.13002  1.0000
  H   H1673     1.0  0.84226  0.17115  0.33648  1.0000
  H   H1674     1.0  0.95929  0.01632  0.16422  1.0000
  H   H1675     1.0  0.86579  0.19605  0.39977  1.0000
  H   H1676     1.0  0.87408  0.10537  0.11978  1.0000
  C   C1403     1.0  0.87301  0.06783  0.46791  1.0000
  H   H1677     1.0  0.90993  0.01371  0.10665  1.0000
  C   C1404     1.0  0.91890  0.00916  0.00423  1.0000
  H   H1678     1.0  0.75191  0.31545  0.01427  1.0000
  S   S372      1.0  0.76135  0.28659  0.39088  1.0000
  N   N93       1.0  0.87776  0.02056  0.08974  1.0000
  H   H1679     1.0  0.82847  0.32290  0.06671  1.0000
  N   N94       1.0  0.87811  0.04397  0.46844  1.0000
  H   H1680     1.0  0.92259  0.06098  0.31255  1.0000
  H   H1681     1.0  0.77134  0.28327  0.44883  1.0000
  H   H1682     1.0  0.97489  0.21102  0.14271  1.0000
  C   C1405     1.0  0.78892  0.20725  0.28576  1.0000
  H   H1683     1.0  0.78269  0.28141  0.14239  1.0000
  C   C1406     1.0  0.80355  0.22237  0.29350  1.0000
  C   C1407     1.0  0.78074  0.29576  0.18411  1.0000
  C   C1408     1.0  0.95340  0.05764  0.16406  1.0000
  H   H1684     1.0  0.94218  0.04509  0.40231  1.0000
  H   H1685     1.0  0.77651  0.20975  0.34390  1.0000
  C   C1409     1.0  0.78070  0.27852  0.16437  1.0000
  H   H1686     1.0  0.86761  0.16502  0.35352  1.0000
  C   C1410     1.0  0.77815  0.29025  0.21254  1.0000
  H   H1687     1.0  0.92263  0.03355  0.29964  1.0000
  H   H1688     1.0  0.85821  0.02763  0.37706  1.0000
  H   H1689     1.0  0.88996  0.05538  0.05989  1.0000
  H   H1690     1.0  0.89356  0.07680  0.34143  1.0000
  C   C1411     1.0  0.78807  0.22737  0.37887  1.0000
  C   C1412     1.0  0.84628  0.02199  0.45556  1.0000
  H   H1691     1.0  0.85552  0.07232  0.47239  1.0000
  H   H1692     1.0  0.84934  0.02555  0.06359  1.0000
  C   C1413     1.0  0.87482  0.08832  0.11398  1.0000
  H   H1693     1.0  0.86249  0.07829  0.15312  1.0000
  H   H1694     1.0  0.85776  0.19286  0.34790  1.0000
  Fe  Fe187     1.0  0.75394  0.29734  0.08168  1.0000
  C   C1414     1.0  0.99734  0.16650  0.05358  1.0000
  C   C1415     1.0  0.95869  0.00595  0.08466  1.0000
  H   H1695     1.0  0.77779  0.30215  0.22915  1.0000
  C   C1416     1.0  0.93144  0.06493  0.12337  1.0000
  H   H1696     1.0  0.92785  0.08185  0.13126  1.0000
  H   H1697     1.0  0.87175  0.16735  0.40206  1.0000
  C   C1417     1.0  0.86413  0.03379  0.44776  1.0000
  C   C1418     1.0  0.86646  0.01828  0.06261  1.0000
  N   N95       1.0  0.78346  0.31822  0.17482  1.0000
  C   C1419     1.0  0.83282  0.15602  0.38573  1.0000
  C   C1420     1.0  0.86764  0.03617  0.41879  1.0000
  C   C1421     1.0  0.90150  0.03904  0.46164  1.0000
  H   H1698     1.0  0.95833  0.00274  0.06240  1.0000
  H   H1699     1.0  0.88787  0.09359  0.07353  1.0000
  H   H1700     1.0  0.88037  0.04555  0.41121  1.0000
  H   H1701     1.0  0.95968  0.18673  0.17806  1.0000
  H   H1702     1.0  0.91806  0.05531  0.13054  1.0000
  N   N96       1.0  0.98469  0.17702  0.14803  1.0000
  H   H1703     1.0  0.82385  0.15605  0.40578  1.0000
  H   H1704     1.0  0.90637  0.04725  0.44249  1.0000
  H   H1705     1.0  0.82140  0.15169  0.36896  1.0000
  H   H1706     1.0  0.80675  0.18171  0.34449  1.0000
  H   H1707     1.0  0.86773  0.32300  0.49348  1.0000
  C   C1422     1.0  0.88253  0.08165  0.08787  1.0000
  H   H1708     1.0  0.93605  0.00736  0.41603  1.0000
  C   C1423     1.0  0.78912  0.21033  0.35968  1.0000
  C   C1424     1.0  0.95608  0.03225  0.12348  1.0000
  H   H1709     1.0  0.92413  0.06140  0.36134  1.0000
  H   H1710     1.0  0.97085  0.06719  0.09891  1.0000
  H   H1711     1.0  0.95340  0.04008  0.07922  1.0000
  C   C1425     1.0  0.75469  0.29018  0.44698  1.0000
  C   C1426     1.0  0.85487  0.02628  0.39902  1.0000
  N   N97       1.0  0.89531  0.04366  0.32567  1.0000
  H   H1712     1.0  0.81838  0.31294  0.17427  1.0000
  H   H1713     1.0  0.91056  0.31332  0.21149  1.0000
  C   C1427     1.0  0.76578  0.32537  0.15507  1.0000
  S   S373      1.0  0.76055  0.21423  0.28559  1.0000
  H   H1714     1.0  0.96938  0.05137  0.17295  1.0000
  C   C1428     1.0  0.87650  0.04371  0.09844  1.0000
  C   C1429     1.0  0.95211  0.01010  0.49303  1.0000
  C   C1430     1.0  0.91387  0.00272  0.38225  1.0000
  H   H1715     1.0  0.99144  0.20131  0.05679  1.0000
  H   H1716     1.0  0.87775  0.00832  0.21141  1.0000
  H   H1717     1.0  0.98663  0.06099  0.12945  1.0000
  H   H1718     1.0  0.90431  0.05472  0.28520  1.0000
  H   H1719     1.0  0.99191  0.19943  0.11545  1.0000
  C   C1431     1.0  0.83360  0.01224  0.43560  1.0000
  H   H1720     1.0  0.87631  0.00579  0.13026  1.0000
  C   C1432     1.0  0.87494  0.03641  0.49734  1.0000
  H   H1721     1.0  0.87081  0.06178  0.35018  1.0000
  H   H1722     1.0  0.82057  0.00269  0.44218  1.0000
  H   H1723     1.0  0.88836  0.01461  0.30305  1.0000
  H   H1724     1.0  0.87666  0.07489  0.44738  1.0000
  H   H1725     1.0  0.86600  0.00093  0.05634  1.0000
  C   C1433     1.0  0.87986  0.02978  0.31170  1.0000
  C   C1434     1.0  0.76822  0.32055  0.00873  1.0000
  H   H1726     1.0  0.96516  0.02079  0.49389  1.0000
  C   C1435     1.0  0.95936  0.01433  0.14189  1.0000
  H   H1727     1.0  0.88274  0.07619  0.48362  1.0000
  H   H1728     1.0  0.84066  0.32728  0.45945  1.0000
  C   C1436     1.0  0.99027  0.15774  0.13005  1.0000
  H   H1729     1.0  0.75021  0.29312  0.49121  1.0000
  C   C1437     1.0  0.79558  0.33128  0.08037  1.0000
  H   H1730     1.0  0.79619  0.33042  0.21331  1.0000
  S   S374      1.0  0.95423  0.08510  0.49985  1.0000
  H   H1731     1.0  0.93651  0.02256  0.60166  1.0000
  C   C1438     1.0  0.85794  0.00687  0.64035  1.0000
  H   H1732     1.0  0.77114  0.15374  0.79596  1.0000
  S   S375      1.0  0.92763  0.14226  0.95105  1.0000
  Fe  Fe188     1.0  0.92219  0.10722  0.56509  1.0000
  S   S376      1.0  0.95348  0.08638  0.56877  1.0000
  S   S377      1.0  0.89910  0.11660  0.60000  1.0000
  Fe  Fe189     1.0  0.96472  0.10732  0.53436  1.0000
  C   C1439     1.0  0.98964  0.18165  0.95526  1.0000
  Fe  Fe190     1.0  0.94028  0.06628  0.53435  1.0000
  S   S378      1.0  0.93630  0.03061  0.54088  1.0000
  S   S379      1.0  0.93410  0.12982  0.53328  1.0000
  S   S380      1.0  0.90818  0.08579  0.53331  1.0000
  C   C1440     1.0  0.85383  0.15896  0.90547  1.0000
  H   H1733     1.0  0.91181  0.06223  0.65152  1.0000
  H   H1734     1.0  0.75807  0.25304  0.65638  1.0000
  H   H1735     1.0  0.81040  0.14241  0.78923  1.0000
  H   H1736     1.0  0.77308  0.23517  0.70985  1.0000
  Fe  Fe191     1.0  0.85994  0.13247  0.78346  1.0000
  S   S381      1.0  0.89531  0.12549  0.79484  1.0000
  S   S382      1.0  0.84773  0.16796  0.78327  1.0000
  Fe  Fe192     1.0  0.85470  0.08532  0.76880  1.0000
  S   S383      1.0  0.88936  0.07509  0.77934  1.0000
  S   S384      1.0  0.83627  0.05808  0.75231  1.0000
  Fe  Fe193     1.0  0.88394  0.09651  0.81660  1.0000
  S   S385      1.0  0.89538  0.08072  0.85666  1.0000
  Fe  Fe194     1.0  0.89702  0.10467  0.75619  1.0000
  S   S386      1.0  0.92536  0.10286  0.72626  1.0000
  S   S387      1.0  0.84838  0.10480  0.80810  1.0000
  S   S388      1.0  0.86248  0.11384  0.74331  1.0000
  C   C1441     1.0  0.87817  0.01113  0.62957  1.0000
  H   H1737     1.0  0.85857  0.04205  0.50550  1.0000
  H   H1738     1.0  0.76019  0.26777  0.95068  1.0000
  C   C1442     1.0  0.88721  0.01482  0.70478  1.0000
  C   C1443     1.0  0.88963  0.03694  0.70880  1.0000
  C   C1444     1.0  0.87331  0.05031  0.72188  1.0000
  C   C1445     1.0  0.85471  0.04162  0.73195  1.0000
  C   C1446     1.0  0.85193  0.01955  0.72745  1.0000
  C   C1447     1.0  0.80443  0.21096  0.91483  1.0000
  H   H1739     1.0  0.90421  0.04385  0.70200  1.0000
  H   H1740     1.0  0.87527  0.06743  0.72430  1.0000
  H   H1741     1.0  0.83754  0.01274  0.73518  1.0000
  C   C1448     1.0  0.75833  0.24683  0.70969  1.0000
  H   H1742     1.0  0.83056  0.01155  0.86843  1.0000
  H   H1743     1.0  0.97277  0.15298  0.96193  1.0000
  H   H1744     1.0  0.86632  0.14526  0.90125  1.0000
  H   H1745     1.0  0.90291  0.14353  0.72349  1.0000
  H   H1746     1.0  0.91207  0.15934  0.61583  1.0000
  H   H1747     1.0  0.86582  0.19390  0.73335  1.0000
  H   H1748     1.0  0.97182  0.15655  0.55542  1.0000
  C   C1449     1.0  0.91852  0.10419  0.69061  1.0000
  C   C1450     1.0  0.93477  0.10605  0.67064  1.0000
  C   C1451     1.0  0.92919  0.10894  0.64238  1.0000
  C   C1452     1.0  0.90729  0.11037  0.63424  1.0000
  C   C1453     1.0  0.89120  0.10786  0.65405  1.0000
  C   C1454     1.0  0.89686  0.10431  0.68198  1.0000
  H   H1749     1.0  0.95163  0.10559  0.67714  1.0000
  H   H1750     1.0  0.94169  0.11084  0.62711  1.0000
  H   H1751     1.0  0.87426  0.10866  0.64777  1.0000
  H   H1752     1.0  0.88437  0.10173  0.69675  1.0000
  C   C1455     1.0  0.91984  0.12511  0.92418  1.0000
  C   C1456     1.0  0.91141  0.13407  0.89925  1.0000
  C   C1457     1.0  0.90417  0.12051  0.87811  1.0000
  C   C1458     1.0  0.90571  0.09799  0.88177  1.0000
  C   C1459     1.0  0.91494  0.08905  0.90625  1.0000
  C   C1460     1.0  0.92172  0.10259  0.92758  1.0000
  H   H1753     1.0  0.91024  0.15150  0.89649  1.0000
  H   H1754     1.0  0.89735  0.12746  0.85910  1.0000
  H   H1755     1.0  0.91689  0.07163  0.90883  1.0000
  H   H1756     1.0  0.92851  0.09558  0.94662  1.0000
  H   H1757     1.0  0.81171  0.18389  0.84235  1.0000
  H   H1758     1.0  0.76276  0.32629  0.95451  1.0000
  H   H1759     1.0  0.90618  0.99947  0.52737  1.0000
  H   H1760     1.0  0.85486  0.16057  0.71607  1.0000
  C   C1461     1.0  0.84454  0.02345  0.65273  1.0000
  C   C1462     1.0  0.94750  0.02661  0.98122  1.0000
  S   S389      1.0  0.99897  0.11831  0.53574  1.0000
  H   H1761     1.0  0.88497  0.15818  0.74761  1.0000
  H   H1762     1.0  0.85596  0.01905  0.98822  1.0000
  C   C1463     1.0  0.83445  0.14781  0.86517  1.0000
  H   H1763     1.0  0.85330  0.06425  0.87773  1.0000
  H   H1764     1.0  0.82042  0.14185  0.87646  1.0000
  C   C1464     1.0  0.81208  0.19726  0.78566  1.0000
  C   C1465     1.0  0.81959  0.17518  0.78579  1.0000
  C   C1466     1.0  0.80476  0.15948  0.78921  1.0000
  C   C1467     1.0  0.78254  0.16592  0.79300  1.0000
  H   H1765     1.0  0.87773  0.00284  0.80476  1.0000
  H   H1766     1.0  0.82349  0.20948  0.78308  1.0000
  N   N98       1.0  0.88608  0.17238  0.70683  1.0000
  H   H1767     1.0  0.83180  0.19091  0.92864  1.0000
  C   C1468     1.0  0.86652  0.16130  0.69849  1.0000
  S   S390      1.0  0.79610  0.30863  0.57115  1.0000
  C   C1469     1.0  0.90204  0.17380  0.68409  1.0000
  C   C1470     1.0  0.89909  0.16488  0.65708  1.0000
  C   C1471     1.0  0.92146  0.18420  0.68877  1.0000
  C   C1472     1.0  0.91461  0.16644  0.63622  1.0000
  C   C1473     1.0  0.93688  0.18563  0.66775  1.0000
  C   C1474     1.0  0.93344  0.17676  0.64151  1.0000
  H   H1768     1.0  0.87115  0.20458  0.69950  1.0000
  H   H1769     1.0  0.75226  0.24919  0.73137  1.0000
  H   H1770     1.0  0.85748  0.16995  0.68120  1.0000
  H   H1771     1.0  0.78213  0.21192  0.85012  1.0000
  H   H1772     1.0  0.99116  0.13627  0.61205  1.0000
  H   H1773     1.0  0.98056  0.15505  0.69726  1.0000
  H   H1774     1.0  0.92311  0.03542  0.66006  1.0000
  H   H1775     1.0  0.95160  0.19361  0.67179  1.0000
  C   C1475     1.0  0.92218  0.02575  0.83603  1.0000
  C   C1476     1.0  0.87842  0.19449  0.71684  1.0000
  H   H1776     1.0  0.87279  0.16394  0.85684  1.0000
  H   H1777     1.0  0.92013  0.01690  0.75321  1.0000
  H   H1778     1.0  0.94543  0.17778  0.62523  1.0000
  H   H1779     1.0  0.88692  0.04268  0.51219  1.0000
  H   H1780     1.0  0.92019  0.04096  0.82495  1.0000
  H   H1781     1.0  0.91047  0.16806  0.73950  1.0000
  C   C1477     1.0  0.92391  0.01886  0.77579  1.0000
  H   H1782     1.0  0.78434  0.22072  0.78946  1.0000
  H   H1783     1.0  0.82916  0.01995  0.66174  1.0000
  H   H1784     1.0  0.80224  0.21900  0.93489  1.0000
  H   H1785     1.0  0.86562  0.19047  0.87159  1.0000
  H   H1786     1.0  0.93606  0.05138  0.63499  1.0000
  N   N99       1.0  0.85205  0.03110  0.89165  1.0000
  C   C1478     1.0  0.84159  0.05160  0.88000  1.0000
  H   H1787     1.0  0.86509  0.01890  0.85237  1.0000
  H   H1788     1.0  0.89173  0.20323  0.72623  1.0000
  H   H1789     1.0  0.98166  0.19261  0.57254  1.0000
  H   H1790     1.0  0.82813  0.05847  0.89359  1.0000
  H   H1791     1.0  0.82919  0.15138  0.84338  1.0000
  C   C1479     1.0  0.78990  0.20367  0.78946  1.0000
  C   C1480     1.0  0.87590  0.05013  0.92487  1.0000
  C   C1481     1.0  0.77510  0.18804  0.79348  1.0000
  H   H1792     1.0  0.88201  0.05905  0.90780  1.0000
  Fe  Fe195     1.0  0.93602  0.12435  0.99089  1.0000
  H   H1793     1.0  0.87094  0.14417  0.69196  1.0000
  C   C1482     1.0  0.79031  0.21710  0.89301  1.0000
  H   H1794     1.0  0.89673  0.06506  0.95441  1.0000
  H   H1795     1.0  0.88510  0.15633  0.65145  1.0000
  C   C1483     1.0  0.87060  0.02342  0.87357  1.0000
  C   C1484     1.0  0.83590  0.01454  0.89023  1.0000
  C   C1485     1.0  0.86004  0.03510  0.92024  1.0000
  C   C1486     1.0  0.85268  0.02433  0.94407  1.0000
  C   C1487     1.0  0.88434  0.05375  0.95143  1.0000
  C   C1488     1.0  0.86132  0.02798  0.97054  1.0000
  H   H1796     1.0  0.93134  0.04233  0.87341  1.0000
  Fe  Fe196     1.0  0.76071  0.30167  0.57633  1.0000
  H   H1797     1.0  0.82103  0.01963  0.90239  1.0000
  H   H1798     1.0  0.95772  0.03996  0.97968  1.0000
  C   C1489     1.0  0.98872  0.15994  0.55676  1.0000
  H   H1799     1.0  0.84075  0.01250  0.94284  1.0000
  H   H1800     1.0  0.99431  0.32520  0.84739  1.0000
  H   H1801     1.0  0.76578  0.30988  0.70027  1.0000
  H   H1802     1.0  0.93467  0.00890  0.90198  1.0000
  C   C1490     1.0  0.86825  0.00610  0.71393  1.0000
  C   C1491     1.0  0.98364  0.14480  0.65460  1.0000
  C   C1492     1.0  0.98737  0.16114  0.96618  1.0000
  H   H1803     1.0  0.84091  0.05721  0.66430  1.0000
  C   C1493     1.0  0.99434  0.18037  0.56638  1.0000
  C   C1494     1.0  0.79309  0.20702  0.86712  1.0000
  C   C1495     1.0  0.99070  0.15459  0.67886  1.0000
  C   C1496     1.0  0.88790  0.01295  0.79191  1.0000
  S   S391      1.0  0.75964  0.25736  0.81622  1.0000
  Fe  Fe197     1.0  0.92274  0.10627  0.50143  1.0000
  H   H1804     1.0  0.76327  0.22414  0.66045  1.0000
  C   C1497     1.0  0.82136  0.19466  0.91091  1.0000
  H   H1805     1.0  0.83478  0.04904  0.85881  1.0000
  H   H1806     1.0  0.84730  0.13406  0.86341  1.0000
  H   H1807     1.0  0.92492  0.19119  0.70883  1.0000
  H   H1808     1.0  0.87577  0.06541  0.64506  1.0000
  H   H1809     1.0  0.91941  0.05755  0.58854  1.0000
  H   H1810     1.0  0.77727  0.22982  0.89608  1.0000
  C   C1498     1.0  0.89658  0.16008  0.73034  1.0000
  H   H1811     1.0  0.89515  0.06908  0.60457  1.0000
  C   C1499     1.0  0.82452  0.18388  0.88477  1.0000
  H   H1812     1.0  0.88228  0.03597  0.87075  1.0000
  H   H1813     1.0  0.86280  0.17174  0.91583  1.0000
  N   N100      1.0  0.90705  0.03747  0.62026  1.0000
  C   C1500     1.0  0.92039  0.01819  0.60917  1.0000
  C   C1501     1.0  0.90368  0.05346  0.59746  1.0000
  C   C1502     1.0  0.91999  0.04706  0.64266  1.0000
  C   C1503     1.0  0.88562  0.03233  0.63108  1.0000
  C   C1504     1.0  0.87132  0.04890  0.64332  1.0000
  C   C1505     1.0  0.95034  0.00880  0.96265  1.0000
  H   H1814     1.0  0.96274  0.00853  0.94679  1.0000
  H   H1815     1.0  0.92369  0.00559  0.62550  1.0000
  C   C1506     1.0  0.85118  0.04444  0.65414  1.0000
  H   H1816     1.0  0.89394  0.04698  0.58020  1.0000
  C   C1507     1.0  0.91818  0.00569  0.82303  1.0000
  H   H1817     1.0  0.76369  0.26290  0.70344  1.0000
  H   H1818     1.0  0.85177  0.18163  0.84121  1.0000
  C   C1508     1.0  0.92829  0.02680  0.86406  1.0000
  C   C1509     1.0  0.81000  0.19080  0.86295  1.0000
  H   H1819     1.0  0.92028  0.03647  0.78002  1.0000
  C   C1510     1.0  0.93005  0.00809  0.88018  1.0000
  H   H1820     1.0  0.94171  0.01483  0.77868  1.0000
  H   H1821     1.0  0.87979  0.00875  0.88238  1.0000
  H   H1822     1.0  0.88506  0.03000  0.79955  1.0000
  C   C1511     1.0  0.85891  0.17613  0.86156  1.0000
  N   N101      1.0  0.84260  0.16696  0.87958  1.0000
  H   H1823     1.0  0.84214  0.15284  0.92050  1.0000
  C   C1512     1.0  0.93542  0.01235  0.51271  1.0000
  C   C1513     1.0  0.99666  0.14392  0.63098  1.0000
  S   S392      1.0  0.96312  0.09778  0.99559  1.0000
  H   H1824     1.0  0.96807  0.13783  0.65408  1.0000
  C   C1514     1.0  0.87713  0.04262  0.97419  1.0000
  H   H1825     1.0  0.88402  0.04524  0.99463  1.0000
  H   H1826     1.0  0.91239  0.01087  0.59095  1.0000
  H   H1827     1.0  0.77616  0.30734  0.99556  1.0000
  H   H1828     1.0  0.97670  0.18933  0.94246  1.0000
  H   H1829     1.0  0.75566  0.32850  0.51145  1.0000
  H   H1830     1.0  0.88167  0.01260  0.77019  1.0000
  N   N102      1.0  0.91116  0.00494  0.79351  1.0000
  S   S393      1.0  0.75234  0.29599  0.75340  1.0000
  H   H1831     1.0  0.75333  0.21195  0.73602  1.0000
  S   S394      1.0  0.75131  0.27297  0.89288  1.0000
  H   H1832     1.0  0.83547  0.32801  0.55662  1.0000
  H   H1833     1.0  0.79938  0.32107  0.96374  1.0000
  H   H1834     1.0  0.99868  0.28889  0.74160  1.0000
  S   S395      1.0  0.90847  0.99869  0.68876  1.0000
  C   C1515     1.0  0.75054  0.23794  0.66221  1.0000
  H   H1835     1.0  0.84297  0.99850  0.89794  1.0000
  C   C1516     1.0  0.87683  0.63752  0.00342  1.0000
  S   S396      1.0  0.90511  0.57611  0.24792  1.0000
  S   S397      1.0  0.89829  0.58119  0.18000  1.0000
  Fe  Fe198     1.0  0.88944  0.60086  0.21831  1.0000
  S   S398      1.0  0.85566  0.61649  0.22677  1.0000
  Fe  Fe199     1.0  0.91690  0.55832  0.20937  1.0000
  S   S399      1.0  0.91613  0.52228  0.20382  1.0000
  Fe  Fe200     1.0  0.94725  0.43253  0.29600  1.0000
  S   S400      1.0  0.91103  0.43877  0.29503  1.0000
  H   H1836     1.0  0.84068  0.64234  0.10516  1.0000
  Fe  Fe201     1.0  0.91117  0.41334  0.32781  1.0000
  S   S401      1.0  0.88616  0.42145  0.36124  1.0000
  Fe  Fe202     1.0  0.91192  0.41169  0.26388  1.0000
  S   S402      1.0  0.88719  0.41316  0.22901  1.0000
  S   S403      1.0  0.94759  0.40878  0.33137  1.0000
  S   S404      1.0  0.94843  0.40715  0.26192  1.0000
  Fe  Fe203     1.0  0.88831  0.41890  0.07023  1.0000
  S   S405      1.0  0.85657  0.43823  0.07759  1.0000
  S   S406      1.0  0.91496  0.41394  0.10256  1.0000
  S   S407      1.0  0.94077  0.60359  0.49753  1.0000
  C   C1517     1.0  0.89376  0.35395  0.48057  1.0000
  C   C1518     1.0  0.99250  0.65432  0.44232  1.0000
  Fe  Fe204     1.0  0.86318  0.45494  0.03752  1.0000
  H   H1837     1.0  0.91834  0.65057  0.00545  1.0000
  Fe  Fe205     1.0  0.84166  0.41299  0.05180  1.0000
  S   S408      1.0  0.80921  0.40212  0.06538  1.0000
  S   S409      1.0  0.89599  0.43700  0.03163  1.0000
  S   S410      1.0  0.87298  0.39209  0.04762  1.0000
  S   S411      1.0  0.97412  0.56372  0.03255  1.0000
  H   H1838     1.0  0.92977  0.41315  0.20272  1.0000
  H   H1839     1.0  0.86802  0.39159  0.48077  1.0000
  N   N103      1.0  0.91250  0.34759  0.21809  1.0000
  S   S412      1.0  0.95968  0.34868  0.29829  1.0000
  N   N104      1.0  0.75856  0.35994  0.49337  1.0000
  C   C1519     1.0  0.88374  0.54993  0.35912  1.0000
  H   H1840     1.0  0.88284  0.33814  0.23644  1.0000
  H   H1841     1.0  0.89238  0.54040  0.41377  1.0000
  C   C1520     1.0  0.90713  0.41494  0.13770  1.0000
  C   C1521     1.0  0.92318  0.41374  0.15857  1.0000
  C   C1522     1.0  0.91731  0.41402  0.18678  1.0000
  C   C1523     1.0  0.89534  0.41506  0.19416  1.0000
  C   C1524     1.0  0.87932  0.41680  0.17330  1.0000
  C   C1525     1.0  0.88518  0.41682  0.14513  1.0000
  H   H1842     1.0  0.94019  0.41249  0.15288  1.0000
  H   H1843     1.0  0.86230  0.41764  0.17892  1.0000
  H   H1844     1.0  0.87270  0.41755  0.12923  1.0000
  C   C1526     1.0  0.89397  0.41873  0.39628  1.0000
  C   C1527     1.0  0.91395  0.40806  0.40398  1.0000
  C   C1528     1.0  0.91939  0.40568  0.43229  1.0000
  C   C1529     1.0  0.90505  0.41428  0.45289  1.0000
  C   C1530     1.0  0.88529  0.42537  0.44509  1.0000
  C   C1531     1.0  0.87964  0.42730  0.41686  1.0000
  H   H1845     1.0  0.92500  0.40124  0.38821  1.0000
  H   H1846     1.0  0.93466  0.39698  0.43823  1.0000
  H   H1847     1.0  0.87418  0.43210  0.46073  1.0000
  H   H1848     1.0  0.86412  0.43548  0.41091  1.0000
  C   C1532     1.0  0.92883  0.50664  0.23061  1.0000
  C   C1533     1.0  0.92856  0.48403  0.22947  1.0000
  C   C1534     1.0  0.93944  0.47104  0.24969  1.0000
  C   C1535     1.0  0.95049  0.48050  0.27146  1.0000
  H   H1849     1.0  0.91985  0.47640  0.21304  1.0000
  H   H1850     1.0  0.93934  0.45358  0.24821  1.0000
  H   H1851     1.0  0.90157  0.56610  0.32674  1.0000
  C   C1536     1.0  0.77992  0.34836  0.08620  1.0000
  C   C1537     1.0  0.78458  0.36996  0.08206  1.0000
  C   C1538     1.0  0.80498  0.37475  0.07219  1.0000
  C   C1539     1.0  0.82092  0.35772  0.06705  1.0000
  C   C1540     1.0  0.84689  0.52868  0.01207  1.0000
  H   H1852     1.0  0.84454  0.38041  0.49516  1.0000
  H   H1853     1.0  0.77223  0.38307  0.08629  1.0000
  H   H1854     1.0  0.83668  0.36122  0.05933  1.0000
  C   C1541     1.0  0.90371  0.35323  0.19004  1.0000
  C   C1542     1.0  0.96484  0.58625  0.36065  1.0000
  C   C1543     1.0  0.86070  0.35464  0.45281  1.0000
  H   H1855     1.0  0.89540  0.54028  0.28993  1.0000
  C   C1544     1.0  0.84509  0.63557  0.20211  1.0000
  Fe  Fe206     1.0  0.87762  0.41195  0.00942  1.0000
  H   H1856     1.0  0.76420  0.34505  0.09402  1.0000
  H   H1857     1.0  0.95702  0.56992  0.13223  1.0000
  H   H1858     1.0  0.87445  0.63493  0.17795  1.0000
  H   H1859     1.0  0.78056  0.35429  0.44367  1.0000
  S   S413      1.0  0.95560  0.60287  0.27983  1.0000
  C   C1545     1.0  0.93948  0.51630  0.25271  1.0000
  N   N105      1.0  0.93216  0.48126  0.37206  1.0000
  C   C1546     1.0  0.95333  0.49111  0.37240  1.0000
  C   C1547     1.0  0.93691  0.45736  0.37007  1.0000
  C   C1548     1.0  0.92026  0.48897  0.34663  1.0000
  C   C1549     1.0  0.91860  0.48672  0.39687  1.0000
  C   C1550     1.0  0.92543  0.49989  0.41918  1.0000
  C   C1551     1.0  0.89791  0.47841  0.39943  1.0000
  C   C1552     1.0  0.91242  0.50399  0.44272  1.0000
  C   C1553     1.0  0.88497  0.48284  0.42290  1.0000
  C   C1554     1.0  0.89225  0.49549  0.44457  1.0000
  H   H1860     1.0  0.95099  0.50914  0.37304  1.0000
  H   H1861     1.0  0.96361  0.48537  0.39042  1.0000
  H   H1862     1.0  0.96290  0.48678  0.35327  1.0000
  H   H1863     1.0  0.92209  0.44880  0.36582  1.0000
  H   H1864     1.0  0.94429  0.45061  0.38971  1.0000
  H   H1865     1.0  0.94839  0.45276  0.35281  1.0000
  H   H1866     1.0  0.91605  0.50681  0.34764  1.0000
  H   H1867     1.0  0.93015  0.48558  0.32757  1.0000
  H   H1868     1.0  0.90508  0.48078  0.34319  1.0000
  H   H1869     1.0  0.94083  0.50709  0.41912  1.0000
  H   H1870     1.0  0.89179  0.46798  0.38351  1.0000
  H   H1871     1.0  0.91807  0.51371  0.45975  1.0000
  H   H1872     1.0  0.86941  0.47596  0.42462  1.0000
  C   C1555     1.0  0.98973  0.55687  0.25810  1.0000
  H   H1873     1.0  0.87667  0.63049  0.02463  1.0000
  H   H1874     1.0  0.86943  0.36113  0.20140  1.0000
  C   C1556     1.0  0.86663  0.36896  0.43172  1.0000
  C   C1557     1.0  0.86255  0.37805  0.49333  1.0000
  H   H1875     1.0  0.90428  0.56500  0.42157  1.0000
  C   C1558     1.0  0.82373  0.64503  0.20503  1.0000
  C   C1559     1.0  0.91779  0.35264  0.16669  1.0000
  H   H1876     1.0  0.89981  0.33817  0.47092  1.0000
  H   H1877     1.0  0.90295  0.34516  0.26112  1.0000
  C   C1560     1.0  0.85893  0.36743  0.40443  1.0000
  C   C1561     1.0  0.84507  0.35155  0.39728  1.0000
  H   H1878     1.0  0.93506  0.34844  0.16893  1.0000
  C   C1562     1.0  0.79597  0.36818  0.00187  1.0000
  H   H1879     1.0  0.94681  0.62883  0.08535  1.0000
  H   H1880     1.0  0.88865  0.59382  0.35717  1.0000
  Fe  Fe207     1.0  0.95895  0.57018  0.43186  1.0000
  H   H1881     1.0  0.83929  0.35027  0.37601  1.0000
  H   H1882     1.0  0.88806  0.36630  0.24221  1.0000
  H   H1883     1.0  0.87754  0.38137  0.43607  1.0000
  S   S414      1.0  0.93543  0.59978  0.43047  1.0000
  C   C1563     1.0  0.92935  0.36232  0.22590  1.0000
  C   C1564     1.0  0.89785  0.58473  0.37400  1.0000
  H   H1884     1.0  0.86396  0.37852  0.38870  1.0000
  C   C1565     1.0  0.90057  0.55384  0.40421  1.0000
  H   H1885     1.0  0.84221  0.57092  0.48611  1.0000
  Fe  Fe208     1.0  0.92873  0.59870  0.17989  1.0000
  H   H1886     1.0  0.96869  0.61404  0.33484  1.0000
  C   C1566     1.0  0.88884  0.53786  0.31050  1.0000
  N   N106      1.0  0.89057  0.56859  0.08038  1.0000
  C   C1567     1.0  0.87823  0.55028  0.07068  1.0000
  C   C1568     1.0  0.90661  0.57266  0.05855  1.0000
  C   C1569     1.0  0.90240  0.56137  0.10608  1.0000
  C   C1570     1.0  0.87665  0.58885  0.08610  1.0000
  C   C1571     1.0  0.85376  0.59084  0.08129  1.0000
  C   C1572     1.0  0.88595  0.60743  0.09701  1.0000
  C   C1573     1.0  0.84109  0.61003  0.08795  1.0000
  C   C1574     1.0  0.87312  0.62643  0.10380  1.0000
  C   C1575     1.0  0.85070  0.62770  0.09943  1.0000
  H   H1887     1.0  0.86959  0.55425  0.05082  1.0000
  H   H1888     1.0  0.88910  0.53530  0.06646  1.0000
  H   H1889     1.0  0.86608  0.54596  0.08629  1.0000
  H   H1890     1.0  0.89831  0.57816  0.03887  1.0000
  H   H1891     1.0  0.91744  0.55779  0.05353  1.0000
  H   H1892     1.0  0.91749  0.58528  0.06495  1.0000
  H   H1893     1.0  0.91340  0.57343  0.11388  1.0000
  H   H1894     1.0  0.89087  0.55859  0.12318  1.0000
  H   H1895     1.0  0.91287  0.54608  0.10255  1.0000
  H   H1896     1.0  0.84519  0.57777  0.07265  1.0000
  H   H1897     1.0  0.90324  0.60730  0.10093  1.0000
  S   S415      1.0  0.88473  0.58214  0.47356  1.0000
  C   C1576     1.0  0.78557  0.36761  0.45625  1.0000
  C   C1577     1.0  0.89224  0.55266  0.33199  1.0000
  H   H1898     1.0  0.98701  0.51513  0.24345  1.0000
  H   H1899     1.0  0.93935  0.53379  0.25391  1.0000
  C   C1578     1.0  0.82287  0.66479  0.27544  1.0000
  H   H1900     1.0  0.85454  0.58083  0.37885  1.0000
  S   S416      1.0  0.93880  0.61490  0.14042  1.0000
  H   H1901     1.0  0.91481  0.58038  0.36688  1.0000
  H   H1902     1.0  0.89513  0.51439  0.15420  1.0000
  H   H1903     1.0  0.85949  0.66340  0.14515  1.0000
  H   H1904     1.0  0.85737  0.55981  0.40467  1.0000
  C   C1579     1.0  0.87695  0.52005  0.31523  1.0000
  S   S417      1.0  0.94821  0.57419  0.20627  1.0000
  C   C1580     1.0  0.95985  0.60065  0.06229  1.0000
  H   H1905     1.0  0.75972  0.35888  0.03346  1.0000
  C   C1581     1.0  0.81623  0.33603  0.07121  1.0000
  C   C1582     1.0  0.95082  0.55541  0.33737  1.0000
  N   N107      1.0  0.88697  0.56522  0.38243  1.0000
  H   H1906     1.0  0.80811  0.37623  0.42485  1.0000
  Fe  Fe209     1.0  0.95880  0.61420  0.46010  1.0000
  C   C1583     1.0  0.94873  0.56723  0.31242  1.0000
  H   H1907     1.0  0.86768  0.58516  0.41183  1.0000
  H   H1908     1.0  0.87605  0.51333  0.12607  1.0000
  C   C1584     1.0  0.88789  0.36370  0.13571  1.0000
  H   H1909     1.0  0.82362  0.61113  0.08460  1.0000
  C   C1585     1.0  0.96629  0.57841  0.06316  1.0000
  C   C1586     1.0  0.77613  0.37254  0.48268  1.0000
  H   H1910     1.0  0.91636  0.54688  0.39556  1.0000
  Fe  Fe210     1.0  0.96387  0.57373  0.49556  1.0000
  S   S418      1.0  0.90895  0.38654  0.29662  1.0000
  S   S419      1.0  0.94272  0.55517  0.46761  1.0000
  C   C1587     1.0  0.95024  0.50323  0.27326  1.0000
  C   C1588     1.0  0.96346  0.59775  0.33552  1.0000
  C   C1589     1.0  0.80104  0.40146  0.48742  1.0000
  Fe  Fe211     1.0  0.92061  0.58548  0.46802  1.0000
  C   C1590     1.0  0.87224  0.53123  0.36339  1.0000
  C   C1591     1.0  0.86873  0.51668  0.34166  1.0000
  H   H1911     1.0  0.96139  0.60952  0.04325  1.0000
  N   N108      1.0  0.89932  0.48549  0.12862  1.0000
  C   C1592     1.0  0.91040  0.47180  0.15061  1.0000
  C   C1593     1.0  0.88542  0.50332  0.14190  1.0000
  C   C1594     1.0  0.88489  0.47156  0.11309  1.0000
  C   C1595     1.0  0.91564  0.49483  0.11079  1.0000
  C   C1596     1.0  0.91503  0.49366  0.08120  1.0000
  C   C1597     1.0  0.93263  0.50592  0.12300  1.0000
  C   C1598     1.0  0.93096  0.50243  0.06512  1.0000
  C   C1599     1.0  0.94863  0.51428  0.10674  1.0000
  C   C1600     1.0  0.94780  0.51258  0.07782  1.0000
  H   H1912     1.0  0.91927  0.48144  0.16580  1.0000
  H   H1913     1.0  0.89869  0.46317  0.16316  1.0000
  H   H1914     1.0  0.92225  0.45920  0.14134  1.0000
  H   H1915     1.0  0.94240  0.55985  0.29394  1.0000
  H   H1916     1.0  0.87357  0.49694  0.15654  1.0000
  S   S420      1.0  0.91851  0.62017  0.21640  1.0000
  H   H1917     1.0  0.89456  0.45818  0.10195  1.0000
  H   H1918     1.0  0.87359  0.46377  0.12719  1.0000
  H   H1919     1.0  0.87436  0.48099  0.09777  1.0000
  H   H1920     1.0  0.90253  0.48589  0.06993  1.0000
  H   H1921     1.0  0.93369  0.50824  0.14530  1.0000
  H   H1922     1.0  0.93045  0.50110  0.04261  1.0000
  H   H1923     1.0  0.96172  0.52216  0.11673  1.0000
  H   H1924     1.0  0.96019  0.51915  0.06516  1.0000
  C   C1601     1.0  0.96589  0.56759  0.08868  1.0000
  N   N109      1.0  0.88377  0.65998  0.00344  1.0000
  S   S421      1.0  0.96389  0.46368  0.29665  1.0000
  C   C1602     1.0  0.95546  0.58832  0.31131  1.0000
  C   C1603     1.0  0.89022  0.54163  0.49952  1.0000
  S   S422      1.0  0.98342  0.58508  0.45973  1.0000
  C   C1604     1.0  0.80921  0.39687  0.46087  1.0000
  C   C1605     1.0  0.95037  0.60055  0.11148  1.0000
  C   C1606     1.0  0.88129  0.35942  0.18493  1.0000
  Fe  Fe212     1.0  0.94558  0.38374  0.29719  1.0000
  H   H1925     1.0  0.97114  0.59371  0.37915  1.0000
  C   C1607     1.0  0.95190  0.61165  0.08631  1.0000
  H   H1926     1.0  0.82163  0.40635  0.45242  1.0000
  H   H1927     1.0  0.86590  0.52770  0.38364  1.0000
  C   C1608     1.0  0.95890  0.56492  0.36156  1.0000
  H   H1928     1.0  0.88199  0.36835  0.11511  1.0000
  H   H1929     1.0  0.97198  0.55075  0.08972  1.0000
  C   C1609     1.0  0.80160  0.37987  0.44541  1.0000
  H   H1930     1.0  0.90066  0.36703  0.46853  1.0000
  H   H1931     1.0  0.87428  0.50873  0.29839  1.0000
  H   H1932     1.0  0.94621  0.53891  0.33784  1.0000
  H   H1933     1.0  0.85967  0.50264  0.34532  1.0000
  H   H1934     1.0  0.95811  0.51072  0.29057  1.0000
  C   C1610     1.0  0.85791  0.64205  0.18027  1.0000
  H   H1935     1.0  0.92241  0.37950  0.22580  1.0000
  S   S423      1.0  0.91145  0.40939  0.48809  1.0000
  Fe  Fe213     1.0  0.93505  0.59384  0.24303  1.0000
  H   H1936     1.0  0.88229  0.49851  0.46294  1.0000
  S   S424      1.0  0.84514  0.43135  0.01198  1.0000
  H   H1937     1.0  0.94348  0.36104  0.21163  1.0000
  C   C1611     1.0  0.88463  0.51468  0.01043  1.0000
  H   H1938     1.0  0.90547  0.65287  0.03855  1.0000
  C   C1612     1.0  0.85347  0.55773  0.49328  1.0000
  H   H1939     1.0  0.89914  0.59637  0.39163  1.0000
  H   H1940     1.0  0.82697  0.64765  0.27948  1.0000
  S   S425      1.0  0.96212  0.54980  0.39252  1.0000
  H   H1941     1.0  0.92107  0.35820  0.12264  1.0000
  S   S426      1.0  0.85643  0.49160  0.04132  1.0000
  H   H1942     1.0  0.90752  0.54242  0.49766  1.0000
  C   C1613     1.0  0.78487  0.38945  0.49835  1.0000
  H   H1943     1.0  0.88067  0.64006  0.11298  1.0000
  H   H1944     1.0  0.97313  0.55197  0.26240  1.0000
  H   H1945     1.0  0.98983  0.56282  0.23631  1.0000
  N   N110      1.0  0.86960  0.35641  0.48138  1.0000
  S   S427      1.0  0.96730  0.64926  0.45721  1.0000
  C   C1614     1.0  0.95766  0.57849  0.11275  1.0000
  H   H1946     1.0  0.83028  0.52704  0.01836  1.0000
  C   C1615     1.0  0.86570  0.57303  0.39483  1.0000
  H   H1947     1.0  0.81373  0.64003  0.22185  1.0000
  C   C1616     1.0  0.98793  0.34128  0.29652  1.0000
  C   C1617     1.0  0.86308  0.51211  0.01815  1.0000
  C   C1618     1.0  0.84626  0.33880  0.44492  1.0000
  C   C1619     1.0  0.83870  0.33732  0.41748  1.0000
  H   H1948     1.0  0.93600  0.35885  0.24716  1.0000
  H   H1949     1.0  0.85657  0.36963  0.15468  1.0000
  C   C1620     1.0  0.89576  0.34935  0.24030  1.0000
  C   C1621     1.0  0.90531  0.66006  0.01743  1.0000
  C   C1622     1.0  0.87360  0.36440  0.15808  1.0000
  C   C1623     1.0  0.87584  0.55879  0.48974  1.0000
  C   C1624     1.0  0.90995  0.35795  0.14003  1.0000
  H   H1950     1.0  0.78592  0.37892  0.01527  1.0000
  H   H1951     1.0  0.99630  0.37114  0.27817  1.0000
  H   H1952     1.0  0.82235  0.38867  0.00695  1.0000
  C   C1625     1.0  0.78289  0.33437  0.19797  1.0000
  C   C1626     1.0  0.81525  0.66105  0.18641  1.0000
  C   C1627     1.0  0.84939  0.65804  0.16161  1.0000
  H   H1953     1.0  0.76703  0.33521  0.20910  1.0000
  H   H1954     1.0  0.87173  0.65760  0.05817  1.0000
  H   H1955     1.0  0.89727  0.50210  0.01535  1.0000
  C   C1628     1.0  0.75265  0.35729  0.01225  1.0000
  H   H1956     1.0  0.99216  0.57128  0.27138  1.0000
  H   H1957     1.0  0.80736  0.33555  0.15346  1.0000
  H   H1958     1.0  0.78484  0.35108  0.19035  1.0000
  H   H1959     1.0  0.76651  0.34261  0.14877  1.0000
  H   H1960     1.0  0.75031  0.37369  0.00270  1.0000
  S   S428      1.0  0.93204  0.60359  0.00003  1.0000
  H   H1961     1.0  0.80729  0.41440  0.49980  1.0000
  H   H1962     1.0  0.96142  0.54910  0.59292  1.0000
  S   S429      1.0  0.89275  0.58233  0.73132  1.0000
  S   S430      1.0  0.90137  0.58452  0.66404  1.0000
  Fe  Fe214     1.0  0.88249  0.60441  0.69605  1.0000
  S   S431      1.0  0.84698  0.61555  0.69180  1.0000
  Fe  Fe215     1.0  0.91426  0.56430  0.70001  1.0000
  S   S432      1.0  0.91392  0.52821  0.69436  1.0000
  Fe  Fe216     1.0  0.94826  0.43885  0.78995  1.0000
  S   S433      1.0  0.91204  0.44138  0.78491  1.0000
  C   C1629     1.0  0.94280  0.52135  0.73801  1.0000
  Fe  Fe217     1.0  0.91194  0.42588  0.82661  1.0000
  S   S434      1.0  0.88745  0.44147  0.85652  1.0000
  Fe  Fe218     1.0  0.91687  0.40757  0.76784  1.0000
  H   H1963     1.0  0.87281  0.37929  0.78273  1.0000
  S   S435      1.0  0.94784  0.42580  0.83333  1.0000
  S   S436      1.0  0.95351  0.40599  0.76905  1.0000
  Fe  Fe219     1.0  0.88944  0.43835  0.58143  1.0000
  S   S437      1.0  0.85455  0.45147  0.57988  1.0000
  S   S438      1.0  0.91082  0.44383  0.61864  1.0000
  C   C1630     1.0  0.97730  0.50089  0.55552  1.0000
  C   C1631     1.0  0.84088  0.40413  0.87721  1.0000
  S   S439      1.0  0.89026  0.39298  0.97177  1.0000
  Fe  Fe220     1.0  0.86316  0.46682  0.53970  1.0000
  N   N111      1.0  0.76655  0.34192  0.99467  1.0000
  Fe  Fe221     1.0  0.84882  0.42176  0.55458  1.0000
  S   S440      1.0  0.81664  0.40737  0.56075  1.0000
  S   S441      1.0  0.89853  0.45565  0.54278  1.0000
  S   S442      1.0  0.88326  0.40713  0.55962  1.0000
  H   H1964     1.0  0.81989  0.40780  0.76830  1.0000
  H   H1965     1.0  0.92982  0.44745  0.67264  1.0000
  H   H1966     1.0  0.99080  0.40314  0.94955  1.0000
  H   H1967     1.0  0.89924  0.65507  0.96329  1.0000
  H   H1968     1.0  0.92436  0.42902  0.71718  1.0000
  C   C1632     1.0  0.85659  0.41988  0.79299  1.0000
  H   H1969     1.0  0.98079  0.50474  0.53410  1.0000
  C   C1633     1.0  0.78712  0.35294  0.57758  1.0000
  H   H1970     1.0  0.81405  0.41811  0.80246  1.0000
  C   C1634     1.0  0.90544  0.43121  0.65032  1.0000
  C   C1635     1.0  0.91769  0.43594  0.67391  1.0000
  C   C1636     1.0  0.91450  0.42564  0.69927  1.0000
  C   C1637     1.0  0.89879  0.41072  0.70136  1.0000
  C   C1638     1.0  0.88613  0.40627  0.67794  1.0000
  C   C1639     1.0  0.88945  0.41650  0.65240  1.0000
  S   S443      1.0  0.89494  0.39759  0.73312  1.0000
  H   H1971     1.0  0.87394  0.39471  0.67944  1.0000
  H   H1972     1.0  0.87988  0.41277  0.63431  1.0000
  C   C1640     1.0  0.88791  0.42805  0.88853  1.0000
  C   C1641     1.0  0.87782  0.43823  0.91180  1.0000
  C   C1642     1.0  0.87827  0.42756  0.93753  1.0000
  C   C1643     1.0  0.88847  0.40655  0.93980  1.0000
  C   C1644     1.0  0.89797  0.39619  0.91631  1.0000
  C   C1645     1.0  0.89799  0.40703  0.89081  1.0000
  H   H1973     1.0  0.86981  0.45442  0.90998  1.0000
  H   H1974     1.0  0.87082  0.43560  0.95559  1.0000
  H   H1975     1.0  0.90533  0.37972  0.91782  1.0000
  H   H1976     1.0  0.90535  0.39896  0.87275  1.0000
  C   C1646     1.0  0.92799  0.51243  0.71992  1.0000
  C   C1647     1.0  0.92489  0.49028  0.72134  1.0000
  C   C1648     1.0  0.93676  0.47699  0.74043  1.0000
  C   C1649     1.0  0.95155  0.48577  0.75853  1.0000
  H   H1977     1.0  0.91330  0.48328  0.70765  1.0000
  H   H1978     1.0  0.93469  0.45983  0.74090  1.0000
  C   C1650     1.0  0.80258  0.33602  0.57045  1.0000
  H   H1979     1.0  0.97469  0.64019  0.90453  1.0000
  C   C1651     1.0  0.79194  0.37465  0.57501  1.0000
  C   C1652     1.0  0.81241  0.37974  0.56574  1.0000
  C   C1653     1.0  0.82825  0.36288  0.55944  1.0000
  H   H1980     1.0  0.85311  0.38736  0.75699  1.0000
  H   H1981     1.0  0.96469  0.46030  0.66905  1.0000
  C   C1654     1.0  0.86500  0.65190  0.74447  1.0000
  H   H1982     1.0  0.84417  0.36669  0.55277  1.0000
  C   C1655     1.0  0.90891  0.54146  0.60849  1.0000
  H   H1983     1.0  0.99784  0.52425  0.57218  1.0000
  H   H1984     1.0  0.95985  0.38479  0.96876  1.0000
  C   C1656     1.0  0.98937  0.65761  0.84212  1.0000
  C   C1657     1.0  0.84108  0.64099  0.67605  1.0000
  H   H1985     1.0  0.90107  0.35489  0.50177  1.0000
  H   H1986     1.0  0.90670  0.53641  0.99309  1.0000
  H   H1987     1.0  0.80826  0.64473  0.69161  1.0000
  H   H1988     1.0  0.87285  0.64220  0.65800  1.0000
  H   H1989     1.0  0.84699  0.36721  0.78154  1.0000
  H   H1990     1.0  0.93287  0.50990  0.64139  1.0000
  C   C1658     1.0  0.95466  0.50797  0.75727  1.0000
  C   C1659     1.0  0.93358  0.60227  0.80813  1.0000
  S   S444      1.0  0.92543  0.61842  0.77916  1.0000
  C   C1660     1.0  0.96140  0.56647  0.59095  1.0000
  C   C1661     1.0  0.99472  0.64852  0.96240  1.0000
  H   H1991     1.0  0.77955  0.39377  0.51921  1.0000
  H   H1992     1.0  0.94982  0.57582  0.78482  1.0000
  H   H1993     1.0  0.86511  0.36187  0.82351  1.0000
  C   C1662     1.0  0.86250  0.33978  0.50077  1.0000
  H   H1994     1.0  0.85246  0.38063  0.90774  1.0000
  H   H1995     1.0  0.86858  0.61327  0.61976  1.0000
  H   H1996     1.0  0.87235  0.56992  0.54772  1.0000
  C   C1663     1.0  0.99388  0.60975  0.84930  1.0000
  H   H1997     1.0  0.75747  0.37070  0.53634  1.0000
  H   H1998     1.0  0.96107  0.63465  0.87265  1.0000
  H   H1999     1.0  0.86756  0.35398  0.87279  1.0000
  C   C1664     1.0  0.95571  0.37948  0.94733  1.0000
  H   H2000     1.0  0.99034  0.49702  0.66130  1.0000
  H   H2001     1.0  0.92951  0.53471  0.57283  1.0000
  C   C1665     1.0  0.99473  0.35473  0.82385  1.0000
  H   H2002     1.0  0.94530  0.53845  0.73697  1.0000
  C   C1666     1.0  0.85965  0.52257  0.51586  1.0000
  C   C1667     1.0  0.85498  0.38260  0.77928  1.0000
  H   H2003     1.0  0.96355  0.36268  0.94461  1.0000
  C   C1668     1.0  0.88124  0.61693  0.54356  1.0000
  H   H2004     1.0  0.91935  0.62603  0.83714  1.0000
  C   C1669     1.0  0.93593  0.59889  0.85854  1.0000
  H   H2005     1.0  0.94096  0.38509  0.89397  1.0000
  H   H2006     1.0  0.96116  0.62897  0.58437  1.0000
  H   H2007     1.0  0.86680  0.62820  0.54894  1.0000
  H   H2008     1.0  0.89332  0.62654  0.53310  1.0000
  H   H2009     1.0  0.83108  0.49960  0.62854  1.0000
  H   H2010     1.0  0.94700  0.46845  0.59280  1.0000
  Fe  Fe222     1.0  0.91362  0.58401  0.97015  1.0000
  N   N112      1.0  0.92087  0.50907  0.84224  1.0000
  C   C1670     1.0  0.91711  0.48708  0.83141  1.0000
  C   C1671     1.0  0.91342  0.52496  0.82043  1.0000
  C   C1672     1.0  0.94466  0.50985  0.84630  1.0000
  C   C1673     1.0  0.90952  0.51461  0.86879  1.0000
  C   C1674     1.0  0.91030  0.53560  0.88086  1.0000
  C   C1675     1.0  0.89771  0.49958  0.88359  1.0000
  C   C1676     1.0  0.89971  0.54130  0.90584  1.0000
  C   C1677     1.0  0.88710  0.50547  0.90852  1.0000
  C   C1678     1.0  0.88803  0.52630  0.91956  1.0000
  H   H2011     1.0  0.89948  0.48528  0.82787  1.0000
  H   H2012     1.0  0.92537  0.48367  0.81112  1.0000
  H   H2013     1.0  0.92368  0.47403  0.84574  1.0000
  H   H2014     1.0  0.89542  0.52585  0.81788  1.0000
  H   H2015     1.0  0.92080  0.52054  0.79981  1.0000
  H   H2016     1.0  0.91802  0.54164  0.82515  1.0000
  H   H2017     1.0  0.94900  0.52624  0.85293  1.0000
  H   H2018     1.0  0.95096  0.49827  0.86259  1.0000
  H   H2019     1.0  0.95382  0.50561  0.82678  1.0000
  H   H2020     1.0  0.91922  0.54778  0.87111  1.0000
  H   H2021     1.0  0.89631  0.48317  0.87634  1.0000
  H   H2022     1.0  0.90055  0.55746  0.91464  1.0000
  H   H2023     1.0  0.87802  0.49383  0.91934  1.0000
  H   H2024     1.0  0.87966  0.53087  0.93876  1.0000
  C   C1679     1.0  0.84954  0.56387  0.57902  1.0000
  C   C1680     1.0  0.84759  0.39422  0.82817  1.0000
  H   H2025     1.0  0.84008  0.59328  0.63837  1.0000
  H   H2026     1.0  0.93344  0.41276  0.96636  1.0000
  H   H2027     1.0  0.86963  0.34153  0.52197  1.0000
  C   C1681     1.0  0.92771  0.44475  0.95135  1.0000
  C   C1682     1.0  0.95819  0.48074  0.58917  1.0000
  S   S445      1.0  0.90868  0.62668  0.70346  1.0000
  S   S446      1.0  0.87925  0.57662  0.97937  1.0000
  C   C1683     1.0  0.82483  0.34210  0.96879  1.0000
  C   C1684     1.0  0.97705  0.66273  0.95426  1.0000
  C   C1685     1.0  0.85083  0.38421  0.88573  1.0000
  N   N113      1.0  0.84546  0.39992  0.79831  1.0000
  S   S447      1.0  0.92306  0.60372  0.93379  1.0000
  H   H2028     1.0  0.83493  0.41601  0.89270  1.0000
  C   C1686     1.0  0.87383  0.59346  0.58170  1.0000
  Fe  Fe223     1.0  0.94554  0.61975  0.96296  1.0000
  Fe  Fe224     1.0  0.92872  0.60486  0.67421  1.0000
  H   H2029     1.0  0.93230  0.48788  0.66528  1.0000
  S   S448      1.0  0.94997  0.65576  0.95907  1.0000
  Fe  Fe225     1.0  0.92054  0.60317  0.73685  1.0000
  S   S449      1.0  0.94591  0.61989  0.63887  1.0000
  S   S450      1.0  0.94332  0.58323  0.70816  1.0000
  H   H2030     1.0  0.95036  0.57292  0.63307  1.0000
  Fe  Fe226     1.0  0.95008  0.39301  0.81236  1.0000
  H   H2031     1.0  0.94929  0.46553  0.89366  1.0000
  S   S451      1.0  0.93995  0.55745  0.96400  1.0000
  C   C1687     1.0  0.95473  0.60252  0.61126  1.0000
  C   C1688     1.0  0.96112  0.61151  0.58621  1.0000
  C   C1689     1.0  0.92872  0.61051  0.83480  1.0000
  H   H2032     1.0  0.93204  0.60563  0.87873  1.0000
  H   H2033     1.0  0.87588  0.60518  0.52776  1.0000
  H   H2034     1.0  0.96571  0.36777  0.89634  1.0000
  Fe  Fe227     1.0  0.95083  0.57820  0.92914  1.0000
  C   C1690     1.0  0.96730  0.59804  0.56342  1.0000
  H   H2035     1.0  0.97228  0.60513  0.54423  1.0000
  S   S452      1.0  0.91377  0.39200  0.80951  1.0000
  C   C1691     1.0  0.87365  0.55094  0.99245  1.0000
  H   H2036     1.0  0.83188  0.42502  0.84343  1.0000
  H   H2037     1.0  0.85728  0.42359  0.77035  1.0000
  H   H2038     1.0  0.87446  0.63658  0.75101  1.0000
  C   C1692     1.0  0.89890  0.62262  0.58742  1.0000
  H   H2039     1.0  0.91237  0.63085  0.57778  1.0000
  H   H2040     1.0  0.88603  0.63573  0.59266  1.0000
  H   H2041     1.0  0.96805  0.51815  0.65933  1.0000
  C   C1693     1.0  0.94873  0.57922  0.85601  1.0000
  S   S453      1.0  0.84825  0.50125  0.53350  1.0000
  H   H2042     1.0  0.86576  0.65201  0.72144  1.0000
  H   H2043     1.0  0.96739  0.42894  0.89109  1.0000
  H   H2044     1.0  0.82698  0.56196  0.61276  1.0000
  C   C1694     1.0  0.95499  0.57995  0.61366  1.0000
  C   C1695     1.0  0.94577  0.58220  0.80535  1.0000
  C   C1696     1.0  0.98683  0.39547  0.92930  1.0000
  H   H2045     1.0  0.91638  0.44934  0.96799  1.0000
  H   H2046     1.0  0.96717  0.49659  0.68348  1.0000
  C   C1697     1.0  0.95357  0.57087  0.82924  1.0000
  S   S454      1.0  0.96762  0.36345  0.83246  1.0000
  S   S455      1.0  0.85443  0.43815  0.51400  1.0000
  S   S456      1.0  0.96553  0.46907  0.78326  1.0000
  C   C1698     1.0  0.96714  0.46407  0.64671  1.0000
  Fe  Fe228     1.0  0.95907  0.57775  0.99280  1.0000
  C   C1699     1.0  0.83928  0.40914  0.84891  1.0000
  C   C1700     1.0  0.96723  0.57546  0.56560  1.0000
  S   S457      1.0  0.95983  0.56540  0.88576  1.0000
  H   H2047     1.0  0.85877  0.47927  0.65987  1.0000
  C   C1701     1.0  0.96306  0.48522  0.56154  1.0000
  N   N114      1.0  0.89061  0.60584  0.56867  1.0000
  H   H2048     1.0  0.96616  0.51483  0.77122  1.0000
  H   H2049     1.0  0.92790  0.48328  0.62935  1.0000
  H   H2050     1.0  0.98449  0.45930  0.64173  1.0000
  C   C1702     1.0  0.80375  0.33603  0.97328  1.0000
  H   H2051     1.0  0.90561  0.61529  0.60710  1.0000
  H   H2052     1.0  0.91623  0.58121  0.57794  1.0000
  C   C1703     1.0  0.82211  0.40406  0.79084  1.0000
  H   H2053     1.0  0.84383  0.55012  0.56771  1.0000
  C   C1704     1.0  0.93762  0.49229  0.64424  1.0000
  C   C1705     1.0  0.85787  0.37409  0.83760  1.0000
  H   H2054     1.0  0.84434  0.51517  0.67096  1.0000
  C   C1706     1.0  0.90728  0.51015  0.57866  1.0000
  H   H2055     1.0  0.96372  0.55582  0.82688  1.0000
  C   C1707     1.0  0.90958  0.59096  0.56012  1.0000
  C   C1708     1.0  0.98210  0.50765  0.60482  1.0000
  H   H2056     1.0  0.90731  0.65932  0.75220  1.0000
  H   H2057     1.0  0.90575  0.57968  0.54297  1.0000
  H   H2058     1.0  0.92303  0.60007  0.55222  1.0000
  C   C1709     1.0  0.95211  0.41681  0.92808  1.0000
  C   C1710     1.0  0.86604  0.57525  0.56776  1.0000
  H   H2059     1.0  0.92385  0.47611  0.93201  1.0000
  C   C1711     1.0  0.84746  0.58811  0.61868  1.0000
  N   N115      1.0  0.96138  0.48740  0.64070  1.0000
  C   C1712     1.0  0.97234  0.50038  0.66196  1.0000
  C   C1713     1.0  0.93179  0.45979  0.93101  1.0000
  C   C1714     1.0  0.94608  0.45380  0.90943  1.0000
  C   C1715     1.0  0.86400  0.59957  0.60762  1.0000
  S   S458      1.0  0.97373  0.55838  0.53671  1.0000
  S   S459      1.0  0.97381  0.59492  0.95714  1.0000
  H   H2060     1.0  0.91335  0.50056  0.56096  1.0000
  C   C1716     1.0  0.85684  0.65051  0.66055  1.0000
  H   H2061     1.0  0.91640  0.55609  0.61432  1.0000
  C   C1717     1.0  0.91644  0.52936  0.58540  1.0000
  H   H2062     1.0  0.95698  0.45322  0.63457  1.0000
  H   H2063     1.0  0.83909  0.52214  0.60849  1.0000
  C   C1718     1.0  0.95625  0.43272  0.90804  1.0000
  C   C1719     1.0  0.95869  0.38494  0.89824  1.0000
  H   H2064     1.0  0.84858  0.43448  0.80350  1.0000
  N   N116      1.0  0.96300  0.39453  0.92596  1.0000
  C   C1720     1.0  0.89040  0.50313  0.59467  1.0000
  C   C1721     1.0  0.89202  0.53459  0.62465  1.0000
  H   H2065     1.0  0.93780  0.37824  0.94617  1.0000
  H   H2066     1.0  0.77974  0.38760  0.58037  1.0000
  H   H2067     1.0  0.86944  0.38011  0.51453  1.0000
  H   H2068     1.0  0.88385  0.48812  0.58854  1.0000
  H   H2069     1.0  0.88722  0.54456  0.64242  1.0000
  H   H2070     1.0  0.88673  0.48536  0.65774  1.0000
  C   C1722     1.0  0.97419  0.62830  0.88708  1.0000
  C   C1723     1.0  0.88219  0.51516  0.61817  1.0000
  C   C1724     1.0  0.96735  0.49203  0.61169  1.0000
  H   H2071     1.0  0.75514  0.35505  0.95537  1.0000
  C   C1725     1.0  0.84015  0.57040  0.60435  1.0000
  H   H2072     1.0  0.77146  0.34936  0.58535  1.0000
  C   C1726     1.0  0.87116  0.48534  0.64581  1.0000
  H   H2073     1.0  0.87370  0.47297  0.62903  1.0000
  C   C1727     1.0  0.88211  0.52338  0.51219  1.0000
  C   C1728     1.0  0.93771  0.42358  0.95009  1.0000
  Fe  Fe229     1.0  0.88932  0.42563  0.52057  1.0000
  C   C1729     1.0  0.82330  0.34105  0.56170  1.0000
  H   H2074     1.0  0.87162  0.52244  0.67403  1.0000
  H   H2075     1.0  0.81305  0.38963  0.79538  1.0000
  N   N117      1.0  0.86434  0.50728  0.63484  1.0000
  H   H2076     1.0  0.84789  0.49512  0.59868  1.0000
  H   H2077     1.0  0.88631  0.65256  0.79224  1.0000
  H   H2078     1.0  0.89319  0.51011  0.51939  1.0000
  C   C1730     1.0  0.84477  0.50596  0.61698  1.0000
  H   H2079     1.0  0.85219  0.53824  0.65247  1.0000
  C   C1731     1.0  0.85788  0.52147  0.65904  1.0000
  H   H2080     1.0  0.84789  0.36571  0.97760  1.0000
  N   N118      1.0  0.99559  0.62500  0.87314  1.0000
  C   C1732     1.0  0.88997  0.53419  0.99790  1.0000
  H   H2081     1.0  0.78099  0.33980  0.51845  1.0000
  H   H2082     1.0  0.95568  0.47654  0.54472  1.0000
  H   H2083     1.0  0.87361  0.41805  0.80080  1.0000
  C   C1733     1.0  0.82045  0.65201  0.67950  1.0000
  H   H2084     1.0  0.84766  0.65066  0.75014  1.0000
  H   H2085     1.0  0.99561  0.37895  0.92845  1.0000
  C   C1734     1.0  0.85939  0.36927  0.86599  1.0000
  H   H2086     1.0  0.96593  0.39365  0.88090  1.0000
  H   H2087     1.0  0.97996  0.61461  0.83524  1.0000
  C   C1735     1.0  0.83148  0.36109  0.98080  1.0000
  C   C1736     1.0  0.78866  0.34888  0.99001  1.0000
  C   C1737     1.0  0.81706  0.37407  0.99724  1.0000
  H   H2088     1.0  0.97523  0.65101  0.83302  1.0000
  C   C1738     1.0  0.98696  0.51187  0.57709  1.0000
  H   H2089     1.0  0.96915  0.61286  0.89582  1.0000
  H   H2090     1.0  0.99199  0.63368  0.97305  1.0000
  C   C1739     1.0  0.75519  0.33980  0.96757  1.0000
  H   H2091     1.0  0.88784  0.62618  0.99072  1.0000
  H   H2092     1.0  0.86016  0.63703  0.99450  1.0000
  C   C1740     1.0  0.76816  0.33831  0.50230  1.0000
  H   H2093     1.0  0.98987  0.51711  0.62039  1.0000
  H   H2094     1.0  0.84450  0.34133  0.50352  1.0000
  H   H2095     1.0  0.99383  0.40503  0.91253  1.0000
  H   H2096     1.0  0.82811  0.53952  0.50940  1.0000
  C   C1741     1.0  0.84547  0.53990  0.50648  1.0000
  H   H2097     1.0  0.83933  0.56049  0.99481  1.0000
  H   H2098     1.0  0.99121  0.59304  0.85635  1.0000
  C   C1742     1.0  0.85206  0.54775  0.99892  1.0000
  H   H2099     1.0  0.83614  0.33193  0.95616  1.0000
  H   H2100     1.0  0.87388  0.70718  0.20837  1.0000
  C   C1743     1.0  0.94197  0.87579  0.12231  1.0000
  C   C1744     1.0  0.95056  0.89871  0.25636  1.0000
  H   H2101     1.0  0.97928  0.82838  0.05025  1.0000
  S   S460      1.0  0.79913  0.74655  0.15687  1.0000
  H   H2102     1.0  0.84517  0.68168  0.08394  1.0000
  Fe  Fe230     1.0  0.77945  0.74865  0.19606  1.0000
  C   C1745     1.0  0.86413  0.69753  0.22236  1.0000
  Fe  Fe231     1.0  0.76758  0.75462  0.13451  1.0000
  S   S461      1.0  0.78438  0.77074  0.47445  1.0000
  S   S462      1.0  0.77300  0.71335  0.19573  1.0000
  S   S463      1.0  0.81808  0.68764  0.14090  1.0000
  H   H2103     1.0  0.79331  0.78946  0.28541  1.0000
  H   H2104     1.0  0.99165  0.80557  0.06867  1.0000
  H   H2105     1.0  0.96400  0.97213  0.09567  1.0000
  C   C1746     1.0  0.77386  0.78751  0.04684  1.0000
  H   H2106     1.0  0.99462  0.69089  0.33929  1.0000
  S   S464      1.0  0.79170  0.76677  0.23318  1.0000
  C   C1747     1.0  0.99642  0.86488  0.17904  1.0000
  S   S465      1.0  0.76199  0.85886  0.39782  1.0000
  C   C1748     1.0  0.98649  0.93152  0.22746  1.0000
  S   S466      1.0  0.77494  0.79463  0.39938  1.0000
  H   H2107     1.0  0.78431  0.70566  0.29037  1.0000
  H   H2108     1.0  0.82511  0.71274  0.06071  1.0000
  S   S467      1.0  0.85833  0.97323  0.35829  1.0000
  H   H2109     1.0  0.98632  0.91887  0.30175  1.0000
  C   C1749     1.0  0.95100  0.88644  0.07596  1.0000
  C   C1750     1.0  0.97991  0.82025  0.07082  1.0000
  C   C1751     1.0  0.82806  0.66752  0.16458  1.0000
  C   C1752     1.0  0.86680  0.97181  0.30189  1.0000
  C   C1753     1.0  0.93616  0.97875  0.47262  1.0000
  Fe  Fe232     1.0  0.75213  0.82473  0.40439  1.0000
  Fe  Fe233     1.0  0.90366  0.94672  0.44085  1.0000
  Fe  Fe234     1.0  0.86660  0.91647  0.43408  1.0000
  S   S468      1.0  0.85760  0.88154  0.43127  1.0000
  Fe  Fe235     1.0  0.86622  0.95773  0.40052  1.0000
  H   H2110     1.0  0.88400  0.95781  0.02226  1.0000
  N   N119      1.0  0.96562  0.91465  0.26624  1.0000
  S   S469      1.0  0.89065  0.92895  0.40424  1.0000
  H   H2111     1.0  0.89081  0.94397  0.07044  1.0000
  Fe  Fe236     1.0  0.93462  0.94204  0.15865  1.0000
  S   S470      1.0  0.90782  0.92126  0.16931  1.0000
  S   S471      1.0  0.96771  0.92947  0.14287  1.0000
  Fe  Fe237     1.0  0.90173  0.94405  0.20587  1.0000
  S   S472      1.0  0.89961  0.92897  0.24858  1.0000
  Fe  Fe238     1.0  0.88626  0.94563  0.14518  1.0000
  S   S473      1.0  0.86039  0.93601  0.11518  1.0000
  S   S474      1.0  0.93036  0.96309  0.19674  1.0000
  S   S475      1.0  0.91350  0.96467  0.13170  1.0000
  C   C1754     1.0  0.84936  0.96414  0.02792  1.0000
  C   C1755     1.0  0.87059  0.95719  0.03655  1.0000
  C   C1756     1.0  0.87450  0.94965  0.06395  1.0000
  C   C1757     1.0  0.85709  0.94857  0.08244  1.0000
  C   C1758     1.0  0.83603  0.95569  0.07372  1.0000
  C   C1759     1.0  0.83225  0.96378  0.04682  1.0000
  H   H2112     1.0  0.78044  0.73826  0.07842  1.0000
  C   C1760     1.0  0.87117  0.96198  0.32787  1.0000
  C   C1761     1.0  0.88486  0.94280  0.32895  1.0000
  C   C1762     1.0  0.89348  0.93311  0.30448  1.0000
  C   C1763     1.0  0.88903  0.94275  0.27855  1.0000
  C   C1764     1.0  0.77741  0.76415  0.26437  1.0000
  H   H2113     1.0  0.88856  0.93507  0.34852  1.0000
  H   H2114     1.0  0.90357  0.91794  0.30567  1.0000
  H   H2115     1.0  0.91144  0.98615  0.38815  1.0000
  H   H2116     1.0  0.97396  0.81439  0.12504  1.0000
  C   C1765     1.0  0.80989  0.82402  0.48786  1.0000
  C   C1766     1.0  0.97841  0.90439  0.15651  1.0000
  C   C1767     1.0  0.96759  0.89434  0.17768  1.0000
  C   C1768     1.0  0.97653  0.87460  0.18882  1.0000
  H   H2117     1.0  0.96449  0.97947  0.14612  1.0000
  H   H2118     1.0  0.84105  0.72646  0.19302  1.0000
  H   H2119     1.0  0.95239  0.90186  0.18555  1.0000
  H   H2120     1.0  0.96813  0.86693  0.20527  1.0000
  H   H2121     1.0  0.81926  0.80887  0.49506  1.0000
  C   C1769     1.0  0.78748  0.74411  0.03534  1.0000
  C   C1770     1.0  0.96223  0.99296  0.13177  1.0000
  H   H2122     1.0  0.86281  0.73885  0.23492  1.0000
  H   H2123     1.0  0.85607  0.98655  0.30067  1.0000
  H   H2124     1.0  0.81756  0.73003  0.21442  1.0000
  C   C1771     1.0  0.78166  0.77740  0.28728  1.0000
  C   C1772     1.0  0.83620  0.67593  0.25809  1.0000
  H   H2125     1.0  0.81079  0.82384  0.46469  1.0000
  H   H2126     1.0  0.84812  0.91420  0.04509  1.0000
  C   C1773     1.0  0.78855  0.86479  0.40755  1.0000
  C   C1774     1.0  0.79252  0.88629  0.41416  1.0000
  C   C1775     1.0  0.81358  0.89162  0.42144  1.0000
  C   C1776     1.0  0.83097  0.87556  0.42162  1.0000
  C   C1777     1.0  0.82705  0.85409  0.41464  1.0000
  C   C1778     1.0  0.80590  0.84867  0.40792  1.0000
  H   H2127     1.0  0.77917  0.89884  0.41399  1.0000
  H   H2128     1.0  0.81622  0.90811  0.42723  1.0000
  H   H2129     1.0  0.84042  0.84157  0.41442  1.0000
  H   H2130     1.0  0.80315  0.83212  0.40240  1.0000
  H   H2131     1.0  0.98726  0.68861  0.49598  1.0000
  H   H2132     1.0  0.81949  0.91111  0.04234  1.0000
  H   H2133     1.0  0.76857  0.80433  0.05127  1.0000
  H   H2134     1.0  0.95927  0.84786  0.13894  1.0000
  C   C1779     1.0  0.86134  0.88151  0.01046  1.0000
  C   C1780     1.0  0.86756  0.67464  0.01863  1.0000
  C   C1781     1.0  0.80507  0.86294  0.48915  1.0000
  C   C1782     1.0  0.78738  0.75953  0.01410  1.0000
  H   H2135     1.0  0.80357  0.86226  0.46613  1.0000
  H   H2136     1.0  0.96377  0.94916  0.27462  1.0000
  C   C1783     1.0  0.99816  0.89452  0.14640  1.0000
  H   H2137     1.0  0.77423  0.78530  0.33027  1.0000
  H   H2138     1.0  0.95996  0.91030  0.31017  1.0000
  C   C1784     1.0  0.82191  0.85847  0.02344  1.0000
  C   C1785     1.0  0.91901  0.98165  0.49157  1.0000
  H   H2139     1.0  0.94400  0.90304  0.23529  1.0000
  C   C1786     1.0  0.77358  0.77199  0.06797  1.0000
  C   C1787     1.0  0.78067  0.78128  0.01991  1.0000
  C   C1788     1.0  0.75612  0.75922  0.31523  1.0000
  C   C1789     1.0  0.83594  0.90235  0.04029  1.0000
  H   H2140     1.0  0.83295  0.85558  0.04080  1.0000
  C   C1790     1.0  0.87588  0.96234  0.27729  1.0000
  S   S476      1.0  0.84149  0.94468  0.42904  1.0000
  Fe  Fe239     1.0  0.79053  0.71193  0.15469  1.0000
  H   H2141     1.0  0.87507  0.69153  0.23965  1.0000
  H   H2142     1.0  0.97999  0.89124  0.29595  1.0000
  H   H2143     1.0  0.84247  0.84256  0.46737  1.0000
  C   C1791     1.0  0.80425  0.67545  0.28708  1.0000
  C   C1792     1.0  0.78059  0.75031  0.06224  1.0000
  C   C1793     1.0  0.99790  0.67583  0.43897  1.0000
  H   H2144     1.0  0.98622  0.68917  0.44458  1.0000
  H   H2145     1.0  0.92749  0.90442  0.10206  1.0000
  C   C1794     1.0  0.83680  0.70219  0.04904  1.0000
  C   C1795     1.0  0.97005  0.85364  0.09623  1.0000
  H   H2146     1.0  0.97483  0.94549  0.22582  1.0000
  H   H2147     1.0  0.86072  0.72480  0.26745  1.0000
  H   H2148     1.0  0.93626  0.89821  0.27034  1.0000
  H   H2149     1.0  0.96355  0.81457  0.07481  1.0000
  C   C1796     1.0  0.84122  0.84451  0.49034  1.0000
  C   C1797     1.0  0.82277  0.87710  0.00643  1.0000
  C   C1798     1.0  0.96620  0.86837  0.07384  1.0000
  S   S477      1.0  0.76319  0.77989  0.10081  1.0000
  H   H2150     1.0  0.87424  0.89309  0.01198  1.0000
  H   H2151     1.0  0.90266  0.99504  0.07990  1.0000
  H   H2152     1.0  0.80677  0.82879  0.03123  1.0000
  H   H2153     1.0  0.91036  0.67692  0.01948  1.0000
  H   H2154     1.0  0.79245  0.72724  0.03084  1.0000
  H   H2155     1.0  0.82249  0.95474  0.08778  1.0000
  C   C1799     1.0  0.98923  0.82158  0.11924  1.0000
  H   H2156     1.0  0.95867  0.88197  0.25492  1.0000
  H   H2157     1.0  0.85021  0.66649  0.24962  1.0000
  C   C1800     1.0  0.95736  0.85786  0.12061  1.0000
  N   N120      1.0  0.82771  0.91042  0.33871  1.0000
  C   C1801     1.0  0.84701  0.91000  0.35732  1.0000
  C   C1802     1.0  0.83276  0.92119  0.31227  1.0000
  C   C1803     1.0  0.80984  0.92414  0.35241  1.0000
  C   C1804     1.0  0.82236  0.88786  0.33298  1.0000
  C   C1805     1.0  0.83756  0.87302  0.31911  1.0000
  C   C1806     1.0  0.80239  0.87984  0.34113  1.0000
  C   C1807     1.0  0.83302  0.85156  0.31365  1.0000
  C   C1808     1.0  0.79806  0.85834  0.33560  1.0000
  C   C1809     1.0  0.81331  0.84423  0.32191  1.0000
  H   H2158     1.0  0.86191  0.90213  0.34742  1.0000
  H   H2159     1.0  0.85076  0.92667  0.36357  1.0000
  H   H2160     1.0  0.84431  0.90089  0.37671  1.0000
  H   H2161     1.0  0.83520  0.93870  0.31553  1.0000
  H   H2162     1.0  0.81933  0.92021  0.29684  1.0000
  H   H2163     1.0  0.84799  0.91390  0.30247  1.0000
  H   H2164     1.0  0.79483  0.92542  0.33935  1.0000
  H   H2165     1.0  0.80594  0.91765  0.37315  1.0000
  H   H2166     1.0  0.81439  0.94104  0.35620  1.0000
  H   H2167     1.0  0.85315  0.87790  0.31255  1.0000
  H   H2168     1.0  0.78989  0.88966  0.35218  1.0000
  H   H2169     1.0  0.84489  0.84051  0.30306  1.0000
  H   H2170     1.0  0.78284  0.85250  0.34240  1.0000
  H   H2171     1.0  0.80985  0.82755  0.31785  1.0000
  N   N121      1.0  0.83918  0.89284  0.01202  1.0000
  H   H2172     1.0  0.75899  0.73831  0.24928  1.0000
  S   S478      1.0  0.88313  0.93048  0.47127  1.0000
  C   C1810     1.0  0.76237  0.74856  0.26686  1.0000
  H   H2173     1.0  0.86840  0.98912  0.10245  1.0000
  H   H2174     1.0  0.86458  0.86953  0.02740  1.0000
  C   C1811     1.0  0.77088  0.77507  0.31264  1.0000
  S   S479      1.0  0.88073  0.97619  0.43539  1.0000
  H   H2175     1.0  0.83771  0.88995  0.05694  1.0000
  H   H2176     1.0  0.93992  0.93622  0.28438  1.0000
  H   H2177     1.0  0.81585  0.96923  0.04040  1.0000
  S   S480      1.0  0.93733  0.95682  0.44882  1.0000
  H   H2178     1.0  0.87222  0.96986  0.25735  1.0000
  C   C1812     1.0  0.79881  0.69732  0.28133  1.0000
  S   S481      1.0  0.87742  0.96649  0.18275  1.0000
  N   N122      1.0  0.98645  0.83479  0.09354  1.0000
  C   C1813     1.0  0.97338  0.90850  0.29467  1.0000
  H   H2179     1.0  0.93275  0.87896  0.14126  1.0000
  Fe  Fe240     1.0  0.76211  0.78591  0.44117  1.0000
  Fe  Fe241     1.0  0.85949  0.95946  0.46455  1.0000
  C   C1814     1.0  0.93897  0.89018  0.10020  1.0000
  Fe  Fe242     1.0  0.90656  0.98380  0.17094  1.0000
  C   C1815     1.0  0.81192  0.70854  0.26381  1.0000
  H   H2180     1.0  0.83802  0.74167  0.25376  1.0000
  H   H2181     1.0  0.80687  0.72539  0.25970  1.0000
  S   S482      1.0  0.76024  0.71987  0.12906  1.0000
  H   H2182     1.0  0.85958  0.68333  0.20982  1.0000
  H   H2183     1.0  0.82422  0.70446  0.19777  1.0000
  H   H2184     1.0  0.94449  0.94085  0.24885  1.0000
  C   C1816     1.0  0.85185  0.72974  0.24797  1.0000
  C   C1817     1.0  0.83132  0.71820  0.20855  1.0000
  C   C1818     1.0  0.83104  0.69823  0.25163  1.0000
  C   C1819     1.0  0.95309  0.93621  0.26860  1.0000
  H   H2185     1.0  0.90621  0.97068  0.49129  1.0000
  H   H2186     1.0  0.75361  0.71615  0.49269  1.0000
  H   H2187     1.0  0.97506  0.86616  0.05456  1.0000
  N   N123      1.0  0.84450  0.71054  0.23297  1.0000
  C   C1820     1.0  0.95265  0.99310  0.47328  1.0000
  H   H2188     1.0  0.79243  0.82308  0.49295  1.0000
  H   H2189     1.0  0.81208  0.87852  0.49421  1.0000
  C   C1821     1.0  0.98416  0.91450  0.24674  1.0000
  C   C1822     1.0  0.96188  0.98877  0.10326  1.0000
  H   H2190     1.0  0.84801  0.86026  0.49515  1.0000
  H   H2191     1.0  0.94869  0.89776  0.05885  1.0000
  C   C1823     1.0  0.86332  0.67101  0.04718  1.0000
  H   H2192     1.0  0.78826  0.86381  0.49770  1.0000
  C   C1824     1.0  0.80697  0.84304  0.01817  1.0000
  C   C1825     1.0  0.75188  0.74599  0.29232  1.0000
  H   H2193     1.0  0.99471  0.83138  0.13708  1.0000
  C   C1826     1.0  0.84818  0.68464  0.06209  1.0000
  H   H2194     1.0  0.78089  0.79328  0.00370  1.0000
  H   H2195     1.0  0.79395  0.66674  0.30046  1.0000
  H   H2196     1.0  0.79876  0.66822  0.18881  1.0000
  H   H2197     1.0  0.96600  0.99089  0.45874  1.0000
  H   H2198     1.0  0.99855  0.88214  0.25806  1.0000
  C   C1827     1.0  0.84044  0.70617  0.02102  1.0000
  H   H2199     1.0  0.83142  0.71985  0.01091  1.0000
  H   H2200     1.0  0.75500  0.80469  0.49871  1.0000
  C   C1828     1.0  0.85556  0.69266  0.00591  1.0000
  C   C1829     1.0  0.82585  0.86329  0.57470  1.0000
  C   C1830     1.0  0.97699  0.97313  0.60026  1.0000
  H   H2201     1.0  0.87840  0.92304  0.84939  1.0000
  Fe  Fe243     1.0  0.79577  0.72841  0.64967  1.0000
  S   S483      1.0  0.79995  0.76422  0.65244  1.0000
  H   H2202     1.0  0.78141  0.86583  0.96159  1.0000
  Fe  Fe244     1.0  0.78052  0.76328  0.69162  1.0000
  H   H2203     1.0  0.94793  0.81983  0.75296  1.0000
  Fe  Fe245     1.0  0.76784  0.76828  0.63043  1.0000
  H   H2204     1.0  0.90265  0.68843  0.75457  1.0000
  S   S484      1.0  0.77876  0.72707  0.69080  1.0000
  S   S485      1.0  0.76497  0.73258  0.62424  1.0000
  Fe  Fe246     1.0  0.86409  0.95871  0.95913  1.0000
  H   H2205     1.0  0.94392  0.94121  0.51454  1.0000
  C   C1831     1.0  0.85531  0.69638  0.72138  1.0000
  H   H2206     1.0  0.92654  0.97385  0.88125  1.0000
  H   H2207     1.0  0.92591  0.91235  0.59099  1.0000
  H   H2208     1.0  0.91555  0.97126  0.83291  1.0000
  Fe  Fe247     1.0  0.77499  0.81117  0.90962  1.0000
  S   S486      1.0  0.78346  0.84567  0.90250  1.0000
  C   C1832     1.0  0.85940  0.69110  0.74975  1.0000
  S   S487      1.0  0.79908  0.78177  0.90847  1.0000
  C   C1833     1.0  0.92549  0.98829  0.86840  1.0000
  S   S488      1.0  0.79565  0.75122  0.98051  1.0000
  S   S489      1.0  0.89206  0.93442  0.96815  1.0000
  C   C1834     1.0  0.76696  0.78797  0.56450  1.0000
  C   C1835     1.0  0.83824  0.91114  0.99203  1.0000
  S   S490      1.0  0.86100  0.96830  0.85295  1.0000
  N   N124      1.0  0.87364  0.67143  0.75715  1.0000
  H   H2209     1.0  0.79030  0.76143  0.57541  1.0000
  H   H2210     1.0  0.78480  0.80373  0.78271  1.0000
  H   H2211     1.0  0.85514  0.97403  0.79381  1.0000
  Fe  Fe248     1.0  0.90947  0.95291  0.93629  1.0000
  Fe  Fe249     1.0  0.87916  0.91597  0.93177  1.0000
  S   S491      1.0  0.87494  0.87983  0.93435  1.0000
  Fe  Fe250     1.0  0.87149  0.95562  0.89555  1.0000
  H   H2212     1.0  0.88807  0.89907  0.80899  1.0000
  C   C1836     1.0  0.91376  0.94276  0.55417  1.0000
  S   S492      1.0  0.90034  0.93144  0.90073  1.0000
  H   H2213     1.0  0.85972  0.98735  0.56117  1.0000
  Fe  Fe251     1.0  0.93315  0.92160  0.67171  1.0000
  S   S493      1.0  0.90486  0.90119  0.67312  1.0000
  S   S494      1.0  0.96852  0.90986  0.66516  1.0000
  Fe  Fe252     1.0  0.89368  0.92172  0.71002  1.0000
  S   S495      1.0  0.88484  0.90562  0.75009  1.0000
  Fe  Fe253     1.0  0.88735  0.92756  0.64728  1.0000
  S   S496      1.0  0.86943  0.91666  0.60907  1.0000
  S   S497      1.0  0.92349  0.94011  0.71064  1.0000
  S   S498      1.0  0.91654  0.94661  0.64340  1.0000
  C   C1837     1.0  0.85362  0.96063  0.53384  1.0000
  C   C1838     1.0  0.85253  0.93812  0.53197  1.0000
  C   C1839     1.0  0.85698  0.92499  0.55537  1.0000
  C   C1840     1.0  0.86282  0.93416  0.58084  1.0000
  C   C1841     1.0  0.86370  0.95672  0.58293  1.0000
  C   C1842     1.0  0.85898  0.96994  0.55950  1.0000
  H   H2214     1.0  0.85615  0.90761  0.55366  1.0000
  C   C1843     1.0  0.86669  0.95042  0.82448  1.0000
  C   C1844     1.0  0.86264  0.95780  0.79723  1.0000
  C   C1845     1.0  0.86853  0.94435  0.77422  1.0000
  C   C1846     1.0  0.87777  0.92314  0.77839  1.0000
  N   N125      1.0  0.93570  0.93109  0.55609  1.0000
  S   S499      1.0  0.75827  0.79378  0.59849  1.0000
  H   H2215     1.0  0.86559  0.95029  0.75330  1.0000
  H   H2216     1.0  0.94881  0.86863  0.78675  1.0000
  H   H2217     1.0  0.89255  0.68280  0.97246  1.0000
  C   C1847     1.0  0.91369  0.98269  0.78121  1.0000
  C   C1848     1.0  0.97638  0.88182  0.66171  1.0000
  C   C1849     1.0  0.96088  0.86657  0.66052  1.0000
  C   C1850     1.0  0.96754  0.84426  0.65951  1.0000
  C   C1851     1.0  0.95045  0.94493  0.57118  1.0000
  H   H2218     1.0  0.90254  0.97170  0.79073  1.0000
  H   H2219     1.0  0.94378  0.87194  0.66044  1.0000
  S   S500      1.0  0.75798  0.80143  0.94844  1.0000
  H   H2220     1.0  0.95828  0.92367  0.60708  1.0000
  C   C1852     1.0  0.84963  0.70571  0.77000  1.0000
  C   C1853     1.0  0.96041  0.93896  0.59709  1.0000
  H   H2221     1.0  0.76976  0.72515  0.52093  1.0000
  H   H2222     1.0  0.82225  0.92094  0.99263  1.0000
  C   C1854     1.0  0.79263  0.86395  0.97907  1.0000
  H   H2223     1.0  0.86212  0.68610  0.70476  1.0000
  H   H2224     1.0  0.84792  0.93083  0.51252  1.0000
  C   C1855     1.0  0.76273  0.79521  0.51517  1.0000
  H   H2225     1.0  0.79960  0.68096  0.67028  1.0000
  C   C1856     1.0  0.80872  0.85464  0.91288  1.0000
  C   C1857     1.0  0.81228  0.87649  0.90871  1.0000
  C   C1858     1.0  0.83251  0.88420  0.91502  1.0000
  C   C1859     1.0  0.84931  0.87032  0.92623  1.0000
  C   C1860     1.0  0.84567  0.84848  0.93091  1.0000
  C   C1861     1.0  0.82543  0.84061  0.92419  1.0000
  H   H2226     1.0  0.79940  0.88750  0.90020  1.0000
  H   H2227     1.0  0.83509  0.90081  0.91067  1.0000
  H   H2228     1.0  0.85856  0.83757  0.93959  1.0000
  H   H2229     1.0  0.82284  0.82373  0.92764  1.0000
  H   H2230     1.0  0.75219  0.74447  0.50275  1.0000
  C   C1862     1.0  0.78475  0.77296  0.76130  1.0000
  C   C1863     1.0  0.78211  0.74163  0.79076  1.0000
  C   C1864     1.0  0.78228  0.77746  0.81155  1.0000
  C   C1865     1.0  0.78149  0.75503  0.81442  1.0000
  S   S501      1.0  0.84860  0.97705  0.50412  1.0000
  C   C1866     1.0  0.78340  0.75063  0.76424  1.0000
  C   C1867     1.0  0.83675  0.72443  0.76211  1.0000
  C   C1868     1.0  0.91944  0.98702  0.84035  1.0000
  C   C1869     1.0  0.80919  0.82818  0.54714  1.0000
  C   C1870     1.0  0.79242  0.84575  0.99596  1.0000
  C   C1871     1.0  0.88672  0.66625  0.97398  1.0000
  H   H2231     1.0  0.95547  0.83250  0.65902  1.0000
  H   H2232     1.0  0.90191  0.93279  0.54352  1.0000
  H   H2233     1.0  0.83942  0.71873  0.69193  1.0000
  H   H2234     1.0  0.83309  0.87519  0.53472  1.0000
  H   H2235     1.0  0.91101  0.97847  0.98687  1.0000
  C   C1872     1.0  0.75751  0.80047  0.54281  1.0000
  H   H2236     1.0  0.82942  0.73540  0.77783  1.0000
  H   H2237     1.0  0.86626  0.98904  0.71097  1.0000
  H   H2238     1.0  0.90735  0.94702  0.57529  1.0000
  H   H2239     1.0  0.78396  0.74015  0.74619  1.0000
  S   S502      1.0  0.84988  0.93938  0.92487  1.0000
  C   C1873     1.0  0.96265  0.82634  0.74597  1.0000
  H   H2240     1.0  0.97044  0.99508  0.56606  1.0000
  S   S503      1.0  0.87339  0.94627  0.68446  1.0000
  H   H2241     1.0  0.98704  0.98391  0.61145  1.0000
  H   H2242     1.0  0.75673  0.69900  0.55024  1.0000
  C   C1874     1.0  0.98958  0.68705  0.51885  1.0000
  H   H2243     1.0  0.83236  0.87690  0.58548  1.0000
  C   C1875     1.0  0.98107  0.68242  0.94147  1.0000
  C   C1876     1.0  0.77821  0.77805  0.50908  1.0000
  H   H2244     1.0  0.86810  0.96389  0.60254  1.0000
  C   C1877     1.0  0.99479  0.67782  0.83258  1.0000
  H   H2245     1.0  0.91368  0.95810  0.54230  1.0000
  H   H2246     1.0  0.98067  0.94804  0.63120  1.0000
  H   H2247     1.0  0.80070  0.75300  0.52632  1.0000
  H   H2248     1.0  0.93069  0.97532  0.78353  1.0000
  C   C1878     1.0  0.82629  0.86210  0.54563  1.0000
  C   C1879     1.0  0.94391  0.92636  0.52751  1.0000
  H   H2249     1.0  0.80707  0.89283  0.96971  1.0000
  H   H2250     1.0  0.78182  0.78787  0.82978  1.0000
  H   H2251     1.0  0.94795  0.97100  0.54069  1.0000
  C   C1880     1.0  0.92122  0.99181  0.98518  1.0000
  H   H2252     1.0  0.95101  0.88801  0.71340  1.0000
  H   H2253     1.0  0.97668  0.69809  0.52892  1.0000
  C   C1881     1.0  0.81554  0.67253  0.66752  1.0000
  H   H2254     1.0  0.96752  0.69357  0.93510  1.0000
  H   H2255     1.0  0.98522  0.87228  0.72465  1.0000
  Fe  Fe254     1.0  0.90423  0.96323  0.68261  1.0000
  H   H2256     1.0  0.85069  0.92270  0.99688  1.0000
  H   H2257     1.0  0.80161  0.81710  0.58817  1.0000
  H   H2258     1.0  0.95908  0.89342  0.74886  1.0000
  H   H2259     1.0  0.75299  0.73882  0.56353  1.0000
  C   C1882     1.0  0.83114  0.68188  0.65158  1.0000
  C   C1883     1.0  0.80757  0.87942  0.98404  1.0000
  C   C1884     1.0  0.78407  0.78640  0.78498  1.0000
  N   N126      1.0  0.82814  0.86170  0.82608  1.0000
  C   C1885     1.0  0.83680  0.88287  0.83300  1.0000
  C   C1886     1.0  0.80444  0.86384  0.83199  1.0000
  C   C1887     1.0  0.83896  0.84510  0.84484  1.0000
  C   C1888     1.0  0.83170  0.85483  0.79675  1.0000
  C   C1889     1.0  0.84262  0.86726  0.77723  1.0000
  C   C1890     1.0  0.82394  0.83514  0.78686  1.0000
  C   C1891     1.0  0.84521  0.86043  0.74954  1.0000
  C   C1892     1.0  0.82653  0.82852  0.75909  1.0000
  C   C1893     1.0  0.83710  0.84117  0.74046  1.0000
  H   H2260     1.0  0.82907  0.89629  0.82004  1.0000
  H   H2261     1.0  0.83367  0.88769  0.85509  1.0000
  H   H2262     1.0  0.85476  0.88214  0.83030  1.0000
  H   H2263     1.0  0.80093  0.87014  0.85336  1.0000
  H   H2264     1.0  0.79706  0.84802  0.83082  1.0000
  H   H2265     1.0  0.79551  0.87513  0.81712  1.0000
  H   H2266     1.0  0.85655  0.84197  0.83983  1.0000
  H   H2267     1.0  0.83786  0.85033  0.86703  1.0000
  H   H2268     1.0  0.83148  0.82934  0.84363  1.0000
  H   H2269     1.0  0.84924  0.88242  0.78265  1.0000
  H   H2270     1.0  0.81563  0.82476  0.80051  1.0000
  H   H2271     1.0  0.85343  0.87032  0.73499  1.0000
  H   H2272     1.0  0.82012  0.81358  0.75189  1.0000
  H   H2273     1.0  0.83891  0.83606  0.71890  1.0000
  N   N127      1.0  0.94323  0.86377  0.74303  1.0000
  C   C1894     1.0  0.92569  0.85645  0.72483  1.0000
  C   C1895     1.0  0.93579  0.86384  0.77235  1.0000
  C   C1896     1.0  0.94640  0.88660  0.73562  1.0000
  C   C1897     1.0  0.96313  0.84878  0.73987  1.0000
  H   H2274     1.0  0.93112  0.85504  0.70281  1.0000
  H   H2275     1.0  0.78165  0.72424  0.79293  1.0000
  S   S504      1.0  0.77954  0.74327  0.84724  1.0000
  H   H2276     1.0  0.96087  0.91862  0.52803  1.0000
  H   H2277     1.0  0.93122  0.89743  0.73852  1.0000
  H   H2278     1.0  0.92053  0.84036  0.73093  1.0000
  H   H2279     1.0  0.91081  0.86801  0.72546  1.0000
  Fe  Fe255     1.0  0.77365  0.76704  0.88252  1.0000
  C   C1898     1.0  0.83316  0.72913  0.73407  1.0000
  C   C1899     1.0  0.98328  0.85570  0.73054  1.0000
  H   H2280     1.0  0.92117  0.87549  0.77558  1.0000
  H   H2281     1.0  0.92207  0.89995  0.55801  1.0000
  H   H2282     1.0  0.78104  0.83367  0.99165  1.0000
  S   S505      1.0  0.84340  0.97357  0.99393  1.0000
  C   C1900     1.0  0.78851  0.76617  0.53089  1.0000
  C   C1901     1.0  0.81699  0.84710  0.58994  1.0000
  S   S506      1.0  0.75707  0.75366  0.91895  1.0000
  H   H2283     1.0  0.81654  0.84810  0.61247  1.0000
  C   C1902     1.0  0.96768  0.97937  0.57478  1.0000
  C   C1903     1.0  0.98972  0.83702  0.65922  1.0000
  H   H2284     1.0  0.98649  0.67000  0.52399  1.0000
  C   C1904     1.0  0.80864  0.82962  0.57620  1.0000
  S   S507      1.0  0.99719  0.80882  0.65953  1.0000
  C   C1905     1.0  0.93322  0.90997  0.56989  1.0000
  S   S508      1.0  0.82541  0.70729  0.63570  1.0000
  C   C1906     1.0  0.95472  0.96547  0.56037  1.0000
  C   C1907     1.0  0.97343  0.95295  0.61132  1.0000
  H   H2285     1.0  0.89612  0.67438  0.72321  1.0000
  Fe  Fe256     1.0  0.78034  0.77092  0.94513  1.0000
  H   H2286     1.0  0.84149  0.90523  0.97040  1.0000
  H   H2287     1.0  0.93361  0.91528  0.51596  1.0000
  S   S509      1.0  0.94073  0.96895  0.94152  1.0000
  H   H2288     1.0  0.98023  0.79459  0.74666  1.0000
  S   S510      1.0  0.78793  0.78434  0.72843  1.0000
  H   H2289     1.0  0.86369  0.87256  0.99034  1.0000
  H   H2290     1.0  0.88313  0.68115  0.79842  1.0000
  C   C1908     1.0  0.98106  0.81175  0.74258  1.0000
  C   C1909     1.0  0.88102  0.91548  0.80560  1.0000
  S   S511      1.0  0.88198  0.97807  0.92906  1.0000
  S   S512      1.0  0.75085  0.79720  0.88030  1.0000
  C   C1910     1.0  0.81804  0.84446  0.53093  1.0000
  C   C1911     1.0  0.87565  0.92910  0.82856  1.0000
  C   C1912     1.0  0.78266  0.77092  0.55862  1.0000
  C   C1913     1.0  0.93717  0.99137  0.96458  1.0000
  H   H2291     1.0  0.93114  0.84768  0.77896  1.0000
  C   C1914     1.0  0.84236  0.71509  0.71376  1.0000
  H   H2292     1.0  0.98512  0.68618  0.81641  1.0000
  H   H2293     1.0  0.85165  0.70311  0.79208  1.0000
  H   H2294     1.0  0.94911  0.90010  0.57184  1.0000
  C   C1915     1.0  0.85177  0.67081  0.64806  1.0000
  H   H2295     1.0  0.82318  0.74367  0.72802  1.0000
  H   H2296     1.0  0.80254  0.81414  0.53796  1.0000
  H   H2297     1.0  0.90957  0.98269  0.75855  1.0000
  H   H2298     1.0  0.86391  0.67807  0.63585  1.0000
  H   H2299     1.0  0.85283  0.99048  0.63971  1.0000
  C   C1916     1.0  0.99859  0.87463  0.66092  1.0000
  H   H2300     1.0  0.85748  0.69677  0.98431  1.0000
  C   C1917     1.0  0.75346  0.72756  0.51075  1.0000
  H   H2301     1.0  0.88789  0.99741  0.62091  1.0000
  C   C1918     1.0  0.87562  0.66762  0.78759  1.0000
  C   C1919     1.0  0.89585  0.67351  0.74631  1.0000
  C   C1920     1.0  0.91890  0.99810  0.51188  1.0000
  H   H2302     1.0  0.85949  0.66547  0.79700  1.0000
  N   N128      1.0  0.81849  0.84380  0.50012  1.0000
  H   H2303     1.0  0.87140  0.66565  0.96173  1.0000
  H   H2304     1.0  0.85215  0.83132  0.49992  1.0000
