data_image0
_chemical_formula_structural       CSFeHSFeHSHSH2S2FeS2FeS2FeSFeS3C6H3FeC5HCHC4H3C3H2CHC4SH3C6H4CHCH3CH3C3HCH6NC4HNH3CHCHCS2CH4C3HCNC9H14NCHC3H6C2NH4C3H2C3HC3H5NCH8CHC2H4CH2CH3CH2CHFeCH2CH3CH2FeS2HCHCFeSCSFeS2NSH2FeSCSFeS2FeSFeSFeS3CHFeS2FeHFeHS2C6HC2HC6H3C7H4C6H4CH2FeHC2HCHC4H2C2H3CH2CSHCH2C2HCHCHCH4CH3CHCHC3HFeCHC4H7CFeH3CH2CNHNH4C2H2SHC3SFeS2HCHNC8H12CSH2CH2CSCHCS2FeS2FeS2FeSFeCS2FeHSFeCSC4S2C3HCH3CSC2HCHSH8C2HCH2C6H4C6H5CH2CH2CH3CH2C2H5C2HNC2HC5H2CHCH4NHNHC2HC4HCHSFeCH2C3HCHCSH4CH3CNC6HC2H11C2HC2H4FeSCSH2NCHC3H4CH3NFeH2CH2CHC2H5S2FeCSFeHSCSHCS2FeS2FeS2FeSFeS3C6HCHCFeC3HFeH2CSHCH3C2H3C6H4C6H8CH2CH2CHC4NH3C2HCSH4CHCH2CH2CH2CHCHC2NCH4NCHC4H4CNHC2NCHC5SH13CHFeCH3C3HC2HCH4CH2CHC2H2CH2CH3CH3NCH3C2HCH4CHC3H2C3H2NC2FeS2FeS2CFeSHSFeS2FeSHFe2SHSFeS2CHFeCFeS3NHFeS2FeHFeNS2CH2C3H2CFeC3HC2HCFeHC6H4C6H4C4H5C3HCSH2SH2CSCHCHC2H6CSCH2CHNC9H14SHCHC3HSH2CNH3CH3CH4SHCH2C5H3C5HCHCSFeHCHCH3C3H2SCFeS2FeS2Fe3S3FeCSFeS2FeCHCS2C4H2CH4NCH4CSC2HCH2CH4C6H4C6H4NHCHCH7CH3CH7C2HSC3H4NHSH2C2HC5NHC7H2CHC2H4CHC3SHSHCHCHSHCH2CNHCHCHCHC2H3CHC3HCH4C2H4CSFeHSFeCSCSHS3FeS2FeS2FeSFeS3C6HCH2CHC2H2CH4CH3C3H2C8H2C6H5C2H5C3HFeC3HC2HCSNC6HCH10C2HC2NC2HC3HC2HCH3C2H2CHNH4CH2NCH3CH4CS2FeCH2CH6C3HCH2NCH3CH5CHCHNHFeS2FeSH2FeSHSFeS2FeS2Fe2SHSFeS2FeHFeHFeS3H2FeS2FeSFeS3C4S2H2CHC6H2CHC6H4C6H4C4HCH2C4H8NC9SC2H2CH8FeCH5C3H2CSH2CH10CSCNC9H14NC9H6C2NH2FeCH2SCH7CNH2CH8SCFeS2FeS2FeSFeCS2FeHSFeS2FeHFeCS2C2H3CHC2HSC4H2CH2CHC2H2C2H2C6H4C6H10C2HSC2SCH4SHCHNC4H3CH4CHC5HCH2NCH2C2HCHC2H2C2NH5CSNCHCHC2HCH6C3H7CSH2CHC2H5CHCHC2H2NHCH8C3H2C2H2CHCH2S2FeS2FeHSC3FeS2FeS2FeS2FeSFeS3C6H5C3H5C4H3CH3C6H4C6H4C2NC6H2CH2C2H7CH2CHCH3C2H3CHCHC2H2NC8HC2NHCHCHCNH2CHCH2CH9C2HNCH2CH2C2H2C2HCH2CH5CHC3SHCH4C2SH2SH2FeS2FeSC2FeSHSFeS2FeSHSFeSHSFeS3CFeHFeS3FeSFeS2FeHFeS3C16H4C6H4C6H4CHCHC2H2C4HC2H5CHCH5CH3CFeHCH2CNHFeC2H2C7H5NH4CH6NHC5H4NCH2C2HCH5SH3CH5CHCNC2SCH3CSH2CH3FeHC2H3CH3CH2S3FeS2FeS2FeCFeHS2FeHSFeCSHSH2S2CHCH2CH4C3H2CHCNH2C4HCH3C6H4C6H9CHC5H3CHC2FeC2HC2N2C4H2NH6CH5C2FeCH2CH2CHCH3SHCHCH6NHCNHC3SHCH2SH2C2H3CSCHC2HCHSC3HC2H2CH2CH2
_chemical_formula_sum              "C960 S256 Fe128 H1152 N64"
_cell_length_a       48.6752
_cell_length_b       48.3683
_cell_length_c       50.6709
_cell_angle_alpha    89.9361
_cell_angle_beta     89.9482
_cell_angle_gamma    89.8664

_space_group_name_H-M_alt    "P 1"
_space_group_IT_number       1

loop_
  _space_group_symop_operation_xyz
  'x, y, z'

loop_
  _atom_site_type_symbol
  _atom_site_label
  _atom_site_symmetry_multiplicity
  _atom_site_fract_x
  _atom_site_fract_y
  _atom_site_fract_z
  _atom_site_occupancy
  C   C1        1.0  0.41908  0.40421  0.05136  1.0000
  S   S1        1.0  0.01890  0.14570  0.30205  1.0000
  Fe  Fe1       1.0  0.01232  0.09495  0.08439  1.0000
  H   H1        1.0  0.22085  0.42340  0.00809  1.0000
  S   S2        1.0  0.04167  0.08335  0.05071  1.0000
  Fe  Fe2       1.0  0.01071  0.11054  0.14402  1.0000
  H   H2        1.0  0.41228  0.27044  0.20961  1.0000
  S   S3        1.0  0.03880  0.11775  0.17971  1.0000
  H   H3        1.0  0.39808  0.21121  0.31298  1.0000
  S   S4        1.0  0.43053  0.04024  0.13189  1.0000
  H   H4        1.0  0.41513  0.44736  0.10391  1.0000
  H   H5        1.0  0.40344  0.41422  0.03845  1.0000
  S   S5        1.0  0.01181  0.06990  0.12200  1.0000
  S   S6        1.0  0.01544  0.13545  0.10653  1.0000
  Fe  Fe3       1.0  0.37034  0.35207  0.11473  1.0000
  S   S7        1.0  0.41523  0.34087  0.11710  1.0000
  S   S8        1.0  0.35251  0.37616  0.07934  1.0000
  Fe  Fe4       1.0  0.36204  0.34026  0.17536  1.0000
  S   S9        1.0  0.40680  0.33107  0.18048  1.0000
  S   S10       1.0  0.33094  0.32851  0.20767  1.0000
  Fe  Fe5       1.0  0.41483  0.36728  0.15365  1.0000
  S   S11       1.0  0.45011  0.39788  0.15754  1.0000
  Fe  Fe6       1.0  0.40239  0.30558  0.14366  1.0000
  S   S12       1.0  0.41548  0.26148  0.15346  1.0000
  S   S13       1.0  0.37028  0.37887  0.15130  1.0000
  S   S14       1.0  0.35733  0.31461  0.13846  1.0000
  C   C2        1.0  0.45406  0.19138  0.10499  1.0000
  C   C3        1.0  0.44727  0.18754  0.13152  1.0000
  C   C4        1.0  0.43561  0.20935  0.14605  1.0000
  C   C5        1.0  0.43052  0.23513  0.13416  1.0000
  C   C6        1.0  0.43743  0.23906  0.10765  1.0000
  C   C7        1.0  0.44910  0.21718  0.09311  1.0000
  H   H6        1.0  0.45063  0.16766  0.14066  1.0000
  H   H7        1.0  0.43021  0.20621  0.16655  1.0000
  H   H8        1.0  0.43361  0.25883  0.09834  1.0000
  Fe  Fe7       1.0  0.46837  0.06659  0.12459  1.0000
  C   C8        1.0  0.43435  0.00441  0.13835  1.0000
  C   C9        1.0  0.99053  0.99220  0.02455  1.0000
  C   C10       1.0  0.41868  0.44567  0.15964  1.0000
  C   C11       1.0  0.44473  0.43408  0.15597  1.0000
  C   C12       1.0  0.00184  0.15775  0.04346  1.0000
  H   H9        1.0  0.24922  0.31262  0.20705  1.0000
  C   C13       1.0  0.26116  0.40660  0.04321  1.0000
  H   H10       1.0  0.40134  0.43247  0.16393  1.0000
  C   C14       1.0  0.99202  0.00828  0.20079  1.0000
  C   C15       1.0  0.01289  0.04524  0.22608  1.0000
  C   C16       1.0  0.00081  0.15297  0.99478  1.0000
  C   C17       1.0  0.03706  0.07515  0.01660  1.0000
  H   H11       1.0  0.24460  0.24663  0.26929  1.0000
  H   H12       1.0  0.08002  0.06600  0.01079  1.0000
  H   H13       1.0  0.44045  0.39114  0.09772  1.0000
  C   C18       1.0  0.35814  0.34773  0.03150  1.0000
  C   C19       1.0  0.35224  0.37270  0.04424  1.0000
  C   C20       1.0  0.34465  0.39570  0.02873  1.0000
  H   H14       1.0  0.36396  0.32982  0.04303  1.0000
  H   H15       1.0  0.34007  0.41515  0.03831  1.0000
  C   C21       1.0  0.02504  0.13903  0.26788  1.0000
  H   H16       1.0  0.99533  0.20414  0.01443  1.0000
  C   C22       1.0  0.00610  0.12835  0.22404  1.0000
  C   C23       1.0  0.03259  0.12671  0.21337  1.0000
  C   C24       1.0  0.05518  0.13149  0.23010  1.0000
  C   C25       1.0  0.05148  0.13777  0.25711  1.0000
  S   S15       1.0  0.47614  0.10782  0.14409  1.0000
  H   H17       1.0  0.28097  0.36573  0.26713  1.0000
  H   H18       1.0  0.07578  0.13025  0.22212  1.0000
  H   H19       1.0  0.06912  0.14125  0.26964  1.0000
  C   C26       1.0  0.33339  0.32596  0.29876  1.0000
  C   C27       1.0  0.34522  0.34817  0.28489  1.0000
  C   C28       1.0  0.34641  0.34830  0.25704  1.0000
  C   C29       1.0  0.33531  0.32637  0.24258  1.0000
  C   C30       1.0  0.32412  0.30378  0.25649  1.0000
  C   C31       1.0  0.32359  0.30334  0.28440  1.0000
  H   H20       1.0  0.35300  0.36575  0.29574  1.0000
  H   H21       1.0  0.35470  0.36603  0.24674  1.0000
  H   H22       1.0  0.31517  0.28686  0.24555  1.0000
  H   H23       1.0  0.31476  0.28597  0.29474  1.0000
  C   C32       1.0  0.46709  0.45163  0.15065  1.0000
  H   H24       1.0  0.00565  0.23173  0.27686  1.0000
  C   C33       1.0  0.45700  0.99953  0.07443  1.0000
  H   H25       1.0  0.19880  0.29978  0.29821  1.0000
  H   H26       1.0  0.26503  0.40568  0.08566  1.0000
  H   H27       1.0  0.29466  0.43305  0.99463  1.0000
  C   C34       1.0  0.26552  0.34138  0.23507  1.0000
  H   H28       1.0  0.47185  0.00803  0.08906  1.0000
  H   H29       1.0  0.00810  0.13579  0.04649  1.0000
  H   H30       1.0  0.43759  0.99538  0.08525  1.0000
  C   C35       1.0  0.41071  0.26771  0.23081  1.0000
  C   C36       1.0  0.42088  0.24385  0.24273  1.0000
  C   C37       1.0  0.26110  0.32869  0.28111  1.0000
  H   H31       1.0  0.29803  0.33555  0.04506  1.0000
  C   C38       1.0  0.02850  0.14341  0.99530  1.0000
  H   H32       1.0  0.45472  0.46870  0.09510  1.0000
  H   H33       1.0  0.39219  0.99502  0.12887  1.0000
  H   H34       1.0  0.39033  0.30659  0.23668  1.0000
  H   H35       1.0  0.39312  0.44683  0.07551  1.0000
  H   H36       1.0  0.35948  0.32598  0.99424  1.0000
  H   H37       1.0  0.20202  0.26458  0.30934  1.0000
  N   N1        1.0  0.25923  0.40659  0.99360  1.0000
  C   C39       1.0  0.26879  0.39477  0.06732  1.0000
  C   C40       1.0  0.27206  0.43436  0.99179  1.0000
  C   C41       1.0  0.25209  0.25546  0.28815  1.0000
  C   C42       1.0  0.41510  0.47452  0.15828  1.0000
  H   H38       1.0  0.02885  0.03138  0.23454  1.0000
  N   N2        1.0  0.00410  0.03634  0.19940  1.0000
  H   H39       1.0  0.45424  0.22025  0.07253  1.0000
  H   H40       1.0  0.36677  0.23083  0.30986  1.0000
  H   H41       1.0  0.21853  0.38946  0.99389  1.0000
  C   C43       1.0  0.35550  0.34560  0.00377  1.0000
  H   H42       1.0  0.23284  0.28006  0.24047  1.0000
  C   C44       1.0  0.34260  0.39370  0.00098  1.0000
  H   H43       1.0  0.26383  0.44907  0.00663  1.0000
  C   C45       1.0  0.45705  0.46882  0.07391  1.0000
  S   S16       1.0  0.46816  0.16427  0.08595  1.0000
  S   S17       1.0  0.47119  0.08382  0.08356  1.0000
  C   C46       1.0  0.46336  0.48047  0.14865  1.0000
  H   H44       1.0  0.03673  0.05728  0.17834  1.0000
  H   H45       1.0  0.36718  0.28127  0.32167  1.0000
  H   H46       1.0  0.42665  0.22132  0.27841  1.0000
  H   H47       1.0  0.39492  0.48333  0.16159  1.0000
  C   C47       1.0  0.41851  0.24019  0.27004  1.0000
  C   C48       1.0  0.24309  0.29857  0.24711  1.0000
  C   C49       1.0  0.25206  0.31719  0.22781  1.0000
  H   H48       1.0  0.99711  0.22341  0.18403  1.0000
  C   C50       1.0  0.20911  0.27966  0.29408  1.0000
  N   N3        1.0  0.38855  0.12148  0.12909  1.0000
  C   C51       1.0  0.36404  0.10346  0.12719  1.0000
  C   C52       1.0  0.40720  0.11426  0.10690  1.0000
  C   C53       1.0  0.40328  0.11493  0.15400  1.0000
  C   C54       1.0  0.37983  0.15086  0.12897  1.0000
  C   C55       1.0  0.36440  0.16182  0.15037  1.0000
  C   C56       1.0  0.38611  0.16933  0.10793  1.0000
  C   C57       1.0  0.35692  0.18975  0.15124  1.0000
  C   C58       1.0  0.37818  0.19713  0.10887  1.0000
  C   C59       1.0  0.36400  0.20742  0.13063  1.0000
  H   H49       1.0  0.35227  0.10782  0.10881  1.0000
  H   H50       1.0  0.36993  0.08113  0.12702  1.0000
  H   H51       1.0  0.34978  0.10642  0.14411  1.0000
  H   H52       1.0  0.42608  0.12721  0.10714  1.0000
  H   H53       1.0  0.39698  0.11672  0.08741  1.0000
  H   H54       1.0  0.41403  0.09229  0.10791  1.0000
  H   H55       1.0  0.38965  0.11545  0.17157  1.0000
  H   H56       1.0  0.41232  0.09371  0.15371  1.0000
  H   H57       1.0  0.42030  0.12980  0.15745  1.0000
  H   H58       1.0  0.35826  0.14893  0.16675  1.0000
  H   H59       1.0  0.39790  0.16317  0.09083  1.0000
  H   H60       1.0  0.34585  0.19793  0.16811  1.0000
  H   H61       1.0  0.38399  0.21108  0.09305  1.0000
  H   H62       1.0  0.35894  0.22926  0.13169  1.0000
  N   N4        1.0  0.43088  0.42415  0.07053  1.0000
  C   C60       1.0  0.40795  0.43436  0.08726  1.0000
  H   H63       1.0  0.99464  0.07819  0.18746  1.0000
  C   C61       1.0  0.45052  0.40868  0.08737  1.0000
  C   C62       1.0  0.44534  0.44770  0.05804  1.0000
  C   C63       1.0  0.01149  0.07694  0.00410  1.0000
  H   H64       1.0  0.27342  0.35524  0.22004  1.0000
  H   H65       1.0  0.28572  0.35530  0.00288  1.0000
  H   H66       1.0  0.44107  0.43504  0.01656  1.0000
  H   H67       1.0  0.04007  0.14108  0.01336  1.0000
  H   H68       1.0  0.25113  0.42653  0.04375  1.0000
  H   H69       1.0  0.39627  0.41700  0.09644  1.0000
  C   C64       1.0  0.06013  0.06763  0.00139  1.0000
  C   C65       1.0  0.26978  0.34723  0.26164  1.0000
  N   N5        1.0  0.23943  0.28268  0.29429  1.0000
  H   H70       1.0  0.04212  0.45478  0.03361  1.0000
  H   H71       1.0  0.43522  0.39450  0.03885  1.0000
  H   H72       1.0  0.27485  0.25715  0.28682  1.0000
  H   H73       1.0  0.40844  0.38683  0.06157  1.0000
  C   C66       1.0  0.27995  0.36691  0.02023  1.0000
  C   C67       1.0  0.00241  0.13428  0.25113  1.0000
  C   C68       1.0  0.24785  0.30345  0.27435  1.0000
  H   H74       1.0  0.98847  0.12486  0.21153  1.0000
  H   H75       1.0  0.47710  0.00667  0.14891  1.0000
  C   C69       1.0  0.28187  0.36915  0.06793  1.0000
  C   C70       1.0  0.02847  0.03607  0.18172  1.0000
  C   C71       1.0  0.40567  0.26042  0.28626  1.0000
  H   H76       1.0  0.38587  0.30133  0.28399  1.0000
  C   C72       1.0  0.39580  0.28468  0.27346  1.0000
  C   C73       1.0  0.44943  0.44985  0.03029  1.0000
  C   C74       1.0  0.39831  0.28809  0.24614  1.0000
  H   H77       1.0  0.45950  0.42176  0.10311  1.0000
  H   H78       1.0  0.02322  0.02710  0.16213  1.0000
  H   H79       1.0  0.26600  0.33427  0.30120  1.0000
  H   H80       1.0  0.02189  0.06645  0.22569  1.0000
  H   H81       1.0  0.20135  0.27206  0.27480  1.0000
  N   N6        1.0  0.40293  0.25575  0.31505  1.0000
  C   C75       1.0  0.04577  0.46740  0.01636  1.0000
  H   H82       1.0  0.04585  0.02391  0.18990  1.0000
  H   H83       1.0  0.43048  0.22807  0.23060  1.0000
  H   H84       1.0  0.98878  0.25369  0.12287  1.0000
  H   H85       1.0  0.02059  0.17086  0.04328  1.0000
  H   H86       1.0  0.47914  0.17101  0.17913  1.0000
  H   H87       1.0  0.24738  0.23975  0.30362  1.0000
  H   H88       1.0  0.02403  0.48242  0.06613  1.0000
  H   H89       1.0  0.99350  0.08217  0.01550  1.0000
  C   C76       1.0  0.28715  0.35515  0.04448  1.0000
  H   H90       1.0  0.01207  0.24938  0.32319  1.0000
  C   C77       1.0  0.22896  0.40984  0.99220  1.0000
  C   C78       1.0  0.26685  0.39322  0.01887  1.0000
  H   H91       1.0  0.06118  0.47985  0.06899  1.0000
  H   H92       1.0  0.28864  0.36042  0.08656  1.0000
  H   H93       1.0  0.46791  0.40026  0.07557  1.0000
  H   H94       1.0  0.45255  0.01620  0.05989  1.0000
  C   C79       1.0  0.04785  0.45351  0.99218  1.0000
  H   H95       1.0  0.99797  0.20126  0.31068  1.0000
  H   H96       1.0  0.46822  0.47253  0.99830  1.0000
  C   C80       1.0  0.46503  0.47136  0.01945  1.0000
  H   H97       1.0  0.98688  0.26278  0.27211  1.0000
  H   H98       1.0  0.00288  0.03006  0.04340  1.0000
  H   H99       1.0  0.99522  0.04555  0.24005  1.0000
  C   C81       1.0  0.98778  0.01358  0.04277  1.0000
  H   H100      1.0  0.48528  0.25811  0.23242  1.0000
  H   H101      1.0  0.47890  0.27382  0.14949  1.0000
  C   C82       1.0  0.24773  0.29008  0.32154  1.0000
  H   H102      1.0  0.98983  0.16403  0.06119  1.0000
  Fe  Fe8       1.0  0.48326  0.12365  0.10304  1.0000
  C   C83       1.0  0.45966  0.99325  0.14592  1.0000
  H   H103      1.0  0.04603  0.43116  0.99152  1.0000
  H   H104      1.0  0.44355  0.27123  0.32280  1.0000
  C   C84       1.0  0.38711  0.23003  0.31988  1.0000
  H   H105      1.0  0.47068  0.28826  0.19543  1.0000
  H   H106      1.0  0.00773  0.99238  0.01089  1.0000
  H   H107      1.0  0.98891  0.27765  0.31897  1.0000
  C   C85       1.0  0.48106  0.26882  0.19150  1.0000
  H   H108      1.0  0.44180  0.23424  0.31976  1.0000
  H   H109      1.0  0.27045  0.29235  0.32315  1.0000
  Fe  Fe9       1.0  0.21841  0.37628  0.63617  1.0000
  S   S18       1.0  0.26168  0.39130  0.63201  1.0000
  S   S19       1.0  0.18198  0.40477  0.62819  1.0000
  H   H110      1.0  0.28128  0.40787  0.57304  1.0000
  C   C86       1.0  0.00027  0.14760  0.47506  1.0000
  H   H111      1.0  0.29585  0.25321  0.61421  1.0000
  C   C87       1.0  0.27917  0.39945  0.51826  1.0000
  Fe  Fe10      1.0  0.26935  0.35117  0.61054  1.0000
  S   S20       1.0  0.29645  0.34707  0.57372  1.0000
  C   C88       1.0  0.26410  0.37926  0.47702  1.0000
  S   S21       1.0  0.22546  0.33732  0.61237  1.0000
  Fe  Fe11      1.0  0.16427  0.07794  0.60410  1.0000
  S   S22       1.0  0.12072  0.06284  0.60412  1.0000
  S   S23       1.0  0.20108  0.04925  0.59929  1.0000
  N   N7        1.0  0.99016  0.17593  0.46941  1.0000
  S   S24       1.0  0.10264  0.12464  0.62045  1.0000
  H   H112      1.0  0.45277  0.16044  0.42905  1.0000
  H   H113      1.0  0.19996  0.17826  0.64938  1.0000
  Fe  Fe12      1.0  0.11071  0.10240  0.58209  1.0000
  S   S25       1.0  0.07997  0.11370  0.54937  1.0000
  C   C89       1.0  0.41999  0.18018  0.44881  1.0000
  S   S26       1.0  0.15474  0.11555  0.57923  1.0000
  Fe  Fe13      1.0  0.29610  0.28416  0.42119  1.0000
  S   S27       1.0  0.29659  0.23819  0.41392  1.0000
  S   S28       1.0  0.27251  0.29857  0.45825  1.0000
  Fe  Fe14      1.0  0.31657  0.29571  0.36403  1.0000
  S   S29       1.0  0.31760  0.25090  0.35364  1.0000
  Fe  Fe15      1.0  0.27725  0.24785  0.37491  1.0000
  S   S30       1.0  0.24591  0.21871  0.35707  1.0000
  Fe  Fe16      1.0  0.33696  0.24490  0.39337  1.0000
  S   S31       1.0  0.36888  0.21068  0.39451  1.0000
  S   S32       1.0  0.27445  0.29344  0.38263  1.0000
  S   S33       1.0  0.33846  0.29032  0.40324  1.0000
  C   C90       1.0  0.00354  0.13719  0.50116  1.0000
  H   H114      1.0  0.16116  0.26961  0.37879  1.0000
  Fe  Fe17      1.0  0.06672  0.14973  0.39453  1.0000
  S   S34       1.0  0.06630  0.19479  0.40432  1.0000
  S   S35       1.0  0.08434  0.11810  0.42366  1.0000
  Fe  Fe18      1.0  0.02562  0.19633  0.38354  1.0000
  H   H115      1.0  0.38662  0.27428  0.35070  1.0000
  Fe  Fe19      1.0  0.08523  0.20042  0.36435  1.0000
  H   H116      1.0  0.20722  0.43883  0.53818  1.0000
  S   S36       1.0  0.02406  0.15061  0.37694  1.0000
  S   S37       1.0  0.08745  0.15500  0.35476  1.0000
  C   C91       1.0  0.21006  0.22334  0.35964  1.0000
  C   C92       1.0  0.19263  0.20226  0.35067  1.0000
  C   C93       1.0  0.16391  0.20523  0.35214  1.0000
  C   C94       1.0  0.15248  0.22959  0.36214  1.0000
  C   C95       1.0  0.16993  0.25072  0.37101  1.0000
  C   C96       1.0  0.19864  0.24753  0.37005  1.0000
  H   H117      1.0  0.18011  0.03249  0.65020  1.0000
  C   C97       1.0  0.01939  0.10366  0.45893  1.0000
  C   C98       1.0  0.21501  0.21993  0.65483  1.0000
  H   H118      1.0  0.29189  0.22001  0.59847  1.0000
  C   C99       1.0  0.40457  0.21633  0.39259  1.0000
  C   C100      1.0  0.41652  0.24038  0.40253  1.0000
  C   C101      1.0  0.44528  0.24309  0.40272  1.0000
  C   C102      1.0  0.46218  0.22203  0.39261  1.0000
  C   C103      1.0  0.45019  0.19831  0.38197  1.0000
  C   C104      1.0  0.42145  0.19540  0.38217  1.0000
  H   H119      1.0  0.40369  0.25648  0.41082  1.0000
  H   H120      1.0  0.45449  0.26148  0.41099  1.0000
  H   H121      1.0  0.46305  0.18201  0.37408  1.0000
  C   C105      1.0  0.23067  0.39767  0.50775  1.0000
  C   C106      1.0  0.08655  0.11749  0.51491  1.0000
  C   C107      1.0  0.07578  0.14052  0.50129  1.0000
  C   C108      1.0  0.07604  0.14168  0.47340  1.0000
  C   C109      1.0  0.08634  0.11941  0.45878  1.0000
  C   C110      1.0  0.09805  0.09693  0.47238  1.0000
  C   C111      1.0  0.09830  0.09601  0.50022  1.0000
  H   H122      1.0  0.06629  0.15707  0.51238  1.0000
  H   H123      1.0  0.06722  0.15918  0.46322  1.0000
  H   H124      1.0  0.10618  0.07961  0.46132  1.0000
  H   H125      1.0  0.10620  0.07793  0.51030  1.0000
  C   C112      1.0  0.28934  0.33316  0.54187  1.0000
  C   C113      1.0  0.26258  0.32765  0.53331  1.0000
  C   C114      1.0  0.25800  0.31671  0.50787  1.0000
  C   C115      1.0  0.27999  0.31129  0.49050  1.0000
  C   C116      1.0  0.30676  0.31665  0.49910  1.0000
  C   C117      1.0  0.31135  0.32759  0.52458  1.0000
  H   H126      1.0  0.24536  0.33218  0.54609  1.0000
  H   H127      1.0  0.23718  0.31289  0.50138  1.0000
  H   H128      1.0  0.32390  0.31272  0.48601  1.0000
  H   H129      1.0  0.33214  0.33187  0.53089  1.0000
  C   C118      1.0  0.45788  0.19666  0.48691  1.0000
  H   H130      1.0  0.23867  0.22253  0.41740  1.0000
  H   H131      1.0  0.18593  0.27789  0.62882  1.0000
  Fe  Fe20      1.0  0.14700  0.13735  0.61763  1.0000
  H   H132      1.0  0.42941  0.25051  0.34882  1.0000
  C   C119      1.0  0.17086  0.23624  0.62349  1.0000
  C   C120      1.0  0.25401  0.27782  0.58747  1.0000
  H   H133      1.0  0.28761  0.27528  0.54616  1.0000
  C   C121      1.0  0.01448  0.11083  0.50575  1.0000
  H   H134      1.0  0.26885  0.36851  0.45878  1.0000
  C   C122      1.0  0.18628  0.44053  0.62162  1.0000
  C   C123      1.0  0.21174  0.45347  0.62453  1.0000
  C   C124      1.0  0.22101  0.21822  0.42978  1.0000
  C   C125      1.0  0.19644  0.01292  0.59877  1.0000
  H   H135      1.0  0.22271  0.45405  0.56627  1.0000
  H   H136      1.0  0.21185  0.26379  0.37727  1.0000
  C   C126      1.0  0.26859  0.42620  0.56748  1.0000
  C   C127      1.0  0.16360  0.45637  0.61334  1.0000
  H   H137      1.0  0.15380  0.01453  0.58775  1.0000
  H   H138      1.0  0.22533  0.22510  0.59770  1.0000
  H   H139      1.0  0.40517  0.17405  0.43392  1.0000
  C   C128      1.0  0.44758  0.17246  0.44629  1.0000
  H   H140      1.0  0.22919  0.25195  0.45623  1.0000
  H   H141      1.0  0.22058  0.37850  0.47054  1.0000
  C   C129      1.0  0.29422  0.26340  0.56385  1.0000
  S   S38       1.0  0.04447  0.20596  0.34443  1.0000
  H   H142      1.0  0.26240  0.43620  0.58640  1.0000
  C   C130      1.0  0.21457  0.48181  0.61887  1.0000
  H   H143      1.0  0.02043  0.18387  0.43928  1.0000
  H   H144      1.0  0.23831  0.45844  0.53436  1.0000
  C   C131      1.0  0.18916  0.25623  0.63321  1.0000
  C   C132      1.0  0.28516  0.38668  0.49416  1.0000
  H   H145      1.0  0.15364  0.24268  0.61143  1.0000
  C   C133      1.0  0.17097  0.00131  0.59265  1.0000
  H   H146      1.0  0.29649  0.40363  0.53093  1.0000
  C   C134      1.0  0.22822  0.39801  0.56718  1.0000
  H   H147      1.0  0.39958  0.29852  0.32722  1.0000
  C   C135      1.0  0.22974  0.22131  0.57716  1.0000
  H   H148      1.0  0.22296  0.40634  0.58700  1.0000
  H   H149      1.0  0.20923  0.40101  0.51232  1.0000
  H   H150      1.0  0.19497  0.19396  0.57384  1.0000
  H   H151      1.0  0.18814  0.24294  0.48384  1.0000
  C   C136      1.0  0.25235  0.23418  0.56447  1.0000
  H   H152      1.0  0.42350  0.21712  0.50549  1.0000
  H   H153      1.0  0.24412  0.28786  0.57016  1.0000
  H   H154      1.0  0.20884  0.18484  0.40580  1.0000
  C   C137      1.0  0.28115  0.23966  0.60344  1.0000
  H   H155      1.0  0.15063  0.18898  0.34498  1.0000
  C   C138      1.0  0.25596  0.22851  0.53711  1.0000
  H   H156      1.0  0.27223  0.23765  0.52553  1.0000
  C   C139      1.0  0.00865  0.13001  0.45410  1.0000
  C   C140      1.0  0.21638  0.19817  0.53688  1.0000
  C   C141      1.0  0.21871  0.99532  0.60441  1.0000
  H   H157      1.0  0.47172  0.20341  0.50224  1.0000
  Fe  Fe21      1.0  0.23737  0.31780  0.65107  1.0000
  C   C142      1.0  0.02241  0.09414  0.48470  1.0000
  H   H158      1.0  0.17495  0.14189  0.46219  1.0000
  C   C143      1.0  0.22746  0.44337  0.54729  1.0000
  C   C144      1.0  0.41142  0.19641  0.46992  1.0000
  C   C145      1.0  0.21117  0.24815  0.64913  1.0000
  C   C146      1.0  0.19685  0.19989  0.64485  1.0000
  H   H159      1.0  0.24004  0.37851  0.57008  1.0000
  H   H160      1.0  0.26476  0.23482  0.61805  1.0000
  H   H161      1.0  0.14386  0.44650  0.61078  1.0000
  H   H162      1.0  0.03074  0.19329  0.47203  1.0000
  H   H163      1.0  0.30762  0.24601  0.55740  1.0000
  H   H164      1.0  0.15657  0.20541  0.47278  1.0000
  H   H165      1.0  0.30724  0.27792  0.57549  1.0000
  C   C147      1.0  0.23537  0.00181  0.52955  1.0000
  Fe  Fe22      1.0  0.11726  0.08680  0.64228  1.0000
  H   H166      1.0  0.30623  0.38163  0.48911  1.0000
  H   H167      1.0  0.26707  0.29358  0.59741  1.0000
  H   H168      1.0  0.41227  0.17668  0.37457  1.0000
  C   C148      1.0  0.23690  0.38476  0.48379  1.0000
  H   H169      1.0  0.20268  0.18434  0.52645  1.0000
  H   H170      1.0  0.24138  0.20659  0.50283  1.0000
  C   C149      1.0  0.21212  0.20354  0.56357  1.0000
  N   N8        1.0  0.27029  0.25337  0.57935  1.0000
  H   H171      1.0  0.03191  0.07422  0.48843  1.0000
  N   N9        1.0  0.24433  0.41811  0.55146  1.0000
  H   H172      1.0  0.99634  0.19434  0.50776  1.0000
  H   H173      1.0  0.22931  0.44174  0.63119  1.0000
  H   H174      1.0  0.02670  0.09107  0.44262  1.0000
  H   H175      1.0  0.23776  0.30957  0.32829  1.0000
  C   C150      1.0  0.43028  0.20450  0.48905  1.0000
  C   C151      1.0  0.46750  0.18075  0.46523  1.0000
  H   H176      1.0  0.23742  0.27240  0.60164  1.0000
  H   H177      1.0  0.39010  0.20284  0.47127  1.0000
  S   S39       1.0  0.99190  0.22456  0.39858  1.0000
  H   H178      1.0  0.01803  0.10373  0.52580  1.0000
  C   C152      1.0  0.25162  0.40545  0.52576  1.0000
  C   C153      1.0  0.23820  0.21068  0.52367  1.0000
  C   C154      1.0  0.01294  0.19252  0.45827  1.0000
  S   S40       1.0  0.11663  0.23489  0.36293  1.0000
  Fe  Fe23      1.0  0.04449  0.16002  0.33773  1.0000
  S   S41       1.0  0.16114  0.10122  0.64258  1.0000
  S   S42       1.0  0.15025  0.18429  0.61705  1.0000
  H   H179      1.0  0.00797  0.13682  0.43382  1.0000
  C   C155      1.0  0.17455  0.20806  0.62931  1.0000
  H   H180      1.0  0.20839  0.39255  0.55770  1.0000
  N   N10       1.0  0.15980  0.16872  0.43151  1.0000
  C   C156      1.0  0.13330  0.18159  0.42395  1.0000
  C   C157      1.0  0.16892  0.15115  0.40908  1.0000
  C   C158      1.0  0.15517  0.15015  0.45446  1.0000
  C   C159      1.0  0.17957  0.19077  0.43849  1.0000
  C   C160      1.0  0.20344  0.19646  0.42325  1.0000
  C   C161      1.0  0.17462  0.20812  0.46062  1.0000
  C   C162      1.0  0.19247  0.22974  0.46706  1.0000
  C   C163      1.0  0.21559  0.23485  0.45158  1.0000
  H   H181      1.0  0.13603  0.19644  0.40731  1.0000
  H   H182      1.0  0.11818  0.16578  0.41750  1.0000
  H   H183      1.0  0.12365  0.19314  0.44048  1.0000
  H   H184      1.0  0.17083  0.16334  0.39054  1.0000
  H   H185      1.0  0.15379  0.13446  0.40470  1.0000
  H   H186      1.0  0.18893  0.14091  0.41333  1.0000
  H   H187      1.0  0.14421  0.16055  0.47095  1.0000
  H   H188      1.0  0.14211  0.13212  0.44909  1.0000
  H   H189      1.0  0.38310  0.22672  0.34128  1.0000
  H   H190      1.0  0.28175  0.44129  0.55677  1.0000
  H   H191      1.0  0.23857  0.00413  0.60889  1.0000
  H   H192      1.0  0.24161  0.27387  0.33597  1.0000
  C   C164      1.0  0.16627  0.48494  0.60830  1.0000
  S   S43       1.0  0.28185  0.33007  0.64831  1.0000
  H   H193      1.0  0.20138  0.18353  0.34251  1.0000
  H   H194      1.0  0.22929  0.02340  0.52930  1.0000
  C   C165      1.0  0.38850  0.27850  0.32913  1.0000
  H   H195      1.0  0.27705  0.00998  0.51817  1.0000
  H   H196      1.0  0.00646  0.21420  0.45400  1.0000
  C   C166      1.0  0.26226  0.99420  0.52348  1.0000
  S   S44       1.0  0.33070  0.32797  0.33384  1.0000
  C   C167      1.0  0.43060  0.25280  0.32701  1.0000
  H   H197      1.0  0.99862  0.14919  0.51847  1.0000
  C   C168      1.0  0.98999  0.25526  0.32381  1.0000
  S   S45       1.0  0.29234  0.39205  0.70279  1.0000
  S   S46       1.0  0.09888  0.06179  0.67674  1.0000
  Fe  Fe24      1.0  0.30706  0.39710  0.86274  1.0000
  S   S47       1.0  0.29810  0.44250  0.86578  1.0000
  S   S48       1.0  0.29381  0.37056  0.82754  1.0000
  Fe  Fe25      1.0  0.32750  0.39402  0.92139  1.0000
  S   S49       1.0  0.31977  0.43927  0.92776  1.0000
  S   S50       1.0  0.34281  0.36412  0.95357  1.0000
  Fe  Fe26      1.0  0.28021  0.43274  0.90558  1.0000
  S   S51       1.0  0.23935  0.44616  0.92315  1.0000
  Fe  Fe27      1.0  0.33863  0.44467  0.88744  1.0000
  C   C169      1.0  0.37251  0.38717  0.80645  1.0000
  S   S52       1.0  0.28671  0.38703  0.90152  1.0000
  S   S53       1.0  0.34888  0.39966  0.88197  1.0000
  Fe  Fe28      1.0  0.07513  0.04439  0.83584  1.0000
  H   H198      1.0  0.43416  0.99921  0.82608  1.0000
  S   S54       1.0  0.08571  0.07454  0.80198  1.0000
  Fe  Fe29      1.0  0.05335  0.04113  0.89385  1.0000
  C   C170      1.0  0.19092  0.24023  0.71621  1.0000
  S   S55       1.0  0.02935  0.06460  0.92610  1.0000
  C   C171      1.0  0.00132  0.14544  0.94680  1.0000
  C   C172      1.0  0.34741  0.36845  0.98832  1.0000
  C   C173      1.0  0.19170  0.21381  0.72713  1.0000
  C   C174      1.0  0.35737  0.35844  0.77024  1.0000
  S   S56       1.0  0.09574  0.04681  0.87594  1.0000
  S   S57       1.0  0.03269  0.04289  0.85383  1.0000
  C   C175      1.0  0.03257  0.06578  0.96123  1.0000
  C   C176      1.0  0.17394  0.03152  0.67134  1.0000
  C   C177      1.0  0.48333  0.07622  0.93087  1.0000
  H   H199      1.0  0.07600  0.05766  0.96253  1.0000
  C   C178      1.0  0.43418  0.01751  0.91500  1.0000
  H   H200      1.0  0.13694  0.46869  0.65860  1.0000
  H   H201      1.0  0.11579  0.19683  0.65993  1.0000
  H   H202      1.0  0.21884  0.02024  0.87465  1.0000
  C   C179      1.0  0.46440  0.06288  0.88913  1.0000
  S   S58       1.0  0.36729  0.48016  0.87754  1.0000
  C   C180      1.0  0.21372  0.46084  0.90282  1.0000
  C   C181      1.0  0.46056  0.46846  0.87006  1.0000
  H   H203      1.0  0.35372  0.34714  0.81110  1.0000
  C   C182      1.0  0.18642  0.99358  0.81512  1.0000
  H   H204      1.0  0.41791  0.44444  0.76578  1.0000
  S   S59       1.0  0.22550  0.35516  0.67534  1.0000
  H   H205      1.0  0.22349  0.01732  0.66374  1.0000
  H   H206      1.0  0.18962  0.04236  0.68343  1.0000
  H   H207      1.0  0.14282  0.01677  0.71095  1.0000
  H   H208      1.0  0.29075  0.38814  0.96932  1.0000
  H   H209      1.0  0.45362  0.42767  0.88586  1.0000
  H   H210      1.0  0.15471  0.04387  0.67307  1.0000
  H   H211      1.0  0.09616  0.15788  0.71869  1.0000
  H   H212      1.0  0.99073  0.14549  0.92800  1.0000
  C   C183      1.0  0.44415  0.44703  0.88011  1.0000
  C   C184      1.0  0.41557  0.45044  0.88281  1.0000
  H   H213      1.0  0.36167  0.37582  0.73148  1.0000
  C   C185      1.0  0.36095  0.36260  0.79720  1.0000
  H   H214      1.0  0.45173  0.05856  0.96733  1.0000
  H   H215      1.0  0.40321  0.43388  0.89084  1.0000
  C   C186      1.0  0.09838  0.06524  0.71180  1.0000
  C   C187      1.0  0.10281  0.09055  0.72442  1.0000
  C   C188      1.0  0.09943  0.09283  0.75204  1.0000
  C   C189      1.0  0.09225  0.06974  0.76757  1.0000
  C   C190      1.0  0.08920  0.04413  0.75507  1.0000
  C   C191      1.0  0.09172  0.04204  0.72736  1.0000
  H   H216      1.0  0.10788  0.10849  0.71278  1.0000
  H   H217      1.0  0.10201  0.11270  0.76149  1.0000
  H   H218      1.0  0.08438  0.02603  0.76666  1.0000
  H   H219      1.0  0.08812  0.02235  0.71788  1.0000
  C   C192      1.0  0.29198  0.38596  0.73747  1.0000
  C   C193      1.0  0.30198  0.40652  0.75462  1.0000
  C   C194      1.0  0.30262  0.40232  0.78222  1.0000
  C   C195      1.0  0.29352  0.37730  0.79298  1.0000
  C   C196      1.0  0.28344  0.35680  0.77584  1.0000
  C   C197      1.0  0.28250  0.36113  0.74830  1.0000
  H   H220      1.0  0.30942  0.42578  0.74647  1.0000
  H   H221      1.0  0.31045  0.41826  0.79510  1.0000
  H   H222      1.0  0.27637  0.33735  0.78391  1.0000
  H   H223      1.0  0.27484  0.34508  0.73541  1.0000
  H   H224      1.0  0.44570  0.07609  0.89039  1.0000
  C   C198      1.0  0.44913  0.03826  0.92859  1.0000
  H   H225      1.0  0.22248  0.41941  0.97313  1.0000
  H   H226      1.0  0.05474  0.45733  0.95029  1.0000
  C   C199      1.0  0.10645  0.19080  0.67916  1.0000
  H   H227      1.0  0.38433  0.46090  0.76582  1.0000
  H   H228      1.0  0.38769  0.99885  0.96182  1.0000
  C   C200      1.0  0.16550  0.47309  0.89576  1.0000
  H   H229      1.0  0.02892  0.07608  0.76773  1.0000
  H   H230      1.0  0.15441  0.43964  0.74127  1.0000
  H   H231      1.0  0.98968  0.07521  0.96698  1.0000
  C   C201      1.0  0.17383  0.43107  0.74783  1.0000
  H   H232      1.0  0.34750  0.33979  0.76320  1.0000
  H   H233      1.0  0.13958  0.45666  0.69189  1.0000
  C   C202      1.0  0.16938  0.24772  0.69960  1.0000
  C   C203      1.0  0.36539  0.37881  0.75241  1.0000
  H   H234      1.0  0.35206  0.45222  0.80347  1.0000
  H   H235      1.0  0.04185  0.09773  0.72623  1.0000
  H   H236      1.0  0.46700  0.09187  0.93468  1.0000
  H   H237      1.0  0.41085  0.47308  0.78704  1.0000
  H   H238      1.0  0.03838  0.12808  0.93046  1.0000
  C   C204      1.0  0.98825  0.04608  0.79375  1.0000
  C   C205      1.0  0.19374  0.42362  0.72933  1.0000
  H   H239      1.0  0.43233  0.41624  0.80582  1.0000
  N   N11       1.0  0.39247  0.43450  0.79933  1.0000
  C   C206      1.0  0.41650  0.42857  0.81649  1.0000
  C   C207      1.0  0.40176  0.45396  0.77844  1.0000
  H   H240      1.0  0.99333  0.00792  0.72349  1.0000
  C   C208      1.0  0.38104  0.40835  0.78887  1.0000
  C   C209      1.0  0.00936  0.07269  0.97658  1.0000
  C   C210      1.0  0.37708  0.40346  0.76144  1.0000
  C   C211      1.0  0.26802  0.39064  0.97002  1.0000
  C   C212      1.0  0.22078  0.99598  0.66944  1.0000
  H   H241      1.0  0.10458  0.19087  0.73289  1.0000
  H   H242      1.0  0.37830  0.46938  0.82224  1.0000
  C   C213      1.0  0.41939  0.02941  0.96695  1.0000
  H   H243      1.0  0.12515  0.14067  0.67912  1.0000
  C   C214      1.0  0.14877  0.22872  0.69339  1.0000
  H   H244      1.0  0.04206  0.03522  0.79224  1.0000
  H   H245      1.0  0.16934  0.26812  0.69066  1.0000
  H   H246      1.0  0.20394  0.48834  0.84170  1.0000
  H   H247      1.0  0.23196  0.21359  0.66727  1.0000
  N   N12       1.0  0.12764  0.18070  0.69798  1.0000
  H   H248      1.0  0.41083  0.41695  0.83462  1.0000
  N   N13       1.0  0.47252  0.05237  0.91560  1.0000
  H   H249      1.0  0.17261  0.17446  0.73021  1.0000
  C   C215      1.0  0.14900  0.20151  0.70410  1.0000
  C   C216      1.0  0.17103  0.19472  0.72133  1.0000
  H   H250      1.0  0.02469  0.00653  0.80654  1.0000
  C   C217      1.0  0.03049  0.07850  0.72594  1.0000
  C   C218      1.0  0.21877  0.41284  0.73780  1.0000
  C   C219      1.0  0.04189  0.13509  0.97220  1.0000
  C   C220      1.0  0.21994  0.47046  0.87752  1.0000
  H   H251      1.0  0.18986  0.42611  0.70839  1.0000
  C   C221      1.0  0.16114  0.00320  0.70815  1.0000
  H   H252      1.0  0.16775  0.01706  0.87584  1.0000
  S   S60       1.0  0.05597  0.99468  0.89387  1.0000
  Fe  Fe30      1.0  0.26932  0.36854  0.67031  1.0000
  C   C222      1.0  0.01149  0.04031  0.70159  1.0000
  H   H253      1.0  0.26200  0.40124  0.95144  1.0000
  H   H254      1.0  0.43933  0.01175  0.89503  1.0000
  C   C223      1.0  0.40313  0.47520  0.87504  1.0000
  C   C224      1.0  0.05265  0.46818  0.96892  1.0000
  C   C225      1.0  0.14066  0.15586  0.68613  1.0000
  H   H255      1.0  0.16809  0.47351  0.67577  1.0000
  C   C226      1.0  0.11333  0.17248  0.72264  1.0000
  H   H256      1.0  0.36529  0.43697  0.83311  1.0000
  C   C227      1.0  0.18654  0.46263  0.91207  1.0000
  S   S61       1.0  0.00979  0.46560  0.84066  1.0000
  H   H257      1.0  0.14448  0.47357  0.90267  1.0000
  H   H258      1.0  0.09494  0.20881  0.68722  1.0000
  H   H259      1.0  0.99198  0.48165  0.89383  1.0000
  H   H260      1.0  0.20864  0.20803  0.73990  1.0000
  C   C228      1.0  0.44130  0.04355  0.95519  1.0000
  H   H261      1.0  0.48107  0.07524  0.87977  1.0000
  H   H262      1.0  0.00783  0.03015  0.68286  1.0000
  H   H263      1.0  0.19125  0.01537  0.81691  1.0000
  C   C229      1.0  0.40483  0.00959  0.95278  1.0000
  N   N14       1.0  0.21003  0.41174  0.81250  1.0000
  C   C230      1.0  0.23422  0.42843  0.82031  1.0000
  C   C231      1.0  0.18688  0.41943  0.83019  1.0000
  C   C232      1.0  0.21639  0.38213  0.81732  1.0000
  C   C233      1.0  0.20402  0.41623  0.78413  1.0000
  C   C234      1.0  0.17877  0.42754  0.77486  1.0000
  C   C235      1.0  0.22388  0.40925  0.76472  1.0000
  H   H264      1.0  0.38231  0.41848  0.74651  1.0000
  C   C236      1.0  0.02836  0.01751  0.78766  1.0000
  C   C237      1.0  0.20913  0.00050  0.87823  1.0000
  H   H265      1.0  0.23069  0.45081  0.81641  1.0000
  H   H266      1.0  0.23899  0.42599  0.84169  1.0000
  H   H267      1.0  0.25320  0.42217  0.80963  1.0000
  H   H268      1.0  0.18112  0.44157  0.82788  1.0000
  H   H269      1.0  0.19224  0.41666  0.85143  1.0000
  H   H270      1.0  0.16834  0.40665  0.82634  1.0000
  H   H271      1.0  0.23523  0.37520  0.80680  1.0000
  H   H272      1.0  0.22039  0.37793  0.83861  1.0000
  H   H273      1.0  0.19923  0.36863  0.81077  1.0000
  H   H274      1.0  0.16245  0.43386  0.78802  1.0000
  H   H275      1.0  0.24359  0.40088  0.77027  1.0000
  C   C238      1.0  0.98778  0.15410  0.96973  1.0000
  C   C239      1.0  0.18017  0.99876  0.87887  1.0000
  H   H276      1.0  0.25834  0.36985  0.96930  1.0000
  C   C240      1.0  0.00326  0.02774  0.72521  1.0000
  C   C241      1.0  0.41231  0.00356  0.92690  1.0000
  H   H277      1.0  0.24090  0.46985  0.87049  1.0000
  H   H278      1.0  0.00184  0.06317  0.80033  1.0000
  H   H279      1.0  0.15417  0.14464  0.70020  1.0000
  H   H280      1.0  0.23438  0.40712  0.72342  1.0000
  Fe  Fe31      1.0  0.03745  0.99677  0.85341  1.0000
  S   S62       1.0  0.23378  0.27260  0.66302  1.0000
  C   C242      1.0  0.02827  0.13583  0.94807  1.0000
  S   S63       1.0  0.07862  0.99824  0.83286  1.0000
  H   H281      1.0  0.00647  0.47224  0.92494  1.0000
  H   H282      1.0  0.42653  0.44790  0.82353  1.0000
  N   N15       1.0  0.16993  0.00249  0.68012  1.0000
  C   C243      1.0  0.37113  0.44882  0.81516  1.0000
  H   H283      1.0  0.18163  0.45540  0.93171  1.0000
  C   C244      1.0  0.17166  0.48197  0.87016  1.0000
  C   C245      1.0  0.14540  0.47381  0.67837  1.0000
  C   C246      1.0  0.05791  0.06275  0.97396  1.0000
  H   H284      1.0  0.37411  0.38967  0.82758  1.0000
  H   H285      1.0  0.20735  0.25480  0.72008  1.0000
  H   H286      1.0  0.26842  0.44418  0.97219  1.0000
  H   H287      1.0  0.15349  0.16165  0.66881  1.0000
  C   C247      1.0  0.19901  0.48110  0.86134  1.0000
  H   H288      1.0  0.09410  0.48545  0.69580  1.0000
  H   H289      1.0  0.13332  0.23573  0.67964  1.0000
  H   H290      1.0  0.17784  0.01125  0.72100  1.0000
  N   N16       1.0  0.00227  0.02660  0.77546  1.0000
  Fe  Fe32      1.0  0.09697  0.00019  0.87355  1.0000
  H   H291      1.0  0.06257  0.12673  0.97317  1.0000
  H   H292      1.0  0.12726  0.16187  0.73681  1.0000
  C   C248      1.0  0.02268  0.06600  0.74966  1.0000
  H   H293      1.0  0.03986  0.00312  0.77456  1.0000
  H   H294      1.0  0.09102  0.17455  0.67448  1.0000
  C   C249      1.0  0.00865  0.04029  0.75005  1.0000
  H   H295      1.0  0.03235  0.07477  0.68369  1.0000
  C   C250      1.0  0.02516  0.06557  0.70197  1.0000
  C   C251      1.0  0.14732  0.99074  0.66404  1.0000
  H   H296      1.0  0.12876  0.00433  0.66410  1.0000
  H   H297      1.0  0.46019  0.04599  0.87479  1.0000
  H   H298      1.0  0.14292  0.00016  0.81936  1.0000
  H   H299      1.0  0.33716  0.41159  0.98933  1.0000
  H   H300      1.0  0.41355  0.03395  0.98715  1.0000
  S   S64       1.0  0.33807  0.81512  0.31257  1.0000
  S   S65       1.0  0.03275  0.62788  0.29575  1.0000
  Fe  Fe33      1.0  0.02732  0.60486  0.07385  1.0000
  C   C252      1.0  0.02208  0.67659  0.99865  1.0000
  S   S66       1.0  0.05691  0.60566  0.03861  1.0000
  Fe  Fe34      1.0  0.02136  0.61219  0.13518  1.0000
  H   H301      1.0  0.02137  0.54393  0.06005  1.0000
  S   S67       1.0  0.04431  0.63236  0.16986  1.0000
  C   C253      1.0  0.09602  0.59662  0.23816  1.0000
  S   S68       1.0  0.43178  0.52819  0.15235  1.0000
  H   H302      1.0  0.16984  0.69934  0.25387  1.0000
  C   C254      1.0  0.45262  0.69596  0.30033  1.0000
  S   S69       1.0  0.03541  0.57721  0.10874  1.0000
  S   S70       1.0  0.01797  0.64106  0.10031  1.0000
  Fe  Fe35      1.0  0.37286  0.85945  0.09786  1.0000
  S   S71       1.0  0.41892  0.86006  0.09803  1.0000
  S   S72       1.0  0.35188  0.88360  0.06426  1.0000
  Fe  Fe36      1.0  0.37101  0.83473  0.15481  1.0000
  S   S73       1.0  0.41706  0.83467  0.15811  1.0000
  S   S74       1.0  0.34264  0.81396  0.18539  1.0000
  Fe  Fe37      1.0  0.41517  0.87689  0.13904  1.0000
  S   S75       1.0  0.44518  0.91078  0.15064  1.0000
  Fe  Fe38      1.0  0.41673  0.81790  0.11679  1.0000
  S   S76       1.0  0.44781  0.78533  0.10408  1.0000
  S   S77       1.0  0.36900  0.87833  0.13859  1.0000
  S   S78       1.0  0.37076  0.81578  0.11378  1.0000
  C   C255      1.0  0.43413  0.69140  0.11024  1.0000
  C   C256      1.0  0.46027  0.70207  0.10511  1.0000
  C   C257      1.0  0.46412  0.73089  0.10325  1.0000
  C   C258      1.0  0.44200  0.74928  0.10685  1.0000
  C   C259      1.0  0.41588  0.73858  0.11197  1.0000
  C   C260      1.0  0.41195  0.70977  0.11341  1.0000
  H   H303      1.0  0.09075  0.51587  0.04624  1.0000
  C   C261      1.0  0.42466  0.53880  0.01710  1.0000
  H   H304      1.0  0.39867  0.75249  0.11463  1.0000
  C   C262      1.0  0.30449  0.82307  0.08827  1.0000
  Fe  Fe39      1.0  0.46008  0.62120  0.11704  1.0000
  C   C263      1.0  0.09674  0.60308  0.26491  1.0000
  C   C264      1.0  0.41473  0.95782  0.13844  1.0000
  C   C265      1.0  0.44001  0.94674  0.14634  1.0000
  H   H305      1.0  0.01258  0.68673  0.19378  1.0000
  Fe  Fe40      1.0  0.99055  0.56605  0.10534  1.0000
  H   H306      1.0  0.03400  0.65684  0.99863  1.0000
  H   H307      1.0  0.39738  0.94424  0.13543  1.0000
  C   C266      1.0  0.40238  0.86421  0.99204  1.0000
  S   S79       1.0  0.45506  0.57989  0.09695  1.0000
  H   H308      1.0  0.10840  0.60862  0.19918  1.0000
  C   C267      1.0  0.05087  0.59466  0.00554  1.0000
  H   H309      1.0  0.40498  0.87120  0.03405  1.0000
  H   H310      1.0  0.16943  0.68063  0.29532  1.0000
  H   H311      1.0  0.38759  0.74404  0.27305  1.0000
  C   C268      1.0  0.26426  0.88272  0.01716  1.0000
  C   C269      1.0  0.34202  0.87658  0.03105  1.0000
  H   H312      1.0  0.40041  0.77313  0.18307  1.0000
  H   H313      1.0  0.34337  0.83220  0.03388  1.0000
  H   H314      1.0  0.33824  0.91989  0.02150  1.0000
  C   C270      1.0  0.03433  0.63104  0.26070  1.0000
  C   C271      1.0  0.02042  0.61160  0.24497  1.0000
  C   C272      1.0  0.02242  0.61221  0.21715  1.0000
  C   C273      1.0  0.03874  0.63210  0.20468  1.0000
  C   C274      1.0  0.05208  0.65200  0.22039  1.0000
  C   C275      1.0  0.04965  0.65169  0.24818  1.0000
  H   H315      1.0  0.00842  0.59557  0.25440  1.0000
  H   H316      1.0  0.01204  0.59674  0.20544  1.0000
  H   H317      1.0  0.06479  0.66747  0.21101  1.0000
  H   H318      1.0  0.06031  0.66685  0.25996  1.0000
  C   C276      1.0  0.33944  0.81380  0.27719  1.0000
  C   C277      1.0  0.35650  0.83257  0.26358  1.0000
  C   C278      1.0  0.35830  0.83249  0.23568  1.0000
  C   C279      1.0  0.34268  0.81388  0.22081  1.0000
  C   C280      1.0  0.32579  0.79496  0.23443  1.0000
  C   C281      1.0  0.32432  0.79474  0.26235  1.0000
  H   H319      1.0  0.36827  0.84750  0.27469  1.0000
  H   H320      1.0  0.37129  0.84730  0.22568  1.0000
  H   H321      1.0  0.31353  0.78048  0.22328  1.0000
  H   H322      1.0  0.31104  0.78019  0.27235  1.0000
  H   H323      1.0  0.14413  0.65765  0.30693  1.0000
  H   H324      1.0  0.41222  0.70547  0.28791  1.0000
  H   H325      1.0  0.09405  0.59280  0.99601  1.0000
  H   H326      1.0  0.02374  0.54555  0.02521  1.0000
  C   C282      1.0  0.44932  0.96444  0.01520  1.0000
  H   H327      1.0  0.42991  0.79676  0.30784  1.0000
  H   H328      1.0  0.48432  0.73901  0.09894  1.0000
  C   C283      1.0  0.02433  0.59061  0.99572  1.0000
  H   H329      1.0  0.36452  0.76270  0.29383  1.0000
  H   H330      1.0  0.10984  0.63106  0.29441  1.0000
  C   C284      1.0  0.41694  0.75801  0.18374  1.0000
  H   H331      1.0  0.43719  0.79375  0.00720  1.0000
  C   C285      1.0  0.40134  0.94202  0.03663  1.0000
  C   C286      1.0  0.26778  0.84211  0.04489  1.0000
  C   C287      1.0  0.10993  0.61319  0.22009  1.0000
  C   C288      1.0  0.26193  0.85426  0.02046  1.0000
  N   N17       1.0  0.04678  0.51219  0.04296  1.0000
  H   H332      1.0  0.12806  0.70932  0.27906  1.0000
  H   H333      1.0  0.29754  0.80604  0.07527  1.0000
  H   H334      1.0  0.42756  0.69023  0.17177  1.0000
  C   C289      1.0  0.41185  0.98660  0.13479  1.0000
  C   C290      1.0  0.15835  0.68142  0.24558  1.0000
  H   H335      1.0  0.14672  0.68983  0.22844  1.0000
  C   C291      1.0  0.04358  0.49435  0.06667  1.0000
  S   S80       1.0  0.42811  0.65539  0.11307  1.0000
  H   H336      1.0  0.39164  0.70167  0.11724  1.0000
  H   H337      1.0  0.13439  0.64850  0.21351  1.0000
  H   H338      1.0  0.25023  0.81490  0.08992  1.0000
  H   H339      1.0  0.45436  0.52246  0.23237  1.0000
  C   C292      1.0  0.44661  0.96345  0.04317  1.0000
  H   H340      1.0  0.32326  0.83212  0.07915  1.0000
  C   C293      1.0  0.03272  0.68494  0.04445  1.0000
  H   H341      1.0  0.26565  0.81995  0.04638  1.0000
  H   H342      1.0  0.27473  0.92126  0.03542  1.0000
  C   C294      1.0  0.12470  0.63628  0.22868  1.0000
  H   H343      1.0  0.10548  0.68225  0.28929  1.0000
  H   H344      1.0  0.08383  0.57932  0.23133  1.0000
  C   C295      1.0  0.42176  0.95227  0.05332  1.0000
  H   H345      1.0  0.38275  0.93322  0.04501  1.0000
  H   H346      1.0  0.05511  0.53303  0.99326  1.0000
  C   C296      1.0  0.47161  0.51112  0.22280  1.0000
  H   H347      1.0  0.47575  0.54611  0.18354  1.0000
  C   C297      1.0  0.43734  0.49204  0.15269  1.0000
  H   H348      1.0  0.37417  0.72859  0.30315  1.0000
  C   C298      1.0  0.00856  0.98528  0.20807  1.0000
  C   C299      1.0  0.45080  0.54939  0.01254  1.0000
  N   N18       1.0  0.40581  0.75917  0.30911  1.0000
  C   C300      1.0  0.46236  0.96462  0.15018  1.0000
  H   H349      1.0  0.46720  0.97299  0.00562  1.0000
  H   H350      1.0  0.99477  0.67600  0.28755  1.0000
  H   H351      1.0  0.48165  0.50593  0.07540  1.0000
  H   H352      1.0  0.00673  0.59472  0.00816  1.0000
  N   N19       1.0  0.13983  0.66872  0.26552  1.0000
  C   C301      1.0  0.15675  0.66256  0.28925  1.0000
  H   H353      1.0  0.02987  0.98789  0.21341  1.0000
  C   C302      1.0  0.11865  0.68944  0.27267  1.0000
  C   C303      1.0  0.12591  0.64344  0.25591  1.0000
  C   C304      1.0  0.11119  0.62625  0.27368  1.0000
  C   C305      1.0  0.02274  0.53098  0.04198  1.0000
  H   H354      1.0  0.01132  0.94098  0.21270  1.0000
  H   H355      1.0  0.07432  0.54539  0.03156  1.0000
  H   H356      1.0  0.44754  0.78778  0.19443  1.0000
  H   H357      1.0  0.04239  0.50687  0.08514  1.0000
  C   C306      1.0  0.38215  0.74795  0.29405  1.0000
  N   N20       1.0  0.01006  0.68237  0.02498  1.0000
  H   H358      1.0  0.08489  0.59086  0.27882  1.0000
  C   C307      1.0  0.40470  0.94311  0.00936  1.0000
  C   C308      1.0  0.05302  0.51085  0.99369  1.0000
  N   N21       1.0  0.28321  0.84468  0.09227  1.0000
  C   C309      1.0  0.25812  0.83149  0.10304  1.0000
  H   H359      1.0  0.45218  0.67553  0.29154  1.0000
  C   C310      1.0  0.29379  0.86405  0.11263  1.0000
  C   C311      1.0  0.27668  0.85818  0.06673  1.0000
  C   C312      1.0  0.27864  0.88723  0.06273  1.0000
  C   C313      1.0  0.33620  0.89900  0.01418  1.0000
  C   C314      1.0  0.04860  0.49662  0.01784  1.0000
  S   S81       1.0  0.46192  0.60239  0.15753  1.0000
  H   H360      1.0  0.46294  0.55715  0.02894  1.0000
  H   H361      1.0  0.10484  0.69398  0.25571  1.0000
  H   H362      1.0  0.26206  0.82176  0.12264  1.0000
  H   H363      1.0  0.24135  0.84697  0.10559  1.0000
  H   H364      1.0  0.42750  0.82639  0.04347  1.0000
  H   H365      1.0  0.31064  0.81321  0.10727  1.0000
  H   H366      1.0  0.42210  0.78198  0.27615  1.0000
  H   H367      1.0  0.31288  0.87454  0.10584  1.0000
  H   H368      1.0  0.27831  0.88008  0.11790  1.0000
  H   H369      1.0  0.29928  0.85315  0.13133  1.0000
  H   H370      1.0  0.28573  0.90113  0.07789  1.0000
  H   H371      1.0  0.00614  0.63894  0.03405  1.0000
  H   H372      1.0  0.47079  0.56590  0.21302  1.0000
  C   C315      1.0  0.33881  0.84970  0.02134  1.0000
  H   H373      1.0  0.04847  0.70023  0.03836  1.0000
  Fe  Fe41      1.0  0.46109  0.56114  0.13704  1.0000
  C   C316      1.0  0.07196  0.52901  0.04678  1.0000
  H   H374      1.0  0.41774  0.95148  0.07433  1.0000
  H   H375      1.0  0.47863  0.68895  0.22533  1.0000
  H   H376      1.0  0.47736  0.49294  0.23510  1.0000
  C   C317      1.0  0.42970  0.74014  0.31033  1.0000
  C   C318      1.0  0.43304  0.71098  0.17761  1.0000
  C   C319      1.0  0.47467  0.95347  0.08182  1.0000
  H   H377      1.0  0.39111  0.72430  0.17207  1.0000
  C   C320      1.0  0.42765  0.81353  0.00281  1.0000
  C   C321      1.0  0.40932  0.52846  0.99610  1.0000
  H   H378      1.0  0.17096  0.64490  0.28562  1.0000
  C   C322      1.0  0.42222  0.83191  0.02331  1.0000
  H   H379      1.0  0.38904  0.52005  0.99977  1.0000
  H   H380      1.0  0.46291  0.50292  0.20401  1.0000
  H   H381      1.0  0.47761  0.52553  0.27080  1.0000
  H   H382      1.0  0.07165  0.54023  0.06599  1.0000
  C   C323      1.0  0.41398  0.78556  0.29640  1.0000
  H   H383      1.0  0.45706  0.94865  0.09492  1.0000
  H   H384      1.0  0.41642  0.53847  0.03700  1.0000
  C   C324      1.0  0.41171  0.73045  0.17766  1.0000
  H   H385      1.0  0.17388  0.66624  0.23841  1.0000
  C   C325      1.0  0.27240  0.89917  0.03828  1.0000
  C   C326      1.0  0.44351  0.76619  0.19016  1.0000
  H   H386      1.0  0.04397  0.66503  0.04717  1.0000
  H   H387      1.0  0.02469  0.69144  0.06407  1.0000
  C   C327      1.0  0.42972  0.71346  0.29846  1.0000
  H   H388      1.0  0.39622  0.80008  0.29470  1.0000
  H   H389      1.0  0.99629  0.73438  0.19723  1.0000
  C   C328      1.0  0.40967  0.85720  0.01792  1.0000
  H   H390      1.0  0.99426  0.74178  0.09668  1.0000
  H   H391      1.0  0.02927  0.73481  0.01514  1.0000
  H   H392      1.0  0.00317  0.51925  0.04034  1.0000
  C   C329      1.0  0.00744  0.73397  0.01892  1.0000
  H   H393      1.0  0.99183  0.95775  0.12846  1.0000
  H   H394      1.0  0.48150  0.93365  0.07278  1.0000
  H   H395      1.0  0.25610  0.84154  0.00376  1.0000
  N   N22       1.0  0.46781  0.97439  0.06133  1.0000
  C   C330      1.0  0.99811  0.95835  0.20794  1.0000
  H   H396      1.0  0.98773  0.69109  0.09796  1.0000
  H   H397      1.0  0.00377  0.77837  0.01598  1.0000
  H   H398      1.0  0.47742  0.68813  0.10223  1.0000
  C   C331      1.0  0.46046  0.71867  0.18397  1.0000
  C   C332      1.0  0.47602  0.70441  0.31387  1.0000
  H   H399      1.0  0.48058  0.49373  0.14406  1.0000
  C   C333      1.0  0.99338  0.65800  0.03273  1.0000
  H   H400      1.0  0.46773  0.67083  0.15474  1.0000
  H   H401      1.0  0.46014  0.66109  0.18845  1.0000
  H   H402      1.0  0.26035  0.89195  0.99800  1.0000
  H   H403      1.0  0.03645  0.69307  0.99216  1.0000
  C   C334      1.0  0.42860  0.95432  0.99866  1.0000
  H   H404      1.0  0.48197  0.95622  0.15634  1.0000
  C   C335      1.0  0.99405  0.70845  0.02400  1.0000
  C   C336      1.0  0.46494  0.74686  0.19050  1.0000
  C   C337      1.0  0.99302  0.69252  0.18514  1.0000
  H   H405      1.0  0.99015  0.77460  0.17383  1.0000
  H   H406      1.0  0.38862  0.93539  0.99654  1.0000
  C   C338      1.0  0.32908  0.84543  0.99540  1.0000
  C   C339      1.0  0.47582  0.67055  0.17529  1.0000
  C   C340      1.0  0.99303  0.75902  0.01910  1.0000
  H   H407      1.0  0.17414  0.75826  0.32283  1.0000
  H   H408      1.0  0.48517  0.75430  0.19554  1.0000
  N   N23       1.0  0.48363  0.69871  0.18417  1.0000
  C   C341      1.0  0.47257  0.49018  0.06286  1.0000
  C   C342      1.0  0.47687  0.49121  0.03574  1.0000
  Fe  Fe42      1.0  0.21328  0.88478  0.61130  1.0000
  S   S82       1.0  0.25919  0.88557  0.61440  1.0000
  S   S83       1.0  0.18459  0.91867  0.59680  1.0000
  Fe  Fe43      1.0  0.21090  0.82383  0.62783  1.0000
  S   S84       1.0  0.25683  0.82068  0.63267  1.0000
  S   S85       1.0  0.17815  0.79055  0.63013  1.0000
  C   C343      1.0  0.15375  0.68421  0.43801  1.0000
  Fe  Fe44      1.0  0.25837  0.84408  0.59388  1.0000
  S   S86       1.0  0.28740  0.83176  0.55987  1.0000
  H   H409      1.0  0.02616  0.70261  0.44719  1.0000
  S   S87       1.0  0.21286  0.84497  0.58843  1.0000
  Fe  Fe45      1.0  0.16671  0.56862  0.60533  1.0000
  S   S88       1.0  0.12132  0.57006  0.59659  1.0000
  S   S89       1.0  0.19716  0.53287  0.60239  1.0000
  Fe  Fe46      1.0  0.16764  0.62902  0.62389  1.0000
  S   S90       1.0  0.12228  0.63401  0.61777  1.0000
  H   H410      1.0  0.03431  0.68710  0.53470  1.0000
  Fe  Fe47      1.0  0.11855  0.59169  0.63615  1.0000
  Fe  Fe48      1.0  0.12936  0.61241  0.57870  1.0000
  S   S91       1.0  0.11296  0.63837  0.54381  1.0000
  H   H411      1.0  0.45684  0.76961  0.40538  1.0000
  S   S92       1.0  0.17512  0.60911  0.58462  1.0000
  Fe  Fe49      1.0  0.29693  0.78342  0.40302  1.0000
  S   S93       1.0  0.30097  0.73721  0.40273  1.0000
  S   S94       1.0  0.27099  0.80189  0.43717  1.0000
  C   C344      1.0  0.03143  0.67094  0.52017  1.0000
  H   H412      1.0  0.37798  0.77941  0.33612  1.0000
  Fe  Fe50      1.0  0.28314  0.73888  0.36205  1.0000
  C   C345      1.0  0.20910  0.73522  0.33709  1.0000
  Fe  Fe51      1.0  0.34177  0.74304  0.38296  1.0000
  S   S95       1.0  0.37529  0.71163  0.39147  1.0000
  S   S96       1.0  0.27702  0.78494  0.36249  1.0000
  S   S97       1.0  0.33970  0.78947  0.38591  1.0000
  N   N24       1.0  0.00459  0.66357  0.44993  1.0000
  H   H413      1.0  0.02565  0.61250  0.46837  1.0000
  Fe  Fe52      1.0  0.07221  0.65402  0.38690  1.0000
  S   S98       1.0  0.07575  0.70027  0.38806  1.0000
  S   S99       1.0  0.08181  0.62476  0.42144  1.0000
  Fe  Fe53      1.0  0.03500  0.70048  0.36710  1.0000
  H   H414      1.0  0.38952  0.74585  0.34636  1.0000
  Fe  Fe54      1.0  0.09369  0.69629  0.34744  1.0000
  N   N25       1.0  0.26085  0.91630  0.53450  1.0000
  S   S100      1.0  0.02995  0.65446  0.36844  1.0000
  S   S101      1.0  0.09328  0.64979  0.34719  1.0000
  C   C346      1.0  0.21807  0.71061  0.34872  1.0000
  H   H415      1.0  0.24709  0.87585  0.54671  1.0000
  H   H416      1.0  0.14876  0.49686  0.60164  1.0000
  C   C347      1.0  0.16168  0.71921  0.33953  1.0000
  C   C348      1.0  0.17059  0.69478  0.35158  1.0000
  C   C349      1.0  0.28431  0.91461  0.55316  1.0000
  H   H417      1.0  0.24033  0.75543  0.40725  1.0000
  H   H418      1.0  0.04969  0.63955  0.54474  1.0000
  C   C350      1.0  0.19941  0.70875  0.46160  1.0000
  Fe  Fe55      1.0  0.32002  0.78708  0.34521  1.0000
  C   C351      1.0  0.41069  0.71916  0.39062  1.0000
  C   C352      1.0  0.42068  0.74511  0.39792  1.0000
  C   C353      1.0  0.44918  0.74966  0.39922  1.0000
  H   H419      1.0  0.04503  0.60284  0.51135  1.0000
  C   C354      1.0  0.45777  0.70268  0.38503  1.0000
  C   C355      1.0  0.42930  0.69805  0.38403  1.0000
  H   H420      1.0  0.40648  0.76141  0.40328  1.0000
  C   C356      1.0  0.22402  0.95381  0.53757  1.0000
  Fe  Fe56      1.0  0.05124  0.65436  0.32875  1.0000
  H   H421      1.0  0.22146  0.89615  0.53057  1.0000
  C   C357      1.0  0.10654  0.63418  0.50933  1.0000
  C   C358      1.0  0.10650  0.60831  0.49702  1.0000
  C   C359      1.0  0.09924  0.60597  0.47010  1.0000
  C   C360      1.0  0.09224  0.62941  0.45497  1.0000
  C   C361      1.0  0.09292  0.65539  0.46713  1.0000
  C   C362      1.0  0.09990  0.65769  0.49411  1.0000
  H   H422      1.0  0.11147  0.59001  0.50836  1.0000
  H   H423      1.0  0.09884  0.58576  0.46098  1.0000
  H   H424      1.0  0.08777  0.67369  0.45591  1.0000
  H   H425      1.0  0.09975  0.67781  0.50339  1.0000
  C   C363      1.0  0.28210  0.82306  0.52593  1.0000
  C   C364      1.0  0.25626  0.82443  0.51384  1.0000
  C   C365      1.0  0.25335  0.81784  0.48679  1.0000
  C   C366      1.0  0.27606  0.80938  0.47142  1.0000
  C   C367      1.0  0.30176  0.80750  0.48366  1.0000
  C   C368      1.0  0.30473  0.81444  0.51063  1.0000
  H   H426      1.0  0.23853  0.83076  0.52521  1.0000
  H   H427      1.0  0.23337  0.81952  0.47761  1.0000
  H   H428      1.0  0.31947  0.80110  0.47225  1.0000
  H   H429      1.0  0.32484  0.81320  0.51966  1.0000
  C   C369      1.0  0.18452  0.75461  0.63151  1.0000
  C   C370      1.0  0.16330  0.73627  0.62488  1.0000
  C   C371      1.0  0.16711  0.70751  0.62687  1.0000
  C   C372      1.0  0.19209  0.69689  0.63600  1.0000
  H   H430      1.0  0.20570  0.67128  0.36484  1.0000
  H   H431      1.0  0.40845  0.62455  0.42657  1.0000
  H   H432      1.0  0.14374  0.74437  0.61825  1.0000
  H   H433      1.0  0.15065  0.69364  0.62154  1.0000
  H   H434      1.0  0.14809  0.96364  0.58708  1.0000
  C   C373      1.0  0.27023  0.96641  0.52457  1.0000
  C   C374      1.0  0.18984  0.95481  0.59846  1.0000
  C   C375      1.0  0.21537  0.96635  0.60463  1.0000
  H   H435      1.0  0.19615  0.67604  0.49051  1.0000
  C   C376      1.0  0.16780  0.97241  0.59223  1.0000
  S   S102      1.0  0.05321  0.70051  0.32647  1.0000
  H   H436      1.0  0.23268  0.70712  0.64982  1.0000
  H   H437      1.0  0.23257  0.95300  0.60922  1.0000
  S   S103      1.0  0.32427  0.74099  0.34208  1.0000
  H   H438      1.0  0.22388  0.75083  0.33142  1.0000
  H   H439      1.0  0.25296  0.90719  0.49366  1.0000
  C   C377      1.0  0.41943  0.64177  0.43523  1.0000
  S   S104      1.0  0.20709  0.86382  0.65038  1.0000
  C   C378      1.0  0.16540  0.70786  0.42670  1.0000
  H   H440      1.0  0.29059  0.89278  0.55704  1.0000
  C   C379      1.0  0.46238  0.66194  0.45184  1.0000
  H   H441      1.0  0.45747  0.70495  0.46426  1.0000
  C   C380      1.0  0.19878  0.69037  0.35583  1.0000
  C   C381      1.0  0.19188  0.49774  0.61086  1.0000
  H   H442      1.0  0.04361  0.67364  0.43276  1.0000
  H   H443      1.0  0.01415  0.69831  0.49183  1.0000
  H   H444      1.0  0.24375  0.73221  0.43435  1.0000
  H   H445      1.0  0.13626  0.67431  0.42870  1.0000
  H   H446      1.0  0.01462  0.68922  0.41645  1.0000
  H   H447      1.0  0.14173  0.52152  0.65091  1.0000
  C   C382      1.0  0.20971  0.74399  0.64012  1.0000
  S   S105      1.0  0.19740  0.66097  0.63992  1.0000
  C   C383      1.0  0.01994  0.67709  0.49556  1.0000
  H   H448      1.0  0.18372  0.77298  0.45510  1.0000
  H   H449      1.0  0.21249  0.78741  0.43751  1.0000
  C   C384      1.0  0.23005  0.73801  0.41771  1.0000
  H   H450      1.0  0.45684  0.61962  0.43690  1.0000
  N   N26       1.0  0.24262  0.74924  0.56256  1.0000
  C   C385      1.0  0.25883  0.75336  0.53805  1.0000
  C   C386      1.0  0.23163  0.77634  0.57133  1.0000
  C   C387      1.0  0.26189  0.73930  0.58327  1.0000
  C   C388      1.0  0.21951  0.73010  0.55745  1.0000
  C   C389      1.0  0.19951  0.73663  0.53798  1.0000
  C   C390      1.0  0.21579  0.70497  0.57162  1.0000
  C   C391      1.0  0.17716  0.71918  0.53314  1.0000
  C   C392      1.0  0.19338  0.68772  0.56660  1.0000
  C   C393      1.0  0.17409  0.69478  0.54747  1.0000
  H   H451      1.0  0.24685  0.76386  0.52229  1.0000
  H   H452      1.0  0.27715  0.76665  0.54159  1.0000
  H   H453      1.0  0.26630  0.73327  0.53007  1.0000
  H   H454      1.0  0.21931  0.78685  0.55586  1.0000
  H   H455      1.0  0.24839  0.79086  0.57676  1.0000
  H   H456      1.0  0.21816  0.77394  0.58895  1.0000
  H   H457      1.0  0.27900  0.75420  0.58659  1.0000
  H   H458      1.0  0.25137  0.73695  0.60263  1.0000
  H   H459      1.0  0.27144  0.71919  0.57777  1.0000
  H   H460      1.0  0.20078  0.75555  0.52671  1.0000
  H   H461      1.0  0.22952  0.69829  0.58711  1.0000
  H   H462      1.0  0.16190  0.72468  0.51847  1.0000
  H   H463      1.0  0.19066  0.66899  0.57811  1.0000
  H   H464      1.0  0.15658  0.68141  0.54400  1.0000
  S   S106      1.0  0.00410  0.73357  0.37790  1.0000
  H   H465      1.0  0.45534  0.76771  0.33394  1.0000
  C   C394      1.0  0.25148  0.94538  0.53216  1.0000
  H   H466      1.0  0.15598  0.71517  0.40868  1.0000
  C   C395      1.0  0.16470  0.67295  0.46103  1.0000
  C   C396      1.0  0.18097  0.73934  0.33220  1.0000
  C   C397      1.0  0.18750  0.68517  0.47279  1.0000
  H   H467      1.0  0.42166  0.67792  0.37840  1.0000
  S   S107      1.0  0.12677  0.72507  0.33271  1.0000
  H   H468      1.0  0.21748  0.71706  0.47104  1.0000
  H   H469      1.0  0.02058  0.62942  0.42706  1.0000
  C   C398      1.0  0.03998  0.64413  0.52595  1.0000
  N   N27       1.0  0.20201  0.74560  0.42659  1.0000
  H   H470      1.0  0.98723  0.62343  0.44193  1.0000
  H   H471      1.0  0.48514  0.64792  0.49794  1.0000
  H   H472      1.0  0.20816  0.93949  0.54350  1.0000
  C   C399      1.0  0.26993  0.90597  0.50835  1.0000
  H   H473      1.0  0.38413  0.66869  0.43431  1.0000
  H   H474      1.0  0.22954  0.72011  0.40392  1.0000
  H   H475      1.0  0.27890  0.92416  0.57248  1.0000
  C   C400      1.0  0.21336  0.71522  0.64258  1.0000
  H   H476      1.0  0.23151  0.90390  0.56406  1.0000
  H   H477      1.0  0.16573  0.76333  0.40872  1.0000
  H   H478      1.0  0.47188  0.68625  0.37990  1.0000
  H   H479      1.0  0.15565  0.65451  0.46960  1.0000
  S   S108      1.0  0.25315  0.70415  0.35424  1.0000
  H   H480      1.0  0.15585  0.67917  0.35730  1.0000
  C   C401      1.0  0.39598  0.76517  0.33621  1.0000
  H   H481      1.0  0.21854  0.76289  0.46270  1.0000
  H   H482      1.0  0.19755  0.77555  0.39509  1.0000
  C   C402      1.0  0.20415  0.76806  0.44643  1.0000
  C   C403      1.0  0.18861  0.72098  0.43830  1.0000
  C   C404      1.0  0.40559  0.66655  0.43976  1.0000
  C   C405      1.0  0.18706  0.75705  0.40348  1.0000
  C   C406      1.0  0.46778  0.72842  0.39296  1.0000
  H   H483      1.0  0.27678  0.88395  0.50942  1.0000
  H   H484      1.0  0.18614  0.74182  0.38717  1.0000
  H   H485      1.0  0.30297  0.92516  0.54563  1.0000
  C   C407      1.0  0.23920  0.89732  0.54435  1.0000
  C   C408      1.0  0.02302  0.68311  0.43604  1.0000
  C   C409      1.0  0.03728  0.62341  0.50708  1.0000
  C   C410      1.0  0.44740  0.63931  0.44120  1.0000
  C   C411      1.0  0.45393  0.74801  0.32397  1.0000
  H   H486      1.0  0.28754  0.91790  0.50033  1.0000
  C   C412      1.0  0.01662  0.65642  0.47592  1.0000
  H   H487      1.0  0.29132  0.96152  0.51977  1.0000
  C   C413      1.0  0.02600  0.62934  0.48233  1.0000
  S   S109      1.0  0.16338  0.58850  0.64521  1.0000
  Fe  Fe57      1.0  0.25328  0.86245  0.65298  1.0000
  H   H488      1.0  0.40883  0.70844  0.45310  1.0000
  C   C414      1.0  0.21626  0.98163  0.53624  1.0000
  H   H489      1.0  0.41183  0.77522  0.34864  1.0000
  C   C415      1.0  0.44750  0.68677  0.45649  1.0000
  H   H490      1.0  0.22603  0.75797  0.64565  1.0000
  H   H491      1.0  0.23448  0.49153  0.62081  1.0000
  H   H492      1.0  0.99062  0.64510  0.41349  1.0000
  C   C416      1.0  0.41957  0.68896  0.45043  1.0000
  C   C417      1.0  0.00058  0.63924  0.43247  1.0000
  C   C418      1.0  0.47669  0.73041  0.32559  1.0000
  H   H493      1.0  0.19537  0.98766  0.54108  1.0000
  H   H494      1.0  0.15386  0.98818  0.64317  1.0000
  S   S110      1.0  0.27547  0.88270  0.68826  1.0000
  C   C419      1.0  0.42439  0.85104  0.92561  1.0000
  Fe  Fe58      1.0  0.30688  0.89244  0.84829  1.0000
  S   S111      1.0  0.32099  0.93680  0.84735  1.0000
  S   S112      1.0  0.29238  0.86555  0.81332  1.0000
  Fe  Fe59      1.0  0.31055  0.89046  0.91023  1.0000
  S   S113      1.0  0.32292  0.93494  0.91243  1.0000
  S   S114      1.0  0.31045  0.86131  0.94616  1.0000
  Fe  Fe60      1.0  0.29088  0.94242  0.88098  1.0000
  Fe  Fe61      1.0  0.04137  0.49994  0.84575  1.0000
  Fe  Fe62      1.0  0.35181  0.92495  0.87900  1.0000
  S   S115      1.0  0.39714  0.93129  0.88961  1.0000
  S   S116      1.0  0.27609  0.89853  0.88119  1.0000
  S   S117      1.0  0.33985  0.87999  0.87737  1.0000
  Fe  Fe63      1.0  0.07151  0.55143  0.82457  1.0000
  C   C420      1.0  0.32305  0.86787  0.97861  1.0000
  S   S118      1.0  0.08458  0.58187  0.79214  1.0000
  Fe  Fe64      1.0  0.05934  0.54386  0.88490  1.0000
  S   S119      1.0  0.07786  0.50598  0.81914  1.0000
  S   S120      1.0  0.03642  0.56014  0.92164  1.0000
  Fe  Fe65      1.0  0.10331  0.50854  0.85604  1.0000
  C   C421      1.0  0.10477  0.50127  0.68360  1.0000
  H   H495      1.0  0.20399  0.74588  0.70204  1.0000
  C   C422      1.0  0.20762  0.97410  0.81324  1.0000
  S   S121      1.0  0.09747  0.55437  0.86138  1.0000
  S   S122      1.0  0.03255  0.54542  0.84842  1.0000
  C   C423      1.0  0.04300  0.57469  0.95330  1.0000
  C   C424      1.0  0.46794  0.57034  0.93248  1.0000
  C   C425      1.0  0.06954  0.57934  0.96288  1.0000
  C   C426      1.0  0.48162  0.52248  0.93591  1.0000
  H   H496      1.0  0.08710  0.57497  0.95043  1.0000
  H   H497      1.0  0.99983  0.57774  0.96250  1.0000
  C   C427      1.0  0.18387  0.94973  0.88734  1.0000
  H   H498      1.0  0.18144  0.65364  0.69532  1.0000
  H   H499      1.0  0.16739  0.77894  0.69004  1.0000
  H   H500      1.0  0.17616  0.65956  0.73032  1.0000
  H   H501      1.0  0.44716  0.53767  0.89701  1.0000
  N   N28       1.0  0.13495  0.50082  0.68816  1.0000
  C   C428      1.0  0.21275  0.95153  0.88692  1.0000
  H   H502      1.0  0.26052  0.93801  0.67230  1.0000
  H   H503      1.0  0.26781  0.91876  0.81323  1.0000
  H   H504      1.0  0.43329  0.82992  0.92443  1.0000
  H   H505      1.0  0.21650  0.91791  0.68657  1.0000
  C   C429      1.0  0.12202  0.66850  0.72735  1.0000
  S   S123      1.0  0.26192  0.97958  0.87984  1.0000
  C   C430      1.0  0.13534  0.74842  0.69131  1.0000
  C   C431      1.0  0.42308  0.95129  0.87422  1.0000
  H   H506      1.0  0.05887  0.50836  0.95158  1.0000
  C   C432      1.0  0.12353  0.51374  0.73570  1.0000
  H   H507      1.0  0.01408  0.50521  0.91074  1.0000
  H   H508      1.0  0.99489  0.98484  0.76201  1.0000
  C   C433      1.0  0.45000  0.94987  0.88426  1.0000
  H   H509      1.0  0.40991  0.51564  0.85837  1.0000
  H   H510      1.0  0.46053  0.50960  0.85393  1.0000
  H   H511      1.0  0.47522  0.50079  0.93986  1.0000
  H   H512      1.0  0.45449  0.93614  0.90056  1.0000
  C   C434      1.0  0.08756  0.57674  0.70127  1.0000
  C   C435      1.0  0.11003  0.58678  0.71550  1.0000
  C   C436      1.0  0.10929  0.58730  0.74337  1.0000
  C   C437      1.0  0.08655  0.57683  0.75738  1.0000
  C   C438      1.0  0.06470  0.56551  0.74312  1.0000
  C   C439      1.0  0.06512  0.56572  0.71527  1.0000
  H   H513      1.0  0.12777  0.59445  0.70504  1.0000
  H   H514      1.0  0.12633  0.59601  0.75422  1.0000
  H   H515      1.0  0.04688  0.55781  0.75355  1.0000
  H   H516      1.0  0.04766  0.55777  0.70450  1.0000
  C   C440      1.0  0.27951  0.87749  0.72309  1.0000
  C   C441      1.0  0.29293  0.89794  0.73812  1.0000
  C   C442      1.0  0.29714  0.89471  0.76559  1.0000
  C   C443      1.0  0.28820  0.87075  0.77853  1.0000
  C   C444      1.0  0.27461  0.85038  0.76354  1.0000
  C   C445      1.0  0.27016  0.85375  0.73611  1.0000
  H   H517      1.0  0.30041  0.91635  0.72836  1.0000
  H   H518      1.0  0.30770  0.91057  0.77665  1.0000
  H   H519      1.0  0.26751  0.83178  0.77323  1.0000
  H   H520      1.0  0.25988  0.83775  0.72499  1.0000
  N   N29       1.0  0.22383  0.92407  0.80968  1.0000
  H   H521      1.0  0.43108  0.95522  0.97738  1.0000
  C   C446      1.0  0.21981  0.90141  0.82914  1.0000
  H   H522      1.0  0.32238  0.91221  0.97551  1.0000
  C   C447      1.0  0.20195  0.94526  0.81232  1.0000
  H   H523      1.0  0.17528  0.94677  0.69022  1.0000
  H   H524      1.0  0.00575  0.67485  0.98337  1.0000
  H   H525      1.0  0.40212  0.89698  0.94549  1.0000
  H   H526      1.0  0.13993  0.54388  0.67912  1.0000
  H   H527      1.0  0.13048  0.67698  0.74607  1.0000
  H   H528      1.0  0.12478  0.63825  0.68207  1.0000
  H   H529      1.0  0.20240  0.90277  0.77846  1.0000
  C   C448      1.0  0.22270  0.91220  0.78277  1.0000
  H   H530      1.0  0.21782  0.90977  0.84947  1.0000
  H   H531      1.0  0.23742  0.88659  0.82920  1.0000
  H   H532      1.0  0.20140  0.88869  0.82501  1.0000
  C   C449      1.0  0.40771  0.84596  0.97062  1.0000
  H   H533      1.0  0.23831  0.89560  0.78014  1.0000
  H   H534      1.0  0.38201  0.88440  0.91875  1.0000
  H   H535      1.0  0.44075  0.86527  0.93269  1.0000
  H   H536      1.0  0.41944  0.54796  0.91797  1.0000
  H   H537      1.0  0.13167  0.95052  0.81739  1.0000
  H   H538      1.0  0.42478  0.80523  0.96170  1.0000
  H   H539      1.0  0.10970  0.67115  0.67603  1.0000
  C   C450      1.0  0.19495  0.98515  0.67756  1.0000
  C   C451      1.0  0.05506  0.49684  0.96966  1.0000
  H   H540      1.0  0.36820  0.88260  0.95087  1.0000
  S   S124      1.0  0.13110  0.96928  0.88312  1.0000
  C   C452      1.0  0.24245  0.95108  0.67388  1.0000
  C   C453      1.0  0.41751  0.96909  0.85315  1.0000
  C   C454      1.0  0.15288  0.95705  0.81536  1.0000
  H   H541      1.0  0.11648  0.64647  0.73098  1.0000
  H   H542      1.0  0.25786  0.95038  0.79842  1.0000
  H   H543      1.0  0.11950  0.76303  0.68554  1.0000
  H   H544      1.0  0.15544  0.98239  0.71565  1.0000
  N   N30       1.0  0.39987  0.85239  0.94302  1.0000
  H   H545      1.0  0.22509  0.93336  0.89065  1.0000
  S   S125      1.0  0.08644  0.57722  0.66611  1.0000
  H   H546      1.0  0.19397  0.69740  0.70867  1.0000
  H   H547      1.0  0.11671  0.52470  0.77648  1.0000
  C   C455      1.0  0.46166  0.54966  0.98701  1.0000
  C   C456      1.0  0.12887  0.72059  0.69538  1.0000
  H   H548      1.0  0.10767  0.71455  0.69292  1.0000
  C   C457      1.0  0.41947  0.49651  0.86465  1.0000
  C   C458      1.0  0.16230  0.75749  0.69395  1.0000
  C   C459      1.0  0.21753  0.93982  0.68194  1.0000
  C   C460      1.0  0.02047  0.58077  0.96980  1.0000
  C   C461      1.0  0.38763  0.88033  0.93966  1.0000
  N   N31       1.0  0.14207  0.67134  0.70544  1.0000
  H   H549      1.0  0.39689  0.97043  0.84529  1.0000
  C   C462      1.0  0.12942  0.66075  0.68085  1.0000
  C   C463      1.0  0.16600  0.65331  0.71160  1.0000
  C   C464      1.0  0.14942  0.70084  0.70191  1.0000
  C   C465      1.0  0.17678  0.71081  0.70443  1.0000
  C   C466      1.0  0.37941  0.83188  0.93377  1.0000
  C   C467      1.0  0.14261  0.50479  0.71620  1.0000
  C   C468      1.0  0.15845  0.51224  0.76971  1.0000
  H   H550      1.0  0.36136  0.83118  0.94726  1.0000
  H   H551      1.0  0.10237  0.51849  0.73120  1.0000
  C   C469      1.0  0.46559  0.98402  0.85239  1.0000
  H   H552      1.0  0.38797  0.81061  0.93270  1.0000
  C   C470      1.0  0.25189  0.93527  0.81393  1.0000
  C   C471      1.0  0.42052  0.82035  0.97685  1.0000
  H   H553      1.0  0.48227  0.55731  0.98465  1.0000
  H   H554      1.0  0.16430  0.51503  0.79022  1.0000
  H   H555      1.0  0.15985  0.63131  0.71409  1.0000
  H   H556      1.0  0.43184  0.51258  0.91809  1.0000
  C   C472      1.0  0.44632  0.54027  0.96500  1.0000
  H   H557      1.0  0.47636  0.57231  0.91210  1.0000
  C   C473      1.0  0.13149  0.51740  0.76199  1.0000
  C   C474      1.0  0.43869  0.98538  0.84232  1.0000
  C   C475      1.0  0.14726  0.52329  0.67219  1.0000
  S   S126      1.0  0.06740  0.49792  0.88237  1.0000
  H   H558      1.0  0.40687  0.52075  0.95506  1.0000
  S   S127      1.0  0.00527  0.96594  0.83902  1.0000
  H   H559      1.0  0.37143  0.83702  0.91374  1.0000
  C   C476      1.0  0.18292  0.73878  0.70066  1.0000
  H   H560      1.0  0.25364  0.94527  0.83365  1.0000
  C   C477      1.0  0.17385  0.93739  0.81292  1.0000
  H   H561      1.0  0.41931  0.85723  0.90494  1.0000
  S   S128      1.0  0.14580  0.49092  0.84728  1.0000
  H   H562      1.0  0.22672  0.92824  0.76748  1.0000
  C   C478      1.0  0.17017  0.50065  0.72457  1.0000
  H   H563      1.0  0.17419  0.92999  0.89104  1.0000
  H   H564      1.0  0.09953  0.49732  0.66254  1.0000
  C   C479      1.0  0.16739  0.97324  0.88313  1.0000
  N   N32       1.0  0.45808  0.54185  0.93805  1.0000
  H   H565      1.0  0.16781  0.91596  0.81202  1.0000
  C   C480      1.0  0.47121  0.96605  0.87334  1.0000
  H   H566      1.0  0.09573  0.52188  0.68794  1.0000
  C   C481      1.0  0.17781  0.50403  0.75100  1.0000
  H   H567      1.0  0.10239  0.67945  0.72326  1.0000
  C   C482      1.0  0.44813  0.49323  0.86228  1.0000
  H   H568      1.0  0.17010  0.52333  0.67321  1.0000
  C   C483      1.0  0.19410  0.95652  0.68387  1.0000
  C   C484      1.0  0.41987  0.52908  0.97037  1.0000
  H   H569      1.0  0.19892  0.50056  0.75700  1.0000
  H   H570      1.0  0.45113  0.58577  0.93490  1.0000
  H   H571      1.0  0.18608  0.49502  0.71067  1.0000
  C   C485      1.0  0.22557  0.97683  0.88196  1.0000
  H   H572      1.0  0.99751  0.52750  0.95274  1.0000
  C   C486      1.0  0.24408  0.97908  0.66770  1.0000
  C   C487      1.0  0.32708  0.89473  0.98807  1.0000
  C   C488      1.0  0.43813  0.53469  0.91701  1.0000
  H   H573      1.0  0.14051  0.97016  0.67118  1.0000
  C   C489      1.0  0.15916  0.98507  0.81646  1.0000
  H   H574      1.0  0.99035  0.49428  0.96575  1.0000
  H   H575      1.0  0.14348  0.66393  0.66379  1.0000
  H   H576      1.0  0.22827  0.98217  0.81345  1.0000
  H   H577      1.0  0.48509  0.57668  0.94554  1.0000
  C   C490      1.0  0.99747  0.48971  0.91367  1.0000
  C   C491      1.0  0.07340  0.58945  0.98879  1.0000
  H   H578      1.0  0.32612  0.82456  0.98831  1.0000
  H   H579      1.0  0.26349  0.98765  0.66115  1.0000
  H   H580      1.0  0.39200  0.88373  0.98945  1.0000
  H   H581      1.0  0.40107  0.98798  0.91589  1.0000
  C   C492      1.0  0.88993  0.26864  0.30902  1.0000
  S   S129      1.0  0.53243  0.13699  0.29866  1.0000
  Fe  Fe66      1.0  0.51569  0.07224  0.08512  1.0000
  H   H582      1.0  0.77605  0.32569  0.30303  1.0000
  S   S130      1.0  0.53119  0.04500  0.05085  1.0000
  Fe  Fe67      1.0  0.52071  0.09551  0.14283  1.0000
  C   C493      1.0  0.75831  0.27903  0.28157  1.0000
  S   S131      1.0  0.55078  0.10808  0.17583  1.0000
  C   C494      1.0  0.73182  0.30959  0.25377  1.0000
  S   S132      1.0  0.93392  0.04153  0.12861  1.0000
  H   H583      1.0  0.88823  0.42653  0.09835  1.0000
  S   S133      1.0  0.94031  0.16994  0.09265  1.0000
  S   S134      1.0  0.51245  0.05294  0.12582  1.0000
  S   S135      1.0  0.52833  0.11347  0.10210  1.0000
  Fe  Fe68      1.0  0.86501  0.35883  0.09566  1.0000
  S   S136      1.0  0.91012  0.36897  0.09794  1.0000
  S   S137      1.0  0.83695  0.37469  0.06218  1.0000
  Fe  Fe69      1.0  0.86404  0.33731  0.15451  1.0000
  S   S138      1.0  0.90858  0.34735  0.15967  1.0000
  S   S139      1.0  0.84108  0.31313  0.18707  1.0000
  Fe  Fe70      1.0  0.89996  0.38687  0.13769  1.0000
  S   S140      1.0  0.90955  0.42977  0.15346  1.0000
  Fe  Fe71      1.0  0.91427  0.32818  0.11955  1.0000
  S   S141      1.0  0.95080  0.29877  0.11649  1.0000
  S   S142      1.0  0.85473  0.37818  0.13505  1.0000
  S   S143      1.0  0.86983  0.31661  0.11472  1.0000
  C   C495      1.0  0.94414  0.20571  0.09890  1.0000
  C   C496      1.0  0.96826  0.21673  0.10948  1.0000
  C   C497      1.0  0.94617  0.99254  0.05944  1.0000
  C   C498      1.0  0.94806  0.26313  0.10875  1.0000
  C   C499      1.0  0.92420  0.25214  0.09758  1.0000
  C   C500      1.0  0.92226  0.22358  0.09275  1.0000
  H   H584      1.0  0.50727  0.21348  0.22376  1.0000
  C   C501      1.0  0.97653  0.20874  0.31343  1.0000
  H   H585      1.0  0.90718  0.26565  0.09276  1.0000
  H   H586      1.0  0.90363  0.21526  0.08428  1.0000
  C   C502      1.0  0.94035  0.00558  0.12946  1.0000
  H   H587      1.0  0.98533  0.20322  0.11409  1.0000
  C   C503      1.0  0.94688  0.44785  0.11599  1.0000
  C   C504      1.0  0.93079  0.45452  0.13794  1.0000
  H   H588      1.0  0.69858  0.27207  0.28366  1.0000
  H   H589      1.0  0.89742  0.99570  0.13388  1.0000
  C   C505      1.0  0.72148  0.32518  0.32226  1.0000
  H   H590      1.0  0.94723  0.42682  0.10874  1.0000
  H   H591      1.0  0.66163  0.27274  0.31618  1.0000
  H   H592      1.0  0.48731  0.44281  0.14771  1.0000
  H   H593      1.0  0.92923  0.99391  0.07318  1.0000
  C   C506      1.0  0.53664  0.05265  0.01673  1.0000
  H   H594      1.0  0.83994  0.44517  0.09638  1.0000
  H   H595      1.0  0.53546  0.09690  0.02063  1.0000
  H   H596      1.0  0.90550  0.30513  0.29028  1.0000
  C   C507      1.0  0.86206  0.36624  0.01302  1.0000
  C   C508      1.0  0.84045  0.37825  0.02722  1.0000
  C   C509      1.0  0.82094  0.39421  0.01334  1.0000
  H   H597      1.0  0.87727  0.35395  0.02329  1.0000
  H   H598      1.0  0.80428  0.40385  0.02409  1.0000
  C   C510      1.0  0.53833  0.12906  0.26458  1.0000
  C   C511      1.0  0.51678  0.11748  0.24969  1.0000
  C   C512      1.0  0.52025  0.11067  0.22275  1.0000
  C   C513      1.0  0.54545  0.11527  0.21018  1.0000
  C   C514      1.0  0.56704  0.12683  0.22505  1.0000
  C   C515      1.0  0.56350  0.13383  0.25197  1.0000
  C   C516      1.0  0.48912  0.25171  0.21224  1.0000
  C   C517      1.0  0.91051  0.28463  0.29767  1.0000
  H   H599      1.0  0.58669  0.13040  0.21568  1.0000
  H   H600      1.0  0.58035  0.14258  0.26304  1.0000
  C   C518      1.0  0.83959  0.32139  0.27819  1.0000
  C   C519      1.0  0.85064  0.34268  0.26249  1.0000
  C   C520      1.0  0.85206  0.34023  0.23471  1.0000
  C   C521      1.0  0.84190  0.31661  0.22217  1.0000
  C   C522      1.0  0.83121  0.29513  0.23793  1.0000
  C   C523      1.0  0.83051  0.29728  0.26573  1.0000
  H   H601      1.0  0.85786  0.36143  0.27183  1.0000
  H   H602      1.0  0.86030  0.35700  0.22297  1.0000
  H   H603      1.0  0.82330  0.27673  0.22853  1.0000
  H   H604      1.0  0.82248  0.28050  0.27751  1.0000
  H   H605      1.0  0.55684  0.16794  0.18445  1.0000
  C   C524      1.0  0.60811  0.01813  0.02373  1.0000
  C   C525      1.0  0.54603  0.18759  0.18946  1.0000
  H   H606      1.0  0.90409  0.48431  0.09068  1.0000
  H   H607      1.0  0.60224  0.08756  0.01663  1.0000
  H   H608      1.0  0.96288  0.19441  0.00043  1.0000
  H   H609      1.0  0.94974  0.01877  0.18879  1.0000
  H   H610      1.0  0.53963  0.00962  0.00597  1.0000
  C   C526      1.0  0.60735  0.06633  0.01171  1.0000
  C   C527      1.0  0.54088  0.03068  0.99890  1.0000
  C   C528      1.0  0.89614  0.24266  0.31926  1.0000
  H   H611      1.0  0.91197  0.43592  0.07267  1.0000
  Fe  Fe72      1.0  0.96925  0.13551  0.10548  1.0000
  C   C529      1.0  0.67817  0.28770  0.31754  1.0000
  C   C530      1.0  0.96055  0.14378  0.02169  1.0000
  C   C531      1.0  0.88683  0.48364  0.99099  1.0000
  H   H612      1.0  0.76823  0.27588  0.30113  1.0000
  C   C532      1.0  0.87689  0.45737  0.99683  1.0000
  C   C533      1.0  0.69947  0.28751  0.29902  1.0000
  H   H613      1.0  0.86521  0.42882  0.02660  1.0000
  C   C534      1.0  0.84424  0.45217  0.07580  1.0000
  S   S144      1.0  0.83644  0.32632  0.31300  1.0000
  N   N33       1.0  0.90549  0.25503  0.18289  1.0000
  C   C535      1.0  0.89153  0.26097  0.15752  1.0000
  C   C536      1.0  0.88484  0.24432  0.20186  1.0000
  C   C537      1.0  0.91576  0.28176  0.19339  1.0000
  C   C538      1.0  0.92740  0.23412  0.17880  1.0000
  C   C539      1.0  0.92067  0.20720  0.16971  1.0000
  C   C540      1.0  0.95566  0.23947  0.18382  1.0000
  H   H614      1.0  0.50061  0.23002  0.13950  1.0000
  C   C541      1.0  0.98473  0.05754  0.18910  1.0000
  H   H615      1.0  0.59444  0.05073  0.04949  1.0000
  H   H616      1.0  0.87345  0.27475  0.16021  1.0000
  H   H617      1.0  0.90558  0.27176  0.14373  1.0000
  H   H618      1.0  0.88402  0.24212  0.14739  1.0000
  H   H619      1.0  0.87369  0.22608  0.19405  1.0000
  H   H620      1.0  0.86879  0.26014  0.20629  1.0000
  H   H621      1.0  0.89466  0.23833  0.22085  1.0000
  H   H622      1.0  0.93048  0.29168  0.17941  1.0000
  H   H623      1.0  0.89873  0.29696  0.19619  1.0000
  H   H624      1.0  0.92583  0.27914  0.21290  1.0000
  C   C542      1.0  0.96695  0.99476  0.12776  1.0000
  C   C543      1.0  0.94451  0.24805  0.30642  1.0000
  H   H625      1.0  0.96621  0.19737  0.03539  1.0000
  C   C544      1.0  0.92300  0.23243  0.31816  1.0000
  C   C545      1.0  0.50175  0.22627  0.20706  1.0000
  N   N34       1.0  0.74381  0.30600  0.28050  1.0000
  C   C546      1.0  0.97019  0.24534  0.11437  1.0000
  C   C547      1.0  0.88984  0.43289  0.07726  1.0000
  H   H626      1.0  0.98380  0.17682  0.16887  1.0000
  C   C548      1.0  0.72168  0.30645  0.30062  1.0000
  C   C549      1.0  0.50042  0.16817  0.18658  1.0000
  C   C550      1.0  0.52377  0.18356  0.14752  1.0000
  H   H627      1.0  0.96343  0.19487  0.30130  1.0000
  C   C551      1.0  0.96559  0.01377  0.06013  1.0000
  C   C552      1.0  0.87860  0.46749  0.04437  1.0000
  H   H628      1.0  0.50717  0.14708  0.18079  1.0000
  C   C553      1.0  0.53855  0.07975  0.00724  1.0000
  H   H629      1.0  0.54412  0.18762  0.21133  1.0000
  H   H630      1.0  0.97140  0.23006  0.26386  1.0000
  H   H631      1.0  0.87845  0.47139  0.11253  1.0000
  C   C554      1.0  0.96266  0.46840  0.10351  1.0000
  C   C555      1.0  0.96402  0.00279  0.19470  1.0000
  H   H632      1.0  0.75521  0.34905  0.28347  1.0000
  H   H633      1.0  0.86921  0.27668  0.31030  1.0000
  C   C556      1.0  0.94079  0.18686  0.16629  1.0000
  H   H634      1.0  0.71935  0.32890  0.25267  1.0000
  N   N35       1.0  0.51904  0.18970  0.17593  1.0000
  H   H635      1.0  0.88252  0.41491  0.06559  1.0000
  H   H636      1.0  0.49956  0.16827  0.20852  1.0000
  H   H637      1.0  0.96343  0.03044  0.07430  1.0000
  H   H638      1.0  0.71838  0.29207  0.24805  1.0000
  C   C557      1.0  0.50674  0.21725  0.18081  1.0000
  H   H639      1.0  0.78058  0.32768  0.26828  1.0000
  H   H640      1.0  0.55976  0.20493  0.18367  1.0000
  N   N36       1.0  0.87380  0.45838  0.07192  1.0000
  C   C558      1.0  0.93093  0.48181  0.14749  1.0000
  H   H641      1.0  0.53770  0.19898  0.13826  1.0000
  H   H642      1.0  0.98428  0.00850  0.12543  1.0000
  H   H643      1.0  0.49727  0.11349  0.25919  1.0000
  C   C559      1.0  0.97714  0.19050  0.01713  1.0000
  H   H644      1.0  0.50346  0.10160  0.21182  1.0000
  H   H645      1.0  0.96593  0.12143  0.02211  1.0000
  H   H646      1.0  0.83126  0.47063  0.07166  1.0000
  H   H647      1.0  0.77454  0.27754  0.26616  1.0000
  C   C560      1.0  0.60289  0.04558  0.03027  1.0000
  S   S145      1.0  0.96467  0.11330  0.14424  1.0000
  S   S146      1.0  0.96646  0.09663  0.08114  1.0000
  Fe  Fe73      1.0  0.96599  0.07429  0.12002  1.0000
  C   C561      1.0  0.76466  0.32809  0.28409  1.0000
  H   H648      1.0  0.95286  0.28823  0.28828  1.0000
  H   H649      1.0  0.94570  0.14701  0.00537  1.0000
  C   C562      1.0  0.87288  0.44938  0.02306  1.0000
  H   H650      1.0  0.83702  0.43517  0.06278  1.0000
  H   H651      1.0  0.53353  0.16288  0.14469  1.0000
  H   H652      1.0  0.91859  0.48708  0.16455  1.0000
  H   H653      1.0  0.74806  0.31090  0.23827  1.0000
  H   H654      1.0  0.93517  0.16676  0.15854  1.0000
  H   H655      1.0  0.89980  0.20177  0.16470  1.0000
  C   C563      1.0  0.61811  0.01135  0.99866  1.0000
  C   C564      1.0  0.93748  0.27464  0.29648  1.0000
  C   C565      1.0  0.97562  0.21885  0.18051  1.0000
  H   H656      1.0  0.50421  0.18296  0.13622  1.0000
  C   C566      1.0  0.98466  0.24092  0.27843  1.0000
  H   H657      1.0  0.60389  0.00205  0.03808  1.0000
  H   H658      1.0  0.97499  0.46305  0.08651  1.0000
  N   N37       1.0  0.97333  0.23821  0.30556  1.0000
  C   C567      1.0  0.88183  0.47920  0.09203  1.0000
  H   H659      1.0  0.49113  0.99965  0.03410  1.0000
  H   H660      1.0  0.74429  0.26121  0.27851  1.0000
  H   H661      1.0  0.94921  0.14848  0.04028  1.0000
  C   C568      1.0  0.49843  0.23529  0.16011  1.0000
  H   H662      1.0  0.96667  0.06032  0.20230  1.0000
  H   H663      1.0  0.96299  0.25955  0.18978  1.0000
  H   H664      1.0  0.62147  0.98972  0.99443  1.0000
  H   H665      1.0  0.97728  0.05205  0.16900  1.0000
  H   H666      1.0  0.98185  0.13514  0.25921  1.0000
  C   C569      1.0  0.96819  0.19257  0.17190  1.0000
  H   H667      1.0  0.69943  0.19328  0.31599  1.0000
  C   C570      1.0  0.48588  0.26071  0.16556  1.0000
  H   H668      1.0  0.74107  0.41448  0.99057  1.0000
  N   N38       1.0  0.98556  0.16106  0.01890  1.0000
  H   H669      1.0  0.50967  0.98917  0.06243  1.0000
  Fe  Fe74      1.0  0.71209  0.38534  0.60890  1.0000
  S   S147      1.0  0.75789  0.38889  0.61095  1.0000
  S   S148      1.0  0.68235  0.41818  0.59417  1.0000
  Fe  Fe75      1.0  0.71355  0.32484  0.62730  1.0000
  S   S149      1.0  0.75972  0.32478  0.63132  1.0000
  H   H670      1.0  0.74643  0.16802  0.34378  1.0000
  H   H671      1.0  0.52635  0.15351  0.43712  1.0000
  Fe  Fe76      1.0  0.75898  0.34677  0.59177  1.0000
  S   S150      1.0  0.78803  0.33527  0.55754  1.0000
  H   H672      1.0  0.49319  0.13816  0.43722  1.0000
  S   S151      1.0  0.71338  0.34482  0.58727  1.0000
  Fe  Fe77      1.0  0.67400  0.06688  0.60354  1.0000
  S   S152      1.0  0.62765  0.06799  0.60128  1.0000
  S   S153      1.0  0.70459  0.03261  0.59320  1.0000
  Fe  Fe78      1.0  0.67713  0.12717  0.62235  1.0000
  S   S154      1.0  0.63134  0.13183  0.62218  1.0000
  S   S155      1.0  0.70786  0.16042  0.63408  1.0000
  Fe  Fe79      1.0  0.63044  0.08948  0.64108  1.0000
  Fe  Fe80      1.0  0.63280  0.11035  0.58252  1.0000
  S   S156      1.0  0.61121  0.13522  0.54955  1.0000
  H   H673      1.0  0.61442  0.47849  0.64995  1.0000
  S   S157      1.0  0.67892  0.10766  0.58230  1.0000
  Fe  Fe81      1.0  0.79441  0.28698  0.39979  1.0000
  S   S158      1.0  0.79237  0.24096  0.39334  1.0000
  S   S159      1.0  0.76994  0.30366  0.43552  1.0000
  Fe  Fe82      1.0  0.82027  0.29592  0.34407  1.0000
  H   H674      1.0  0.81804  0.11646  0.38073  1.0000
  Fe  Fe83      1.0  0.77749  0.25102  0.35264  1.0000
  H   H675      1.0  0.95850  0.19595  0.44624  1.0000
  Fe  Fe84      1.0  0.83484  0.24464  0.37620  1.0000
  S   S160      1.0  0.86389  0.20820  0.38113  1.0000
  S   S161      1.0  0.77675  0.29673  0.35935  1.0000
  S   S162      1.0  0.83841  0.29021  0.38506  1.0000
  H   H676      1.0  0.95979  0.17679  0.38166  1.0000
  H   H677      1.0  0.71928  0.27507  0.58724  1.0000
  Fe  Fe85      1.0  0.56796  0.14776  0.39463  1.0000
  S   S163      1.0  0.56752  0.19295  0.40248  1.0000
  S   S164      1.0  0.58133  0.11770  0.42732  1.0000
  Fe  Fe86      1.0  0.52916  0.19531  0.37828  1.0000
  S   S165      1.0  0.68287  0.28958  0.63094  1.0000
  Fe  Fe87      1.0  0.59033  0.19711  0.36430  1.0000
  S   S166      1.0  0.62392  0.22853  0.37122  1.0000
  S   S167      1.0  0.52735  0.14925  0.37305  1.0000
  S   S168      1.0  0.59270  0.15124  0.35697  1.0000
  C   C571      1.0  0.71264  0.22585  0.34206  1.0000
  C   C572      1.0  0.70469  0.24420  0.36189  1.0000
  C   C573      1.0  0.67742  0.24441  0.37083  1.0000
  C   C574      1.0  0.65801  0.22626  0.36009  1.0000
  S   S169      1.0  0.70787  0.36541  0.64866  1.0000
  S   S170      1.0  0.81955  0.25082  0.33491  1.0000
  H   H678      1.0  0.71938  0.25865  0.36999  1.0000
  H   H679      1.0  0.67126  0.25897  0.38594  1.0000
  C   C575      1.0  0.71531  0.11239  0.37041  1.0000
  H   H680      1.0  0.71387  0.39744  0.53263  1.0000
  C   C576      1.0  0.89962  0.21343  0.38433  1.0000
  C   C577      1.0  0.91033  0.23934  0.39072  1.0000
  C   C578      1.0  0.93875  0.24251  0.39458  1.0000
  C   C579      1.0  0.95672  0.22001  0.39144  1.0000
  C   C580      1.0  0.94613  0.19427  0.38419  1.0000
  C   C581      1.0  0.91760  0.19093  0.38097  1.0000
  H   H681      1.0  0.89668  0.25682  0.39332  1.0000
  H   H682      1.0  0.94681  0.26248  0.40023  1.0000
  C   C582      1.0  0.70058  0.99668  0.59912  1.0000
  H   H683      1.0  0.90945  0.17084  0.37593  1.0000
  C   C583      1.0  0.60318  0.12963  0.51560  1.0000
  C   C584      1.0  0.60748  0.10426  0.50299  1.0000
  C   C585      1.0  0.60028  0.10092  0.47615  1.0000
  C   C586      1.0  0.58897  0.12289  0.46144  1.0000
  C   C587      1.0  0.58487  0.14832  0.47401  1.0000
  C   C588      1.0  0.59185  0.15161  0.50087  1.0000
  H   H684      1.0  0.61602  0.08710  0.51401  1.0000
  H   H685      1.0  0.60352  0.08110  0.46674  1.0000
  H   H686      1.0  0.57621  0.16543  0.46310  1.0000
  H   H687      1.0  0.58836  0.17131  0.51041  1.0000
  C   C589      1.0  0.78227  0.32586  0.52385  1.0000
  C   C590      1.0  0.75613  0.32616  0.51231  1.0000
  C   C591      1.0  0.75282  0.31892  0.48546  1.0000
  C   C592      1.0  0.77544  0.31108  0.46972  1.0000
  C   C593      1.0  0.80147  0.31020  0.48142  1.0000
  C   C594      1.0  0.80482  0.31765  0.50822  1.0000
  H   H688      1.0  0.73849  0.33225  0.52391  1.0000
  H   H689      1.0  0.73259  0.31985  0.47667  1.0000
  H   H690      1.0  0.81912  0.30433  0.46970  1.0000
  H   H691      1.0  0.82514  0.31724  0.51686  1.0000
  C   C595      1.0  0.69050  0.25380  0.63138  1.0000
  C   C596      1.0  0.66972  0.23487  0.62489  1.0000
  C   C597      1.0  0.67482  0.20622  0.62530  1.0000
  C   C598      1.0  0.70066  0.19624  0.63270  1.0000
  H   H692      1.0  0.65638  0.99686  0.59966  1.0000
  C   C599      1.0  0.71942  0.13618  0.35543  1.0000
  H   H693      1.0  0.64962  0.24245  0.61927  1.0000
  H   H694      1.0  0.65881  0.19190  0.61974  1.0000
  C   C600      1.0  0.81628  0.13343  0.36606  1.0000
  C   C601      1.0  0.79668  0.17693  0.35392  1.0000
  C   C602      1.0  0.68814  0.45410  0.59698  1.0000
  C   C603      1.0  0.71361  0.46478  0.60460  1.0000
  H   H695      1.0  0.65374  0.18170  0.54776  1.0000
  H   H696      1.0  0.97134  0.21145  0.48800  1.0000
  H   H697      1.0  0.73250  0.25823  0.64381  1.0000
  H   H698      1.0  0.65346  0.22726  0.52533  1.0000
  H   H699      1.0  0.73053  0.45091  0.60876  1.0000
  H   H700      1.0  0.69368  0.16778  0.57469  1.0000
  H   H701      1.0  0.73779  0.45482  0.54617  1.0000
  H   H702      1.0  0.69257  0.25861  0.52943  1.0000
  N   N39       1.0  0.75393  0.41672  0.53000  1.0000
  C   C604      1.0  0.73362  0.39893  0.54352  1.0000
  C   C605      1.0  0.77815  0.41936  0.54767  1.0000
  C   C606      1.0  0.74190  0.44478  0.52673  1.0000
  C   C607      1.0  0.76056  0.40451  0.50395  1.0000
  C   C608      1.0  0.73992  0.40217  0.48428  1.0000
  C   C609      1.0  0.78690  0.39344  0.49773  1.0000
  C   C610      1.0  0.74537  0.38982  0.45988  1.0000
  C   C611      1.0  0.79213  0.38129  0.47320  1.0000
  C   C612      1.0  0.77143  0.37943  0.45435  1.0000
  S   S171      1.0  0.67634  0.08634  0.64382  1.0000
  C   C613      1.0  0.66606  0.20745  0.34062  1.0000
  C   C614      1.0  0.72142  0.21515  0.63930  1.0000
  H   H703      1.0  0.79455  0.43214  0.53847  1.0000
  H   H704      1.0  0.72173  0.44444  0.51650  1.0000
  C   C615      1.0  0.76693  0.13971  0.37162  1.0000
  H   H705      1.0  0.75593  0.45846  0.51533  1.0000
  H   H706      1.0  0.71920  0.40932  0.48787  1.0000
  H   H707      1.0  0.80364  0.39319  0.51169  1.0000
  H   H708      1.0  0.72918  0.38776  0.44534  1.0000
  H   H709      1.0  0.81215  0.37236  0.46907  1.0000
  H   H710      1.0  0.77542  0.36912  0.43572  1.0000
  H   H711      1.0  0.51303  0.20985  0.48280  1.0000
  H   H712      1.0  0.79291  0.17046  0.33316  1.0000
  Fe  Fe88      1.0  0.55194  0.15684  0.33561  1.0000
  C   C616      1.0  0.66636  0.47238  0.59173  1.0000
  H   H713      1.0  0.64666  0.46427  0.58560  1.0000
  H   H714      1.0  0.73858  0.26623  0.51748  1.0000
  H   H715      1.0  0.71606  0.28874  0.55456  1.0000
  H   H716      1.0  0.74181  0.37760  0.54608  1.0000
  H   H717      1.0  0.81753  0.18634  0.35440  1.0000
  C   C617      1.0  0.50508  0.15571  0.48564  1.0000
  C   C618      1.0  0.70017  0.32499  0.34082  1.0000
  C   C619      1.0  0.79886  0.16423  0.39961  1.0000
  H   H718      1.0  0.77265  0.42944  0.56674  1.0000
  H   H719      1.0  0.64681  0.46430  0.64168  1.0000
  C   C620      1.0  0.69335  0.20739  0.33150  1.0000
  S   S172      1.0  0.49810  0.22603  0.39423  1.0000
  H   H720      1.0  0.95064  0.16115  0.45657  1.0000
  H   H721      1.0  0.83682  0.14365  0.36557  1.0000
  C   C621      1.0  0.74476  0.14976  0.35597  1.0000
  H   H722      1.0  0.77130  0.26932  0.53285  1.0000
  H   H723      1.0  0.53586  0.19482  0.45939  1.0000
  H   H724      1.0  0.78685  0.39872  0.55299  1.0000
  H   H725      1.0  0.74758  0.29251  0.57182  1.0000
  H   H726      1.0  0.70058  0.33917  0.35738  1.0000
  H   H727      1.0  0.78216  0.19380  0.35897  1.0000
  H   H728      1.0  0.79983  0.14750  0.41462  1.0000
  H   H729      1.0  0.81865  0.17574  0.40096  1.0000
  H   H730      1.0  0.75951  0.23595  0.52230  1.0000
  H   H731      1.0  0.73265  0.19789  0.58003  1.0000
  C   C622      1.0  0.67851  0.30640  0.33839  1.0000
  S   S173      1.0  0.74647  0.22579  0.33003  1.0000
  C   C623      1.0  0.71645  0.24384  0.63847  1.0000
  N   N40       1.0  0.65781  0.16833  0.43070  1.0000
  C   C624      1.0  0.65874  0.14397  0.44858  1.0000
  C   C625      1.0  0.63266  0.18456  0.43642  1.0000
  C   C626      1.0  0.65536  0.15780  0.40325  1.0000
  C   C627      1.0  0.68219  0.18600  0.43504  1.0000
  C   C628      1.0  0.68807  0.19637  0.46063  1.0000
  C   C629      1.0  0.70013  0.19415  0.41428  1.0000
  C   C630      1.0  0.71032  0.21402  0.46510  1.0000
  C   C631      1.0  0.72234  0.21176  0.41900  1.0000
  C   C632      1.0  0.72732  0.22188  0.44427  1.0000
  H   H732      1.0  0.65546  0.14955  0.46964  1.0000
  H   H733      1.0  0.64229  0.12878  0.44386  1.0000
  H   H734      1.0  0.67873  0.13292  0.44698  1.0000
  H   H735      1.0  0.63129  0.19097  0.45743  1.0000
  H   H736      1.0  0.61389  0.17235  0.43213  1.0000
  H   H737      1.0  0.63172  0.20364  0.42404  1.0000
  H   H738      1.0  0.67369  0.14554  0.39747  1.0000
  H   H739      1.0  0.63713  0.14406  0.40093  1.0000
  H   H740      1.0  0.65227  0.17497  0.38888  1.0000
  H   H741      1.0  0.67513  0.19125  0.47730  1.0000
  H   H742      1.0  0.69704  0.18787  0.39404  1.0000
  H   H743      1.0  0.71413  0.22197  0.48473  1.0000
  H   H744      1.0  0.73532  0.21826  0.40275  1.0000
  H   H745      1.0  0.74414  0.23619  0.44756  1.0000
  N   N41       1.0  0.74020  0.25106  0.55767  1.0000
  C   C633      1.0  0.76213  0.24101  0.57571  1.0000
  C   C634      1.0  0.75286  0.25578  0.53142  1.0000
  C   C635      1.0  0.73033  0.27792  0.56819  1.0000
  C   C636      1.0  0.71684  0.23165  0.55501  1.0000
  C   C637      1.0  0.71635  0.20522  0.56736  1.0000
  C   C638      1.0  0.69368  0.23887  0.53937  1.0000
  C   C639      1.0  0.69391  0.18749  0.56442  1.0000
  C   C640      1.0  0.67126  0.22100  0.53673  1.0000
  C   C641      1.0  0.67135  0.19537  0.54931  1.0000
  H   H746      1.0  0.75401  0.23751  0.59598  1.0000
  H   H747      1.0  0.77163  0.22151  0.56844  1.0000
  H   H748      1.0  0.77908  0.25636  0.57768  1.0000
  H   H749      1.0  0.69574  0.10172  0.36962  1.0000
  H   H750      1.0  0.66218  0.30604  0.35297  1.0000
  H   H751      1.0  0.78218  0.17874  0.40558  1.0000
  C   C642      1.0  0.96745  0.17504  0.44986  1.0000
  C   C643      1.0  0.50398  0.15838  0.43843  1.0000
  N   N42       1.0  0.79412  0.15342  0.37262  1.0000
  H   H752      1.0  0.72840  0.40711  0.56338  1.0000
  H   H753      1.0  0.65110  0.19352  0.33215  1.0000
  Fe  Fe89      1.0  0.75411  0.36705  0.65039  1.0000
  C   C644      1.0  0.97970  0.19065  0.49312  1.0000
  H   H754      1.0  0.96282  0.17888  0.50277  1.0000
  H   H755      1.0  0.52695  0.14900  0.48422  1.0000
  S   S174      1.0  0.55177  0.20331  0.34048  1.0000
  C   C645      1.0  0.51381  0.19910  0.46348  1.0000
  H   H756      1.0  0.98285  0.25286  0.34462  1.0000
  H   H757      1.0  0.92644  0.21246  0.32711  1.0000
  H   H758      1.0  0.50659  0.21402  0.44819  1.0000
  H   H759      1.0  0.97180  0.20543  0.33469  1.0000
  H   H760      1.0  0.50279  0.16642  0.50491  1.0000
  H   H761      1.0  0.88015  0.23056  0.32864  1.0000
  H   H762      1.0  0.97442  0.16782  0.43014  1.0000
  C   C646      1.0  0.76177  0.11580  0.38713  1.0000
  N   N43       1.0  0.49702  0.17349  0.46305  1.0000
  H   H763      1.0  0.77739  0.10731  0.39996  1.0000
  H   H764      1.0  0.69007  0.46214  0.65406  1.0000
  C   C647      1.0  0.73636  0.10233  0.38639  1.0000
  H   H765      1.0  0.70294  0.14410  0.34309  1.0000
  H   H766      1.0  0.49873  0.17094  0.42068  1.0000
  H   H767      1.0  0.74144  0.20756  0.64518  1.0000
  H   H768      1.0  0.49228  0.13666  0.48640  1.0000
  H   H769      1.0  0.73303  0.08388  0.39814  1.0000
  H   H770      1.0  0.81274  0.12392  0.34634  1.0000
  H   H771      1.0  0.73772  0.33995  0.32554  1.0000
  H   H772      1.0  0.74424  0.98939  0.59927  1.0000
  S   S175      1.0  0.77469  0.39151  0.68413  1.0000
  C   C648      1.0  0.71226  0.44393  0.68565  1.0000
  Fe  Fe90      1.0  0.81014  0.40856  0.84182  1.0000
  S   S176      1.0  0.80818  0.45473  0.83817  1.0000
  S   S177      1.0  0.80078  0.37850  0.80791  1.0000
  Fe  Fe91      1.0  0.82785  0.41143  0.90110  1.0000
  S   S178      1.0  0.82678  0.45778  0.90059  1.0000
  S   S179      1.0  0.84665  0.38766  0.93619  1.0000
  Fe  Fe92      1.0  0.78740  0.45349  0.87771  1.0000
  S   S180      1.0  0.62554  0.46201  0.88325  1.0000
  Fe  Fe93      1.0  0.84776  0.45486  0.86120  1.0000
  C   C649      1.0  0.68352  0.41417  0.95163  1.0000
  S   S181      1.0  0.78678  0.40699  0.88051  1.0000
  S   S182      1.0  0.85129  0.40870  0.86254  1.0000
  Fe  Fe94      1.0  0.58528  0.04610  0.83306  1.0000
  H   H773      1.0  0.64852  0.99751  0.83089  1.0000
  S   S183      1.0  0.61038  0.06951  0.80161  1.0000
  Fe  Fe95      1.0  0.56763  0.04412  0.89295  1.0000
  S   S184      1.0  0.57255  0.00197  0.82736  1.0000
  S   S185      1.0  0.56158  0.07061  0.93011  1.0000
  Fe  Fe96      1.0  0.59371  0.99421  0.86618  1.0000
  H   H774      1.0  0.85640  0.45128  0.77896  1.0000
  Fe  Fe97      1.0  0.53526  0.01226  0.85198  1.0000
  C   C650      1.0  0.95635  0.44896  0.84831  1.0000
  S   S186      1.0  0.60778  0.03784  0.87132  1.0000
  S   S187      1.0  0.54663  0.05726  0.85530  1.0000
  C   C651      1.0  0.55068  0.06281  0.96297  1.0000
  C   C652      1.0  0.72493  0.48207  0.81806  1.0000
  H   H775      1.0  0.71839  0.37380  0.93290  1.0000
  H   H776      1.0  0.54796  0.10584  0.97381  1.0000
  H   H777      1.0  0.55097  0.01851  0.95893  1.0000
  C   C653      1.0  0.84398  0.38524  0.97138  1.0000
  H   H778      1.0  0.59470  0.13514  0.70431  1.0000
  C   C654      1.0  0.66307  0.18819  0.70311  1.0000
  C   C655      1.0  0.98437  0.00189  0.77278  1.0000
  H   H779      1.0  0.65737  0.47371  0.73317  1.0000
  S   S188      1.0  0.55497  0.99961  0.89033  1.0000
  C   C656      1.0  0.93221  0.41073  0.77297  1.0000
  C   C657      1.0  0.62326  0.03202  0.97934  1.0000
  C   C658      1.0  0.64035  0.04847  0.93593  1.0000
  C   C659      1.0  0.61718  0.05981  0.98653  1.0000
  H   H780      1.0  0.77941  0.99290  0.97977  1.0000
  H   H781      1.0  0.69382  0.42054  0.80710  1.0000
  C   C660      1.0  0.64856  0.00644  0.81067  1.0000
  H   H782      1.0  0.62172  0.00001  0.91939  1.0000
  H   H783      1.0  0.67198  0.42668  0.87500  1.0000
  C   C661      1.0  0.58902  0.13454  0.74579  1.0000
  H   H784      1.0  0.83612  0.00017  0.77099  1.0000
  C   C662      1.0  0.67975  0.44719  0.87900  1.0000
  C   C663      1.0  0.69617  0.44275  0.80896  1.0000
  H   H785      1.0  0.59447  0.01825  0.93584  1.0000
  H   H786      1.0  0.97424  0.45270  0.95403  1.0000
  C   C664      1.0  0.90567  0.46304  0.91678  1.0000
  C   C665      1.0  0.62226  0.15885  0.77217  1.0000
  H   H787      1.0  0.97030  0.01209  0.85546  1.0000
  H   H788      1.0  0.72239  0.43499  0.87571  1.0000
  C   C666      1.0  0.60567  0.07289  0.71023  1.0000
  C   C667      1.0  0.63017  0.07885  0.72354  1.0000
  C   C668      1.0  0.63143  0.07707  0.75139  1.0000
  C   C669      1.0  0.60854  0.06849  0.76636  1.0000
  C   C670      1.0  0.58454  0.06108  0.75296  1.0000
  C   C671      1.0  0.58306  0.06358  0.72517  1.0000
  H   H789      1.0  0.64791  0.08558  0.71247  1.0000
  H   H790      1.0  0.65012  0.08292  0.76144  1.0000
  H   H791      1.0  0.56669  0.05453  0.76404  1.0000
  H   H792      1.0  0.56399  0.05880  0.71521  1.0000
  C   C672      1.0  0.78007  0.38749  0.71886  1.0000
  C   C673      1.0  0.78712  0.41090  0.73397  1.0000
  C   C674      1.0  0.79248  0.40881  0.76133  1.0000
  C   C675      1.0  0.79176  0.38302  0.77391  1.0000
  C   C676      1.0  0.78468  0.35964  0.75883  1.0000
  C   C677      1.0  0.77858  0.36185  0.73161  1.0000
  H   H793      1.0  0.78833  0.43087  0.72440  1.0000
  H   H794      1.0  0.79743  0.42714  0.77251  1.0000
  H   H795      1.0  0.78398  0.33956  0.76824  1.0000
  H   H796      1.0  0.77333  0.34360  0.72038  1.0000
  H   H797      1.0  0.91440  0.43554  0.85433  1.0000
  H   H798      1.0  0.73106  0.42764  0.72068  1.0000
  H   H799      1.0  0.80802  0.41067  0.97563  1.0000
  H   H800      1.0  0.63012  0.16445  0.79145  1.0000
  H   H801      1.0  0.61947  0.47939  0.81277  1.0000
  H   H802      1.0  0.96682  0.16115  0.96775  1.0000
  C   C678      1.0  0.70828  0.45178  0.87953  1.0000
  C   C679      1.0  0.62143  0.17918  0.67953  1.0000
  H   H803      1.0  0.72784  0.39910  0.90861  1.0000
  S   S189      1.0  0.49598  0.46243  0.86530  1.0000
  C   C680      1.0  0.93488  0.43610  0.94531  1.0000
  C   C681      1.0  0.66119  0.46898  0.88352  1.0000
  S   S190      1.0  0.49095  0.00627  0.83905  1.0000
  C   C682      1.0  0.69033  0.45907  0.67515  1.0000
  H   H804      1.0  0.97618  0.40889  0.76747  1.0000
  H   H805      1.0  0.72791  0.43535  0.67271  1.0000
  H   H806      1.0  0.96969  0.05531  0.78444  1.0000
  H   H807      1.0  0.86660  0.44235  0.81222  1.0000
  S   S191      1.0  0.88084  0.48583  0.85004  1.0000
  H   H808      1.0  0.66798  0.13244  0.70242  1.0000
  C   C683      1.0  0.68344  0.47180  0.94946  1.0000
  H   H809      1.0  0.87072  0.42217  0.74178  1.0000
  N   N44       1.0  0.88151  0.41447  0.78230  1.0000
  C   C684      1.0  0.88274  0.39046  0.80059  1.0000
  C   C685      1.0  0.86040  0.43379  0.79273  1.0000
  C   C686      1.0  0.87209  0.40474  0.75610  1.0000
  C   C687      1.0  0.90906  0.42720  0.77976  1.0000
  H   H810      1.0  0.70749  0.00769  0.89536  1.0000
  H   H811      1.0  0.98331  0.45856  0.77669  1.0000
  H   H812      1.0  0.93008  0.38895  0.76884  1.0000
  C   C688      1.0  0.71842  0.47817  0.88492  1.0000
  H   H813      1.0  0.68002  0.17987  0.71554  1.0000
  H   H814      1.0  0.89209  0.39648  0.81979  1.0000
  H   H815      1.0  0.63928  0.41785  0.95218  1.0000
  H   H816      1.0  0.89482  0.37293  0.79251  1.0000
  C   C689      1.0  0.75955  0.42927  0.94239  1.0000
  H   H817      1.0  0.84032  0.42330  0.79573  1.0000
  C   C690      1.0  0.96272  0.44998  0.77679  1.0000
  C   C691      1.0  0.91023  0.43931  0.93172  1.0000
  C   C692      1.0  0.54574  0.08475  0.98062  1.0000
  C   C693      1.0  0.92866  0.99656  0.85392  1.0000
  C   C694      1.0  0.65866  0.45753  0.95039  1.0000
  H   H818      1.0  0.61918  0.07688  0.97292  1.0000
  C   C695      1.0  0.61402  0.00677  0.93907  1.0000
  H   H819      1.0  0.88675  0.46524  0.90571  1.0000
  H   H820      1.0  0.62879  0.48412  0.77838  1.0000
  N   N45       1.0  0.64090  0.16750  0.69920  1.0000
  C   C696      1.0  0.65360  0.14222  0.68809  1.0000
  H   H821      1.0  0.57136  0.12097  0.74450  1.0000
  H   H822      1.0  0.88614  0.38897  0.74754  1.0000
  C   C697      1.0  0.62619  0.16005  0.72380  1.0000
  C   C698      1.0  0.70839  0.45741  0.94890  1.0000
  H   H823      1.0  0.65376  0.18035  0.75209  1.0000
  C   C699      1.0  0.95115  0.48103  0.92874  1.0000
  H   H824      1.0  0.60646  0.16364  0.67223  1.0000
  C   C700      1.0  0.49524  0.03231  0.91224  1.0000
  C   C701      1.0  0.66916  0.46989  0.69146  1.0000
  H   H825      1.0  0.85134  0.39504  0.75730  1.0000
  H   H826      1.0  0.64932  0.04211  0.91666  1.0000
  C   C702      1.0  0.95516  0.45652  0.94377  1.0000
  C   C703      1.0  0.65869  0.42879  0.95164  1.0000
  N   N46       1.0  0.63427  0.02428  0.95308  1.0000
  H   H827      1.0  0.65495  0.20755  0.71208  1.0000
  H   H828      1.0  0.87208  0.44306  0.98098  1.0000
  H   H829      1.0  0.63798  0.12641  0.68282  1.0000
  H   H830      1.0  0.61584  0.47319  0.70910  1.0000
  H   H831      1.0  0.75664  0.44063  0.92349  1.0000
  C   C704      1.0  0.91660  0.47950  0.84808  1.0000
  S   S192      1.0  0.60135  0.07866  0.67553  1.0000
  N   N47       1.0  0.73517  0.41200  0.94861  1.0000
  C   C705      1.0  0.73359  0.39012  0.92809  1.0000
  H   H832      1.0  0.73949  0.44007  0.81722  1.0000
  C   C706      1.0  0.63572  0.16780  0.74928  1.0000
  H   H833      1.0  0.62136  0.06039  0.93114  1.0000
  C   C707      1.0  0.82292  0.39804  0.98574  1.0000
  C   C708      1.0  0.60247  0.14304  0.72281  1.0000
  H   H834      1.0  0.63935  0.46878  0.94961  1.0000
  C   C709      1.0  0.59906  0.14216  0.77043  1.0000
  H   H835      1.0  0.51352  0.04228  0.90317  1.0000
  H   H836      1.0  0.58918  0.13451  0.78819  1.0000
  H   H837      1.0  0.91951  0.01627  0.85896  1.0000
  H   H838      1.0  0.89767  0.47022  0.78910  1.0000
  H   H839      1.0  0.66882  0.01457  0.76140  1.0000
  H   H840      1.0  0.69533  0.99433  0.82946  1.0000
  C   C710      1.0  0.70916  0.42799  0.94951  1.0000
  C   C711      1.0  0.67202  0.46572  0.71914  1.0000
  C   C712      1.0  0.97400  0.47144  0.84367  1.0000
  H   H841      1.0  0.67296  0.19408  0.68404  1.0000
  H   H842      1.0  0.77853  0.41661  0.94004  1.0000
  H   H843      1.0  0.96486  0.42835  0.85004  1.0000
  H   H844      1.0  0.50031  0.08693  0.92018  1.0000
  H   H845      1.0  0.76392  0.44455  0.95823  1.0000
  H   H846      1.0  0.50175  0.02341  0.93151  1.0000
  H   H847      1.0  0.60966  0.19683  0.68799  1.0000
  C   C713      1.0  0.92776  0.45297  0.85070  1.0000
  S   S193      1.0  0.75401  0.48468  0.88722  1.0000
  H   H848      1.0  0.69602  0.44749  0.75057  1.0000
  H   H849      1.0  0.62635  0.44752  0.66626  1.0000
  C   C714      1.0  0.69421  0.45071  0.72948  1.0000
  H   H850      1.0  0.96474  0.00715  0.76275  1.0000
  C   C715      1.0  0.95865  0.42197  0.77185  1.0000
  C   C716      1.0  0.94032  0.46695  0.78231  1.0000
  H   H851      1.0  0.75357  0.37911  0.92557  1.0000
  H   H852      1.0  0.93841  0.41742  0.95669  1.0000
  H   H853      1.0  0.89475  0.42322  0.93247  1.0000
  H   H854      1.0  0.86191  0.38189  0.80477  1.0000
  H   H855      1.0  0.48938  0.01488  0.89911  1.0000
  C   C717      1.0  0.54756  0.03568  0.97216  1.0000
  H   H856      1.0  0.49251  0.06959  0.94998  1.0000
  C   C718      1.0  0.71410  0.43961  0.71273  1.0000
  H   H857      1.0  0.72310  0.38419  0.97990  1.0000
  C   C719      1.0  0.91385  0.45589  0.78388  1.0000
  C   C720      1.0  0.92566  0.48368  0.91526  1.0000
  H   H858      1.0  0.88004  0.35946  0.97454  1.0000
  H   H859      1.0  0.68238  0.39194  0.95297  1.0000
  N   N48       1.0  0.64567  0.48502  0.67964  1.0000
  H   H860      1.0  0.65783  0.00479  0.88457  1.0000
  C   C721      1.0  0.66022  0.00842  0.95627  1.0000
  H   H861      1.0  0.65541  0.06264  0.94536  1.0000
  H   H862      1.0  0.62775  0.01539  0.80776  1.0000
  H   H863      1.0  0.66316  0.02410  0.80978  1.0000
  H   H864      1.0  0.67005  0.00380  0.93693  1.0000
  H   H865      1.0  0.97901  0.99291  0.79242  1.0000
  H   H866      1.0  0.72667  0.46990  0.94719  1.0000
  H   H867      1.0  0.65392  0.45020  0.80246  1.0000
  H   H868      1.0  0.63225  0.18678  0.66158  1.0000
  C   C722      1.0  0.73989  0.39873  0.97459  1.0000
  C   C723      1.0  0.95745  0.99428  0.85185  1.0000
  C   C724      1.0  0.72193  0.45368  0.81468  1.0000
  H   H869      1.0  0.66549  0.14679  0.66988  1.0000
  H   H870      1.0  0.63233  0.00965  0.76187  1.0000
  C   C725      1.0  0.67333  0.46017  0.80627  1.0000
  C   C726      1.0  0.65245  0.99878  0.76419  1.0000
  H   H871      1.0  0.98170  0.03559  0.81233  1.0000
  H   H872      1.0  0.67532  0.02017  0.96832  1.0000
  C   C727      1.0  0.86360  0.36948  0.98530  1.0000
  H   H873      1.0  0.75945  0.38667  0.97486  1.0000
  C   C728      1.0  0.63280  0.46808  0.65857  1.0000
  H   H874      1.0  0.84550  0.98883  0.80356  1.0000
  H   H875      1.0  0.94362  0.48872  0.78629  1.0000
  S   S194      1.0  0.84723  0.81569  0.29919  1.0000
  S   S195      1.0  0.52708  0.63838  0.30779  1.0000
  Fe  Fe98      1.0  0.50122  0.57929  0.09382  1.0000
  S   S196      1.0  0.93891  0.65690  0.09175  1.0000
  S   S197      1.0  0.52075  0.55484  0.05950  1.0000
  Fe  Fe99      1.0  0.50741  0.60147  0.15140  1.0000
  H   H876      1.0  0.91542  0.78425  0.16576  1.0000
  S   S198      1.0  0.53748  0.61623  0.18340  1.0000
  C   C729      1.0  0.53267  0.56366  0.28805  1.0000
  C   C730      1.0  0.96038  0.70365  0.29332  1.0000
  C   C731      1.0  0.97117  0.96600  0.12943  1.0000
  Fe  Fe100     1.0  0.97427  0.62705  0.09860  1.0000
  S   S199      1.0  0.50695  0.55859  0.13365  1.0000
  S   S200      1.0  0.50600  0.62228  0.11132  1.0000
  Fe  Fe101     1.0  0.88132  0.86170  0.08300  1.0000
  S   S201      1.0  0.92747  0.86217  0.08247  1.0000
  S   S202      1.0  0.86070  0.88616  0.04911  1.0000
  Fe  Fe102     1.0  0.88057  0.83632  0.14015  1.0000
  S   S203      1.0  0.92653  0.83713  0.14216  1.0000
  S   S204      1.0  0.85855  0.81125  0.17280  1.0000
  Fe  Fe103     1.0  0.92421  0.87916  0.12350  1.0000
  S   S205      1.0  0.95511  0.91200  0.13547  1.0000
  Fe  Fe104     1.0  0.92534  0.82006  0.10110  1.0000
  S   S206      1.0  0.95712  0.78713  0.09148  1.0000
  S   S207      1.0  0.87804  0.88019  0.12417  1.0000
  S   S208      1.0  0.87934  0.81783  0.09890  1.0000
  C   C732      1.0  0.94394  0.69313  0.09295  1.0000
  C   C733      1.0  0.97017  0.70445  0.09566  1.0000
  C   C734      1.0  0.97379  0.73326  0.09515  1.0000
  C   C735      1.0  0.95117  0.75110  0.09267  1.0000
  C   C736      1.0  0.92478  0.73988  0.09071  1.0000
  C   C737      1.0  0.92123  0.71097  0.09062  1.0000
  H   H877      1.0  0.97477  0.95483  0.00920  1.0000
  H   H878      1.0  0.48768  0.62197  0.26867  1.0000
  H   H879      1.0  0.90720  0.75345  0.08863  1.0000
  H   H880      1.0  0.88588  0.76452  0.29581  1.0000
  H   H881      1.0  0.54144  0.57352  0.30532  1.0000
  C   C738      1.0  0.85167  0.90196  0.99745  1.0000
  C   C739      1.0  0.92225  0.95869  0.13384  1.0000
  C   C740      1.0  0.94886  0.94786  0.13239  1.0000
  H   H882      1.0  0.90084  0.70239  0.08854  1.0000
  H   H883      1.0  0.56349  0.57953  0.26183  1.0000
  H   H884      1.0  0.98264  0.66492  0.24150  1.0000
  H   H885      1.0  0.90496  0.94492  0.13642  1.0000
  H   H886      1.0  0.52539  0.49668  0.21431  1.0000
  C   C741      1.0  0.92992  0.70901  0.25586  1.0000
  C   C742      1.0  0.52405  0.58577  0.01273  1.0000
  C   C743      1.0  0.52804  0.56028  0.02529  1.0000
  C   C744      1.0  0.53779  0.53786  0.01014  1.0000
  H   H887      1.0  0.51671  0.60327  0.02402  1.0000
  H   H888      1.0  0.54127  0.51811  0.01962  1.0000
  H   H889      1.0  0.50623  0.50355  0.18468  1.0000
  C   C745      1.0  0.85746  0.87966  0.01449  1.0000
  H   H890      1.0  0.76132  0.78689  0.17830  1.0000
  H   H891      1.0  0.86309  0.83559  0.01648  1.0000
  H   H892      1.0  0.75692  0.81331  0.29625  1.0000
  C   C746      1.0  0.52966  0.63545  0.27271  1.0000
  C   C747      1.0  0.50672  0.62600  0.25835  1.0000
  C   C748      1.0  0.50838  0.62096  0.23091  1.0000
  C   C749      1.0  0.53326  0.62469  0.21750  1.0000
  C   C750      1.0  0.55596  0.63485  0.23170  1.0000
  C   C751      1.0  0.55416  0.64040  0.25904  1.0000
  H   H893      1.0  0.50273  0.71618  0.21891  1.0000
  H   H894      1.0  0.94401  0.92896  0.07637  1.0000
  H   H895      1.0  0.57529  0.63799  0.22157  1.0000
  H   H896      1.0  0.57202  0.64757  0.26970  1.0000
  C   C752      1.0  0.85229  0.81292  0.26424  1.0000
  C   C753      1.0  0.86328  0.83565  0.25040  1.0000
  C   C754      1.0  0.86638  0.83517  0.22262  1.0000
  C   C755      1.0  0.85821  0.81198  0.20814  1.0000
  C   C756      1.0  0.84794  0.78892  0.22206  1.0000
  C   C757      1.0  0.84526  0.78925  0.24988  1.0000
  H   H897      1.0  0.86899  0.85406  0.26119  1.0000
  H   H898      1.0  0.87425  0.85312  0.21236  1.0000
  H   H899      1.0  0.84141  0.77089  0.21114  1.0000
  H   H900      1.0  0.83719  0.77142  0.26005  1.0000
  C   C758      1.0  0.49473  0.69621  0.21133  1.0000
  C   C759      1.0  0.49651  0.53671  0.26775  1.0000
  N   N49       1.0  0.94918  0.75723  0.17650  1.0000
  C   C760      1.0  0.97000  0.77506  0.16360  1.0000
  C   C761      1.0  0.92231  0.76244  0.16344  1.0000
  C   C762      1.0  0.94628  0.76582  0.20447  1.0000
  C   C763      1.0  0.95832  0.72802  0.17505  1.0000
  C   C764      1.0  0.54509  0.56704  0.26352  1.0000
  C   C765      1.0  0.94329  0.70726  0.16145  1.0000
  H   H901      1.0  0.88458  0.94358  0.03237  1.0000
  H   H902      1.0  0.90049  0.52246  0.00682  1.0000
  C   C766      1.0  0.93448  0.92451  0.02335  1.0000
  H   H903      1.0  0.97369  0.76845  0.14286  1.0000
  H   H904      1.0  0.96345  0.79707  0.16296  1.0000
  C   C767      1.0  0.97132  0.97068  0.02382  1.0000
  C   C768      1.0  0.50588  0.70848  0.16641  1.0000
  H   H905      1.0  0.92344  0.75868  0.14184  1.0000
  H   H906      1.0  0.94846  0.76776  0.29834  1.0000
  H   H907      1.0  0.93536  0.93113  0.00232  1.0000
  H   H908      1.0  0.93895  0.78764  0.20608  1.0000
  H   H909      1.0  0.91166  0.71657  0.24617  1.0000
  H   H910      1.0  0.89372  0.97645  0.04572  1.0000
  H   H911      1.0  0.92439  0.71158  0.15106  1.0000
  C   C769      1.0  0.78721  0.91908  0.00881  1.0000
  H   H912      1.0  0.50294  0.96413  0.03722  1.0000
  H   H913      1.0  0.94135  0.66456  0.14926  1.0000
  C   C770      1.0  0.91805  0.98744  0.13244  1.0000
  H   H914      1.0  0.94672  0.52331  0.14257  1.0000
  C   C771      1.0  0.96998  0.67929  0.25264  1.0000
  H   H915      1.0  0.90955  0.91846  0.06821  1.0000
  H   H916      1.0  0.89400  0.50931  0.05258  1.0000
  H   H917      1.0  0.93112  0.75257  0.21488  1.0000
  C   C772      1.0  0.48595  0.55313  0.20194  1.0000
  C   C773      1.0  0.53313  0.55573  0.24093  1.0000
  H   H918      1.0  0.96293  0.93268  0.20016  1.0000
  H   H919      1.0  0.88210  0.73572  0.27459  1.0000
  H   H920      1.0  0.76240  0.86772  0.99957  1.0000
  C   C774      1.0  0.94652  0.69085  0.24134  1.0000
  H   H921      1.0  0.74563  0.73738  0.25438  1.0000
  C   C775      1.0  0.85879  0.85304  0.00375  1.0000
  H   H922      1.0  0.91863  0.90786  0.02428  1.0000
  C   C776      1.0  0.95090  0.73463  0.02790  1.0000
  C   C777      1.0  0.94682  0.50238  0.13507  1.0000
  H   H923      1.0  0.85049  0.92266  0.00532  1.0000
  H   H924      1.0  0.95302  0.69131  0.03231  1.0000
  N   N50       1.0  0.49561  0.52942  0.21793  1.0000
  C   C778      1.0  0.93579  0.75563  0.31247  1.0000
  C   C779      1.0  0.50850  0.54846  0.29018  1.0000
  C   C780      1.0  0.76387  0.79187  0.24598  1.0000
  C   C781      1.0  0.78102  0.81558  0.24707  1.0000
  C   C782      1.0  0.75668  0.78204  0.22045  1.0000
  C   C783      1.0  0.79051  0.82846  0.22412  1.0000
  C   C784      1.0  0.76651  0.79500  0.19761  1.0000
  C   C785      1.0  0.78355  0.81802  0.19945  1.0000
  H   H925      1.0  0.90714  0.76237  0.26709  1.0000
  C   C786      1.0  0.89774  0.74984  0.28315  1.0000
  C   C787      1.0  0.88888  0.49414  0.03777  1.0000
  N   N51       1.0  0.91895  0.73460  0.29855  1.0000
  H   H926      1.0  0.79188  0.82747  0.18174  1.0000
  C   C788      1.0  0.96485  0.75935  0.02380  1.0000
  H   H927      1.0  0.90563  0.74954  0.17199  1.0000
  C   C789      1.0  0.90458  0.71745  0.31841  1.0000
  H   H928      1.0  0.49784  0.71242  0.14620  1.0000
  C   C790      1.0  0.90096  0.95964  0.03246  1.0000
  N   N52       1.0  0.92760  0.94791  0.04119  1.0000
  H   H929      1.0  0.92900  0.73507  0.03189  1.0000
  H   H930      1.0  0.48937  0.50756  0.02741  1.0000
  C   C791      1.0  0.97081  0.95362  0.20113  1.0000
  H   H931      1.0  0.73031  0.74428  0.28550  1.0000
  C   C792      1.0  0.73633  0.75421  0.26643  1.0000
  H   H932      1.0  0.49357  0.69063  0.31555  1.0000
  H   H933      1.0  0.98373  0.66099  0.05246  1.0000
  C   C793      1.0  0.97684  0.68562  0.27860  1.0000
  H   H934      1.0  0.53266  0.52652  0.19420  1.0000
  H   H935      1.0  0.96600  0.76470  0.21544  1.0000
  H   H936      1.0  0.52278  0.69298  0.16466  1.0000
  H   H937      1.0  0.95442  0.91478  0.02891  1.0000
  H   H938      1.0  0.80753  0.93891  0.04141  1.0000
  H   H939      1.0  0.49060  0.61352  0.22035  1.0000
  H   H940      1.0  0.79071  0.89914  0.01787  1.0000
  H   H941      1.0  0.91511  0.95137  0.08203  1.0000
  H   H942      1.0  0.71702  0.76142  0.25686  1.0000
  C   C794      1.0  0.94859  0.97008  0.04151  1.0000
  C   C795      1.0  0.89286  0.50196  0.01141  1.0000
  H   H943      1.0  0.80430  0.84600  0.22548  1.0000
  N   N53       1.0  0.75582  0.77743  0.27058  1.0000
  C   C796      1.0  0.95372  0.97582  0.19500  1.0000
  H   H944      1.0  0.51209  0.68116  0.21227  1.0000
  H   H945      1.0  0.50308  0.56699  0.19594  1.0000
  C   C797      1.0  0.98349  0.71974  0.18691  1.0000
  H   H946      1.0  0.79154  0.75124  0.26961  1.0000
  H   H947      1.0  0.77584  0.75440  0.30140  1.0000
  C   C798      1.0  0.92404  0.93624  0.06807  1.0000
  C   C799      1.0  0.93663  0.71633  0.28227  1.0000
  H   H948      1.0  0.49373  0.65618  0.17524  1.0000
  H   H949      1.0  0.73509  0.78635  0.30737  1.0000
  C   C800      1.0  0.74259  0.79705  0.28923  1.0000
  C   C801      1.0  0.97773  0.67267  0.17183  1.0000
  H   H950      1.0  0.95383  0.77886  0.02472  1.0000
  C   C802      1.0  0.49392  0.98201  0.04799  1.0000
  H   H951      1.0  0.78822  0.82374  0.26569  1.0000
  H   H952      1.0  0.54282  0.56032  0.22221  1.0000
  C   C803      1.0  0.78084  0.76590  0.28307  1.0000
  H   H953      1.0  0.97692  0.65360  0.01811  1.0000
  H   H954      1.0  0.74389  0.76410  0.21756  1.0000
  H   H955      1.0  0.89100  0.70185  0.30896  1.0000
  H   H956      1.0  0.79577  0.78227  0.28862  1.0000
  H   H957      1.0  0.72466  0.80752  0.27990  1.0000
  C   C804      1.0  0.95289  0.67999  0.16012  1.0000
  H   H958      1.0  0.94095  0.68523  0.22133  1.0000
  C   C805      1.0  0.79432  0.96848  0.01226  1.0000
  C   C806      1.0  0.50851  0.54008  0.24233  1.0000
  C   C807      1.0  0.79710  0.94196  0.02268  1.0000
  S   S209      1.0  0.97686  0.59913  0.13423  1.0000
  H   H959      1.0  0.51550  0.72792  0.17338  1.0000
  C   C808      1.0  0.51590  0.51338  0.20222  1.0000
  H   H960      1.0  0.90256  0.96838  0.01217  1.0000
  H   H961      1.0  0.49121  0.96074  0.09531  1.0000
  H   H962      1.0  0.96619  0.70697  0.31369  1.0000
  H   H963      1.0  0.86958  0.49854  0.09020  1.0000
  C   C809      1.0  0.96272  0.49572  0.11301  1.0000
  C   C810      1.0  0.96513  0.70948  0.02811  1.0000
  S   S210      1.0  0.98256  0.52063  0.09605  1.0000
  H   H964      1.0  0.80234  0.98610  0.02295  1.0000
  H   H965      1.0  0.93256  0.97198  0.18946  1.0000
  S   S211      1.0  0.98327  0.59294  0.06972  1.0000
  H   H966      1.0  0.49876  0.54625  0.30932  1.0000
  H   H967      1.0  0.98539  0.65165  0.17028  1.0000
  Fe  Fe105     1.0  0.72855  0.87215  0.60828  1.0000
  S   S212      1.0  0.77282  0.88517  0.60722  1.0000
  S   S213      1.0  0.69254  0.90192  0.60497  1.0000
  Fe  Fe106     1.0  0.74284  0.81050  0.61197  1.0000
  S   S214      1.0  0.78788  0.82024  0.61193  1.0000
  C   C811      1.0  0.76106  0.89542  0.44843  1.0000
  C   C812      1.0  0.58381  0.70835  0.58158  1.0000
  Fe  Fe107     1.0  0.77822  0.84952  0.57876  1.0000
  S   S215      1.0  0.80544  0.84880  0.54181  1.0000
  H   H968      1.0  0.73400  0.90826  0.56434  1.0000
  S   S216      1.0  0.73366  0.83859  0.57773  1.0000
  Fe  Fe108     1.0  0.66361  0.57663  0.61480  1.0000
  S   S217      1.0  0.61926  0.56605  0.60782  1.0000
  S   S218      1.0  0.69972  0.54771  0.60745  1.0000
  Fe  Fe109     1.0  0.64956  0.63294  0.63882  1.0000
  S   S219      1.0  0.60433  0.62515  0.63405  1.0000
  H   H969      1.0  0.79258  0.74762  0.58471  1.0000
  S   S220      1.0  0.82979  0.74296  0.33166  1.0000
  Fe  Fe110     1.0  0.61520  0.61020  0.59294  1.0000
  S   S221      1.0  0.59128  0.63211  0.55928  1.0000
  H   H970      1.0  0.70623  0.92312  0.47959  1.0000
  S   S222      1.0  0.66024  0.61971  0.59759  1.0000
  Fe  Fe111     1.0  0.80456  0.78984  0.38999  1.0000
  S   S223      1.0  0.80344  0.74339  0.39138  1.0000
  S   S224      1.0  0.78018  0.81207  0.42268  1.0000
  S   S225      1.0  0.73680  0.76438  0.60602  1.0000
  C   C813      1.0  0.71703  0.49356  0.60730  1.0000
  Fe  Fe112     1.0  0.78771  0.74556  0.34999  1.0000
  H   H971      1.0  0.52943  0.68097  0.44502  1.0000
  Fe  Fe113     1.0  0.84551  0.74486  0.37326  1.0000
  S   S226      1.0  0.87606  0.71204  0.38585  1.0000
  S   S227      1.0  0.78635  0.79192  0.34887  1.0000
  S   S228      1.0  0.84823  0.79133  0.37443  1.0000
  Fe  Fe114     1.0  0.55148  0.66041  0.34059  1.0000
  S   S229      1.0  0.55332  0.70692  0.34174  1.0000
  Fe  Fe115     1.0  0.57270  0.65567  0.39881  1.0000
  S   S230      1.0  0.57482  0.70154  0.40293  1.0000
  S   S231      1.0  0.58797  0.62740  0.43242  1.0000
  Fe  Fe116     1.0  0.53439  0.70302  0.38185  1.0000
  H   H972      1.0  0.64160  0.70173  0.46101  1.0000
  Fe  Fe117     1.0  0.59389  0.70147  0.36257  1.0000
  S   S232      1.0  0.62799  0.73341  0.35966  1.0000
  S   S233      1.0  0.53050  0.65683  0.38040  1.0000
  S   S234      1.0  0.59382  0.65498  0.35886  1.0000
  C   C814      1.0  0.70126  0.69913  0.33807  1.0000
  C   C815      1.0  0.71007  0.74589  0.35260  1.0000
  C   C816      1.0  0.68185  0.74936  0.35763  1.0000
  C   C817      1.0  0.66324  0.72773  0.35308  1.0000
  C   C818      1.0  0.64478  0.79210  0.58978  1.0000
  C   C819      1.0  0.61743  0.78924  0.59738  1.0000
  C   C820      1.0  0.71070  0.93814  0.52750  1.0000
  C   C821      1.0  0.67304  0.70254  0.34328  1.0000
  C   C822      1.0  0.63652  0.69376  0.44103  1.0000
  C   C823      1.0  0.79052  0.73602  0.56581  1.0000
  C   C824      1.0  0.91164  0.71832  0.38466  1.0000
  C   C825      1.0  0.92199  0.74521  0.38385  1.0000
  C   C826      1.0  0.95047  0.74953  0.38226  1.0000
  C   C827      1.0  0.96866  0.72705  0.38049  1.0000
  C   C828      1.0  0.95831  0.70013  0.38090  1.0000
  C   C829      1.0  0.92988  0.69579  0.38353  1.0000
  H   H973      1.0  0.90809  0.76267  0.38481  1.0000
  H   H974      1.0  0.64367  0.68616  0.38952  1.0000
  H   H975      1.0  0.65884  0.68588  0.33935  1.0000
  H   H976      1.0  0.92189  0.67493  0.38394  1.0000
  C   C830      1.0  0.59237  0.63118  0.52395  1.0000
  C   C831      1.0  0.57968  0.65269  0.50956  1.0000
  C   C832      1.0  0.57880  0.65234  0.48165  1.0000
  C   C833      1.0  0.59001  0.63006  0.46764  1.0000
  C   C834      1.0  0.60304  0.60878  0.48199  1.0000
  C   C835      1.0  0.60442  0.60941  0.50988  1.0000
  H   H977      1.0  0.57035  0.66970  0.52014  1.0000
  H   H978      1.0  0.56914  0.66912  0.47105  1.0000
  H   H979      1.0  0.61183  0.59141  0.47149  1.0000
  H   H980      1.0  0.61412  0.59261  0.52052  1.0000
  C   C836      1.0  0.79786  0.83831  0.50885  1.0000
  C   C837      1.0  0.77091  0.83584  0.49953  1.0000
  C   C838      1.0  0.76599  0.82770  0.47318  1.0000
  C   C839      1.0  0.78783  0.82158  0.45585  1.0000
  C   C840      1.0  0.81476  0.82389  0.46523  1.0000
  C   C841      1.0  0.81970  0.83247  0.49145  1.0000
  H   H981      1.0  0.75385  0.84058  0.51245  1.0000
  H   H982      1.0  0.74507  0.82628  0.46611  1.0000
  H   H983      1.0  0.83181  0.81948  0.45215  1.0000
  H   H984      1.0  0.84065  0.83449  0.49832  1.0000
  C   C842      1.0  0.71504  0.73992  0.62119  1.0000
  H   H985      1.0  0.83547  0.75612  0.54032  1.0000
  C   C843      1.0  0.69952  0.69201  0.62377  1.0000
  H   H986      1.0  0.50287  0.63006  0.42835  1.0000
  C   C844      1.0  0.78227  0.69875  0.48998  1.0000
  C   C845      1.0  0.69662  0.74703  0.64124  1.0000
  H   H987      1.0  0.49474  0.73675  0.33658  1.0000
  H   H988      1.0  0.68196  0.77098  0.57898  1.0000
  C   C846      1.0  0.65145  0.66941  0.40255  1.0000
  C   C847      1.0  0.78460  0.71145  0.51472  1.0000
  C   C848      1.0  0.69618  0.93845  0.60420  1.0000
  C   C849      1.0  0.72203  0.95101  0.60333  1.0000
  H   H989      1.0  0.51859  0.66228  0.49192  1.0000
  C   C850      1.0  0.69497  0.51180  0.60279  1.0000
  C   C851      1.0  0.66961  0.50106  0.59499  1.0000
  H   H990      1.0  0.91925  0.70583  0.33104  1.0000
  H   H991      1.0  0.74040  0.93851  0.60453  1.0000
  H   H992      1.0  0.62816  0.71098  0.42878  1.0000
  H   H993      1.0  0.65257  0.51487  0.59120  1.0000
  H   H994      1.0  0.71099  0.66974  0.40544  1.0000
  C   C852      1.0  0.78029  0.89603  0.46872  1.0000
  H   H995      1.0  0.61941  0.67873  0.44360  1.0000
  C   C853      1.0  0.68141  0.69894  0.64412  1.0000
  H   H996      1.0  0.80067  0.88755  0.46544  1.0000
  H   H997      1.0  0.65387  0.81250  0.58819  1.0000
  H   H998      1.0  0.73669  0.50174  0.61341  1.0000
  H   H999      1.0  0.71965  0.90473  0.43694  1.0000
  H   H1000     1.0  0.97881  0.69737  0.46344  1.0000
  C   C854      1.0  0.62728  0.68779  0.59137  1.0000
  H   H1001     1.0  0.70075  0.67084  0.61695  1.0000
  H   H1002     1.0  0.67439  0.76890  0.36519  1.0000
  H   H1003     1.0  0.72595  0.88549  0.53758  1.0000
  C   C855      1.0  0.60578  0.76294  0.59985  1.0000
  Fe  Fe118     1.0  0.77775  0.85442  0.64053  1.0000
  H   H1004     1.0  0.66273  0.72510  0.58303  1.0000
  C   C856      1.0  0.74008  0.90226  0.54397  1.0000
  H   H1005     1.0  0.76657  0.88657  0.42947  1.0000
  H   H1006     1.0  0.63445  0.65425  0.40514  1.0000
  C   C857      1.0  0.67472  0.98422  0.60080  1.0000
  N   N54       1.0  0.60866  0.71101  0.59835  1.0000
  H   H1007     1.0  0.74913  0.70143  0.39778  1.0000
  Fe  Fe119     1.0  0.82985  0.78924  0.33323  1.0000
  C   C858      1.0  0.73459  0.90548  0.45279  1.0000
  C   C859      1.0  0.72715  0.91598  0.47753  1.0000
  H   H1008     1.0  0.73049  0.70672  0.59691  1.0000
  H   H1009     1.0  0.50124  0.68274  0.42233  1.0000
  C   C860      1.0  0.62127  0.73860  0.59470  1.0000
  C   C861      1.0  0.68388  0.70017  0.42392  1.0000
  C   C862      1.0  0.68264  0.72858  0.43118  1.0000
  C   C863      1.0  0.70870  0.69084  0.41208  1.0000
  C   C864      1.0  0.70494  0.74626  0.42695  1.0000
  C   C865      1.0  0.73080  0.70875  0.40783  1.0000
  C   C866      1.0  0.72893  0.73639  0.41533  1.0000
  H   H1010     1.0  0.56733  0.72312  0.58717  1.0000
  H   H1011     1.0  0.66802  0.65852  0.39164  1.0000
  H   H1012     1.0  0.65240  0.64307  0.44967  1.0000
  H   H1013     1.0  0.57466  0.68726  0.58315  1.0000
  H   H1014     1.0  0.74578  0.75046  0.41145  1.0000
  N   N55       1.0  0.66076  0.68074  0.42819  1.0000
  H   H1015     1.0  0.74814  0.76418  0.54583  1.0000
  H   H1016     1.0  0.66454  0.73787  0.43971  1.0000
  H   H1017     1.0  0.82062  0.78066  0.56307  1.0000
  H   H1018     1.0  0.61849  0.71075  0.63972  1.0000
  C   C867      1.0  0.97734  0.67696  0.45354  1.0000
  H   H1019     1.0  0.96706  0.68113  0.43429  1.0000
  H   H1020     1.0  0.61725  0.66747  0.59455  1.0000
  H   H1021     1.0  0.76107  0.89322  0.54527  1.0000
  H   H1022     1.0  0.64585  0.68740  0.60397  1.0000
  H   H1023     1.0  0.97216  0.68271  0.37935  1.0000
  H   H1024     1.0  0.95844  0.77041  0.38206  1.0000
  N   N56       1.0  0.49216  0.66046  0.45780  1.0000
  H   H1025     1.0  0.63349  0.68842  0.57024  1.0000
  C   C868      1.0  0.66975  0.65743  0.44520  1.0000
  C   C869      1.0  0.50671  0.68291  0.44359  1.0000
  C   C870      1.0  0.79006  0.75571  0.49305  1.0000
  C   C871      1.0  0.78762  0.74290  0.46848  1.0000
  C   C872      1.0  0.78383  0.71444  0.46692  1.0000
  H   H1026     1.0  0.80755  0.72065  0.56520  1.0000
  H   H1027     1.0  0.79299  0.77778  0.49319  1.0000
  H   H1028     1.0  0.78881  0.75522  0.45057  1.0000
  H   H1029     1.0  0.78221  0.70456  0.44778  1.0000
  N   N57       1.0  0.73878  0.92609  0.52564  1.0000
  C   C873      1.0  0.75841  0.94754  0.53469  1.0000
  H   H1030     1.0  0.78839  0.90493  0.50897  1.0000
  H   H1031     1.0  0.70608  0.94577  0.54781  1.0000
  C   C874      1.0  0.74623  0.91656  0.49879  1.0000
  C   C875      1.0  0.77303  0.90619  0.49359  1.0000
  H   H1032     1.0  0.77933  0.67658  0.48865  1.0000
  C   C876      1.0  0.71986  0.72073  0.34281  1.0000
  H   H1033     1.0  0.68595  0.64465  0.43569  1.0000
  H   H1034     1.0  0.75944  0.96500  0.52039  1.0000
  H   H1035     1.0  0.75233  0.95633  0.55416  1.0000
  H   H1036     1.0  0.69455  0.92254  0.52316  1.0000
  H   H1037     1.0  0.58892  0.71176  0.56040  1.0000
  S   S235      1.0  0.73309  0.84273  0.64279  1.0000
  H   H1038     1.0  0.67795  0.66506  0.46435  1.0000
  H   H1039     1.0  0.72420  0.76264  0.35639  1.0000
  H   H1040     1.0  0.78314  0.69809  0.53174  1.0000
  C   C877      1.0  0.66054  0.76869  0.58450  1.0000
  H   H1041     1.0  0.59257  0.68641  0.63047  1.0000
  H   H1042     1.0  0.77954  0.93928  0.53743  1.0000
  H   H1043     1.0  0.50144  0.70388  0.45103  1.0000
  H   H1044     1.0  0.60526  0.80753  0.60163  1.0000
  H   H1045     1.0  0.77052  0.72498  0.56722  1.0000
  C   C878      1.0  0.67257  0.95522  0.60308  1.0000
  H   H1046     1.0  0.65246  0.94576  0.60377  1.0000
  C   C879      1.0  0.78874  0.74047  0.51695  1.0000
  N   N58       1.0  0.79130  0.75485  0.54263  1.0000
  C   C880      1.0  0.71636  0.71240  0.61248  1.0000
  C   C881      1.0  0.64912  0.74228  0.58691  1.0000
  S   S236      1.0  0.50332  0.73454  0.39611  1.0000
  C   C882      1.0  0.76838  0.77485  0.54559  1.0000
  H   H1047     1.0  0.70344  0.76797  0.43212  1.0000
  H   H1048     1.0  0.81883  0.78693  0.52874  1.0000
  H   H1049     1.0  0.76787  0.79032  0.52951  1.0000
  C   C883      1.0  0.81768  0.77018  0.54370  1.0000
  S   S237      1.0  0.75506  0.71570  0.33575  1.0000
  H   H1050     1.0  0.77016  0.78681  0.56423  1.0000
  H   H1051     1.0  0.96342  0.66364  0.46545  1.0000
  C   C884      1.0  0.60058  0.70755  0.62641  1.0000
  H   H1052     1.0  0.58462  0.76177  0.60622  1.0000
  H   H1053     1.0  0.70820  0.95619  0.51406  1.0000
  H   H1054     1.0  0.89162  0.73025  0.33181  1.0000
  Fe  Fe120     1.0  0.61301  0.58232  0.64943  1.0000
  H   H1055     1.0  0.69489  0.76827  0.64756  1.0000
  C   C885      1.0  0.68005  0.72650  0.65286  1.0000
  C   C886      1.0  0.49646  0.66399  0.48656  1.0000
  H   H1056     1.0  0.49644  0.61607  0.46101  1.0000
  H   H1057     1.0  0.52770  0.63366  0.45395  1.0000
  H   H1058     1.0  0.58429  0.72230  0.63254  1.0000
  C   C887      1.0  0.72417  0.97990  0.60043  1.0000
  H   H1059     1.0  0.94988  0.74640  0.32730  1.0000
  H   H1060     1.0  0.70871  0.67967  0.33031  1.0000
  H   H1061     1.0  0.67126  0.50770  0.65229  1.0000
  C   C888      1.0  0.50517  0.63387  0.44991  1.0000
  H   H1062     1.0  0.48922  0.68450  0.49364  1.0000
  H   H1063     1.0  0.92280  0.77045  0.32385  1.0000
  S   S238      1.0  0.65752  0.59102  0.65663  1.0000
  S   S239      1.0  0.80648  0.86104  0.67588  1.0000
  S   S240      1.0  0.58908  0.55627  0.67978  1.0000
  Fe  Fe121     1.0  0.80505  0.90189  0.83559  1.0000
  S   S241      1.0  0.80322  0.94810  0.84019  1.0000
  S   S242      1.0  0.78377  0.88414  0.79871  1.0000
  Fe  Fe122     1.0  0.82656  0.89508  0.89328  1.0000
  S   S243      1.0  0.82588  0.94078  0.90049  1.0000
  S   S244      1.0  0.83843  0.86429  0.92600  1.0000
  Fe  Fe123     1.0  0.78487  0.94037  0.88000  1.0000
  C   C889      1.0  0.54302  0.54065  0.98282  1.0000
  Fe  Fe124     1.0  0.84448  0.94413  0.85996  1.0000
  H   H1064     1.0  0.63073  0.50733  0.71378  1.0000
  S   S245      1.0  0.78420  0.89439  0.87486  1.0000
  S   S246      1.0  0.84763  0.89813  0.85331  1.0000
  Fe  Fe125     1.0  0.56787  0.53757  0.84180  1.0000
  H   H1065     1.0  0.82785  0.81564  0.75210  1.0000
  S   S247      1.0  0.58345  0.56352  0.80653  1.0000
  Fe  Fe126     1.0  0.55442  0.54014  0.90207  1.0000
  C   C890      1.0  0.85929  0.94982  0.72329  1.0000
  S   S248      1.0  0.54321  0.57044  0.93541  1.0000
  H   H1066     1.0  0.88109  0.95370  0.72379  1.0000
  S   S249      1.0  0.62326  0.95799  0.86992  1.0000
  H   H1067     1.0  0.49183  0.96466  0.88116  1.0000
  H   H1068     1.0  0.92576  0.52251  0.84131  1.0000
  S   S250      1.0  0.59406  0.54049  0.87864  1.0000
  S   S251      1.0  0.52818  0.54112  0.86516  1.0000
  C   C891      1.0  0.53886  0.56608  0.97022  1.0000
  H   H1069     1.0  0.49106  0.52298  0.91585  1.0000
  C   C892      1.0  0.72598  0.96616  0.81729  1.0000
  H   H1070     1.0  0.75372  0.93554  0.80184  1.0000
  H   H1071     1.0  0.75383  0.79720  0.79410  1.0000
  C   C893      1.0  0.84734  0.87109  0.95963  1.0000
  H   H1072     1.0  0.73538  0.74537  0.68568  1.0000
  H   H1073     1.0  0.92079  0.50115  0.90279  1.0000
  H   H1074     1.0  0.85409  0.82804  0.96867  1.0000
  H   H1075     1.0  0.84236  0.91527  0.95764  1.0000
  C   C894      1.0  0.71581  0.96484  0.88693  1.0000
  C   C895      1.0  0.84685  0.89780  0.97026  1.0000
  C   C896      1.0  0.92371  0.94810  0.84335  1.0000
  H   H1076     1.0  0.71737  0.92168  0.87669  1.0000
  H   H1077     1.0  0.80023  0.94523  0.75965  1.0000
  C   C897      1.0  0.70228  0.49968  0.81535  1.0000
  H   H1078     1.0  0.73198  0.78164  0.75337  1.0000
  C   C898      1.0  0.65559  0.51124  0.66787  1.0000
  N   N59       1.0  0.97320  0.50201  0.92692  1.0000
  H   H1079     1.0  0.65386  0.98388  0.74759  1.0000
  H   H1080     1.0  0.80150  0.81452  0.79375  1.0000
  C   C899      1.0  0.96283  0.49798  0.84144  1.0000
  C   C900      1.0  0.70446  0.93982  0.87852  1.0000
  C   C901      1.0  0.62369  0.49197  0.69892  1.0000
  C   C902      1.0  0.65871  0.52987  0.78578  1.0000
  H   H1081     1.0  0.78181  0.93266  0.71665  1.0000
  C   C903      1.0  0.91167  0.97347  0.84987  1.0000
  H   H1082     1.0  0.96160  0.92644  0.83505  1.0000
  H   H1083     1.0  0.66496  0.53312  0.83958  1.0000
  H   H1084     1.0  0.76515  0.91676  0.92933  1.0000
  C   C904      1.0  0.58821  0.55839  0.71507  1.0000
  C   C905      1.0  0.60152  0.57941  0.72902  1.0000
  C   C906      1.0  0.59969  0.58059  0.75686  1.0000
  C   C907      1.0  0.58485  0.56066  0.77131  1.0000
  C   C908      1.0  0.57209  0.53922  0.75741  1.0000
  C   C909      1.0  0.57365  0.53823  0.72952  1.0000
  H   H1085     1.0  0.61279  0.59512  0.71835  1.0000
  H   H1086     1.0  0.60965  0.59731  0.76728  1.0000
  H   H1087     1.0  0.56048  0.52378  0.76808  1.0000
  H   H1088     1.0  0.56308  0.52195  0.71904  1.0000
  C   C910      1.0  0.79961  0.86807  0.70984  1.0000
  C   C911      1.0  0.77289  0.86961  0.71995  1.0000
  C   C912      1.0  0.76855  0.87461  0.74711  1.0000
  C   C913      1.0  0.79076  0.87862  0.76451  1.0000
  C   C914      1.0  0.81748  0.87717  0.75437  1.0000
  C   C915      1.0  0.82183  0.87187  0.72726  1.0000
  H   H1089     1.0  0.75557  0.86691  0.70688  1.0000
  H   H1090     1.0  0.74780  0.87529  0.75473  1.0000
  H   H1091     1.0  0.83479  0.87936  0.76749  1.0000
  H   H1092     1.0  0.84260  0.87063  0.71973  1.0000
  H   H1093     1.0  0.63499  0.95250  0.81196  1.0000
  H   H1094     1.0  0.73031  0.74819  0.72044  1.0000
  H   H1095     1.0  0.96351  0.51992  0.96464  1.0000
  H   H1096     1.0  0.76143  0.95363  0.95527  1.0000
  H   H1097     1.0  0.97616  0.51541  0.83767  1.0000
  C   C916      1.0  0.67137  0.49542  0.88873  1.0000
  H   H1098     1.0  0.73272  0.82148  0.70039  1.0000
  C   C917      1.0  0.77422  0.92218  0.98383  1.0000
  C   C918      1.0  0.67611  0.93807  0.87315  1.0000
  C   C919      1.0  0.79220  0.80716  0.77562  1.0000
  C   C920      1.0  0.74523  0.75248  0.70433  1.0000
  C   C921      1.0  0.96947  0.96905  0.84484  1.0000
  H   H1099     1.0  0.86153  0.93991  0.68178  1.0000
  H   H1100     1.0  0.91090  0.93020  0.84005  1.0000
  H   H1101     1.0  0.63922  0.50765  0.84639  1.0000
  C   C922      1.0  0.85359  0.84881  0.97657  1.0000
  H   H1102     1.0  0.63547  0.94751  0.77684  1.0000
  C   C923      1.0  0.72781  0.79901  0.69961  1.0000
  C   C924      1.0  0.64661  0.52263  0.83136  1.0000
  Fe  Fe127     1.0  0.52976  0.49469  0.86804  1.0000
  C   C925      1.0  0.69990  0.49998  0.88938  1.0000
  C   C926      1.0  0.65900  0.96138  0.87562  1.0000
  H   H1103     1.0  0.66736  0.91850  0.86719  1.0000
  C   C927      1.0  0.95246  0.94603  0.84051  1.0000
  C   C928      1.0  0.76526  0.79757  0.77572  1.0000
  N   N60       1.0  0.76358  0.89845  0.96850  1.0000
  N   N61       1.0  0.85339  0.95916  0.77249  1.0000
  C   C929      1.0  0.79471  0.79973  0.72840  1.0000
  C   C930      1.0  0.85183  0.93454  0.78982  1.0000
  C   C931      1.0  0.76709  0.79018  0.72774  1.0000
  C   C932      1.0  0.84241  0.95193  0.74614  1.0000
  H   H1104     1.0  0.79682  0.90229  0.94087  1.0000
  H   H1105     1.0  0.71763  0.79489  0.68037  1.0000
  N   N62       1.0  0.75304  0.78208  0.70300  1.0000
  H   H1106     1.0  0.55027  0.52312  0.97154  1.0000
  H   H1107     1.0  0.77637  0.80797  0.67651  1.0000
  H   H1108     1.0  0.65729  0.51224  0.89278  1.0000
  H   H1109     1.0  0.66582  0.73202  0.66842  1.0000
  H   H1110     1.0  0.76443  0.85368  0.96711  1.0000
  H   H1111     1.0  0.83044  0.92684  0.79206  1.0000
  C   C933      1.0  0.88249  0.96845  0.77210  1.0000
  H   H1112     1.0  0.86429  0.91716  0.78179  1.0000
  H   H1113     1.0  0.49830  0.52765  0.95000  1.0000
  H   H1114     1.0  0.66472  0.52022  0.76672  1.0000
  H   H1115     1.0  0.67560  0.54378  0.79207  1.0000
  H   H1116     1.0  0.71215  0.79482  0.71504  1.0000
  C   C934      1.0  0.82042  0.93611  0.69650  1.0000
  C   C935      1.0  0.62642  0.49468  0.79771  1.0000
  Fe  Fe128     1.0  0.59146  0.49414  0.87968  1.0000
  C   C936      1.0  0.93426  0.50193  0.84347  1.0000
  H   H1117     1.0  0.96066  0.52207  0.89079  1.0000
  H   H1118     1.0  0.94689  0.53745  0.92056  1.0000
  C   C937      1.0  0.80698  0.80785  0.75210  1.0000
  H   H1119     1.0  0.76971  0.88026  0.92990  1.0000
  H   H1120     1.0  0.72373  0.92339  0.76439  1.0000
  C   C938      1.0  0.77418  0.89956  0.94105  1.0000
  H   H1121     1.0  0.63037  0.53872  0.82930  1.0000
  C   C939      1.0  0.73319  0.89990  0.96765  1.0000
  H   H1122     1.0  0.89664  0.95159  0.76578  1.0000
  H   H1123     1.0  0.66517  0.52481  0.68299  1.0000
  H   H1124     1.0  0.72583  0.91912  0.95777  1.0000
  S   S252      1.0  0.56722  0.49120  0.84210  1.0000
  H   H1125     1.0  0.64076  0.54369  0.78196  1.0000
  C   C940      1.0  0.73423  0.94606  0.79929  1.0000
  H   H1126     1.0  0.72436  0.88223  0.95643  1.0000
  C   C941      1.0  0.75291  0.78893  0.75224  1.0000
  H   H1127     1.0  0.76358  0.73916  0.70782  1.0000
  H   H1128     1.0  0.98191  0.54270  0.91112  1.0000
  H   H1129     1.0  0.79425  0.86906  0.98115  1.0000
  H   H1130     1.0  0.88523  0.98671  0.75902  1.0000
  H   H1131     1.0  0.85974  0.93908  0.80996  1.0000
  H   H1132     1.0  0.73921  0.97123  0.83383  1.0000
  N   N63       1.0  0.65223  0.50856  0.80595  1.0000
  H   H1133     1.0  0.67908  0.94597  0.75878  1.0000
  C   C942      1.0  0.52960  0.58865  0.98544  1.0000
  N   N64       1.0  0.65486  0.98521  0.79040  1.0000
  H   H1134     1.0  0.81212  0.92926  0.67774  1.0000
  C   C943      1.0  0.84831  0.94196  0.69890  1.0000
  C   C944      1.0  0.77150  0.87113  0.97969  1.0000
  C   C945      1.0  0.77018  0.78595  0.67898  1.0000
  S   S253      1.0  0.55394  0.49390  0.90581  1.0000
  H   H1135     1.0  0.78905  0.77292  0.67958  1.0000
  C   C946      1.0  0.80334  0.93806  0.71846  1.0000
  H   H1136     1.0  0.70561  0.52147  0.81876  1.0000
  H   H1137     1.0  0.52636  0.60847  0.97600  1.0000
  S   S254      1.0  0.65978  0.67391  0.65863  1.0000
  H   H1138     1.0  0.81543  0.97564  0.78868  1.0000
  H   H1139     1.0  0.80714  0.80189  0.71085  1.0000
  C   C947      1.0  0.81412  0.94551  0.74299  1.0000
  C   C948      1.0  0.69171  0.95224  0.77524  1.0000
  H   H1140     1.0  0.70765  0.52042  0.89374  1.0000
  H   H1141     1.0  0.60917  0.50972  0.79562  1.0000
  H   H1142     1.0  0.61247  0.97210  0.79097  1.0000
  C   C949      1.0  0.71722  0.93920  0.77823  1.0000
  S   S255      1.0  0.75067  0.96752  0.89644  1.0000
  C   C950      1.0  0.68245  0.97258  0.79342  1.0000
  H   H1143     1.0  0.75896  0.77999  0.66068  1.0000
  C   C951      1.0  0.63360  0.96337  0.79257  1.0000
  C   C952      1.0  0.67059  0.98660  0.88312  1.0000
  H   H1144     1.0  0.60566  0.50171  0.68905  1.0000
  C   C953      1.0  0.69877  0.98821  0.88910  1.0000
  H   H1145     1.0  0.88961  0.97462  0.79221  1.0000
  S   S256      1.0  0.87551  0.97793  0.85060  1.0000
  C   C954      1.0  0.77130  0.94956  0.97402  1.0000
  C   C955      1.0  0.98139  0.51122  0.95371  1.0000
  C   C956      1.0  0.96513  0.52708  0.91175  1.0000
  H   H1146     1.0  0.68326  0.49418  0.94812  1.0000
  C   C957      1.0  0.70051  0.97931  0.81453  1.0000
  C   C958      1.0  0.83687  0.98188  0.78431  1.0000
  H   H1147     1.0  0.60893  0.98762  0.95014  1.0000
  H   H1148     1.0  0.72434  0.89956  0.98792  1.0000
  C   C959      1.0  0.78139  0.97228  0.98800  1.0000
  H   H1149     1.0  0.63854  0.52323  0.65857  1.0000
  H   H1150     1.0  0.88974  0.48981  0.97060  1.0000
  C   C960      1.0  0.67578  0.48934  0.80908  1.0000
  H   H1151     1.0  0.74480  0.49040  0.82362  1.0000
  H   H1152     1.0  0.65695  0.98803  0.96587  1.0000
