data_image0
_chemical_formula_structural       Fe2S2FeHFeHS2HSFeSHFe2S2FeS2FeS2FeSCS3FeS2FeS2FeSFeS3C3HCHC9H4C6H5C3H3C6H6C7H4CH3NCSCH2C2NC9H15CHSC2HNH2CHCHC2H3NC3HC2H4SH2CNC9H14NC9H14NCHC3H6C4HCSH2CH2CHCHSH2SFeCFeC3HC2H2SHCH2CHC2H2CH9SH2CHCFe2S2Fe3HSHSCHCSCHC3FeS2FeS2FeSFeS3H2C2H3C2SC4HC3HC2HC3HCH2CHC2HCH3SHC5H3C6H3CHCH2C6HC6HNHCHC3H2CH4C2H2CHC2HCHSC2HCHNSH2CHC2HNC7NH13CH5CH2CH6CHCHCHNHC2HC2NSC2SCH3CH5C2SH9CHC2HSFeC2H3C6H2SFe2HS2H2CFeCSFeSCSCHCSCHC2HC2NCHNHCH3C2HSCHC3HSHCH10SHCH2CH2SH3SH2CHCH3C2HCHC4SCFeSH3CH2NFeCH5C2H3CHCHCH2SH2C2H3CSH2C2SC2Fe2S2FeHFeCS2FeSFeSCFe2S2FeS2FeS2FeSHCS2FeS2FeS2FeSFeS3C6H2SC6H4C6H4C2H2C9H4CHC7H5C2HC2SH2CHC2SCH3NC2NC8H6SHCH6SHCHC3H4C3H4CH2C2H2SC2H2CHC2HSHC2SNC9H14NC9H14NH3C2H3CHCH3SFeH2CH7CSCHCHCH3C2HFe2S2FeHFeHSH5C4H2FeS2FeS2FeHFeS3CHCNCH4SFeHCH2SC2HC2HC4H3C4HSH3CH3C4H2C4HCHCHNHC2H2C2HSCHCHC2SCH4CH5SHC3HC2HNCH2C2HCH3CH2C2HCH4CSCNH2C4H2CHSHC2SH2CH2C3SCSHC3H3C2H3CHC2NCHCHC7H2C3H2C2NCH3CFeC2HSH3FeS2FeH2SFeH2C2SH2CH2C2SH6CH8CH2NH2C5H4C2H4CHFeC3HCSCH3CHNH2CSCSC3H7NCHCH2CHC2H4FeHCHSH2C2H3C2HCH5CSH2C2H4FeCHFeSCSHNCH3C3HC2H4NCH3C2H4NCH3C3H6CSCHCH4C2HCHC2H2C2HC2HCHC3H3CH2C4H2NHCH2C2H6C5NH2CH5C4HCH2FeHC2H2FeS2FeS2FeSFeS3HCFeSCSFeHFeSCHFeSHFeSCFeSFeSFeS2Fe2HCSC2H3C3HSCHC7H4C6H4C6H4C6HCHC4HNCHC2HCH4C2H2SCH2CH3NCHNHCH4NHCH2SCHC3H3CSH6C2HSHSC4NC8H11CHSH2CH2CH3SC4H2C2NHC6H2CHC2HSH2C2H5CHNCH9CHCHSC2HSCH3CHCH4CH3FeS2FeS2FeHFeS3FeS2FeS2FeSFeS3C2FeS2Fe3HS2FeS2Fe3HS2HSC4H3CHCHC6H4C3HC2HCNC6H4C6H4C6H3C6HCHCH4NC4H3CHCH3SHS2NHNC4H2CHCNC6HCH12CNH2CSH4CH2C2HC3H4C2H4SH5CNC9H14C3H5C2HC2HCHCH10CH2CH7CSHCHNCHCHCHC2H2NH3CHCH7CH4CH5C2HC3HC2HCHCH2C3H5CH2C3H2CFeCHCH2CHCNHC2HFeS2FeS2FeSFeS3HCFeS3FeHFeSHSFeSCFeSHFeSFeSFeS2Fe2HC5H3C2H2C9H4C6H4C6H4C6H4C3H7CH2SH3C3NC6H10SNC9H12CHSHCH3CHCH2C5NC9HCNCH10NCH2C4H2SCHCHCH3CHC2HCHCHCH2SCH7SHSH2CHSH3CSCFeHC2SH5SFeS2FeS2FeHFeS3FeS2FeS2FeSFeS3H2FeS2Fe3HS2FeS2Fe3CS3C3H3CH2C9H4C4HCHCHC6H4C6H3C7H4NCHCH4S2HC3HCSC2HCH3SHC2H3CHCH2CH6CH7CH2NC6H2CH2CH5NH3CSNC9H14C3HSCH5CH4CH2CH2NC3HCSHC3SHC2HC2H4CH2C3HFeC2FeS2FeSFeSFeSFeSH2FeS2FeS2FeS2FeSFeS3FeSHFeS2FeSFeHS2FeC2HCHC3H2C6H4C6H4NC4H3C6H5C6H6CHCSC2H3SHC2H3CH3CH2SCHC3HNC9H13NC9H14NC6H2CH6CH3SH5CH5CHCHSHCSCHSCSH2C3HC2HCHSHSHCHC2HC3H2SCSCFeS2Fe2HFeHS2HC2SH2CFeS2FeS2FeHS4C3FeCH2SHC7H3C2HC3H3C3H5C4HCH2CHC5H2C2H2CH2CH2C3H2C3H2C3H2NC4H2NH3SNCHCHNCH3C2H2CHC2HCHC3HC2SFeSHNC4HSH2C2H3CHCHC2H5NC2SCH2SCH4C2HFeH2CH5C2SH2CH2CH4Fe2HCSH3FeS2FeSHS2HSHC2HC2NH3C3HCHCNHC3HCH9C2H3NHSC2NC2HC4H2CHCHCSHC2H2CH4CH5FeHCHCH5CFeC2SH4CH3C2H6C2HC2H2SHCHCH3C2H2CH2C2HC2HSCNH2NCHFeC2FeSHFeSFeSFeSFeSCFe2S2FeS2FeS2FeSFeS3FeSHFeS2FeSFeHSHC2H2SHC3H2C6H4C6H4C4H3C7H4C9H3NH2CHCHC2SH2NHC2HC4HCHCH4CH2NHCHCHCSHCH2C3H3CH2CH2C2HCHC2HNSH3C3SC2HCNC6H13CH2CH6CH3CSH2SH3NC9H15NC2HC2H2CHCHS2CH3CHC3HSHCHCS2CH2CFeS2HFeNFeHS3C2SHCHFeS2FeS2FeSFeS3HC3H3CNC2HC4SHC2SHC3H5C2HCH2C3H2CH3C5H4SH2CHC2NC8H4CSC3HNHCH2CH2CHC2SHCH8CNH5C4H3C2H4CH3CHCH2C2H3C3HCHCFeHC3H5CHC2HC2SCH7C2HC2H2CHCNHSHC2Fe2HS2CH2FeS2FeC2S2HC3HCH3FeH2CNHC3H2C3NSH4C2H2CH8C4SHCH6CH4C3HSCH2CH5NH3CHNC2H3FeC3H2FeHCH2C2HC8HSHSCHCH2SHCHCH2CFeH3C2HSC2HCH3C2HSC3HC2HC4H5C2H4CHC2HCFeCH3C5HC3NC4NC3H3NHCNH2CHCSCH2CH4CH2NH2C2HC3H9CH3CH2CHCS2H2CHCH2FeS2FeS2FeHFeS4FeS2FeSFeS2C2FeS2Fe3CS2FeCHFeCFeS2C2HSHSH3CHSNC6H4C6H4C6H4C7H5CH3CHCH2CH3CH3NC7HCH11C3NC2HC3H8SHCH4SHCH2CHC2SCH7CHSHC5HC2NC9H11CH2C2HCNCHFeH4NH2CH3CH3C2SCH3FeS2FeSCFeSFeS3FeS2FeSHFeSFeS3HCFeS2Fe3NS2FeS2Fe3HS2H8CSC6H4C3H2CHC8H4C6H4C6H5NC9H14CH2CH2SCH3C2HC2H2CH7N2HS2HCH2C3HC2HCHCH4NC9H14CHCHC4H6C3H4CH2CH3C3HCH3C3HC2HCHCH4NC3HCHCSH3CHC2H3CSH3SCH3C2H3CH5CH3C2H2CHC4H3C2H2CNC2HCHCH2CH3NFeCH2CHCFeH2CHC6H2CH2FeS2FeS2FeHFeS4FeS2FeSFeS2H2FeS2Fe3HS2FeSCFeHFeS3C2H3C4HCHC6H4C6H4C6H4C6H4CHCH2C2HCHSHC2H3SCNCH2C7H8C5H2CNCHC2SC2H2CHCH4SC2H2CHNH2C3SCHCHNCH2C3H7CHSHC3HC4H2NH4NCH3SCHC4HCH2CH2CHC4H5CHC2H2NCH2CH3C2H3CH10FeS2FeSHFeSFeS3FeS2FeSNFeSFeS3HCFeS2Fe3HS2FeS2Fe3CS2H2SCH3CH2C6H4CH2SC2H3C6H4C6H4C6H4C2SNH2C2SNCHC3HC4SHCNC6H12NC8H15C2HC2H5C3HC2H5NC9H17C4HSC2H2SH3SCHCSHC2H2CSCHCH4CHC4H3CNC2HCHC2H5C3H3
_chemical_formula_sum              "Fe256 S512 H2304 C1920 N128"
_cell_length_a       72.0493
_cell_length_b       49.529
_cell_length_c       63.7462
_cell_angle_alpha    89.4931
_cell_angle_beta     88.6829
_cell_angle_gamma    88.4602

_space_group_name_H-M_alt    "P 1"
_space_group_IT_number       1

loop_
  _space_group_symop_operation_xyz
  'x, y, z'

loop_
  _atom_site_type_symbol
  _atom_site_label
  _atom_site_symmetry_multiplicity
  _atom_site_fract_x
  _atom_site_fract_y
  _atom_site_fract_z
  _atom_site_occupancy
  Fe  Fe1       1.0  0.02760  0.18842  0.07791  1.0000
  Fe  Fe2       1.0  0.06599  0.18849  0.09860  1.0000
  S   S1        1.0  0.05473  0.17502  0.12980  1.0000
  S   S2        1.0  0.09702  0.19386  0.09512  1.0000
  Fe  Fe3       1.0  0.03842  0.14492  0.11207  1.0000
  H   H1        1.0  0.07989  0.03460  0.15226  1.0000
  Fe  Fe4       1.0  0.03190  0.20574  0.12314  1.0000
  H   H2        1.0  0.02032  0.32263  0.25295  1.0000
  S   S3        1.0  0.05092  0.15731  0.08075  1.0000
  S   S4        1.0  0.04417  0.22087  0.09274  1.0000
  H   H3        1.0  0.06634  0.97891  0.16194  1.0000
  S   S5        1.0  0.05234  0.43959  0.20454  1.0000
  Fe  Fe5       1.0  0.03123  0.39334  0.16426  1.0000
  S   S6        1.0  0.04853  0.37720  0.19045  1.0000
  H   H4        1.0  0.23286  0.11414  0.21220  1.0000
  Fe  Fe6       1.0  0.03200  0.40645  0.21074  1.0000
  Fe  Fe7       1.0  0.06701  0.41151  0.18202  1.0000
  S   S7        1.0  0.09825  0.40593  0.18165  1.0000
  S   S8        1.0  0.05093  0.42615  0.15445  1.0000
  Fe  Fe8       1.0  0.18016  0.41699  0.10133  1.0000
  S   S9        1.0  0.19279  0.42205  0.13260  1.0000
  S   S10       1.0  0.14880  0.41477  0.09893  1.0000
  Fe  Fe9       1.0  0.21813  0.41650  0.07844  1.0000
  S   S11       1.0  0.23292  0.42283  0.10897  1.0000
  S   S12       1.0  0.23656  0.41292  0.04831  1.0000
  Fe  Fe10      1.0  0.21393  0.39104  0.12177  1.0000
  S   S13       1.0  0.22402  0.35874  0.14477  1.0000
  C   C1        1.0  0.25029  0.34664  0.99871  1.0000
  S   S14       1.0  0.21007  0.00822  0.10299  1.0000
  S   S15       1.0  0.20009  0.38345  0.09121  1.0000
  S   S16       1.0  0.19669  0.44994  0.08580  1.0000
  Fe  Fe11      1.0  0.17389  0.18765  0.17872  1.0000
  S   S17       1.0  0.18964  0.17184  0.15066  1.0000
  S   S18       1.0  0.14263  0.19377  0.17923  1.0000
  Fe  Fe12      1.0  0.20943  0.19386  0.20472  1.0000
  S   S19       1.0  0.22772  0.17822  0.17799  1.0000
  S   S20       1.0  0.21703  0.20292  0.23878  1.0000
  Fe  Fe13      1.0  0.20930  0.20505  0.15772  1.0000
  S   S21       1.0  0.21543  0.23301  0.13025  1.0000
  Fe  Fe14      1.0  0.20611  0.14640  0.17325  1.0000
  S   S22       1.0  0.21007  0.10021  0.17327  1.0000
  S   S23       1.0  0.19246  0.22230  0.18464  1.0000
  S   S24       1.0  0.18901  0.16051  0.20128  1.0000
  C   C2        1.0  0.03044  0.02474  0.15982  1.0000
  C   C3        1.0  0.23407  0.22217  0.25151  1.0000
  C   C4        1.0  0.19825  0.27565  0.22668  1.0000
  H   H5        1.0  0.24456  0.15576  0.21932  1.0000
  C   C5        1.0  0.02848  0.28349  0.12637  1.0000
  H   H6        1.0  0.02186  0.37931  0.28842  1.0000
  C   C6        1.0  0.23382  0.22307  0.27361  1.0000
  C   C7        1.0  0.02530  0.05109  0.16632  1.0000
  C   C8        1.0  0.12366  0.02048  0.16228  1.0000
  C   C9        1.0  0.20873  0.03345  0.12287  1.0000
  C   C10       1.0  0.20820  0.02701  0.14429  1.0000
  C   C11       1.0  0.20837  0.04771  0.15941  1.0000
  C   C12       1.0  0.20880  0.07515  0.15340  1.0000
  C   C13       1.0  0.20874  0.08163  0.13198  1.0000
  C   C14       1.0  0.20884  0.06091  0.11686  1.0000
  H   H7        1.0  0.20816  0.00605  0.14922  1.0000
  H   H8        1.0  0.20839  0.04239  0.17590  1.0000
  H   H9        1.0  0.20912  0.10257  0.12704  1.0000
  H   H10       1.0  0.20926  0.06622  0.10036  1.0000
  C   C15       1.0  0.21701  0.26795  0.13482  1.0000
  C   C16       1.0  0.21247  0.28642  0.11879  1.0000
  C   C17       1.0  0.21391  0.31436  0.12189  1.0000
  C   C18       1.0  0.22074  0.32396  0.14070  1.0000
  C   C19       1.0  0.22542  0.30544  0.15664  1.0000
  C   C20       1.0  0.22319  0.27758  0.15391  1.0000
  H   H11       1.0  0.20766  0.27913  0.10398  1.0000
  H   H12       1.0  0.20969  0.32840  0.10975  1.0000
  H   H13       1.0  0.23102  0.31262  0.17107  1.0000
  H   H14       1.0  0.22691  0.26348  0.16629  1.0000
  H   H15       1.0  0.04940  0.04152  0.11200  1.0000
  C   C21       1.0  0.24138  0.38693  0.02940  1.0000
  C   C22       1.0  0.23177  0.36273  0.02927  1.0000
  C   C23       1.0  0.23627  0.34276  0.01413  1.0000
  H   H16       1.0  0.01413  0.30094  0.21919  1.0000
  H   H17       1.0  0.22076  0.35940  0.04074  1.0000
  H   H18       1.0  0.08971  0.03891  0.17780  1.0000
  C   C24       1.0  0.13480  0.41336  0.12210  1.0000
  C   C25       1.0  0.14258  0.40894  0.14178  1.0000
  C   C26       1.0  0.13118  0.40704  0.15984  1.0000
  C   C27       1.0  0.11186  0.40981  0.15851  1.0000
  C   C28       1.0  0.10397  0.41445  0.13891  1.0000
  C   C29       1.0  0.11541  0.41606  0.12075  1.0000
  H   H19       1.0  0.15737  0.40688  0.14326  1.0000
  H   H20       1.0  0.13741  0.40342  0.17493  1.0000
  H   H21       1.0  0.08909  0.41653  0.13765  1.0000
  H   H22       1.0  0.10924  0.41951  0.10561  1.0000
  H   H23       1.0  0.01843  0.05394  0.18144  1.0000
  H   H24       1.0  0.03005  0.27131  0.11247  1.0000
  C   C30       1.0  0.21486  0.31521  0.21519  1.0000
  C   C31       1.0  0.10962  0.19392  0.11852  1.0000
  C   C32       1.0  0.10095  0.20035  0.13775  1.0000
  C   C33       1.0  0.11117  0.19981  0.15626  1.0000
  C   C34       1.0  0.13018  0.19295  0.15571  1.0000
  C   C35       1.0  0.13885  0.18635  0.13647  1.0000
  C   C36       1.0  0.12861  0.18693  0.11794  1.0000
  H   H25       1.0  0.08640  0.20613  0.13840  1.0000
  H   H26       1.0  0.10435  0.20502  0.17104  1.0000
  H   H27       1.0  0.15341  0.18079  0.13578  1.0000
  H   H28       1.0  0.13540  0.18170  0.10315  1.0000
  C   C37       1.0  0.03742  0.07068  0.13366  1.0000
  H   H29       1.0  0.10335  0.00013  0.19649  1.0000
  H   H30       1.0  0.20772  0.00257  0.02677  1.0000
  H   H31       1.0  0.12053  0.03190  0.17634  1.0000
  N   N1        1.0  0.24798  0.13308  0.24828  1.0000
  C   C38       1.0  0.25113  0.10621  0.23864  1.0000
  S   S25       1.0  0.04233  0.09859  0.11651  1.0000
  C   C39       1.0  0.24501  0.07466  0.21024  1.0000
  H   H32       1.0  0.22677  0.29516  0.26473  1.0000
  H   H33       1.0  0.20396  0.26110  0.25772  1.0000
  C   C40       1.0  0.08015  0.98037  0.15383  1.0000
  C   C41       1.0  0.02418  0.31592  0.16211  1.0000
  N   N2        1.0  0.08782  0.33224  0.14722  1.0000
  C   C42       1.0  0.07997  0.32579  0.16838  1.0000
  C   C43       1.0  0.10754  0.33940  0.14984  1.0000
  C   C44       1.0  0.07739  0.35614  0.13906  1.0000
  C   C45       1.0  0.08665  0.30981  0.13214  1.0000
  C   C46       1.0  0.07703  0.28570  0.13685  1.0000
  C   C47       1.0  0.09488  0.31204  0.11176  1.0000
  C   C48       1.0  0.07622  0.26496  0.12220  1.0000
  C   C49       1.0  0.09389  0.29119  0.09719  1.0000
  C   C50       1.0  0.08469  0.26761  0.10247  1.0000
  H   H34       1.0  0.06471  0.32265  0.16792  1.0000
  H   H35       1.0  0.08689  0.30756  0.17530  1.0000
  H   H36       1.0  0.08180  0.34264  0.17959  1.0000
  H   H37       1.0  0.11625  0.32132  0.15386  1.0000
  H   H38       1.0  0.10905  0.35423  0.16268  1.0000
  H   H39       1.0  0.11370  0.34912  0.13561  1.0000
  H   H40       1.0  0.08361  0.36418  0.12424  1.0000
  H   H41       1.0  0.06277  0.35114  0.13577  1.0000
  H   H42       1.0  0.07691  0.37297  0.15053  1.0000
  H   H43       1.0  0.06967  0.28247  0.15158  1.0000
  H   H44       1.0  0.10183  0.33020  0.10685  1.0000
  H   H45       1.0  0.06862  0.24688  0.12606  1.0000
  H   H46       1.0  0.10004  0.29342  0.08160  1.0000
  H   H47       1.0  0.08386  0.25147  0.09114  1.0000
  H   H48       1.0  0.22877  0.32412  0.01434  1.0000
  C   C51       1.0  0.14647  0.00854  0.13518  1.0000
  H   H49       1.0  0.21702  0.32974  0.20271  1.0000
  S   S26       1.0  0.01403  0.17447  0.10835  1.0000
  C   C52       1.0  0.24217  0.09977  0.21979  1.0000
  C   C53       1.0  0.24155  0.35585  0.22128  1.0000
  H   H50       1.0  0.22271  0.12010  0.26350  1.0000
  N   N3        1.0  0.23839  0.33655  0.23892  1.0000
  H   H51       1.0  0.17227  0.10513  0.14995  1.0000
  H   H52       1.0  0.08017  0.46464  0.13315  1.0000
  C   C54       1.0  0.11649  0.98744  0.13608  1.0000
  H   H53       1.0  0.13836  0.97856  0.11327  1.0000
  C   C55       1.0  0.23598  0.02389  0.04851  1.0000
  H   H54       1.0  0.22864  0.36767  0.21756  1.0000
  C   C56       1.0  0.08236  0.02471  0.16774  1.0000
  C   C57       1.0  0.24765  0.23648  0.24041  1.0000
  H   H55       1.0  0.08870  0.46120  0.17164  1.0000
  H   H56       1.0  0.02086  0.99419  0.24784  1.0000
  H   H57       1.0  0.15106  0.03707  0.15955  1.0000
  N   N4        1.0  0.23482  0.99627  0.03977  1.0000
  C   C58       1.0  0.14125  0.02347  0.15288  1.0000
  C   C59       1.0  0.01221  0.30447  0.25276  1.0000
  C   C60       1.0  0.25675  0.05520  0.21916  1.0000
  H   H58       1.0  0.24604  0.23934  0.30145  1.0000
  C   C61       1.0  0.04282  0.04436  0.12728  1.0000
  C   C62       1.0  0.25372  0.15437  0.23311  1.0000
  H   H59       1.0  0.19543  0.29429  0.19635  1.0000
  H   H60       1.0  0.22341  0.21211  0.28242  1.0000
  H   H61       1.0  0.22515  0.15608  0.26249  1.0000
  H   H62       1.0  0.25221  0.37085  0.22503  1.0000
  S   S27       1.0  0.02359  0.36377  0.13899  1.0000
  H   H63       1.0  0.18858  0.25982  0.22366  1.0000
  H   H64       1.0  0.23427  0.33104  0.08364  1.0000
  C   C63       1.0  0.23230  0.35243  0.25759  1.0000
  N   N5        1.0  0.15492  0.26575  0.12880  1.0000
  C   C64       1.0  0.16315  0.25225  0.14743  1.0000
  C   C65       1.0  0.13455  0.26212  0.13006  1.0000
  C   C66       1.0  0.16263  0.25164  0.10995  1.0000
  C   C67       1.0  0.15879  0.29491  0.12727  1.0000
  C   C68       1.0  0.16957  0.30844  0.14216  1.0000
  C   C69       1.0  0.15153  0.31077  0.11052  1.0000
  C   C70       1.0  0.17289  0.33604  0.14018  1.0000
  C   C71       1.0  0.15498  0.33834  0.10870  1.0000
  C   C72       1.0  0.16574  0.35081  0.12343  1.0000
  H   H65       1.0  0.15744  0.26084  0.16238  1.0000
  H   H66       1.0  0.16027  0.23032  0.14799  1.0000
  H   H67       1.0  0.17856  0.25354  0.14708  1.0000
  H   H68       1.0  0.12812  0.27332  0.14353  1.0000
  H   H69       1.0  0.13109  0.24062  0.13223  1.0000
  H   H70       1.0  0.12749  0.26877  0.11554  1.0000
  H   H71       1.0  0.15634  0.25916  0.09520  1.0000
  H   H72       1.0  0.17794  0.25410  0.10845  1.0000
  H   H73       1.0  0.16018  0.22952  0.11076  1.0000
  H   H74       1.0  0.17599  0.29813  0.15522  1.0000
  H   H75       1.0  0.14330  0.30189  0.09855  1.0000
  H   H76       1.0  0.18152  0.34596  0.15136  1.0000
  H   H77       1.0  0.14953  0.35022  0.09571  1.0000
  H   H78       1.0  0.16877  0.37197  0.12167  1.0000
  N   N6        1.0  0.10057  0.10162  0.12686  1.0000
  C   C73       1.0  0.08863  0.09868  0.14601  1.0000
  C   C74       1.0  0.09521  0.12722  0.11614  1.0000
  C   C75       1.0  0.09643  0.07912  0.11256  1.0000
  C   C76       1.0  0.12035  0.10233  0.13274  1.0000
  C   C77       1.0  0.12615  0.12128  0.14766  1.0000
  C   C78       1.0  0.13433  0.08463  0.12399  1.0000
  C   C79       1.0  0.14461  0.12196  0.15391  1.0000
  C   C80       1.0  0.15284  0.08577  0.13017  1.0000
  C   C81       1.0  0.15793  0.10427  0.14519  1.0000
  H   H79       1.0  0.07382  0.09588  0.14210  1.0000
  H   H80       1.0  0.09335  0.08118  0.15566  1.0000
  H   H81       1.0  0.08855  0.11691  0.15607  1.0000
  H   H82       1.0  0.09570  0.14478  0.12676  1.0000
  H   H83       1.0  0.08073  0.12693  0.11034  1.0000
  H   H84       1.0  0.10458  0.13145  0.10242  1.0000
  H   H85       1.0  0.10017  0.05914  0.11961  1.0000
  H   H86       1.0  0.08135  0.07881  0.10893  1.0000
  H   H87       1.0  0.10383  0.08131  0.09713  1.0000
  H   H88       1.0  0.11650  0.13604  0.15445  1.0000
  H   H89       1.0  0.13140  0.06985  0.11226  1.0000
  H   H90       1.0  0.14869  0.13663  0.16538  1.0000
  H   H91       1.0  0.16339  0.07229  0.12326  1.0000
  H   H92       1.0  0.07750  0.98781  0.13761  1.0000
  N   N7        1.0  0.09257  0.99847  0.16511  1.0000
  C   C82       1.0  0.03929  0.02157  0.14017  1.0000
  H   H93       1.0  0.23803  0.07031  0.19578  1.0000
  C   C83       1.0  0.24189  0.34993  0.08599  1.0000
  C   C84       1.0  0.22794  0.13705  0.25365  1.0000
  C   C85       1.0  0.21997  0.29608  0.24977  1.0000
  H   H94       1.0  0.04302  0.00152  0.13466  1.0000
  H   H95       1.0  0.06846  0.02205  0.17547  1.0000
  H   H96       1.0  0.02217  0.32829  0.17592  1.0000
  H   H97       1.0  0.20753  0.99331  0.05412  1.0000
  H   H98       1.0  0.21835  0.36208  0.25527  1.0000
  H   H99       1.0  0.24666  0.34525  0.20682  1.0000
  C   C86       1.0  0.25539  0.39085  0.01393  1.0000
  C   C87       1.0  0.09585  0.98642  0.18612  1.0000
  C   C88       1.0  0.02833  0.31186  0.12454  1.0000
  C   C89       1.0  0.21488  0.98985  0.03875  1.0000
  H   H100      1.0  0.24811  0.23598  0.22344  1.0000
  C   C90       1.0  0.02592  0.32824  0.14234  1.0000
  S   S28       1.0  0.01331  0.42131  0.18482  1.0000
  H   H101      1.0  0.02137  0.98037  0.22182  1.0000
  H   H102      1.0  0.25587  0.31028  0.25788  1.0000
  C   C91       1.0  0.22439  0.31608  0.23449  1.0000
  H   H103      1.0  0.02173  0.27819  0.17911  1.0000
  H   H104      1.0  0.21921  0.13863  0.23948  1.0000
  C   C92       1.0  0.11070  0.00237  0.15417  1.0000
  H   H105      1.0  0.23655  0.35902  0.10091  1.0000
  C   C93       1.0  0.24668  0.23849  0.28449  1.0000
  H   H106      1.0  0.01703  0.24919  0.04314  1.0000
  S   S29       1.0  0.02561  0.99681  0.17697  1.0000
  H   H107      1.0  0.16025  0.01049  0.12814  1.0000
  H   H108      1.0  0.23806  0.36402  0.07305  1.0000
  S   S30       1.0  0.02612  0.39557  0.24536  1.0000
  Fe  Fe15      1.0  0.03490  0.45296  0.17719  1.0000
  C   C94       1.0  0.02874  0.07387  0.15339  1.0000
  Fe  Fe16      1.0  0.21028  0.45389  0.11717  1.0000
  C   C95       1.0  0.25646  0.32284  0.24335  1.0000
  C   C96       1.0  0.01489  0.97853  0.23779  1.0000
  C   C97       1.0  0.20217  0.29503  0.21136  1.0000
  H   H109      1.0  0.02963  0.32119  0.10918  1.0000
  C   C98       1.0  0.24359  0.99335  0.01862  1.0000
  C   C99       1.0  0.02573  0.27115  0.14598  1.0000
  H   H110      1.0  0.25309  0.17476  0.24031  1.0000
  H   H111      1.0  0.24218  0.36865  0.26101  1.0000
  S   S31       1.0  0.02311  0.23569  0.14866  1.0000
  H   H112      1.0  0.22961  0.02518  0.06462  1.0000
  C   C100      1.0  0.13410  0.99063  0.12679  1.0000
  H   H113      1.0  0.02451  0.09388  0.15861  1.0000
  H   H114      1.0  0.22831  0.03910  0.03884  1.0000
  C   C101      1.0  0.24386  0.97731  0.05481  1.0000
  H   H115      1.0  0.23142  0.33973  0.27205  1.0000
  C   C102      1.0  0.02387  0.28752  0.16387  1.0000
  C   C103      1.0  0.20695  0.27641  0.24592  1.0000
  H   H116      1.0  0.25577  0.15742  0.27451  1.0000
  H   H117      1.0  0.08260  0.98128  0.19442  1.0000
  C   C104      1.0  0.25103  0.01548  0.00709  1.0000
  H   H118      1.0  0.25344  0.29491  0.07219  1.0000
  H   H119      1.0  0.15160  0.46503  0.15572  1.0000
  H   H120      1.0  0.25432  0.12221  0.28027  1.0000
  H   H121      1.0  0.23806  0.97992  0.07107  1.0000
  H   H122      1.0  0.25067  0.02994  0.04990  1.0000
  H   H123      1.0  0.25097  0.03572  0.01323  1.0000
  H   H124      1.0  0.12043  0.47008  0.17048  1.0000
  H   H125      1.0  0.01659  0.45582  0.29658  1.0000
  H   H126      1.0  0.25857  0.30853  0.10480  1.0000
  S   S32       1.0  0.00934  0.19116  0.04867  1.0000
  H   H127      1.0  0.10790  0.97261  0.12903  1.0000
  H   H128      1.0  0.25909  0.98039  0.05522  1.0000
  C   C105      1.0  0.25847  0.13690  0.26780  1.0000
  H   H129      1.0  0.25888  0.03578  0.21164  1.0000
  C   C106      1.0  0.00952  0.37323  0.28055  1.0000
  Fe  Fe17      1.0  0.03552  0.43983  0.57513  1.0000
  Fe  Fe18      1.0  0.07092  0.43175  0.60146  1.0000
  S   S33       1.0  0.05494  0.41852  0.63000  1.0000
  S   S34       1.0  0.10228  0.43446  0.60063  1.0000
  Fe  Fe19      1.0  0.03852  0.39315  0.60839  1.0000
  Fe  Fe20      1.0  0.03275  0.14046  0.66082  1.0000
  Fe  Fe21      1.0  0.03542  0.45319  0.62166  1.0000
  H   H130      1.0  0.14297  0.27294  0.65355  1.0000
  S   S35       1.0  0.05579  0.40495  0.57996  1.0000
  H   H131      1.0  0.15616  0.99878  0.65601  1.0000
  S   S36       1.0  0.05228  0.17332  0.65086  1.0000
  C   C107      1.0  0.02673  0.01955  0.64382  1.0000
  H   H132      1.0  0.23927  0.43536  0.63215  1.0000
  C   C108      1.0  0.21599  0.17538  0.47923  1.0000
  S   S37       1.0  0.19510  0.42308  0.65295  1.0000
  C   C109      1.0  0.03685  0.29236  0.62059  1.0000
  H   H133      1.0  0.12271  0.37442  0.61953  1.0000
  C   C110      1.0  0.22082  0.06343  0.65523  1.0000
  C   C111      1.0  0.22562  0.16198  0.42396  1.0000
  C   C112      1.0  0.01893  0.03117  0.62586  1.0000
  Fe  Fe22      1.0  0.17651  0.16287  0.59148  1.0000
  S   S38       1.0  0.18675  0.17494  0.62272  1.0000
  S   S39       1.0  0.14556  0.15735  0.58883  1.0000
  Fe  Fe23      1.0  0.21537  0.16524  0.57047  1.0000
  S   S40       1.0  0.22780  0.17874  0.60083  1.0000
  S   S41       1.0  0.23536  0.16162  0.54180  1.0000
  Fe  Fe24      1.0  0.21038  0.14578  0.61528  1.0000
  S   S42       1.0  0.22047  0.11537  0.63965  1.0000
  Fe  Fe25      1.0  0.20274  0.20693  0.60529  1.0000
  S   S43       1.0  0.19594  0.25160  0.61380  1.0000
  S   S44       1.0  0.19904  0.13149  0.58501  1.0000
  S   S45       1.0  0.19148  0.19558  0.57386  1.0000
  H   H134      1.0  0.03832  0.28918  0.60386  1.0000
  H   H135      1.0  0.22105  0.15825  0.48916  1.0000
  C   C113      1.0  0.01539  0.99885  0.42189  1.0000
  C   C114      1.0  0.11018  0.34577  0.64197  1.0000
  H   H136      1.0  0.06545  0.00579  0.62137  1.0000
  H   H137      1.0  0.09925  0.35466  0.60101  1.0000
  H   H138      1.0  0.14945  0.05074  0.61468  1.0000
  C   C115      1.0  0.02406  0.07642  0.63939  1.0000
  C   C116      1.0  0.16408  0.06579  0.65132  1.0000
  S   S46       1.0  0.02705  0.98430  0.64842  1.0000
  C   C117      1.0  0.03095  0.98390  0.48575  1.0000
  C   C118      1.0  0.25437  0.35934  0.56629  1.0000
  C   C119      1.0  0.24187  0.13397  0.52518  1.0000
  C   C120      1.0  0.07761  0.35601  0.64883  1.0000
  H   H139      1.0  0.22297  0.36624  0.61609  1.0000
  C   C121      1.0  0.23728  0.08935  0.51060  1.0000
  C   C122      1.0  0.23189  0.11015  0.52470  1.0000
  C   C123      1.0  0.08937  0.36160  0.61362  1.0000
  H   H140      1.0  0.21988  0.10782  0.53501  1.0000
  C   C124      1.0  0.21452  0.02331  0.63512  1.0000
  C   C125      1.0  0.11264  0.15160  0.65106  1.0000
  H   H141      1.0  0.15923  0.08326  0.64157  1.0000
  C   C126      1.0  0.21708  0.08013  0.63781  1.0000
  C   C127      1.0  0.21143  0.06828  0.61923  1.0000
  C   C128      1.0  0.21045  0.04000  0.61781  1.0000
  H   H142      1.0  0.16051  0.22806  0.60913  1.0000
  C   C129      1.0  0.12142  0.02208  0.65023  1.0000
  H   H143      1.0  0.20833  0.08074  0.60572  1.0000
  H   H144      1.0  0.20670  0.03100  0.60315  1.0000
  C   C130      1.0  0.21701  0.32625  0.64902  1.0000
  H   H145      1.0  0.09147  0.38337  0.61651  1.0000
  C   C131      1.0  0.22181  0.27926  0.63725  1.0000
  C   C132      1.0  0.20456  0.27990  0.62758  1.0000
  H   H146      1.0  0.17913  0.06271  0.64744  1.0000
  C   C133      1.0  0.14528  0.22948  0.61252  1.0000
  H   H147      1.0  0.17088  0.03271  0.62003  1.0000
  H   H148      1.0  0.02676  0.37324  0.47465  1.0000
  H   H149      1.0  0.24441  0.00190  0.54783  1.0000
  S   S47       1.0  0.05250  0.46770  0.59423  1.0000
  H   H150      1.0  0.21483  0.19292  0.49006  1.0000
  C   C134      1.0  0.14617  0.26600  0.63727  1.0000
  C   C135      1.0  0.14163  0.14511  0.63100  1.0000
  C   C136      1.0  0.13312  0.15508  0.61291  1.0000
  C   C137      1.0  0.11439  0.16357  0.61402  1.0000
  C   C138      1.0  0.10415  0.16173  0.63300  1.0000
  H   H151      1.0  0.15602  0.13837  0.63031  1.0000
  H   H152      1.0  0.10784  0.17183  0.60018  1.0000
  H   H153      1.0  0.08982  0.16861  0.63371  1.0000
  C   C139      1.0  0.11492  0.43232  0.62399  1.0000
  C   C140      1.0  0.13399  0.43734  0.62322  1.0000
  C   C141      1.0  0.14432  0.43691  0.64167  1.0000
  C   C142      1.0  0.08218  0.23283  0.64865  1.0000
  C   C143      1.0  0.22821  0.15807  0.44585  1.0000
  C   C144      1.0  0.10630  0.42642  0.64332  1.0000
  H   H154      1.0  0.14074  0.44203  0.60834  1.0000
  H   H155      1.0  0.15887  0.44153  0.64092  1.0000
  H   H156      1.0  0.09165  0.42268  0.64419  1.0000
  C   C145      1.0  0.22629  0.14013  0.41015  1.0000
  H   H157      1.0  0.15258  0.37555  0.63603  1.0000
  C   C146      1.0  0.08844  0.24610  0.63060  1.0000
  H   H158      1.0  0.01340  0.01763  0.43119  1.0000
  H   H159      1.0  0.25097  0.13112  0.59458  1.0000
  C   C147      1.0  0.03648  0.26974  0.63432  1.0000
  C   C148      1.0  0.03316  0.32260  0.64994  1.0000
  C   C149      1.0  0.24520  0.43800  0.59189  1.0000
  C   C150      1.0  0.08664  0.31712  0.62808  1.0000
  C   C151      1.0  0.12460  0.36178  0.63325  1.0000
  C   C152      1.0  0.23180  0.36510  0.60218  1.0000
  H   H160      1.0  0.18044  0.30505  0.62094  1.0000
  C   C153      1.0  0.14197  0.36259  0.64257  1.0000
  C   C154      1.0  0.09462  0.04883  0.66195  1.0000
  C   C155      1.0  0.23147  0.13111  0.45286  1.0000
  C   C156      1.0  0.21930  0.03518  0.65400  1.0000
  C   C157      1.0  0.25747  0.03992  0.54225  1.0000
  C   C158      1.0  0.09128  0.01106  0.60445  1.0000
  H   H161      1.0  0.20694  0.40647  0.61050  1.0000
  N   N8        1.0  0.15342  0.04114  0.64727  1.0000
  H   H162      1.0  0.23860  0.10081  0.59869  1.0000
  C   C159      1.0  0.23219  0.10947  0.43894  1.0000
  H   H163      1.0  0.09369  0.00706  0.65326  1.0000
  C   C160      1.0  0.22801  0.30232  0.64773  1.0000
  C   C161      1.0  0.03361  0.03642  0.65921  1.0000
  C   C162      1.0  0.10242  0.02437  0.65505  1.0000
  H   H164      1.0  0.11614  0.02221  0.58782  1.0000
  H   H165      1.0  0.22235  0.22358  0.46344  1.0000
  C   C163      1.0  0.12086  0.23507  0.63936  1.0000
  H   H166      1.0  0.24188  0.45772  0.59970  1.0000
  H   H167      1.0  0.09738  0.30771  0.61748  1.0000
  H   H168      1.0  0.08511  0.30416  0.64231  1.0000
  H   H169      1.0  0.22495  0.14356  0.39341  1.0000
  C   C164      1.0  0.24871  0.02060  0.55471  1.0000
  C   C165      1.0  0.01743  0.05953  0.62377  1.0000
  H   H170      1.0  0.25599  0.40870  0.62626  1.0000
  H   H171      1.0  0.23081  0.09730  0.40670  1.0000
  C   C166      1.0  0.03514  0.31897  0.62824  1.0000
  H   H172      1.0  0.22937  0.32186  0.60109  1.0000
  C   C167      1.0  0.24662  0.33665  0.57575  1.0000
  C   C168      1.0  0.24767  0.18337  0.46841  1.0000
  H   H173      1.0  0.23503  0.08913  0.44474  1.0000
  C   C169      1.0  0.22969  0.11399  0.41760  1.0000
  H   H174      1.0  0.07518  0.36036  0.60714  1.0000
  S   S48       1.0  0.21446  0.98780  0.63218  1.0000
  C   C170      1.0  0.03250  0.06464  0.65688  1.0000
  C   C171      1.0  0.24114  0.41510  0.62481  1.0000
  H   H175      1.0  0.14962  0.01516  0.62066  1.0000
  C   C172      1.0  0.10750  0.24747  0.62606  1.0000
  H   H176      1.0  0.13963  0.20939  0.60914  1.0000
  N   N9        1.0  0.09136  0.34526  0.63314  1.0000
  S   S49       1.0  0.03615  0.34666  0.60996  1.0000
  H   H177      1.0  0.22359  0.18171  0.41692  1.0000
  H   H178      1.0  0.03753  0.24951  0.62808  1.0000
  C   C173      1.0  0.23535  0.33954  0.59366  1.0000
  H   H179      1.0  0.20843  0.20628  0.44514  1.0000
  C   C174      1.0  0.19970  0.32686  0.63943  1.0000
  C   C175      1.0  0.19364  0.30397  0.62865  1.0000
  H   H180      1.0  0.11170  0.25827  0.61203  1.0000
  N   N10       1.0  0.07597  0.09600  0.60431  1.0000
  C   C176      1.0  0.08934  0.11355  0.59299  1.0000
  C   C177      1.0  0.05784  0.09940  0.59386  1.0000
  C   C178      1.0  0.07390  0.10604  0.62612  1.0000
  C   C179      1.0  0.08176  0.06707  0.60460  1.0000
  C   C180      1.0  0.09876  0.05718  0.59534  1.0000
  C   C181      1.0  0.07008  0.04768  0.61417  1.0000
  C   C182      1.0  0.10332  0.02952  0.59527  1.0000
  N   N11       1.0  0.23548  0.41544  0.60257  1.0000
  H   H181      1.0  0.01519  0.00921  0.46545  1.0000
  H   H182      1.0  0.09118  0.10768  0.57624  1.0000
  H   H183      1.0  0.08451  0.13510  0.59304  1.0000
  H   H184      1.0  0.10316  0.11291  0.60049  1.0000
  H   H185      1.0  0.05856  0.09132  0.57761  1.0000
  H   H186      1.0  0.05313  0.12100  0.59307  1.0000
  H   H187      1.0  0.04650  0.08888  0.60239  1.0000
  H   H188      1.0  0.08728  0.10444  0.63445  1.0000
  H   H189      1.0  0.06919  0.12761  0.62647  1.0000
  H   H190      1.0  0.06337  0.09490  0.63550  1.0000
  H   H191      1.0  0.10865  0.07032  0.58781  1.0000
  H   H192      1.0  0.05708  0.05366  0.62168  1.0000
  H   H193      1.0  0.21158  0.44165  0.60873  1.0000
  C   C183      1.0  0.25270  0.09198  0.49678  1.0000
  H   H194      1.0  0.24935  0.31675  0.56923  1.0000
  H   H195      1.0  0.08146  0.37637  0.65425  1.0000
  H   H196      1.0  0.24846  0.19931  0.48057  1.0000
  H   H197      1.0  0.21043  0.42186  0.58525  1.0000
  H   H198      1.0  0.23386  0.12650  0.46916  1.0000
  C   C184      1.0  0.22263  0.20715  0.45160  1.0000
  H   H199      1.0  0.13877  0.27992  0.62632  1.0000
  H   H200      1.0  0.23243  0.21374  0.43887  1.0000
  C   C185      1.0  0.21525  0.42160  0.60172  1.0000
  H   H201      1.0  0.07838  0.25531  0.62014  1.0000
  H   H202      1.0  0.16131  0.26856  0.63425  1.0000
  H   H203      1.0  0.03199  0.99956  0.49742  1.0000
  H   H204      1.0  0.09473  0.98964  0.60412  1.0000
  H   H205      1.0  0.03047  0.99620  0.41807  1.0000
  H   H206      1.0  0.22937  0.07108  0.51032  1.0000
  C   C186      1.0  0.02141  0.98922  0.46726  1.0000
  H   H207      1.0  0.25737  0.40171  0.56666  1.0000
  C   C187      1.0  0.25094  0.38505  0.57475  1.0000
  H   H208      1.0  0.20176  0.17070  0.47413  1.0000
  C   C188      1.0  0.24781  0.11147  0.58734  1.0000
  H   H209      1.0  0.07312  0.31634  0.62000  1.0000
  N   N12       1.0  0.22851  0.18072  0.46087  1.0000
  H   H210      1.0  0.23046  0.26108  0.63658  1.0000
  C   C189      1.0  0.12498  0.06874  0.66002  1.0000
  C   C190      1.0  0.13334  0.04416  0.65260  1.0000
  H   H211      1.0  0.14964  0.19873  0.64706  1.0000
  C   C191      1.0  0.13145  0.14357  0.65002  1.0000
  C   C192      1.0  0.07476  0.02015  0.61404  1.0000
  N   N13       1.0  0.14097  0.23752  0.63454  1.0000
  S   S50       1.0  0.02240  0.11199  0.63609  1.0000
  C   C193      1.0  0.23955  0.38866  0.59310  1.0000
  C   C194      1.0  0.15589  0.03467  0.62468  1.0000
  S   S51       1.0  0.02905  0.45054  0.54083  1.0000
  C   C195      1.0  0.03419  0.27337  0.65599  1.0000
  H   H212      1.0  0.03164  0.34279  0.65619  1.0000
  H   H213      1.0  0.13970  0.24406  0.60080  1.0000
  H   H214      1.0  0.23289  0.40106  0.63470  1.0000
  C   C196      1.0  0.16184  0.01876  0.65977  1.0000
  H   H215      1.0  0.19114  0.34511  0.64001  1.0000
  H   H216      1.0  0.24147  0.30157  0.65494  1.0000
  H   H217      1.0  0.24091  0.44049  0.57531  1.0000
  H   H218      1.0  0.25307  0.16429  0.47547  1.0000
  H   H219      1.0  0.00996  0.00095  0.54640  1.0000
  C   C197      1.0  0.24530  0.02550  0.57596  1.0000
  C   C198      1.0  0.25747  0.13640  0.51165  1.0000
  S   S52       1.0  0.22609  0.35511  0.66159  1.0000
  H   H220      1.0  0.12673  0.00279  0.64462  1.0000
  H   H221      1.0  0.25788  0.41842  0.41318  1.0000
  H   H222      1.0  0.02366  0.46567  0.49780  1.0000
  H   H223      1.0  0.17713  0.01674  0.65679  1.0000
  H   H224      1.0  0.24727  0.05279  0.60123  1.0000
  H   H225      1.0  0.25744  0.18847  0.45532  1.0000
  H   H226      1.0  0.06346  0.35798  0.64222  1.0000
  H   H227      1.0  0.23831  0.01055  0.58565  1.0000
  H   H228      1.0  0.23969  0.11576  0.57297  1.0000
  C   C199      1.0  0.25064  0.04974  0.58481  1.0000
  H   H229      1.0  0.06742  0.23187  0.65221  1.0000
  C   C200      1.0  0.15297  0.22049  0.64830  1.0000
  C   C201      1.0  0.11395  0.22151  0.65757  1.0000
  H   H230      1.0  0.16797  0.22233  0.64395  1.0000
  S   S53       1.0  0.01706  0.42678  0.60235  1.0000
  Fe  Fe26      1.0  0.21256  0.45775  0.66253  1.0000
  C   C202      1.0  0.01547  0.38521  0.48167  1.0000
  C   C203      1.0  0.13569  0.43115  0.66101  1.0000
  H   H231      1.0  0.02658  0.38272  0.51277  1.0000
  H   H232      1.0  0.01099  0.06838  0.61007  1.0000
  H   H233      1.0  0.01350  0.01836  0.61392  1.0000
  C   C204      1.0  0.01047  0.46844  0.52844  1.0000
  C   C205      1.0  0.14556  0.34754  0.66065  1.0000
  C   C206      1.0  0.11665  0.42586  0.66176  1.0000
  C   C207      1.0  0.09489  0.22058  0.66207  1.0000
  C   C208      1.0  0.11438  0.33051  0.66031  1.0000
  C   C209      1.0  0.01536  0.39036  0.50312  1.0000
  H   H234      1.0  0.13283  0.08663  0.66249  1.0000
  H   H235      1.0  0.07630  0.34274  0.66292  1.0000
  S   S54       1.0  0.25887  0.06499  0.47937  1.0000
  Fe  Fe27      1.0  0.06933  0.15758  0.67747  1.0000
  Fe  Fe28      1.0  0.03499  0.15189  0.70758  1.0000
  H   H236      1.0  0.25294  0.32924  0.86493  1.0000
  S   S55       1.0  0.05083  0.12341  0.68601  1.0000
  S   S56       1.0  0.05555  0.18488  0.70138  1.0000
  H   H237      1.0  0.01486  0.30378  0.90006  1.0000
  H   H238      1.0  0.09969  0.04716  0.71003  1.0000
  C   C210      1.0  0.23619  0.02073  0.76565  1.0000
  Fe  Fe29      1.0  0.21491  0.43859  0.70810  1.0000
  C   C211      1.0  0.03263  0.29999  0.66365  1.0000
  S   S57       1.0  0.22406  0.44395  0.74213  1.0000
  Fe  Fe30      1.0  0.17944  0.43144  0.68296  1.0000
  S   S58       1.0  0.14802  0.43160  0.68457  1.0000
  C   C212      1.0  0.22905  0.46955  0.92746  1.0000
  S   S59       1.0  0.19706  0.40266  0.70198  1.0000
  C   C213      1.0  0.01674  0.02037  0.72135  1.0000
  H   H239      1.0  0.20260  0.38428  0.93631  1.0000
  C   C214      1.0  0.23079  0.44174  0.89662  1.0000
  S   S60       1.0  0.25520  0.32052  0.97997  1.0000
  C   C215      1.0  0.00944  0.37163  0.90013  1.0000
  H   H240      1.0  0.01755  0.06449  0.69690  1.0000
  C   C216      1.0  0.24876  0.31794  0.80263  1.0000
  C   C217      1.0  0.23077  0.41851  0.90923  1.0000
  H   H241      1.0  0.01271  0.38880  0.90969  1.0000
  C   C218      1.0  0.04586  0.04620  0.72100  1.0000
  C   C219      1.0  0.01038  0.32335  0.89419  1.0000
  N   N14       1.0  0.22756  0.97690  0.84602  1.0000
  C   C220      1.0  0.01200  0.11607  0.77692  1.0000
  H   H242      1.0  0.02272  0.00328  0.73068  1.0000
  N   N15       1.0  0.23020  0.39524  0.94453  1.0000
  H   H243      1.0  0.15945  0.02197  0.67691  1.0000
  C   C221      1.0  0.25336  0.98612  0.78439  1.0000
  H   H244      1.0  0.25324  0.37801  0.92647  1.0000
  H   H245      1.0  0.04921  0.00432  0.70997  1.0000
  H   H246      1.0  0.03074  0.30312  0.68035  1.0000
  C   C222      1.0  0.22945  0.00120  0.75184  1.0000
  C   C223      1.0  0.23853  0.46807  0.75385  1.0000
  H   H247      1.0  0.22256  0.02256  0.66743  1.0000
  S   S61       1.0  0.10033  0.14864  0.67519  1.0000
  C   C224      1.0  0.01012  0.12220  0.75543  1.0000
  H   H248      1.0  0.20503  0.99606  0.86364  1.0000
  C   C225      1.0  0.23443  0.97386  0.75435  1.0000
  C   C226      1.0  0.07540  0.07000  0.72028  1.0000
  C   C227      1.0  0.21947  0.00005  0.85816  1.0000
  H   H249      1.0  0.02259  0.34262  0.92057  1.0000
  S   S62       1.0  0.25595  0.03920  0.79921  1.0000
  H   H250      1.0  0.04970  0.08806  0.73035  1.0000
  C   C228      1.0  0.05587  0.02307  0.71322  1.0000
  H   H251      1.0  0.08244  0.00567  0.70348  1.0000
  H   H252      1.0  0.23221  0.44003  0.87971  1.0000
  H   H253      1.0  0.02423  0.12239  0.78489  1.0000
  H   H254      1.0  0.10401  0.31822  0.66799  1.0000
  H   H255      1.0  0.25043  0.36422  0.95232  1.0000
  H   H256      1.0  0.12288  0.21101  0.66850  1.0000
  H   H257      1.0  0.08294  0.08831  0.72293  1.0000
  H   H258      1.0  0.22800  0.00477  0.87197  1.0000
  H   H259      1.0  0.02110  0.08827  0.71730  1.0000
  H   H260      1.0  0.21906  0.01901  0.84859  1.0000
  S   S63       1.0  0.19557  0.46783  0.69149  1.0000
  H   H261      1.0  0.22832  0.44981  0.95696  1.0000
  C   C229      1.0  0.22568  0.40010  0.96709  1.0000
  H   H262      1.0  0.25514  0.98572  0.85505  1.0000
  H   H263      1.0  0.22029  0.00734  0.73936  1.0000
  C   C230      1.0  0.24816  0.01344  0.78208  1.0000
  H   H264      1.0  0.10989  0.42144  0.67669  1.0000
  H   H265      1.0  0.23212  0.04175  0.76354  1.0000
  S   S64       1.0  0.02875  0.13829  0.74167  1.0000
  H   H266      1.0  0.23640  0.41222  0.97471  1.0000
  H   H267      1.0  0.15894  0.34876  0.66803  1.0000
  H   H268      1.0  0.21610  0.99518  0.81800  1.0000
  S   S65       1.0  0.03291  0.24571  0.67424  1.0000
  H   H269      1.0  0.23493  0.30905  0.85480  1.0000
  H   H270      1.0  0.22515  0.07237  0.66970  1.0000
  C   C231      1.0  0.08481  0.04691  0.71298  1.0000
  H   H271      1.0  0.22515  0.38088  0.97629  1.0000
  C   C232      1.0  0.02272  0.05146  0.74886  1.0000
  H   H272      1.0  0.02790  0.07145  0.75346  1.0000
  H   H273      1.0  0.08991  0.20985  0.67593  1.0000
  H   H274      1.0  0.15169  0.22666  0.66501  1.0000
  C   C233      1.0  0.24919  0.38317  0.94293  1.0000
  C   C234      1.0  0.22946  0.42011  0.93146  1.0000
  H   H275      1.0  0.24801  0.00204  0.83125  1.0000
  C   C235      1.0  0.24033  0.46787  0.77583  1.0000
  H   H276      1.0  0.13458  0.32015  0.68376  1.0000
  C   C236      1.0  0.05627  0.06968  0.72436  1.0000
  C   C237      1.0  0.10591  0.07087  0.66463  1.0000
  C   C238      1.0  0.21689  0.37524  0.93703  1.0000
  C   C239      1.0  0.21707  0.97524  0.82627  1.0000
  S   S66       1.0  0.23310  0.43054  0.67940  1.0000
  C   C240      1.0  0.13182  0.33145  0.66946  1.0000
  Fe  Fe31      1.0  0.21389  0.39641  0.67217  1.0000
  S   S67       1.0  0.19357  0.97778  0.68842  1.0000
  H   H277      1.0  0.21189  0.41050  0.96923  1.0000
  H   H278      1.0  0.08290  0.47011  0.66677  1.0000
  H   H279      1.0  0.09988  0.08979  0.67044  1.0000
  C   C241      1.0  0.24422  0.33793  0.78779  1.0000
  H   H280      1.0  0.22078  0.36722  0.92127  1.0000
  H   H281      1.0  0.21637  0.35711  0.94753  1.0000
  N   N16       1.0  0.02569  0.04623  0.72613  1.0000
  Fe  Fe32      1.0  0.03724  0.19928  0.67500  1.0000
  C   C242      1.0  0.07506  0.02355  0.70934  1.0000
  H   H282      1.0  0.03803  0.07720  0.66876  1.0000
  H   H283      1.0  0.23253  0.39934  0.90138  1.0000
  H   H284      1.0  0.03986  0.02756  0.67297  1.0000
  H   H285      1.0  0.16320  0.07149  0.66818  1.0000
  H   H286      1.0  0.23849  0.33242  0.77288  1.0000
  C   C243      1.0  0.24705  0.98308  0.84062  1.0000
  C   C244      1.0  0.23002  0.46720  0.90571  1.0000
  H   H287      1.0  0.01689  0.27605  0.87044  1.0000
  H   H288      1.0  0.23321  0.45281  0.78513  1.0000
  H   H289      1.0  0.01993  0.00276  0.89454  1.0000
  C   C245      1.0  0.01498  0.34561  0.90622  1.0000
  H   H290      1.0  0.01811  0.01545  0.70433  1.0000
  C   C246      1.0  0.22875  0.44645  0.94025  1.0000
  H   H291      1.0  0.01921  0.01397  0.93322  1.0000
  C   C247      1.0  0.01593  0.06782  0.71404  1.0000
  H   H292      1.0  0.03005  0.03594  0.75857  1.0000
  H   H293      1.0  0.01614  0.30915  0.84007  1.0000
  S   S68       1.0  0.01567  0.16767  0.68267  1.0000
  H   H294      1.0  0.07983  0.05062  0.66542  1.0000
  H   H295      1.0  0.24348  0.38049  0.78043  1.0000
  C   C248      1.0  0.24703  0.36506  0.79200  1.0000
  C   C249      1.0  0.25441  0.37235  0.81107  1.0000
  H   H296      1.0  0.24621  0.29738  0.79829  1.0000
  H   H297      1.0  0.25307  0.29391  0.87028  1.0000
  H   H298      1.0  0.24307  0.27280  0.82898  1.0000
  C   C250      1.0  0.25005  0.30937  0.85791  1.0000
  S   S69       1.0  0.25823  0.04877  0.86038  1.0000
  H   H299      1.0  0.13819  0.13611  0.66400  1.0000
  H   H300      1.0  0.25660  0.39349  0.81430  1.0000
  C   C251      1.0  0.25877  0.01201  0.98690  1.0000
  C   C252      1.0  0.25632  0.32471  0.82229  1.0000
  S   S70       1.0  0.25835  0.31373  0.91888  1.0000
  C   C253      1.0  0.25900  0.35255  0.82600  1.0000
  C   C254      1.0  0.25800  0.27599  0.83203  1.0000
  Fe  Fe33      1.0  0.03386  0.69543  0.07938  1.0000
  Fe  Fe34      1.0  0.06916  0.68377  0.10552  1.0000
  S   S71       1.0  0.05314  0.66928  0.13370  1.0000
  S   S72       1.0  0.10042  0.68723  0.10382  1.0000
  Fe  Fe35      1.0  0.03618  0.64662  0.11075  1.0000
  H   H301      1.0  0.22327  0.74718  0.06197  1.0000
  Fe  Fe36      1.0  0.03403  0.70501  0.12682  1.0000
  C   C255      1.0  0.23666  0.71646  0.01623  1.0000
  S   S73       1.0  0.05357  0.65948  0.08258  1.0000
  S   S74       1.0  0.05126  0.72065  0.10007  1.0000
  Fe  Fe37      1.0  0.03282  0.95113  0.17723  1.0000
  S   S75       1.0  0.04966  0.93962  0.20529  1.0000
  Fe  Fe38      1.0  0.03189  0.89090  0.16463  1.0000
  S   S76       1.0  0.04851  0.87639  0.19207  1.0000
  C   C256      1.0  0.24438  0.96784  0.00862  1.0000
  Fe  Fe39      1.0  0.03025  0.90524  0.21087  1.0000
  Fe  Fe40      1.0  0.06599  0.91195  0.18390  1.0000
  S   S77       1.0  0.09728  0.91086  0.18484  1.0000
  S   S78       1.0  0.05051  0.92521  0.15544  1.0000
  Fe  Fe41      1.0  0.17393  0.92279  0.09915  1.0000
  S   S79       1.0  0.18874  0.93786  0.12698  1.0000
  S   S80       1.0  0.14270  0.91914  0.09878  1.0000
  Fe  Fe42      1.0  0.21027  0.91495  0.07262  1.0000
  S   S81       1.0  0.22758  0.92925  0.09923  1.0000
  S   S82       1.0  0.22036  0.90964  0.03845  1.0000
  Fe  Fe43      1.0  0.20880  0.90330  0.11959  1.0000
  S   S83       1.0  0.21470  0.87554  0.14733  1.0000
  H   H302      1.0  0.08600  0.95941  0.15304  1.0000
  C   C257      1.0  0.22921  0.71965  0.03657  1.0000
  S   S84       1.0  0.19302  0.88710  0.09268  1.0000
  S   S85       1.0  0.18936  0.94928  0.07660  1.0000
  Fe  Fe44      1.0  0.18176  0.68883  0.18151  1.0000
  S   S86       1.0  0.19558  0.68443  0.14999  1.0000
  S   S87       1.0  0.15027  0.68958  0.18471  1.0000
  Fe  Fe45      1.0  0.21881  0.69129  0.20407  1.0000
  S   S88       1.0  0.23496  0.68607  0.17344  1.0000
  S   S89       1.0  0.23543  0.69391  0.23455  1.0000
  Fe  Fe46      1.0  0.21439  0.71657  0.16069  1.0000
  S   S90       1.0  0.22295  0.74833  0.13673  1.0000
  Fe  Fe47      1.0  0.21467  0.65395  0.16525  1.0000
  S   S91       1.0  0.22166  0.61837  0.14318  1.0000
  S   S92       1.0  0.19920  0.72346  0.19144  1.0000
  S   S93       1.0  0.19984  0.65671  0.19674  1.0000
  C   C258      1.0  0.03236  0.52735  0.15747  1.0000
  C   C259      1.0  0.24100  0.71988  0.25265  1.0000
  C   C260      1.0  0.23392  0.74643  0.25103  1.0000
  C   C261      1.0  0.23908  0.76626  0.26550  1.0000
  C   C262      1.0  0.24413  0.73870  0.00485  1.0000
  C   C263      1.0  0.02611  0.81515  0.16353  1.0000
  H   H303      1.0  0.23495  0.75035  0.17996  1.0000
  H   H304      1.0  0.02409  0.73013  0.19978  1.0000
  S   S94       1.0  0.02093  0.90073  0.24528  1.0000
  C   C264      1.0  0.21305  0.52598  0.14002  1.0000
  C   C265      1.0  0.21906  0.54064  0.12238  1.0000
  C   C266      1.0  0.22172  0.56876  0.12376  1.0000
  C   C267      1.0  0.21826  0.58275  0.14268  1.0000
  C   C268      1.0  0.21198  0.56818  0.16024  1.0000
  C   C269      1.0  0.20946  0.54002  0.15890  1.0000
  H   H305      1.0  0.22195  0.53025  0.10777  1.0000
  H   H306      1.0  0.22660  0.57974  0.11005  1.0000
  H   H307      1.0  0.20933  0.57848  0.17494  1.0000
  H   H308      1.0  0.20488  0.52894  0.17269  1.0000
  C   C270      1.0  0.21897  0.78350  0.13974  1.0000
  C   C271      1.0  0.22198  0.80061  0.12237  1.0000
  C   C272      1.0  0.21996  0.82881  0.12431  1.0000
  C   C273      1.0  0.21540  0.84016  0.14381  1.0000
  C   C274      1.0  0.21207  0.82306  0.16111  1.0000
  C   C275      1.0  0.21350  0.79482  0.15901  1.0000
  H   H309      1.0  0.22616  0.79202  0.10739  1.0000
  H   H310      1.0  0.22265  0.84179  0.11089  1.0000
  H   H311      1.0  0.20856  0.83170  0.17626  1.0000
  H   H312      1.0  0.21068  0.78192  0.17239  1.0000
  C   C276      1.0  0.08527  0.52622  0.15489  1.0000
  C   C277      1.0  0.23435  0.88462  0.02509  1.0000
  H   H313      1.0  0.01890  0.76867  0.29100  1.0000
  H   H314      1.0  0.11699  0.74783  0.14462  1.0000
  C   C278      1.0  0.03053  0.54648  0.12210  1.0000
  C   C279      1.0  0.25577  0.83523  0.17916  1.0000
  C   C280      1.0  0.22292  0.87816  0.31086  1.0000
  C   C281      1.0  0.13011  0.91779  0.12276  1.0000
  C   C282      1.0  0.13866  0.92190  0.14189  1.0000
  C   C283      1.0  0.12846  0.91966  0.16084  1.0000
  C   C284      1.0  0.10963  0.91334  0.16078  1.0000
  C   C285      1.0  0.10103  0.90923  0.14167  1.0000
  C   C286      1.0  0.11122  0.91163  0.12271  1.0000
  H   H315      1.0  0.15312  0.92679  0.14218  1.0000
  H   H316      1.0  0.13519  0.92294  0.17557  1.0000
  H   H317      1.0  0.08660  0.90392  0.14143  1.0000
  H   H318      1.0  0.10452  0.90828  0.10796  1.0000
  C   C287      1.0  0.25359  0.84336  0.02413  1.0000
  H   H319      1.0  0.02205  0.78432  0.08073  1.0000
  C   C288      1.0  0.23751  0.88741  0.00328  1.0000
  C   C289      1.0  0.11390  0.68669  0.12659  1.0000
  C   C290      1.0  0.10590  0.68509  0.14676  1.0000
  C   C291      1.0  0.11716  0.68615  0.16449  1.0000
  C   C292      1.0  0.13646  0.68862  0.16216  1.0000
  C   C293      1.0  0.14434  0.69044  0.14198  1.0000
  C   C294      1.0  0.13314  0.68942  0.12431  1.0000
  H   H320      1.0  0.09109  0.68282  0.14874  1.0000
  H   H321      1.0  0.11092  0.68470  0.18005  1.0000
  H   H322      1.0  0.15904  0.69286  0.13985  1.0000
  H   H323      1.0  0.13940  0.69096  0.10876  1.0000
  H   H324      1.0  0.22424  0.75159  0.23885  1.0000
  C   C295      1.0  0.03407  0.57645  0.15127  1.0000
  C   C296      1.0  0.03406  0.55384  0.16503  1.0000
  H   H325      1.0  0.03517  0.59659  0.15745  1.0000
  C   C297      1.0  0.24247  0.86241  0.03545  1.0000
  C   C298      1.0  0.02807  0.82619  0.14335  1.0000
  S   S95       1.0  0.02626  0.73415  0.15320  1.0000
  H   H326      1.0  0.10577  0.77108  0.17247  1.0000
  H   H327      1.0  0.23649  0.69637  0.00984  1.0000
  C   C299      1.0  0.07637  0.48593  0.13710  1.0000
  H   H328      1.0  0.11283  0.74174  0.11786  1.0000
  C   C300      1.0  0.13208  0.50011  0.11562  1.0000
  C   C301      1.0  0.03078  0.52384  0.13582  1.0000
  S   S96       1.0  0.02823  0.71566  0.04730  1.0000
  C   C302      1.0  0.01189  0.74424  0.01502  1.0000
  H   H329      1.0  0.09499  0.49152  0.18517  1.0000
  H   H330      1.0  0.03418  0.76958  0.21965  1.0000
  H   H331      1.0  0.03525  0.55693  0.18172  1.0000
  N   N17       1.0  0.24194  0.87133  0.31808  1.0000
  C   C303      1.0  0.24345  0.57778  0.32450  1.0000
  C   C304      1.0  0.03056  0.80876  0.12620  1.0000
  N   N18       1.0  0.09158  0.76682  0.13311  1.0000
  C   C305      1.0  0.08076  0.74471  0.14274  1.0000
  C   C306      1.0  0.08413  0.77233  0.11189  1.0000
  C   C307      1.0  0.09040  0.79053  0.14710  1.0000
  C   C308      1.0  0.09872  0.78932  0.16709  1.0000
  C   C309      1.0  0.08061  0.81489  0.14182  1.0000
  C   C310      1.0  0.09771  0.81136  0.18068  1.0000
  C   C311      1.0  0.07975  0.83683  0.15550  1.0000
  C   C312      1.0  0.08838  0.83515  0.17481  1.0000
  H   H332      1.0  0.06601  0.75117  0.14568  1.0000
  H   H333      1.0  0.08072  0.72672  0.13240  1.0000
  H   H334      1.0  0.08641  0.73776  0.15800  1.0000
  H   H335      1.0  0.06893  0.77704  0.11259  1.0000
  H   H336      1.0  0.08591  0.75437  0.10150  1.0000
  H   H337      1.0  0.09139  0.78926  0.10392  1.0000
  S   S97       1.0  0.02593  0.86141  0.13872  1.0000
  H   H338      1.0  0.07319  0.81746  0.12737  1.0000
  C   C313      1.0  0.12301  0.47926  0.15530  1.0000
  H   H339      1.0  0.07200  0.85511  0.15125  1.0000
  H   H340      1.0  0.08760  0.85222  0.18538  1.0000
  H   H341      1.0  0.24502  0.84092  0.29399  1.0000
  H   H342      1.0  0.25124  0.85355  0.18719  1.0000
  H   H343      1.0  0.01019  0.89433  0.28860  1.0000
  H   H344      1.0  0.24178  0.95578  0.05089  1.0000
  S   S98       1.0  0.20993  0.49027  0.13961  1.0000
  H   H345      1.0  0.03198  0.81715  0.11055  1.0000
  C   C314      1.0  0.02787  0.76949  0.14918  1.0000
  H   H346      1.0  0.12031  0.77437  0.12548  1.0000
  C   C315      1.0  0.03050  0.78055  0.12910  1.0000
  C   C316      1.0  0.11125  0.75744  0.13024  1.0000
  C   C317      1.0  0.23610  0.52264  0.32515  1.0000
  H   H347      1.0  0.21633  0.86037  0.30382  1.0000
  H   H348      1.0  0.24025  0.85997  0.05219  1.0000
  H   H349      1.0  0.24108  0.73360  0.20395  1.0000
  H   H350      1.0  0.13560  0.50766  0.10006  1.0000
  C   C318      1.0  0.25312  0.71357  0.26915  1.0000
  C   C319      1.0  0.23618  0.76697  0.03547  1.0000
  C   C320      1.0  0.11404  0.50379  0.12391  1.0000
  H   H351      1.0  0.23344  0.78663  0.26404  1.0000
  H   H352      1.0  0.10397  0.80992  0.19597  1.0000
  H   H353      1.0  0.03167  0.76742  0.11572  1.0000
  H   H354      1.0  0.22366  0.70244  0.04504  1.0000
  C   C321      1.0  0.02426  0.75597  0.22678  1.0000
  H   H355      1.0  0.01949  0.95850  0.24411  1.0000
  H   H356      1.0  0.02887  0.54345  0.10546  1.0000
  C   C322      1.0  0.01859  0.73378  0.21554  1.0000
  C   C323      1.0  0.22897  0.74483  0.04617  1.0000
  H   H357      1.0  0.10407  0.51470  0.11442  1.0000
  H   H358      1.0  0.09536  0.53558  0.16540  1.0000
  S   S99       1.0  0.03092  0.60079  0.11146  1.0000
  C   C324      1.0  0.02589  0.78692  0.16639  1.0000
  C   C325      1.0  0.24214  0.75288  0.19503  1.0000
  H   H359      1.0  0.25267  0.81076  0.20643  1.0000
  H   H360      1.0  0.25830  0.85525  0.14920  1.0000
  C   C326      1.0  0.03208  0.57299  0.12966  1.0000
  H   H361      1.0  0.02599  0.74884  0.01031  1.0000
  C   C327      1.0  0.08619  0.48341  0.17271  1.0000
  C   C328      1.0  0.25073  0.89578  0.32611  1.0000
  H   H362      1.0  0.24940  0.78167  0.00776  1.0000
  S   S100      1.0  0.01522  0.68145  0.10613  1.0000
  H   H363      1.0  0.02403  0.82836  0.17685  1.0000
  C   C329      1.0  0.01014  0.77769  0.07146  1.0000
  C   C330      1.0  0.23057  0.53894  0.30823  1.0000
  S   S101      1.0  0.03260  0.49966  0.17582  1.0000
  N   N19       1.0  0.16044  0.60857  0.13793  1.0000
  C   C331      1.0  0.16769  0.61578  0.15876  1.0000
  C   C332      1.0  0.16567  0.57990  0.13385  1.0000
  C   C333      1.0  0.16997  0.62575  0.12202  1.0000
  C   C334      1.0  0.14000  0.61210  0.13658  1.0000
  C   C335      1.0  0.13115  0.60925  0.11705  1.0000
  C   C336      1.0  0.12825  0.61724  0.15443  1.0000
  C   C337      1.0  0.11187  0.61215  0.11541  1.0000
  C   C338      1.0  0.10895  0.61957  0.15265  1.0000
  C   C339      1.0  0.10079  0.61727  0.13317  1.0000
  H   H364      1.0  0.16265  0.60206  0.17143  1.0000
  H   H365      1.0  0.18314  0.61410  0.15902  1.0000
  H   H366      1.0  0.16380  0.63703  0.16293  1.0000
  H   H367      1.0  0.15914  0.56623  0.14567  1.0000
  H   H368      1.0  0.18095  0.57632  0.13443  1.0000
  H   H369      1.0  0.16141  0.57334  0.11808  1.0000
  H   H370      1.0  0.16522  0.64721  0.12342  1.0000
  H   H371      1.0  0.18534  0.62507  0.12382  1.0000
  H   H372      1.0  0.16767  0.61927  0.10569  1.0000
  H   H373      1.0  0.13906  0.60490  0.10284  1.0000
  H   H374      1.0  0.13362  0.62006  0.16991  1.0000
  H   H375      1.0  0.10545  0.61087  0.10023  1.0000
  H   H376      1.0  0.10028  0.62408  0.16637  1.0000
  H   H377      1.0  0.08586  0.61992  0.13175  1.0000
  N   N20       1.0  0.15456  0.83977  0.14515  1.0000
  C   C340      1.0  0.16167  0.85534  0.16291  1.0000
  C   C341      1.0  0.16345  0.85038  0.12561  1.0000
  C   C342      1.0  0.13425  0.84500  0.14370  1.0000
  C   C343      1.0  0.15827  0.81056  0.14874  1.0000
  C   C344      1.0  0.14995  0.79720  0.16625  1.0000
  C   C345      1.0  0.17000  0.79459  0.13524  1.0000
  C   C346      1.0  0.15306  0.76957  0.16989  1.0000
  C   C347      1.0  0.17295  0.76697  0.13902  1.0000
  C   C348      1.0  0.16455  0.75455  0.15630  1.0000
  H   H378      1.0  0.15469  0.85027  0.17809  1.0000
  H   H379      1.0  0.17686  0.85152  0.16467  1.0000
  H   H380      1.0  0.15960  0.87750  0.16047  1.0000
  H   H381      1.0  0.17887  0.84848  0.12613  1.0000
  H   H382      1.0  0.16020  0.87232  0.12324  1.0000
  H   H383      1.0  0.15859  0.83997  0.11143  1.0000
  H   H384      1.0  0.12674  0.84171  0.15886  1.0000
  H   H385      1.0  0.13099  0.86625  0.13921  1.0000
  H   H386      1.0  0.12812  0.83199  0.13168  1.0000
  H   H387      1.0  0.14116  0.80815  0.17739  1.0000
  H   H388      1.0  0.17740  0.80296  0.12187  1.0000
  H   H389      1.0  0.14681  0.75965  0.18346  1.0000
  H   H390      1.0  0.18225  0.75521  0.12878  1.0000
  H   H391      1.0  0.16722  0.73329  0.15939  1.0000
  N   N21       1.0  0.08958  0.49699  0.15215  1.0000
  H   H392      1.0  0.08549  0.53753  0.13974  1.0000
  H   H393      1.0  0.23426  0.76865  0.20410  1.0000
  H   H394      1.0  0.02931  0.50375  0.12965  1.0000
  C   C349      1.0  0.10887  0.49320  0.14393  1.0000
  C   C350      1.0  0.14556  0.48624  0.12712  1.0000
  H   H395      1.0  0.02372  0.77862  0.18195  1.0000
  H   H396      1.0  0.07581  0.49768  0.12219  1.0000
  H   H397      1.0  0.25867  0.69315  0.27070  1.0000
  C   C351      1.0  0.24372  0.76397  0.01520  1.0000
  H   H398      1.0  0.22342  0.53022  0.29523  1.0000
  C   C352      1.0  0.25114  0.75989  0.28207  1.0000
  H   H399      1.0  0.22319  0.89461  0.29886  1.0000
  H   H400      1.0  0.25417  0.87303  0.28686  1.0000
  H   H401      1.0  0.07112  0.52972  0.16195  1.0000
  S   S102      1.0  0.01229  0.91798  0.18384  1.0000
  Fe  Fe48      1.0  0.20568  0.96242  0.10420  1.0000
  H   H402      1.0  0.22993  0.57901  0.29478  1.0000
  H   H403      1.0  0.01380  0.71856  0.29232  1.0000
  C   C353      1.0  0.23422  0.56644  0.30792  1.0000
  H   H404      1.0  0.06189  0.48626  0.14362  1.0000
  H   H405      1.0  0.01375  0.78077  0.05453  1.0000
  H   H406      1.0  0.23607  0.78660  0.04293  1.0000
  H   H407      1.0  0.24632  0.59919  0.32427  1.0000
  H   H408      1.0  0.07154  0.48643  0.17840  1.0000
  H   H409      1.0  0.10437  0.96737  0.18482  1.0000
  H   H410      1.0  0.23881  0.95017  0.01623  1.0000
  C   C354      1.0  0.25235  0.85862  0.30017  1.0000
  S   S103      1.0  0.25723  0.78603  0.29977  1.0000
  C   C355      1.0  0.01711  0.76090  0.24702  1.0000
  H   H411      1.0  0.02199  0.77867  0.25465  1.0000
  C   C356      1.0  0.25810  0.73331  0.28378  1.0000
  H   H412      1.0  0.21344  0.88483  0.32391  1.0000
  C   C357      1.0  0.25677  0.84618  0.00233  1.0000
  H   H413      1.0  0.21279  0.96834  0.03467  1.0000
  H   H414      1.0  0.15948  0.48298  0.12057  1.0000
  H   H415      1.0  0.23286  0.50153  0.32435  1.0000
  C   C358      1.0  0.25673  0.81059  0.19003  1.0000
  C   C359      1.0  0.14107  0.47610  0.14697  1.0000
  H   H416      1.0  0.23495  0.83158  0.32961  1.0000
  Fe  Fe49      1.0  0.02870  0.93963  0.57544  1.0000
  Fe  Fe50      1.0  0.06524  0.93097  0.59994  1.0000
  S   S104      1.0  0.05039  0.91898  0.62961  1.0000
  S   S105      1.0  0.09668  0.93202  0.59904  1.0000
  Fe  Fe51      1.0  0.03224  0.89428  0.60941  1.0000
  H   H417      1.0  0.25628  0.57149  0.35385  1.0000
  Fe  Fe52      1.0  0.03172  0.95476  0.62169  1.0000
  H   H418      1.0  0.17324  0.74223  0.63529  1.0000
  S   S106      1.0  0.04852  0.90397  0.57990  1.0000
  H   H419      1.0  0.24223  0.71243  0.54452  1.0000
  H   H420      1.0  0.01325  0.79433  0.60917  1.0000
  H   H421      1.0  0.17583  0.52793  0.62814  1.0000
  H   H422      1.0  0.08463  0.47375  0.62956  1.0000
  H   H423      1.0  0.16878  0.61919  0.63273  1.0000
  C   C360      1.0  0.24374  0.52872  0.38027  1.0000
  C   C361      1.0  0.01212  0.60530  0.47272  1.0000
  C   C362      1.0  0.16649  0.50822  0.65575  1.0000
  C   C363      1.0  0.16017  0.86980  0.63540  1.0000
  H   H424      1.0  0.15191  0.71939  0.61192  1.0000
  H   H425      1.0  0.04491  0.95386  0.50464  1.0000
  Fe  Fe53      1.0  0.17898  0.66585  0.60406  1.0000
  S   S107      1.0  0.19284  0.67916  0.63309  1.0000
  S   S108      1.0  0.14789  0.66115  0.60268  1.0000
  Fe  Fe54      1.0  0.21587  0.66048  0.57849  1.0000
  S   S109      1.0  0.23220  0.67338  0.60631  1.0000
  S   S110      1.0  0.22880  0.65688  0.54529  1.0000
  Fe  Fe55      1.0  0.21343  0.64543  0.62487  1.0000
  H   H426      1.0  0.15691  0.66410  0.64719  1.0000
  Fe  Fe56      1.0  0.20987  0.70593  0.61184  1.0000
  S   S111      1.0  0.21446  0.75194  0.61269  1.0000
  S   S112      1.0  0.19852  0.63092  0.59678  1.0000
  S   S113      1.0  0.19457  0.69428  0.58300  1.0000
  C   C364      1.0  0.10513  0.84742  0.61849  1.0000
  H   H427      1.0  0.20205  0.72226  0.50868  1.0000
  C   C365      1.0  0.02680  0.94275  0.45665  1.0000
  N   N22       1.0  0.08928  0.50710  0.65026  1.0000
  C   C366      1.0  0.12921  0.94838  0.65870  1.0000
  H   H428      1.0  0.17408  0.48965  0.65178  1.0000
  H   H429      1.0  0.25461  0.84619  0.34145  1.0000
  H   H430      1.0  0.13549  0.93520  0.60655  1.0000
  H   H431      1.0  0.13349  0.83434  0.61752  1.0000
  S   S114      1.0  0.02258  0.85032  0.61172  1.0000
  Fe  Fe57      1.0  0.20815  0.96028  0.65998  1.0000
  H   H432      1.0  0.20316  0.75677  0.65745  1.0000
  C   C367      1.0  0.23858  0.62915  0.53075  1.0000
  H   H433      1.0  0.01478  0.58287  0.55557  1.0000
  H   H434      1.0  0.08811  0.50518  0.61644  1.0000
  S   S115      1.0  0.04735  0.96759  0.59255  1.0000
  C   C368      1.0  0.24053  0.60311  0.53925  1.0000
  C   C369      1.0  0.01498  0.59369  0.49252  1.0000
  H   H435      1.0  0.02654  0.59679  0.53328  1.0000
  C   C370      1.0  0.21859  0.52303  0.64051  1.0000
  C   C371      1.0  0.24215  0.77087  0.46712  1.0000
  H   H436      1.0  0.06417  0.59147  0.62921  1.0000
  C   C372      1.0  0.21938  0.57966  0.64637  1.0000
  C   C373      1.0  0.22018  0.56894  0.62613  1.0000
  C   C374      1.0  0.21987  0.54077  0.62323  1.0000
  C   C375      1.0  0.24495  0.63374  0.50999  1.0000
  H   H437      1.0  0.25799  0.61665  0.48195  1.0000
  H   H438      1.0  0.22149  0.58229  0.61270  1.0000
  H   H439      1.0  0.22085  0.53269  0.60752  1.0000
  C   C376      1.0  0.15258  0.83105  0.65684  1.0000
  C   C377      1.0  0.21103  0.82918  0.63528  1.0000
  C   C378      1.0  0.21347  0.80632  0.62224  1.0000
  C   C379      1.0  0.21065  0.77995  0.63000  1.0000
  H   H440      1.0  0.24960  0.69781  0.52028  1.0000
  S   S116      1.0  0.02925  0.48256  0.64837  1.0000
  H   H441      1.0  0.21337  0.84918  0.62897  1.0000
  H   H442      1.0  0.21769  0.80909  0.60598  1.0000
  H   H443      1.0  0.24885  0.91071  0.40480  1.0000
  C   C380      1.0  0.10963  0.50156  0.64997  1.0000
  H   H444      1.0  0.15330  0.81811  0.64267  1.0000
  H   H445      1.0  0.11311  0.48014  0.64644  1.0000
  H   H446      1.0  0.15325  0.94437  0.63825  1.0000
  C   C381      1.0  0.13437  0.65933  0.62607  1.0000
  C   C382      1.0  0.11526  0.65533  0.62473  1.0000
  C   C383      1.0  0.10415  0.65259  0.64297  1.0000
  C   C384      1.0  0.25515  0.58671  0.50636  1.0000
  H   H447      1.0  0.10903  0.65412  0.60948  1.0000
  H   H448      1.0  0.08952  0.64939  0.64152  1.0000
  C   C385      1.0  0.10876  0.93904  0.62217  1.0000
  C   C386      1.0  0.12822  0.93904  0.62132  1.0000
  C   C387      1.0  0.13836  0.94392  0.63941  1.0000
  C   C388      1.0  0.15158  0.75432  0.65745  1.0000
  H   H449      1.0  0.15617  0.89083  0.63068  1.0000
  C   C389      1.0  0.09950  0.94475  0.64125  1.0000
  H   H450      1.0  0.22835  0.53083  0.37966  1.0000
  C   C390      1.0  0.20591  0.82600  0.65644  1.0000
  H   H451      1.0  0.08451  0.94539  0.64206  1.0000
  N   N23       1.0  0.14725  0.85951  0.65189  1.0000
  H   H452      1.0  0.25032  0.56206  0.53390  1.0000
  C   C391      1.0  0.24029  0.71738  0.48092  1.0000
  C   C392      1.0  0.12319  0.84635  0.62612  1.0000
  H   H453      1.0  0.11681  0.51399  0.63781  1.0000
  H   H454      1.0  0.23992  0.69636  0.48551  1.0000
  C   C393      1.0  0.03953  0.82375  0.64560  1.0000
  C   C394      1.0  0.12797  0.86092  0.64423  1.0000
  H   H455      1.0  0.24296  0.79161  0.46162  1.0000
  S   S117      1.0  0.25673  0.79149  0.36133  1.0000
  C   C395      1.0  0.01908  0.96884  0.45208  1.0000
  H   H456      1.0  0.03000  0.55246  0.51767  1.0000
  C   C396      1.0  0.02894  0.51817  0.64493  1.0000
  H   H457      1.0  0.18249  0.56908  0.61440  1.0000
  C   C397      1.0  0.02860  0.82174  0.62784  1.0000
  C   C398      1.0  0.01156  0.47301  0.50659  1.0000
  S   S118      1.0  0.01525  0.94177  0.54289  1.0000
  C   C399      1.0  0.23548  0.73820  0.49542  1.0000
  H   H458      1.0  0.24712  0.51578  0.39413  1.0000
  H   H459      1.0  0.01323  0.85947  0.56762  1.0000
  H   H460      1.0  0.18173  0.59469  0.64770  1.0000
  H   H461      1.0  0.24919  0.54901  0.38363  1.0000
  C   C400      1.0  0.11984  0.74125  0.64926  1.0000
  H   H462      1.0  0.06641  0.49856  0.63037  1.0000
  H   H463      1.0  0.09486  0.78103  0.64137  1.0000
  H   H464      1.0  0.04165  0.91751  0.47879  1.0000
  H   H465      1.0  0.01738  0.53577  0.53824  1.0000
  H   H466      1.0  0.24276  0.94585  0.36251  1.0000
  S   S119      1.0  0.21880  0.48768  0.63617  1.0000
  H   H467      1.0  0.16106  0.55719  0.60382  1.0000
  C   C401      1.0  0.08179  0.49587  0.63076  1.0000
  C   C402      1.0  0.01261  0.59123  0.53949  1.0000
  C   C403      1.0  0.22439  0.75523  0.53023  1.0000
  H   H468      1.0  0.23577  0.59919  0.55517  1.0000
  C   C404      1.0  0.24571  0.72324  0.46020  1.0000
  C   C405      1.0  0.15756  0.55515  0.64698  1.0000
  H   H469      1.0  0.16682  0.59205  0.60189  1.0000
  N   N24       1.0  0.25169  0.51712  0.36053  1.0000
  C   C406      1.0  0.21388  0.71315  0.51743  1.0000
  H   H470      1.0  0.23613  0.76915  0.53198  1.0000
  H   H471      1.0  0.13107  0.59700  0.64236  1.0000
  C   C407      1.0  0.15848  0.74212  0.63916  1.0000
  C   C408      1.0  0.24174  0.91136  0.34216  1.0000
  H   H472      1.0  0.24348  0.65365  0.50317  1.0000
  C   C409      1.0  0.09257  0.76979  0.65636  1.0000
  H   H473      1.0  0.02173  0.51800  0.61237  1.0000
  H   H474      1.0  0.13815  0.60457  0.61621  1.0000
  H   H475      1.0  0.06928  0.54345  0.62413  1.0000
  C   C410      1.0  0.03820  0.95811  0.48986  1.0000
  H   H476      1.0  0.08471  0.88963  0.65421  1.0000
  H   H477      1.0  0.23338  0.78249  0.49768  1.0000
  C   C411      1.0  0.04328  0.80070  0.65824  1.0000
  C   C412      1.0  0.10970  0.94920  0.65946  1.0000
  H   H478      1.0  0.16046  0.85729  0.62102  1.0000
  C   C413      1.0  0.16745  0.60122  0.64324  1.0000
  H   H479      1.0  0.25824  0.73003  0.52749  1.0000
  H   H480      1.0  0.02549  0.92585  0.44628  1.0000
  H   H481      1.0  0.01868  0.56807  0.60951  1.0000
  H   H482      1.0  0.10185  0.83667  0.60436  1.0000
  C   C414      1.0  0.24549  0.53363  0.34238  1.0000
  S   S120      1.0  0.01170  0.92907  0.60445  1.0000
  C   C415      1.0  0.02176  0.79623  0.62280  1.0000
  N   N25       1.0  0.22993  0.73136  0.51733  1.0000
  H   H483      1.0  0.25081  0.47683  0.37384  1.0000
  H   H484      1.0  0.21741  0.69317  0.51036  1.0000
  C   C416      1.0  0.02263  0.55880  0.62423  1.0000
  C   C417      1.0  0.02573  0.77309  0.63527  1.0000
  C   C418      1.0  0.24614  0.48845  0.35975  1.0000
  C   C419      1.0  0.03232  0.53461  0.66220  1.0000
  H   H485      1.0  0.07738  0.77059  0.65998  1.0000
  H   H486      1.0  0.23186  0.85798  0.34866  1.0000
  C   C420      1.0  0.07917  0.59273  0.65783  1.0000
  H   H487      1.0  0.16006  0.60821  0.65777  1.0000
  S   S121      1.0  0.22020  0.61497  0.65075  1.0000
  H   H488      1.0  0.07327  0.72838  0.64384  1.0000
  C   C421      1.0  0.02567  0.57524  0.64164  1.0000
  C   C422      1.0  0.24570  0.71739  0.52780  1.0000
  S   S122      1.0  0.02248  0.61085  0.63917  1.0000
  H   H489      1.0  0.23078  0.48678  0.35943  1.0000
  H   H490      1.0  0.22004  0.74921  0.54651  1.0000
  C   C423      1.0  0.24665  0.74992  0.45332  1.0000
  H   H491      1.0  0.21239  0.76656  0.52341  1.0000
  H   H492      1.0  0.04475  0.84317  0.64988  1.0000
  C   C424      1.0  0.13848  0.58829  0.62839  1.0000
  C   C425      1.0  0.14226  0.66079  0.64586  1.0000
  C   C426      1.0  0.14642  0.72936  0.62593  1.0000
  S   S123      1.0  0.05472  0.67026  0.65485  1.0000
  C   C427      1.0  0.01579  0.54740  0.52331  1.0000
  S   S124      1.0  0.18693  0.92902  0.65344  1.0000
  H   H493      1.0  0.02909  0.59208  0.49786  1.0000
  C   C428      1.0  0.12740  0.72879  0.63081  1.0000
  C   C429      1.0  0.24906  0.56169  0.34145  1.0000
  C   C430      1.0  0.07239  0.57991  0.64038  1.0000
  H   H494      1.0  0.24921  0.70704  0.44932  1.0000
  H   H495      1.0  0.08939  0.73734  0.62348  1.0000
  H   H496      1.0  0.07736  0.86404  0.62256  1.0000
  C   C431      1.0  0.20526  0.77682  0.65112  1.0000
  C   C432      1.0  0.08831  0.72767  0.63925  1.0000
  H   H497      1.0  0.25092  0.75433  0.43722  1.0000
  H   H498      1.0  0.20885  0.70847  0.53371  1.0000
  H   H499      1.0  0.13018  0.57142  0.62254  1.0000
  C   C433      1.0  0.16745  0.57393  0.61239  1.0000
  H   H500      1.0  0.11901  0.71805  0.61999  1.0000
  C   C434      1.0  0.13256  0.75392  0.66249  1.0000
  C   C435      1.0  0.03083  0.56294  0.66055  1.0000
  N   N26       1.0  0.15779  0.57908  0.63288  1.0000
  C   C436      1.0  0.09129  0.86284  0.62870  1.0000
  H   H501      1.0  0.17475  0.86994  0.64091  1.0000
  C   C437      1.0  0.08560  0.53647  0.65257  1.0000
  H   H502      1.0  0.02280  0.94655  0.41256  1.0000
  C   C438      1.0  0.07543  0.55216  0.63771  1.0000
  C   C439      1.0  0.03619  0.93762  0.47532  1.0000
  C   C440      1.0  0.24877  0.58206  0.52711  1.0000
  C   C441      1.0  0.02444  0.53042  0.62578  1.0000
  C   C442      1.0  0.23663  0.76526  0.48789  1.0000
  C   C443      1.0  0.16727  0.53051  0.64216  1.0000
  C   C444      1.0  0.03644  0.77517  0.65320  1.0000
  H   H503      1.0  0.02032  0.75374  0.63115  1.0000
  H   H504      1.0  0.07631  0.61404  0.66011  1.0000
  C   C445      1.0  0.09546  0.87721  0.64658  1.0000
  C   C446      1.0  0.24066  0.85091  0.33513  1.0000
  C   C447      1.0  0.11350  0.87649  0.65427  1.0000
  H   H505      1.0  0.25258  0.47780  0.34599  1.0000
  H   H506      1.0  0.09233  0.70591  0.63798  1.0000
  C   C448      1.0  0.24965  0.93464  0.34989  1.0000
  C   C449      1.0  0.21745  0.53375  0.66074  1.0000
  N   N27       1.0  0.09973  0.74150  0.65481  1.0000
  C   C450      1.0  0.25317  0.61273  0.49786  1.0000
  H   H507      1.0  0.02378  0.61241  0.46335  1.0000
  H   H508      1.0  0.22878  0.90522  0.34933  1.0000
  H   H509      1.0  0.01014  0.53347  0.51163  1.0000
  C   C451      1.0  0.11205  0.65369  0.66278  1.0000
  Fe  Fe58      1.0  0.02951  0.65702  0.70903  1.0000
  C   C452      1.0  0.24864  0.86837  0.99196  1.0000
  C   C453      1.0  0.14762  0.55627  0.66648  1.0000
  H   H510      1.0  0.01246  0.64213  0.90372  1.0000
  S   S125      1.0  0.05208  0.68748  0.70453  1.0000
  H   H511      1.0  0.20704  0.60981  0.75674  1.0000
  H   H512      1.0  0.25266  0.94477  0.98129  1.0000
  H   H513      1.0  0.21731  0.57000  0.67934  1.0000
  Fe  Fe59      1.0  0.21008  0.94645  0.70669  1.0000
  S   S126      1.0  0.22600  0.93034  0.67819  1.0000
  S   S127      1.0  0.22592  0.94791  0.73789  1.0000
  Fe  Fe60      1.0  0.17298  0.94540  0.68240  1.0000
  H   H514      1.0  0.22389  0.96149  0.81459  1.0000
  H   H515      1.0  0.22078  0.61024  0.73287  1.0000
  S   S128      1.0  0.18768  0.91567  0.70356  1.0000
  Fe  Fe61      1.0  0.20287  0.90069  0.67440  1.0000
  H   H516      1.0  0.12786  0.76334  0.67695  1.0000
  H   H517      1.0  0.23553  0.92586  0.83086  1.0000
  C   C454      1.0  0.21788  0.55504  0.73172  1.0000
  C   C455      1.0  0.01409  0.60055  0.75669  1.0000
  S   S129      1.0  0.09856  0.65001  0.68610  1.0000
  H   H518      1.0  0.02033  0.67618  0.98096  1.0000
  H   H519      1.0  0.23121  0.90435  0.99503  1.0000
  C   C456      1.0  0.01050  0.66013  0.91320  1.0000
  H   H520      1.0  0.20556  0.52766  0.71024  1.0000
  H   H521      1.0  0.22873  0.75446  0.96895  1.0000
  C   C457      1.0  0.23192  0.92627  0.84739  1.0000
  C   C458      1.0  0.22732  0.95094  0.85774  1.0000
  S   S130      1.0  0.01128  0.65261  0.73901  1.0000
  H   H522      1.0  0.24669  0.48807  0.72516  1.0000
  H   H523      1.0  0.25920  0.56705  0.75288  1.0000
  H   H524      1.0  0.01858  0.68698  0.88812  1.0000
  H   H525      1.0  0.03578  0.52540  0.67711  1.0000
  H   H526      1.0  0.08636  0.49812  0.68352  1.0000
  H   H527      1.0  0.16111  0.76380  0.66786  1.0000
  C   C459      1.0  0.22934  0.90097  0.87992  1.0000
  H   H528      1.0  0.08164  0.72637  0.67952  1.0000
  H   H529      1.0  0.25011  0.58370  0.73016  1.0000
  H   H530      1.0  0.10305  0.73856  0.68851  1.0000
  H   H531      1.0  0.06536  0.49639  0.66903  1.0000
  H   H532      1.0  0.22784  0.87760  0.70015  1.0000
  H   H533      1.0  0.10009  0.53969  0.68214  1.0000
  H   H534      1.0  0.19672  0.49477  0.73786  1.0000
  H   H535      1.0  0.22304  0.92421  0.90753  1.0000
  C   C460      1.0  0.14989  0.87560  0.67111  1.0000
  H   H536      1.0  0.22161  0.85877  0.72356  1.0000
  H   H537      1.0  0.15588  0.49245  0.68506  1.0000
  N   N28       1.0  0.25264  0.73605  0.98355  1.0000
  H   H538      1.0  0.24721  0.77732  0.97313  1.0000
  H   H539      1.0  0.05136  0.80277  0.67219  1.0000
  C   C461      1.0  0.25157  0.87320  0.74516  1.0000
  C   C462      1.0  0.08923  0.57806  0.67262  1.0000
  C   C463      1.0  0.20753  0.51810  0.76284  1.0000
  C   C464      1.0  0.20300  0.79966  0.66421  1.0000
  C   C465      1.0  0.22504  0.92478  0.89062  1.0000
  H   H540      1.0  0.23436  0.83297  0.69598  1.0000
  H   H541      1.0  0.25193  0.48708  0.80284  1.0000
  H   H542      1.0  0.16446  0.87403  0.67655  1.0000
  H   H543      1.0  0.24464  0.89188  0.75164  1.0000
  C   C466      1.0  0.20337  0.51332  0.74201  1.0000
  C   C467      1.0  0.25096  0.48729  0.78593  1.0000
  H   H544      1.0  0.22031  0.54306  0.78462  1.0000
  H   H545      1.0  0.13742  0.65875  0.67937  1.0000
  H   H546      1.0  0.25052  0.94554  0.77287  1.0000
  H   H547      1.0  0.22802  0.62873  0.75488  1.0000
  C   C468      1.0  0.22154  0.60957  0.75026  1.0000
  H   H548      1.0  0.22898  0.48946  0.93441  1.0000
  Fe  Fe62      1.0  0.06729  0.65626  0.68489  1.0000
  C   C469      1.0  0.14710  0.53392  0.68005  1.0000
  C   C470      1.0  0.24846  0.82879  0.70066  1.0000
  C   C471      1.0  0.24410  0.75616  0.96901  1.0000
  H   H549      1.0  0.22190  0.56842  0.71903  1.0000
  C   C472      1.0  0.25222  0.96456  0.98850  1.0000
  S   S131      1.0  0.20273  0.85395  0.67391  1.0000
  C   C473      1.0  0.09672  0.72783  0.67537  1.0000
  H   H550      1.0  0.23564  0.70383  0.97306  1.0000
  H   H551      1.0  0.23691  0.88321  0.85032  1.0000
  H   H552      1.0  0.25411  0.96673  0.83139  1.0000
  C   C474      1.0  0.22413  0.94948  0.87983  1.0000
  H   H553      1.0  0.14090  0.86869  0.68441  1.0000
  N   N29       1.0  0.24996  0.87200  0.72201  1.0000
  H   H554      1.0  0.19906  0.79684  0.68055  1.0000
  H   H555      1.0  0.14253  0.82210  0.66826  1.0000
  C   C475      1.0  0.23486  0.58908  0.78080  1.0000
  S   S132      1.0  0.04633  0.62443  0.69241  1.0000
  C   C476      1.0  0.25054  0.70893  0.97421  1.0000
  S   S133      1.0  0.14168  0.95306  0.68203  1.0000
  C   C477      1.0  0.23281  0.90171  0.85836  1.0000
  C   C478      1.0  0.25082  0.58489  0.74753  1.0000
  C   C479      1.0  0.20852  0.53176  0.72647  1.0000
  H   H556      1.0  0.14697  0.89747  0.66826  1.0000
  H   H557      1.0  0.13961  0.53530  0.69497  1.0000
  H   H558      1.0  0.20270  0.96831  0.82944  1.0000
  H   H559      1.0  0.24224  0.60798  0.78419  1.0000
  H   H560      1.0  0.25087  0.87082  0.97522  1.0000
  H   H561      1.0  0.22136  0.59002  0.78964  1.0000
  H   H562      1.0  0.20411  0.50312  0.77472  1.0000
  N   N30       1.0  0.23219  0.58552  0.75794  1.0000
  C   C480      1.0  0.24784  0.48767  0.74205  1.0000
  H   H563      1.0  0.01141  0.71015  0.97905  1.0000
  C   C481      1.0  0.01394  0.68536  0.90436  1.0000
  H   H564      1.0  0.24361  0.57239  0.78747  1.0000
  H   H565      1.0  0.23086  0.48516  0.89590  1.0000
  C   C482      1.0  0.22231  0.56063  0.75283  1.0000
  H   H566      1.0  0.24945  0.75347  0.95258  1.0000
  C   C483      1.0  0.24640  0.96652  0.77079  1.0000
  C   C484      1.0  0.15636  0.50985  0.67458  1.0000
  H   H567      1.0  0.23072  0.88200  0.88846  1.0000
  H   H568      1.0  0.10272  0.70690  0.67521  1.0000
  H   H569      1.0  0.03342  0.57511  0.67406  1.0000
  H   H570      1.0  0.10243  0.95305  0.67422  1.0000
  Fe  Fe63      1.0  0.03854  0.70077  0.67440  1.0000
  H   H571      1.0  0.02503  0.59626  0.74523  1.0000
  C   C485      1.0  0.22997  0.87573  0.71729  1.0000
  H   H572      1.0  0.22387  0.89455  0.72429  1.0000
  S   S134      1.0  0.04202  0.74678  0.66976  1.0000
  H   H573      1.0  0.01503  0.56034  0.77024  1.0000
  H   H574      1.0  0.21659  0.52028  0.67413  1.0000
  C   C486      1.0  0.13117  0.65773  0.66413  1.0000
  C   C487      1.0  0.21694  0.54127  0.76829  1.0000
  H   H575      1.0  0.14038  0.57462  0.67147  1.0000
  H   H576      1.0  0.22149  0.96720  0.88927  1.0000
  H   H577      1.0  0.00951  0.59897  0.71221  1.0000
  C   C488      1.0  0.25685  0.80509  0.69277  1.0000
  C   C489      1.0  0.01078  0.70858  0.91621  1.0000
  H   H578      1.0  0.24913  0.79220  0.68259  1.0000
  C   C490      1.0  0.08066  0.49238  0.66820  1.0000
  H   H579      1.0  0.09429  0.58834  0.68626  1.0000
  H   H580      1.0  0.25882  0.60310  0.75119  1.0000
  H   H581      1.0  0.24497  0.85552  0.75290  1.0000
  H   H582      1.0  0.25381  0.91478  0.71755  1.0000
  H   H583      1.0  0.11578  0.88877  0.66784  1.0000
  C   C491      1.0  0.25854  0.50698  0.75213  1.0000
  S   S135      1.0  0.01482  0.67216  0.68003  1.0000
  H   H584      1.0  0.09907  0.78108  0.66910  1.0000
  H   H585      1.0  0.01294  0.72824  0.90906  1.0000
  C   C492      1.0  0.09243  0.55032  0.67011  1.0000
  C   C493      1.0  0.25820  0.84632  0.71387  1.0000
  H   H586      1.0  0.11593  0.50542  0.66534  1.0000
  H   H587      1.0  0.25660  0.70791  0.95796  1.0000
  H   H588      1.0  0.01011  0.50873  0.72394  1.0000
  H   H589      1.0  0.16658  0.82946  0.66386  1.0000
  Fe  Fe64      1.0  0.03266  0.64033  0.66339  1.0000
  C   C494      1.0  0.21794  0.56192  0.66365  1.0000
  H   H590      1.0  0.25798  0.69290  0.98331  1.0000
  Fe  Fe65      1.0  0.28366  0.28064  0.32066  1.0000
  S   S136      1.0  0.27584  0.27470  0.28606  1.0000
  C   C495      1.0  0.48400  0.34711  0.20057  1.0000
  S   S137      1.0  0.48574  0.05794  0.29717  1.0000
  H   H591      1.0  0.26820  0.15062  0.22719  1.0000
  N   N31       1.0  0.26222  0.34519  0.08640  1.0000
  C   C496      1.0  0.45052  0.01195  0.02127  1.0000
  H   H592      1.0  0.49356  0.00886  0.08027  1.0000
  H   H593      1.0  0.49670  0.43913  0.29982  1.0000
  H   H594      1.0  0.46117  0.45864  0.02002  1.0000
  C   C497      1.0  0.49272  0.08468  0.28001  1.0000
  C   C498      1.0  0.45104  0.98421  0.02499  1.0000
  C   C499      1.0  0.25983  0.37093  0.99870  1.0000
  H   H595      1.0  0.26613  0.38056  0.10530  1.0000
  C   C500      1.0  0.49041  0.13102  0.26687  1.0000
  C   C501      1.0  0.48446  0.11056  0.28088  1.0000
  H   H596      1.0  0.48022  0.38933  0.19646  1.0000
  H   H597      1.0  0.27484  0.04553  0.24460  1.0000
  H   H598      1.0  0.47339  0.11477  0.29221  1.0000
  H   H599      1.0  0.48164  0.42017  0.02676  1.0000
  N   N32       1.0  0.48107  0.08796  0.19556  1.0000
  C   C502      1.0  0.49458  0.04094  0.19093  1.0000
  H   H600      1.0  0.27373  0.13505  0.26481  1.0000
  H   H601      1.0  0.49428  0.42492  0.18012  1.0000
  H   H602      1.0  0.46586  0.12497  0.20320  1.0000
  C   C503      1.0  0.50255  0.03528  0.12440  1.0000
  C   C504      1.0  0.28515  0.33249  0.03248  1.0000
  H   H603      1.0  0.46256  0.01606  0.09816  1.0000
  H   H604      1.0  0.26664  0.38691  0.07783  1.0000
  H   H605      1.0  0.48386  0.15092  0.26767  1.0000
  H   H606      1.0  0.49176  0.02486  0.11663  1.0000
  N   N33       1.0  0.49795  0.38423  0.99695  1.0000
  C   C505      1.0  0.49722  0.32181  0.17147  1.0000
  H   H607      1.0  0.48618  0.13341  0.32820  1.0000
  H   H608      1.0  0.49147  0.37751  0.12453  1.0000
  H   H609      1.0  0.28450  0.36560  0.05315  1.0000
  C   C506      1.0  0.49882  0.00780  0.01060  1.0000
  C   C507      1.0  0.27987  0.34524  0.05127  1.0000
  C   C508      1.0  0.50241  0.06364  0.12422  1.0000
  H   H610      1.0  0.47712  0.10956  0.22471  1.0000
  H   H611      1.0  0.49934  0.97659  0.06933  1.0000
  H   H612      1.0  0.27039  0.08879  0.26172  1.0000
  H   H613      1.0  0.44586  0.01986  0.00631  1.0000
  H   H614      1.0  0.47623  0.06712  0.23669  1.0000
  H   H615      1.0  0.47960  0.07761  0.16264  1.0000
  C   C509      1.0  0.50049  0.37695  0.01941  1.0000
  S   S138      1.0  0.30665  0.30964  0.32634  1.0000
  C   C510      1.0  0.46052  0.99393  0.09774  1.0000
  H   H616      1.0  0.26276  0.27361  0.03907  1.0000
  C   C511      1.0  0.46405  0.99101  0.05980  1.0000
  H   H617      1.0  0.47172  0.41923  0.16902  1.0000
  H   H618      1.0  0.49804  0.04524  0.17469  1.0000
  H   H619      1.0  0.46601  0.10627  0.16990  1.0000
  H   H620      1.0  0.26296  0.40943  0.01381  1.0000
  C   C512      1.0  0.26779  0.29343  0.04273  1.0000
  C   C513      1.0  0.45690  0.02939  0.03635  1.0000
  H   H621      1.0  0.48507  0.41231  0.12547  1.0000
  C   C514      1.0  0.26850  0.33213  0.06657  1.0000
  H   H622      1.0  0.50214  0.30274  0.16479  1.0000
  C   C515      1.0  0.49852  0.10219  0.19115  1.0000
  C   C516      1.0  0.26656  0.32743  0.10465  1.0000
  H   H623      1.0  0.28161  0.32177  0.10478  1.0000
  H   H624      1.0  0.29346  0.34302  0.02078  1.0000
  C   C517      1.0  0.49964  0.01535  0.19863  1.0000
  C   C518      1.0  0.46953  0.10491  0.21022  1.0000
  H   H625      1.0  0.48946  0.30410  0.20117  1.0000
  C   C519      1.0  0.47080  0.08603  0.17569  1.0000
  C   C520      1.0  0.49821  0.34555  0.15955  1.0000
  H   H626      1.0  0.47848  0.34756  0.21654  1.0000
  C   C521      1.0  0.48685  0.42068  0.16544  1.0000
  H   H627      1.0  0.47004  0.38784  0.13748  1.0000
  C   C522      1.0  0.49013  0.32258  0.19196  1.0000
  C   C523      1.0  0.46360  0.01917  0.05532  1.0000
  C   C524      1.0  0.48507  0.37105  0.18878  1.0000
  H   H628      1.0  0.45704  0.05089  0.03303  1.0000
  H   H629      1.0  0.50036  0.98902  0.22564  1.0000
  H   H630      1.0  0.44536  0.99060  0.09658  1.0000
  C   C525      1.0  0.27078  0.37169  0.08999  1.0000
  H   H631      1.0  0.50110  0.02895  0.01336  1.0000
  H   H632      1.0  0.50645  0.00068  0.18823  1.0000
  C   C526      1.0  0.48568  0.06069  0.20399  1.0000
  C   C527      1.0  0.45782  0.97372  0.04385  1.0000
  C   C528      1.0  0.50459  0.12596  0.25170  1.0000
  C   C529      1.0  0.48246  0.05335  0.22536  1.0000
  H   H633      1.0  0.26766  0.33747  0.24580  1.0000
  H   H634      1.0  0.28619  0.36974  0.09014  1.0000
  N   N34       1.0  0.49443  0.39585  0.15505  1.0000
  H   H635      1.0  0.46877  0.03349  0.06631  1.0000
  C   C530      1.0  0.48481  0.39321  0.13483  1.0000
  H   H636      1.0  0.45846  0.07316  0.17780  1.0000
  H   H637      1.0  0.45636  0.09491  0.21473  1.0000
  C   C531      1.0  0.49232  0.37095  0.16783  1.0000
  C   C532      1.0  0.46606  0.44614  0.00703  1.0000
  H   H638      1.0  0.50386  0.34391  0.14378  1.0000
  H   H639      1.0  0.49349  0.45305  0.32530  1.0000
  H   H640      1.0  0.48867  0.43896  0.15528  1.0000
  H   H641      1.0  0.26280  0.33745  0.11983  1.0000
  H   H642      1.0  0.48539  0.02283  0.24947  1.0000
  H   H643      1.0  0.49178  0.07475  0.11576  1.0000
  C   C533      1.0  0.49622  0.00877  0.21964  1.0000
  C   C534      1.0  0.47792  0.42384  0.01066  1.0000
  C   C535      1.0  0.48771  0.02776  0.23298  1.0000
  C   C536      1.0  0.26301  0.08586  0.24740  1.0000
  C   C537      1.0  0.26571  0.06077  0.23771  1.0000
  N   N35       1.0  0.47101  0.98074  0.08014  1.0000
  H   H644      1.0  0.50652  0.10469  0.20570  1.0000
  H   H645      1.0  0.48701  0.37261  0.02745  1.0000
  C   C538      1.0  0.50146  0.45535  0.31021  1.0000
  H   H646      1.0  0.27103  0.26267  0.24252  1.0000
  H   H647      1.0  0.49583  0.12262  0.18433  1.0000
  H   H648      1.0  0.46510  0.98595  0.11326  1.0000
  H   H649      1.0  0.49658  0.98012  0.09715  1.0000
  H   H650      1.0  0.42469  0.14528  0.32759  1.0000
  C   C539      1.0  0.49092  0.98694  0.08182  1.0000
  C   C540      1.0  0.26256  0.30584  0.06165  1.0000
  C   C541      1.0  0.27908  0.30671  0.02819  1.0000
  C   C542      1.0  0.50694  0.07964  0.26491  1.0000
  H   H651      1.0  0.28266  0.29736  0.01325  1.0000
  C   C543      1.0  0.50572  0.98825  0.02495  1.0000
  H   H652      1.0  0.26099  0.30927  0.23026  1.0000
  H   H653      1.0  0.49386  0.09856  0.32767  1.0000
  Fe  Fe66      1.0  0.46753  0.05837  0.32734  1.0000
  H   H654      1.0  0.50728  0.39333  0.02803  1.0000
  C   C544      1.0  0.26058  0.25175  0.25130  1.0000
  C   C545      1.0  0.26009  0.25316  0.27339  1.0000
  H   H655      1.0  0.50773  0.09109  0.17976  1.0000
  H   H656      1.0  0.42021  0.16433  0.42134  1.0000
  Fe  Fe67      1.0  0.46312  0.28241  0.45756  1.0000
  S   S139      1.0  0.47854  0.29935  0.42933  1.0000
  S   S140      1.0  0.47786  0.28189  0.48930  1.0000
  Fe  Fe68      1.0  0.42607  0.28292  0.43312  1.0000
  S   S141      1.0  0.43919  0.30048  0.40419  1.0000
  S   S142      1.0  0.39526  0.27370  0.43400  1.0000
  Fe  Fe69      1.0  0.46204  0.26985  0.41082  1.0000
  S   S143      1.0  0.47056  0.24353  0.38314  1.0000
  Fe  Fe70      1.0  0.45409  0.32827  0.42535  1.0000
  S   S144      1.0  0.45364  0.37468  0.42545  1.0000
  S   S145      1.0  0.44830  0.25111  0.43917  1.0000
  S   S146      1.0  0.43927  0.31250  0.45429  1.0000
  H   H657      1.0  0.38260  0.21567  0.41367  1.0000
  C   C546      1.0  0.36895  0.98375  0.39206  1.0000
  Fe  Fe71      1.0  0.42912  0.06306  0.34870  1.0000
  S   S147      1.0  0.44047  0.05709  0.38060  1.0000
  C   C547      1.0  0.49457  0.39640  0.51477  1.0000
  S   S148      1.0  0.48141  0.05151  0.35852  1.0000
  Fe  Fe72      1.0  0.45812  0.02329  0.36673  1.0000
  H   H658      1.0  0.35577  0.33419  0.35397  1.0000
  Fe  Fe73      1.0  0.46242  0.08541  0.36977  1.0000
  S   S149      1.0  0.47093  0.11603  0.39356  1.0000
  C   C548      1.0  0.38741  0.20501  0.39912  1.0000
  H   H659      1.0  0.41085  0.00827  0.43137  1.0000
  Fe  Fe74      1.0  0.28795  0.02452  0.41233  1.0000
  S   S150      1.0  0.30129  0.03540  0.44281  1.0000
  H   H660      1.0  0.49049  0.29703  0.61014  1.0000
  Fe  Fe75      1.0  0.27761  0.08540  0.40411  1.0000
  S   S151      1.0  0.29044  0.09942  0.43364  1.0000
  C   C549      1.0  0.27795  0.44482  0.39889  1.0000
  Fe  Fe76      1.0  0.31379  0.07015  0.42485  1.0000
  S   S152      1.0  0.34400  0.08256  0.42570  1.0000
  Fe  Fe77      1.0  0.27649  0.06377  0.44870  1.0000
  S   S153      1.0  0.30165  0.05841  0.39454  1.0000
  Fe  Fe78      1.0  0.31829  0.27924  0.34909  1.0000
  S   S154      1.0  0.30258  0.29688  0.37652  1.0000
  S   S155      1.0  0.34938  0.27064  0.34988  1.0000
  Fe  Fe79      1.0  0.28964  0.32632  0.35365  1.0000
  Fe  Fe80      1.0  0.28038  0.26828  0.36723  1.0000
  H   H661      1.0  0.37851  0.13116  0.34747  1.0000
  C   C550      1.0  0.41581  0.19531  0.36295  1.0000
  S   S156      1.0  0.29714  0.24865  0.34113  1.0000
  C   C551      1.0  0.26877  0.16078  0.40347  1.0000
  C   C552      1.0  0.34604  0.38790  0.35906  1.0000
  H   H662      1.0  0.26870  0.19728  0.42176  1.0000
  H   H663      1.0  0.28980  0.10110  0.56340  1.0000
  H   H664      1.0  0.48985  0.11525  0.35224  1.0000
  C   C553      1.0  0.36942  0.14797  0.35225  1.0000
  C   C554      1.0  0.29656  0.42428  0.37050  1.0000
  C   C555      1.0  0.29202  0.44664  0.38347  1.0000
  H   H665      1.0  0.41880  0.36352  0.40584  1.0000
  S   S157      1.0  0.46933  0.46952  0.35866  1.0000
  C   C556      1.0  0.37117  0.17314  0.34260  1.0000
  H   H666      1.0  0.28048  0.10927  0.60869  1.0000
  C   C557      1.0  0.39206  0.34523  0.40606  1.0000
  C   C558      1.0  0.35909  0.07739  0.40361  1.0000
  C   C559      1.0  0.35261  0.06792  0.38460  1.0000
  C   C560      1.0  0.36465  0.06533  0.36702  1.0000
  C   C561      1.0  0.38343  0.07162  0.36832  1.0000
  C   C562      1.0  0.39008  0.08066  0.38743  1.0000
  C   C563      1.0  0.37792  0.08374  0.40494  1.0000
  H   H667      1.0  0.33831  0.06270  0.38325  1.0000
  H   H668      1.0  0.35936  0.05824  0.35236  1.0000
  H   H669      1.0  0.40451  0.08569  0.38866  1.0000
  H   H670      1.0  0.38312  0.09105  0.41957  1.0000
  C   C564      1.0  0.38251  0.27393  0.41054  1.0000
  C   C565      1.0  0.39129  0.27658  0.39086  1.0000
  C   C566      1.0  0.38096  0.27550  0.37245  1.0000
  C   C567      1.0  0.36169  0.27216  0.37349  1.0000
  C   C568      1.0  0.35280  0.26976  0.39315  1.0000
  C   C569      1.0  0.36321  0.27050  0.41159  1.0000
  H   H671      1.0  0.40607  0.27921  0.38969  1.0000
  H   H672      1.0  0.38794  0.27745  0.35732  1.0000
  H   H673      1.0  0.33796  0.26707  0.39415  1.0000
  H   H674      1.0  0.35627  0.26842  0.42673  1.0000
  C   C570      1.0  0.46892  0.20821  0.38635  1.0000
  C   C571      1.0  0.46568  0.19197  0.36892  1.0000
  C   C572      1.0  0.46528  0.16364  0.37102  1.0000
  C   C573      1.0  0.46860  0.15143  0.39050  1.0000
  C   C574      1.0  0.47145  0.16772  0.40797  1.0000
  C   C575      1.0  0.47151  0.19599  0.40596  1.0000
  H   H675      1.0  0.46370  0.20132  0.35371  1.0000
  H   H676      1.0  0.46296  0.15132  0.35749  1.0000
  H   H677      1.0  0.47414  0.15840  0.42306  1.0000
  H   H678      1.0  0.47427  0.20825  0.41943  1.0000
  C   C576      1.0  0.45706  0.40034  0.40599  1.0000
  C   C577      1.0  0.45206  0.42727  0.41094  1.0000
  C   C578      1.0  0.45523  0.44857  0.39650  1.0000
  C   C579      1.0  0.46375  0.44327  0.37696  1.0000
  C   C580      1.0  0.46864  0.41630  0.37195  1.0000
  C   C581      1.0  0.46520  0.39494  0.38627  1.0000
  H   H679      1.0  0.44574  0.43177  0.42610  1.0000
  C   C582      1.0  0.45923  0.30039  0.55560  1.0000
  H   H680      1.0  0.40967  0.13775  0.39219  1.0000
  C   C583      1.0  0.49975  0.26437  0.52206  1.0000
  C   C584      1.0  0.48869  0.25640  0.50534  1.0000
  C   C585      1.0  0.48571  0.22882  0.50280  1.0000
  C   C586      1.0  0.49326  0.20969  0.51708  1.0000
  H   H681      1.0  0.34759  0.40858  0.36536  1.0000
  N   N36       1.0  0.48028  0.37271  0.48385  1.0000
  C   C587      1.0  0.46774  0.29351  0.57451  1.0000
  H   H682      1.0  0.47727  0.22223  0.49009  1.0000
  C   C588      1.0  0.35939  0.19459  0.34862  1.0000
  C   C589      1.0  0.49794  0.34735  0.53655  1.0000
  H   H683      1.0  0.39605  0.32970  0.41731  1.0000
  C   C590      1.0  0.28743  0.39957  0.37300  1.0000
  H   H684      1.0  0.41581  0.22478  0.42141  1.0000
  H   H685      1.0  0.45633  0.32139  0.55166  1.0000
  H   H686      1.0  0.45590  0.23793  0.53489  1.0000
  H   H687      1.0  0.34437  0.32392  0.37791  1.0000
  C   C591      1.0  0.41258  0.15128  0.37926  1.0000
  C   C592      1.0  0.50094  0.25053  0.59414  1.0000
  H   H688      1.0  0.43383  0.20761  0.40637  1.0000
  H   H689      1.0  0.47864  0.22959  0.62515  1.0000
  S   S158      1.0  0.44996  0.09394  0.33838  1.0000
  C   C593      1.0  0.41698  0.13916  0.36002  1.0000
  H   H690      1.0  0.49368  0.41602  0.50731  1.0000
  H   H691      1.0  0.34809  0.02589  0.43819  1.0000
  C   C594      1.0  0.27366  0.39757  0.38873  1.0000
  H   H692      1.0  0.40997  0.39924  0.38050  1.0000
  H   H693      1.0  0.35557  0.38490  0.34524  1.0000
  H   H694      1.0  0.36073  0.21419  0.34102  1.0000
  N   N37       1.0  0.48142  0.25818  0.59944  1.0000
  C   C595      1.0  0.37324  0.01296  0.42173  1.0000
  H   H695      1.0  0.45401  0.36397  0.47016  1.0000
  N   N38       1.0  0.26496  0.09551  0.58232  1.0000
  H   H696      1.0  0.32743  0.00147  0.41509  1.0000
  C   C596      1.0  0.40653  0.00140  0.37890  1.0000
  H   H697      1.0  0.49060  0.18848  0.51507  1.0000
  H   H698      1.0  0.25982  0.03630  0.52559  1.0000
  H   H699      1.0  0.34039  0.97475  0.38564  1.0000
  H   H700      1.0  0.48587  0.35509  0.45339  1.0000
  N   N39       1.0  0.40166  0.99508  0.40115  1.0000
  H   H701      1.0  0.47017  0.41417  0.48320  1.0000
  C   C597      1.0  0.40638  0.17473  0.41970  1.0000
  H   H702      1.0  0.26311  0.35696  0.55232  1.0000
  H   H703      1.0  0.47525  0.41188  0.35693  1.0000
  S   S159      1.0  0.26230  0.05080  0.41909  1.0000
  C   C598      1.0  0.47188  0.26608  0.57989  1.0000
  H   H704      1.0  0.42185  0.00108  0.37602  1.0000
  C   C599      1.0  0.49535  0.11806  0.33593  1.0000
  C   C600      1.0  0.38132  0.99776  0.40487  1.0000
  C   C601      1.0  0.27511  0.09033  0.60206  1.0000
  H   H705      1.0  0.35516  0.12434  0.37503  1.0000
  H   H706      1.0  0.38667  0.22001  0.38606  1.0000
  H   H707      1.0  0.37735  0.18911  0.39568  1.0000
  C   C602      1.0  0.26843  0.20652  0.38881  1.0000
  S   S160      1.0  0.45957  0.98712  0.38965  1.0000
  H   H708      1.0  0.46090  0.34076  0.49016  1.0000
  H   H709      1.0  0.42766  0.01141  0.41080  1.0000
  H   H710      1.0  0.40336  0.18574  0.43462  1.0000
  H   H711      1.0  0.48704  0.27294  0.63042  1.0000
  H   H712      1.0  0.39552  0.15928  0.41868  1.0000
  H   H713      1.0  0.26943  0.11955  0.55429  1.0000
  C   C603      1.0  0.35402  0.01394  0.42539  1.0000
  C   C604      1.0  0.37414  0.34606  0.39806  1.0000
  H   H714      1.0  0.36471  0.33080  0.40357  1.0000
  S   S161      1.0  0.29354  0.37238  0.35565  1.0000
  H   H715      1.0  0.26644  0.37884  0.39088  1.0000
  S   S162      1.0  0.44537  0.02767  0.33488  1.0000
  C   C605      1.0  0.39987  0.38438  0.38530  1.0000
  C   C606      1.0  0.48852  0.37258  0.50494  1.0000
  C   C607      1.0  0.38195  0.38547  0.37722  1.0000
  C   C608      1.0  0.33602  0.37217  0.39305  1.0000
  N   N40       1.0  0.32916  0.16069  0.39091  1.0000
  C   C609      1.0  0.31655  0.18443  0.39482  1.0000
  C   C610      1.0  0.31748  0.13777  0.38507  1.0000
  C   C611      1.0  0.33840  0.15386  0.41089  1.0000
  C   C612      1.0  0.34342  0.16545  0.37428  1.0000
  C   C613      1.0  0.35588  0.14419  0.36796  1.0000
  C   C614      1.0  0.42059  0.18293  0.34388  1.0000
  C   C615      1.0  0.26835  0.19572  0.36862  1.0000
  C   C616      1.0  0.46113  0.36246  0.48547  1.0000
  H   H716      1.0  0.29925  0.46534  0.38131  1.0000
  H   H717      1.0  0.30863  0.19014  0.38054  1.0000
  H   H718      1.0  0.30612  0.18019  0.40746  1.0000
  H   H719      1.0  0.32418  0.20230  0.40008  1.0000
  H   H720      1.0  0.31104  0.14132  0.36952  1.0000
  H   H721      1.0  0.30594  0.13461  0.39666  1.0000
  H   H722      1.0  0.32538  0.11819  0.38443  1.0000
  H   H723      1.0  0.34680  0.17086  0.41630  1.0000
  H   H724      1.0  0.32812  0.14892  0.42360  1.0000
  H   H725      1.0  0.34783  0.13583  0.40943  1.0000
  H   H726      1.0  0.27484  0.11790  0.48719  1.0000
  C   C617      1.0  0.26283  0.11565  0.49750  1.0000
  H   H727      1.0  0.38134  0.02459  0.43224  1.0000
  S   S163      1.0  0.39796  0.06826  0.34565  1.0000
  H   H728      1.0  0.40112  0.02182  0.37440  1.0000
  H   H729      1.0  0.46713  0.28827  0.61855  1.0000
  C   C618      1.0  0.26297  0.06417  0.55098  1.0000
  H   H730      1.0  0.40104  0.98674  0.36774  1.0000
  H   H731      1.0  0.50194  0.23317  0.58317  1.0000
  C   C619      1.0  0.48143  0.28017  0.61519  1.0000
  H   H732      1.0  0.41866  0.23226  0.39448  1.0000
  H   H733      1.0  0.46920  0.37440  0.38221  1.0000
  H   H734      1.0  0.30717  0.42622  0.35834  1.0000
  S   S164      1.0  0.26741  0.11479  0.37920  1.0000
  C   C620      1.0  0.45876  0.25338  0.54626  1.0000
  C   C621      1.0  0.27691  0.11237  0.56846  1.0000
  C   C622      1.0  0.42113  0.15489  0.34241  1.0000
  C   C623      1.0  0.46751  0.24630  0.56493  1.0000
  H   H735      1.0  0.26874  0.14746  0.41699  1.0000
  H   H736      1.0  0.49321  0.40854  0.47152  1.0000
  C   C624      1.0  0.41922  0.21534  0.40597  1.0000
  C   C625      1.0  0.49148  0.35486  0.46957  1.0000
  N   N41       1.0  0.40641  0.19332  0.40125  1.0000
  H   H737      1.0  0.33165  0.38734  0.35305  1.0000
  C   C626      1.0  0.47244  0.23462  0.60966  1.0000
  C   C627      1.0  0.49043  0.34807  0.51651  1.0000
  C   C628      1.0  0.40491  0.36428  0.39964  1.0000
  C   C629      1.0  0.50204  0.39546  0.53486  1.0000
  C   C630      1.0  0.36852  0.36615  0.38332  1.0000
  C   C631      1.0  0.50400  0.21769  0.53405  1.0000
  H   H738      1.0  0.47115  0.31003  0.58452  1.0000
  H   H739      1.0  0.41505  0.21713  0.36306  1.0000
  C   C632      1.0  0.34231  0.00028  0.41234  1.0000
  H   H740      1.0  0.49159  0.33337  0.47476  1.0000
  C   C633      1.0  0.45470  0.28035  0.54155  1.0000
  C   C634      1.0  0.26807  0.16757  0.36590  1.0000
  H   H741      1.0  0.47147  0.22525  0.56706  1.0000
  S   S165      1.0  0.29452  0.98360  0.39601  1.0000
  H   H742      1.0  0.33873  0.39180  0.40064  1.0000
  H   H743      1.0  0.26799  0.20906  0.35511  1.0000
  C   C635      1.0  0.41247  0.01324  0.41440  1.0000
  C   C636      1.0  0.34564  0.19095  0.36417  1.0000
  H   H744      1.0  0.33688  0.20846  0.36775  1.0000
  H   H745      1.0  0.41709  0.11735  0.35881  1.0000
  H   H746      1.0  0.37900  0.40168  0.36627  1.0000
  H   H747      1.0  0.45729  0.23858  0.61225  1.0000
  H   H748      1.0  0.40833  0.03482  0.41175  1.0000
  C   C637      1.0  0.41201  0.17985  0.38136  1.0000
  H   H749      1.0  0.44855  0.28570  0.52665  1.0000
  N   N42       1.0  0.34933  0.36681  0.37538  1.0000
  C   C638      1.0  0.34510  0.34038  0.36603  1.0000
  H   H750      1.0  0.47432  0.21581  0.60038  1.0000
  H   H751      1.0  0.28709  0.07602  0.59940  1.0000
  H   H752      1.0  0.33134  0.34088  0.35837  1.0000
  H   H753      1.0  0.33672  0.35617  0.40537  1.0000
  H   H754      1.0  0.32140  0.37299  0.38770  1.0000
  H   H755      1.0  0.26609  0.08187  0.61477  1.0000
  H   H756      1.0  0.28115  0.13109  0.57642  1.0000
  H   H757      1.0  0.45252  0.37415  0.49710  1.0000
  H   H758      1.0  0.48612  0.32921  0.51008  1.0000
  C   C639      1.0  0.47920  0.39994  0.47387  1.0000
  H   H759      1.0  0.47306  0.39927  0.45799  1.0000
  C   C640      1.0  0.26883  0.42013  0.40138  1.0000
  H   H760      1.0  0.26937  0.07835  0.54028  1.0000
  S   S166      1.0  0.26814  0.24175  0.39296  1.0000
  C   C641      1.0  0.34973  0.98522  0.39570  1.0000
  C   C642      1.0  0.26851  0.18896  0.40619  1.0000
  H   H761      1.0  0.26547  0.15456  0.51207  1.0000
  S   S167      1.0  0.26565  0.29922  0.34656  1.0000
  C   C643      1.0  0.26829  0.14999  0.38328  1.0000
  H   H762      1.0  0.26760  0.15940  0.35024  1.0000
  H   H763      1.0  0.50617  0.36121  0.46844  1.0000
  H   H764      1.0  0.49933  0.32829  0.54495  1.0000
  C   C644      1.0  0.50742  0.24522  0.53624  1.0000
  H   H765      1.0  0.50232  0.28553  0.52416  1.0000
  C   C645      1.0  0.50374  0.37101  0.54571  1.0000
  H   H766      1.0  0.50836  0.26756  0.58652  1.0000
  H   H767      1.0  0.50658  0.41383  0.54210  1.0000
  H   H768      1.0  0.26055  0.43497  0.59235  1.0000
  H   H769      1.0  0.45140  0.46914  0.40065  1.0000
  C   C646      1.0  0.25984  0.06974  0.57266  1.0000
  H   H770      1.0  0.50868  0.24445  0.60838  1.0000
  H   H771      1.0  0.42380  0.19519  0.33017  1.0000
  H   H772      1.0  0.38160  0.17600  0.33032  1.0000
  Fe  Fe81      1.0  0.46528  0.02934  0.94412  1.0000
  S   S168      1.0  0.48181  0.04124  0.91510  1.0000
  S   S169      1.0  0.47950  0.02630  0.97616  1.0000
  Fe  Fe82      1.0  0.42832  0.03697  0.92029  1.0000
  S   S170      1.0  0.44248  0.04971  0.89031  1.0000
  S   S171      1.0  0.39708  0.03317  0.92379  1.0000
  Fe  Fe83      1.0  0.46226  0.01498  0.89768  1.0000
  H   H773      1.0  0.46512  0.44478  0.95397  1.0000
  Fe  Fe84      1.0  0.46042  0.07497  0.91046  1.0000
  S   S172      1.0  0.46849  0.11961  0.90871  1.0000
  S   S173      1.0  0.44714  0.00101  0.92686  1.0000
  S   S174      1.0  0.44481  0.06424  0.94027  1.0000
  Fe  Fe85      1.0  0.45409  0.26385  0.84648  1.0000
  S   S175      1.0  0.43685  0.28106  0.82024  1.0000
  S   S176      1.0  0.45812  0.21779  0.84316  1.0000
  Fe  Fe86      1.0  0.45878  0.32103  0.86358  1.0000
  S   S177      1.0  0.44224  0.34116  0.83813  1.0000
  S   S178      1.0  0.46678  0.34602  0.89147  1.0000
  Fe  Fe87      1.0  0.42269  0.30730  0.84448  1.0000
  S   S179      1.0  0.39171  0.31667  0.84570  1.0000
  Fe  Fe88      1.0  0.45820  0.31326  0.81622  1.0000
  S   S180      1.0  0.46721  0.32092  0.78184  1.0000
  S   S181      1.0  0.43833  0.28837  0.87095  1.0000
  S   S182      1.0  0.47631  0.29488  0.84133  1.0000
  C   C647      1.0  0.48529  0.40795  0.99378  1.0000
  C   C648      1.0  0.46841  0.43847  0.96980  1.0000
  Fe  Fe89      1.0  0.31128  0.04170  0.85030  1.0000
  S   S183      1.0  0.29851  0.04789  0.88210  1.0000
  S   S184      1.0  0.34271  0.03892  0.84635  1.0000
  Fe  Fe90      1.0  0.27328  0.04151  0.82923  1.0000
  Fe  Fe91      1.0  0.27999  0.07947  0.86707  1.0000
  Fe  Fe92      1.0  0.27821  0.01705  0.87268  1.0000
  H   H774      1.0  0.36452  0.44214  0.86305  1.0000
  S   S185      1.0  0.29382  0.07463  0.83517  1.0000
  S   S186      1.0  0.29224  0.00834  0.84155  1.0000
  Fe  Fe93      1.0  0.31120  0.31119  0.92754  1.0000
  S   S187      1.0  0.29885  0.30839  0.89597  1.0000
  S   S188      1.0  0.34257  0.30830  0.92958  1.0000
  Fe  Fe94      1.0  0.27321  0.31687  0.94967  1.0000
  Fe  Fe95      1.0  0.27866  0.27964  0.91057  1.0000
  Fe  Fe96      1.0  0.27985  0.34219  0.90666  1.0000
  H   H775      1.0  0.26529  0.98405  0.96194  1.0000
  S   S189      1.0  0.29212  0.28051  0.94217  1.0000
  S   S190      1.0  0.29358  0.34744  0.93755  1.0000
  H   H776      1.0  0.48985  0.36497  0.79738  1.0000
  S   S191      1.0  0.27240  0.24613  0.88710  1.0000
  C   C649      1.0  0.49756  0.21694  0.72417  1.0000
  C   C650      1.0  0.48633  0.09573  0.96028  1.0000
  C   C651      1.0  0.27420  0.21004  0.88798  1.0000
  C   C652      1.0  0.49054  0.36025  0.98646  1.0000
  H   H777      1.0  0.27076  0.37426  0.98713  1.0000
  H   H778      1.0  0.31643  0.40652  0.87057  1.0000
  H   H779      1.0  0.27031  0.41755  0.85264  1.0000
  C   C653      1.0  0.27726  0.16696  0.90663  1.0000
  H   H780      1.0  0.28448  0.32537  0.85097  1.0000
  C   C654      1.0  0.27586  0.15241  0.88784  1.0000
  H   H781      1.0  0.45682  0.12191  0.86462  1.0000
  C   C655      1.0  0.37802  0.31209  0.86878  1.0000
  C   C656      1.0  0.35969  0.32237  0.86927  1.0000
  C   C657      1.0  0.34863  0.32065  0.88765  1.0000
  C   C658      1.0  0.35576  0.30868  0.90581  1.0000
  C   C659      1.0  0.37406  0.29808  0.90530  1.0000
  C   C660      1.0  0.38512  0.29960  0.88680  1.0000
  H   H782      1.0  0.35409  0.33205  0.85541  1.0000
  H   H783      1.0  0.33472  0.32918  0.88783  1.0000
  H   H784      1.0  0.37971  0.28875  0.91926  1.0000
  H   H785      1.0  0.39916  0.29137  0.88660  1.0000
  C   C661      1.0  0.47974  0.34738  0.76925  1.0000
  C   C662      1.0  0.48007  0.34903  0.74716  1.0000
  C   C663      1.0  0.27298  0.45423  0.87014  1.0000
  H   H786      1.0  0.27050  0.46727  0.85673  1.0000
  C   C664      1.0  0.27660  0.19553  0.90671  1.0000
  C   C665      1.0  0.46132  0.45344  0.98667  1.0000
  H   H787      1.0  0.47212  0.33501  0.73834  1.0000
  C   C666      1.0  0.48602  0.97282  0.98964  1.0000
  N   N43       1.0  0.26126  0.30422  0.83847  1.0000
  C   C667      1.0  0.38222  0.03623  0.90210  1.0000
  C   C668      1.0  0.38913  0.03853  0.88148  1.0000
  C   C669      1.0  0.37687  0.03915  0.86457  1.0000
  C   C670      1.0  0.35760  0.03788  0.86810  1.0000
  C   C671      1.0  0.35071  0.03602  0.88875  1.0000
  C   C672      1.0  0.36296  0.03500  0.90562  1.0000
  H   H788      1.0  0.40390  0.03972  0.87849  1.0000
  H   H789      1.0  0.38235  0.04085  0.84868  1.0000
  H   H790      1.0  0.33597  0.03523  0.89186  1.0000
  H   H791      1.0  0.35748  0.03320  0.92151  1.0000
  C   C673      1.0  0.46753  0.38139  0.88790  1.0000
  C   C674      1.0  0.46661  0.39839  0.90545  1.0000
  C   C675      1.0  0.46728  0.42662  0.90291  1.0000
  C   C676      1.0  0.46931  0.43792  0.88284  1.0000
  C   C677      1.0  0.47018  0.42093  0.86533  1.0000
  C   C678      1.0  0.46912  0.39279  0.86782  1.0000
  H   H792      1.0  0.46542  0.38971  0.92103  1.0000
  H   H793      1.0  0.46660  0.43964  0.91642  1.0000
  H   H794      1.0  0.47178  0.42953  0.84975  1.0000
  H   H795      1.0  0.47006  0.37990  0.85422  1.0000
  C   C679      1.0  0.46397  0.14668  0.89061  1.0000
  C   C680      1.0  0.46664  0.17344  0.89703  1.0000
  C   C681      1.0  0.46425  0.19549  0.88302  1.0000
  C   C682      1.0  0.45954  0.19107  0.86217  1.0000
  C   C683      1.0  0.45684  0.16431  0.85575  1.0000
  C   C684      1.0  0.45883  0.14230  0.86989  1.0000
  H   H796      1.0  0.47065  0.17717  0.91296  1.0000
  H   H797      1.0  0.46650  0.21585  0.88822  1.0000
  H   H798      1.0  0.45323  0.16054  0.83969  1.0000
  C   C685      1.0  0.49596  0.97517  0.72740  1.0000
  C   C686      1.0  0.48026  0.41612  0.97320  1.0000
  C   C687      1.0  0.50602  0.01923  0.73616  1.0000
  C   C688      1.0  0.49031  0.36897  0.73637  1.0000
  C   C689      1.0  0.33587  0.43083  0.88811  1.0000
  C   C690      1.0  0.34558  0.43085  0.90726  1.0000
  H   H799      1.0  0.26190  0.26117  0.84457  1.0000
  C   C691      1.0  0.34480  0.40902  0.92131  1.0000
  H   H800      1.0  0.41557  0.99537  0.89387  1.0000
  C   C692      1.0  0.33430  0.38668  0.91679  1.0000
  H   H801      1.0  0.50073  0.24183  0.79317  1.0000
  H   H802      1.0  0.49005  0.37027  0.71943  1.0000
  H   H803      1.0  0.50734  0.33368  0.66693  1.0000
  H   H804      1.0  0.48092  0.98059  0.72643  1.0000
  N   N44       1.0  0.50493  0.99091  0.74396  1.0000
  C   C693      1.0  0.48885  0.00031  0.99288  1.0000
  C   C694      1.0  0.28123  0.30596  0.84339  1.0000
  C   C695      1.0  0.32487  0.40805  0.88427  1.0000
  C   C696      1.0  0.48568  0.24743  0.79339  1.0000
  H   H805      1.0  0.26429  0.02913  0.97831  1.0000
  H   H806      1.0  0.40088  0.46482  0.92834  1.0000
  H   H807      1.0  0.35220  0.40952  0.93592  1.0000
  C   C697      1.0  0.40603  0.45250  0.91533  1.0000
  H   H808      1.0  0.45382  0.26219  0.77644  1.0000
  C   C698      1.0  0.45561  0.23999  0.77898  1.0000
  H   H809      1.0  0.49050  0.36251  0.96909  1.0000
  H   H810      1.0  0.27890  0.15605  0.92128  1.0000
  H   H811      1.0  0.26297  0.98014  0.79643  1.0000
  S   S192      1.0  0.26965  0.98558  0.89686  1.0000
  H   H812      1.0  0.33364  0.43158  0.84510  1.0000
  S   S193      1.0  0.27745  0.11633  0.88887  1.0000
  S   S194      1.0  0.50590  0.41969  0.67147  1.0000
  N   N45       1.0  0.33689  0.45420  0.87351  1.0000
  H   H813      1.0  0.44884  0.23554  0.79450  1.0000
  N   N46       1.0  0.50575  0.10491  0.95877  1.0000
  C   C699      1.0  0.49005  0.26452  0.72680  1.0000
  C   C700      1.0  0.25936  0.98662  0.97763  1.0000
  C   C701      1.0  0.41522  0.97705  0.88391  1.0000
  C   C702      1.0  0.47621  0.98256  0.80397  1.0000
  H   H814      1.0  0.50633  0.46709  0.77754  1.0000
  H   H815      1.0  0.27267  0.15615  0.85447  1.0000
  C   C703      1.0  0.27535  0.40884  0.88525  1.0000
  H   H816      1.0  0.31557  0.36935  0.89523  1.0000
  C   C704      1.0  0.49714  0.24270  0.71522  1.0000
  N   N47       1.0  0.40719  0.37874  0.89883  1.0000
  C   C705      1.0  0.41683  0.36627  0.91696  1.0000
  C   C706      1.0  0.38704  0.37354  0.90091  1.0000
  C   C707      1.0  0.41432  0.36472  0.87967  1.0000
  C   C708      1.0  0.41017  0.40821  0.89845  1.0000
  C   C709      1.0  0.40332  0.42465  0.91524  1.0000
  C   C710      1.0  0.42003  0.42139  0.88189  1.0000
  H   H817      1.0  0.47760  0.27807  0.75551  1.0000
  C   C711      1.0  0.49079  0.21279  0.74469  1.0000
  H   H818      1.0  0.27764  0.20628  0.92131  1.0000
  H   H819      1.0  0.41145  0.37421  0.93222  1.0000
  H   H820      1.0  0.41524  0.34393  0.91745  1.0000
  H   H821      1.0  0.43202  0.36999  0.91595  1.0000
  H   H822      1.0  0.38084  0.38081  0.91596  1.0000
  H   H823      1.0  0.38432  0.35162  0.90059  1.0000
  H   H824      1.0  0.37923  0.38315  0.88782  1.0000
  H   H825      1.0  0.42961  0.36660  0.87769  1.0000
  H   H826      1.0  0.41185  0.34263  0.88040  1.0000
  H   H827      1.0  0.40741  0.37245  0.86528  1.0000
  H   H828      1.0  0.39604  0.41601  0.92859  1.0000
  H   H829      1.0  0.42619  0.41063  0.86869  1.0000
  C   C712      1.0  0.48327  0.23460  0.75688  1.0000
  N   N48       1.0  0.47543  0.23097  0.77840  1.0000
  H   H830      1.0  0.48434  0.26943  0.78998  1.0000
  H   H831      1.0  0.49088  0.19466  0.78684  1.0000
  C   C713      1.0  0.27281  0.19549  0.86919  1.0000
  S   S195      1.0  0.27330  0.37371  0.88184  1.0000
  H   H832      1.0  0.40870  0.98340  0.86897  1.0000
  H   H833      1.0  0.29013  0.30401  0.82895  1.0000
  H   H834      1.0  0.47652  0.10984  0.95215  1.0000
  H   H835      1.0  0.28568  0.28966  0.85453  1.0000
  C   C714      1.0  0.48991  0.36593  0.78041  1.0000
  H   H836      1.0  0.32402  0.99654  0.87438  1.0000
  H   H837      1.0  0.50013  0.13553  0.98209  1.0000
  C   C715      1.0  0.27377  0.16692  0.86906  1.0000
  C   C716      1.0  0.27864  0.42000  0.90484  1.0000
  H   H838      1.0  0.46926  0.98031  0.81918  1.0000
  C   C717      1.0  0.50039  0.38561  0.76959  1.0000
  C   C718      1.0  0.48322  0.26059  0.74729  1.0000
  C   C719      1.0  0.27831  0.44825  0.90722  1.0000
  H   H839      1.0  0.49299  0.45252  0.81180  1.0000
  H   H840      1.0  0.49194  0.02889  0.73501  1.0000
  H   H841      1.0  0.49905  0.34163  0.98970  1.0000
  H   H842      1.0  0.47909  0.02528  0.80713  1.0000
  C   C720      1.0  0.49093  0.01098  0.77766  1.0000
  C   C721      1.0  0.48180  0.00791  0.79714  1.0000
  H   H843      1.0  0.44762  0.22972  0.76679  1.0000
  H   H844      1.0  0.38420  0.98021  0.91013  1.0000
  H   H845      1.0  0.33378  0.36966  0.92762  1.0000
  H   H846      1.0  0.50236  0.24570  0.69928  1.0000
  S   S196      1.0  0.46893  0.98534  0.87133  1.0000
  H   H847      1.0  0.50248  0.97872  0.71160  1.0000
  H   H848      1.0  0.49142  0.19228  0.75053  1.0000
  H   H849      1.0  0.47033  0.20062  0.80230  1.0000
  H   H850      1.0  0.28105  0.40697  0.91822  1.0000
  H   H851      1.0  0.48028  0.24473  0.80980  1.0000
  C   C722      1.0  0.32657  0.97496  0.87565  1.0000
  N   N49       1.0  0.33718  0.13171  0.88061  1.0000
  C   C723      1.0  0.32526  0.12732  0.86231  1.0000
  C   C724      1.0  0.35431  0.11468  0.87757  1.0000
  C   C725      1.0  0.32741  0.12186  0.89981  1.0000
  C   C726      1.0  0.34077  0.16090  0.88273  1.0000
  C   C727      1.0  0.32573  0.17987  0.88480  1.0000
  C   C728      1.0  0.35897  0.17136  0.88316  1.0000
  C   C729      1.0  0.32862  0.20746  0.88720  1.0000
  C   C730      1.0  0.36173  0.19906  0.88550  1.0000
  C   C731      1.0  0.34660  0.21706  0.88756  1.0000
  H   H852      1.0  0.33149  0.13602  0.84771  1.0000
  H   H853      1.0  0.32318  0.10541  0.85959  1.0000
  H   H854      1.0  0.31108  0.13644  0.86448  1.0000
  H   H855      1.0  0.36352  0.11551  0.89133  1.0000
  H   H856      1.0  0.36224  0.12069  0.86316  1.0000
  H   H857      1.0  0.35104  0.09301  0.87564  1.0000
  H   H858      1.0  0.31380  0.13253  0.90258  1.0000
  H   H859      1.0  0.32430  0.09998  0.89877  1.0000
  H   H860      1.0  0.33583  0.12479  0.91399  1.0000
  H   H861      1.0  0.31156  0.17346  0.88473  1.0000
  H   H862      1.0  0.37133  0.15862  0.88178  1.0000
  H   H863      1.0  0.31681  0.22145  0.88889  1.0000
  H   H864      1.0  0.37571  0.20668  0.88579  1.0000
  H   H865      1.0  0.34881  0.23849  0.88950  1.0000
  C   C732      1.0  0.42268  0.44925  0.88219  1.0000
  C   C733      1.0  0.32420  0.38638  0.89844  1.0000
  C   C734      1.0  0.49468  0.98848  0.76432  1.0000
  H   H866      1.0  0.50406  0.11926  0.92672  1.0000
  H   H867      1.0  0.48963  0.28457  0.71982  1.0000
  H   H868      1.0  0.28022  0.45683  0.92255  1.0000
  H   H869      1.0  0.46812  0.18911  0.77610  1.0000
  H   H870      1.0  0.49498  0.03117  0.77348  1.0000
  C   C735      1.0  0.50567  0.13347  0.96572  1.0000
  C   C736      1.0  0.35661  0.46041  0.86862  1.0000
  H   H871      1.0  0.35363  0.44796  0.91160  1.0000
  C   C737      1.0  0.32770  0.44974  0.85323  1.0000
  C   C738      1.0  0.41574  0.46471  0.89886  1.0000
  H   H872      1.0  0.37893  0.97217  0.88401  1.0000
  C   C739      1.0  0.27281  0.42603  0.86787  1.0000
  H   H873      1.0  0.48577  0.40568  0.95951  1.0000
  C   C740      1.0  0.47631  0.20253  0.78606  1.0000
  H   H874      1.0  0.48151  0.09364  0.97692  1.0000
  H   H875      1.0  0.48474  0.07576  0.95292  1.0000
  H   H876      1.0  0.31242  0.44759  0.85543  1.0000
  H   H877      1.0  0.49656  0.14660  0.95575  1.0000
  H   H878      1.0  0.26650  0.27036  0.81786  1.0000
  H   H879      1.0  0.26468  0.35926  0.84052  1.0000
  H   H880      1.0  0.43065  0.45884  0.86967  1.0000
  H   H881      1.0  0.27093  0.20638  0.85458  1.0000
  H   H882      1.0  0.50837  0.39959  0.77843  1.0000
  H   H883      1.0  0.34252  0.97301  0.84692  1.0000
  C   C741      1.0  0.27532  0.46545  0.88992  1.0000
  H   H884      1.0  0.50305  0.20005  0.71500  1.0000
  H   H885      1.0  0.47603  0.35653  0.99191  1.0000
  C   C742      1.0  0.50079  0.38719  0.74751  1.0000
  H   H886      1.0  0.50348  0.28469  0.67433  1.0000
  H   H887      1.0  0.36387  0.46863  0.88229  1.0000
  H   H888      1.0  0.32948  0.46719  0.84224  1.0000
  H   H889      1.0  0.25964  0.39731  0.94874  1.0000
  H   H890      1.0  0.45277  0.47147  0.98392  1.0000
  H   H891      1.0  0.47393  0.94416  0.09867  1.0000
  H   H892      1.0  0.47581  0.77836  0.24118  1.0000
  C   C743      1.0  0.27627  0.92770  0.32682  1.0000
  S   S197      1.0  0.47302  0.56556  0.29103  1.0000
  H   H893      1.0  0.48831  0.61879  0.30050  1.0000
  C   C744      1.0  0.47657  0.71227  0.27412  1.0000
  H   H894      1.0  0.50266  0.78056  0.22071  1.0000
  N   N50       1.0  0.26170  0.76003  0.19118  1.0000
  C   C745      1.0  0.26843  0.90447  0.31883  1.0000
  H   H895      1.0  0.28520  0.76968  0.20975  1.0000
  C   C746      1.0  0.48520  0.59017  0.27574  1.0000
  H   H896      1.0  0.28555  0.74240  0.17485  1.0000
  C   C747      1.0  0.27093  0.76184  0.21173  1.0000
  H   H897      1.0  0.49221  0.64510  0.08335  1.0000
  C   C748      1.0  0.48715  0.71329  0.25549  1.0000
  C   C749      1.0  0.49114  0.61440  0.28413  1.0000
  H   H898      1.0  0.50169  0.59911  0.22518  1.0000
  H   H899      1.0  0.48339  0.69097  0.08098  1.0000
  N   N51       1.0  0.49911  0.73746  0.22327  1.0000
  H   H900      1.0  0.48168  0.51967  0.02488  1.0000
  H   H901      1.0  0.48450  0.56638  0.24760  1.0000
  H   H902      1.0  0.47668  0.69392  0.28357  1.0000
  C   C750      1.0  0.50248  0.67483  0.11569  1.0000
  H   H903      1.0  0.50159  0.48710  0.04483  1.0000
  C   C751      1.0  0.47814  0.48616  0.29721  1.0000
  H   H904      1.0  0.49541  0.78481  0.13828  1.0000
  H   H905      1.0  0.44682  0.97067  0.01280  1.0000
  H   H906      1.0  0.47807  0.93966  0.07125  1.0000
  H   H907      1.0  0.45794  0.73393  0.29518  1.0000
  H   H908      1.0  0.45461  0.94489  0.08154  1.0000
  H   H909      1.0  0.27667  0.89342  0.30728  1.0000
  H   H910      1.0  0.49975  0.52377  0.31170  1.0000
  C   C752      1.0  0.49040  0.50508  0.01649  1.0000
  H   H911      1.0  0.26336  0.73229  0.16506  1.0000
  H   H912      1.0  0.50537  0.65163  0.27803  1.0000
  H   H913      1.0  0.45853  0.95198  0.04524  1.0000
  H   H914      1.0  0.49003  0.93217  0.00168  1.0000
  C   C753      1.0  0.46601  0.73474  0.28063  1.0000
  H   H915      1.0  0.47430  0.50704  0.29201  1.0000
  H   H916      1.0  0.26868  0.77032  0.14821  1.0000
  H   H917      1.0  0.49696  0.71725  0.09081  1.0000
  H   H918      1.0  0.50370  0.70146  0.06643  1.0000
  H   H919      1.0  0.27200  0.74177  0.21979  1.0000
  C   C754      1.0  0.46925  0.95108  0.08294  1.0000
  C   C755      1.0  0.48742  0.73688  0.24268  1.0000
  H   H920      1.0  0.46982  0.48243  0.31188  1.0000
  C   C756      1.0  0.49886  0.60349  0.24155  1.0000
  C   C757      1.0  0.50082  0.63303  0.27129  1.0000
  C   C758      1.0  0.50172  0.48664  0.02787  1.0000
  H   H921      1.0  0.45774  0.77574  0.27368  1.0000
  C   C759      1.0  0.48913  0.58492  0.25436  1.0000
  C   C760      1.0  0.50708  0.65071  0.08349  1.0000
  H   H922      1.0  0.27152  0.71844  0.18890  1.0000
  C   C761      1.0  0.49263  0.95330  0.00421  1.0000
  H   H923      1.0  0.48779  0.66844  0.11648  1.0000
  C   C762      1.0  0.50241  0.96079  0.02207  1.0000
  H   H924      1.0  0.49527  0.69541  0.25129  1.0000
  H   H925      1.0  0.28991  0.93375  0.32139  1.0000
  C   C763      1.0  0.26565  0.78790  0.15769  1.0000
  C   C764      1.0  0.26198  0.78616  0.17969  1.0000
  C   C765      1.0  0.46594  0.75827  0.26847  1.0000
  H   H926      1.0  0.50629  0.82943  0.12549  1.0000
  H   H927      1.0  0.49584  0.69524  0.21579  1.0000
  H   H928      1.0  0.48324  0.76782  0.20639  1.0000
  H   H929      1.0  0.50644  0.76280  0.19667  1.0000
  H   H930      1.0  0.50307  0.69421  0.12430  1.0000
  C   C766      1.0  0.49361  0.71575  0.20896  1.0000
  H   H931      1.0  0.25987  0.82639  0.03236  1.0000
  H   H932      1.0  0.26698  0.81342  0.13014  1.0000
  C   C767      1.0  0.47644  0.75948  0.24974  1.0000
  C   C768      1.0  0.50479  0.62775  0.24993  1.0000
  C   C769      1.0  0.49794  0.69759  0.08251  1.0000
  H   H933      1.0  0.26738  0.72794  0.29634  1.0000
  H   H934      1.0  0.47867  0.71789  0.20503  1.0000
  C   C770      1.0  0.50392  0.50277  0.31629  1.0000
  Fe  Fe97      1.0  0.46241  0.56095  0.32516  1.0000
  C   C771      1.0  0.27102  0.73747  0.17942  1.0000
  H   H935      1.0  0.26620  0.85048  0.30494  1.0000
  C   C772      1.0  0.25976  0.83627  0.15771  1.0000
  H   H936      1.0  0.49927  0.52846  0.27630  1.0000
  H   H937      1.0  0.26306  0.77486  0.22312  1.0000
  C   C773      1.0  0.49771  0.76338  0.21138  1.0000
  H   H938      1.0  0.47341  0.47211  0.28505  1.0000
  C   C774      1.0  0.26464  0.81266  0.14700  1.0000
  N   N52       1.0  0.49835  0.48258  0.30072  1.0000
  H   H939      1.0  0.50185  0.71604  0.19398  1.0000
  C   C775      1.0  0.50768  0.51194  0.27006  1.0000
  C   C776      1.0  0.50880  0.48668  0.28070  1.0000
  H   H940      1.0  0.46986  0.75265  0.55445  1.0000
  Fe  Fe98      1.0  0.46085  0.78454  0.44999  1.0000
  S   S198      1.0  0.47593  0.79083  0.41875  1.0000
  S   S199      1.0  0.47811  0.78377  0.48010  1.0000
  Fe  Fe99      1.0  0.42314  0.78402  0.42876  1.0000
  S   S200      1.0  0.43588  0.78959  0.39695  1.0000
  S   S201      1.0  0.39177  0.78194  0.43217  1.0000
  Fe  Fe100     1.0  0.45711  0.75892  0.40720  1.0000
  S   S202      1.0  0.46526  0.72794  0.38257  1.0000
  Fe  Fe101     1.0  0.45319  0.82150  0.41114  1.0000
  S   S203      1.0  0.45426  0.85800  0.38850  1.0000
  S   S204      1.0  0.44333  0.75086  0.43849  1.0000
  S   S205      1.0  0.43919  0.81749  0.44297  1.0000
  H   H941      1.0  0.36176  0.70859  0.40733  1.0000
  C   C777      1.0  0.50585  0.69014  0.44946  1.0000
  Fe  Fe102     1.0  0.42637  0.55305  0.35189  1.0000
  S   S206      1.0  0.44168  0.53875  0.38022  1.0000
  S   S207      1.0  0.39502  0.55803  0.35134  1.0000
  S   S208      1.0  0.48014  0.54766  0.35230  1.0000
  Fe  Fe103     1.0  0.45977  0.51417  0.35793  1.0000
  H   H942      1.0  0.47592  0.82224  0.56989  1.0000
  Fe  Fe104     1.0  0.46027  0.57337  0.37207  1.0000
  S   S209      1.0  0.46584  0.60155  0.39888  1.0000
  H   H943      1.0  0.45750  0.78333  0.56129  1.0000
  S   S210      1.0  0.44400  0.58885  0.34466  1.0000
  Fe  Fe105     1.0  0.28117  0.51499  0.42229  1.0000
  S   S211      1.0  0.29726  0.52240  0.45147  1.0000
  C   C778      1.0  0.50359  0.74331  0.52832  1.0000
  Fe  Fe106     1.0  0.27906  0.57594  0.41242  1.0000
  S   S212      1.0  0.29489  0.58744  0.44077  1.0000
  H   H944      1.0  0.42563  0.64381  0.35836  1.0000
  Fe  Fe107     1.0  0.31342  0.55196  0.43181  1.0000
  S   S213      1.0  0.34454  0.55558  0.43456  1.0000
  Fe  Fe108     1.0  0.27724  0.55732  0.45814  1.0000
  S   S214      1.0  0.29880  0.54228  0.40227  1.0000
  Fe  Fe109     1.0  0.30994  0.79059  0.35409  1.0000
  S   S215      1.0  0.29576  0.79696  0.38527  1.0000
  S   S216      1.0  0.34142  0.78793  0.35140  1.0000
  Fe  Fe110     1.0  0.27626  0.82519  0.36828  1.0000
  Fe  Fe111     1.0  0.27791  0.76296  0.37551  1.0000
  H   H945      1.0  0.40891  0.62198  0.34807  1.0000
  C   C779      1.0  0.27545  0.67866  0.41383  1.0000
  C   C780      1.0  0.49811  0.76306  0.51336  1.0000
  C   C781      1.0  0.40300  0.66079  0.39258  1.0000
  C   C782      1.0  0.49578  0.64199  0.47091  1.0000
  C   C783      1.0  0.50287  0.66337  0.48199  1.0000
  H   H946      1.0  0.32967  0.70836  0.36180  1.0000
  H   H947      1.0  0.40655  0.60788  0.40488  1.0000
  H   H948      1.0  0.27743  0.50488  0.37481  1.0000
  C   C784      1.0  0.29053  0.90437  0.37919  1.0000
  C   C785      1.0  0.29687  0.93079  0.38236  1.0000
  H   H949      1.0  0.29896  0.88994  0.37030  1.0000
  H   H950      1.0  0.31024  0.93636  0.37586  1.0000
  C   C786      1.0  0.38274  0.62828  0.37698  1.0000
  C   C787      1.0  0.28601  0.95015  0.39359  1.0000
  C   C788      1.0  0.41320  0.70684  0.39929  1.0000
  C   C789      1.0  0.35845  0.55495  0.41130  1.0000
  C   C790      1.0  0.35054  0.55642  0.39147  1.0000
  C   C791      1.0  0.36192  0.55701  0.37327  1.0000
  C   C792      1.0  0.38132  0.55557  0.37465  1.0000
  C   C793      1.0  0.38926  0.55366  0.39446  1.0000
  C   C794      1.0  0.37787  0.55366  0.41271  1.0000
  H   H951      1.0  0.33566  0.55732  0.39004  1.0000
  H   H952      1.0  0.35565  0.55849  0.35802  1.0000
  H   H953      1.0  0.40416  0.55230  0.39580  1.0000
  H   H954      1.0  0.38414  0.55235  0.42795  1.0000
  C   C795      1.0  0.37787  0.78257  0.40963  1.0000
  C   C796      1.0  0.38541  0.77740  0.38959  1.0000
  C   C797      1.0  0.37416  0.77957  0.37187  1.0000
  C   C798      1.0  0.35518  0.78641  0.37402  1.0000
  C   C799      1.0  0.34758  0.79107  0.39411  1.0000
  C   C800      1.0  0.35886  0.78904  0.41181  1.0000
  H   H955      1.0  0.39991  0.77172  0.38766  1.0000
  H   H956      1.0  0.38015  0.77566  0.35643  1.0000
  H   H957      1.0  0.33308  0.79654  0.39606  1.0000
  H   H958      1.0  0.35286  0.79302  0.42724  1.0000
  C   C801      1.0  0.46348  0.69291  0.38709  1.0000
  C   C802      1.0  0.46732  0.67514  0.37044  1.0000
  C   C803      1.0  0.46741  0.64705  0.37374  1.0000
  C   C804      1.0  0.46396  0.63657  0.39383  1.0000
  C   C805      1.0  0.45951  0.65430  0.41037  1.0000
  C   C806      1.0  0.45917  0.68242  0.40701  1.0000
  H   H959      1.0  0.47066  0.68313  0.35499  1.0000
  H   H960      1.0  0.47089  0.63354  0.36090  1.0000
  H   H961      1.0  0.45657  0.64628  0.42589  1.0000
  H   H962      1.0  0.45605  0.69590  0.41993  1.0000
  C   C807      1.0  0.45640  0.89382  0.38927  1.0000
  C   C808      1.0  0.45777  0.90795  0.40805  1.0000
  C   C809      1.0  0.45897  0.93639  0.40774  1.0000
  C   C810      1.0  0.45863  0.95116  0.38874  1.0000
  C   C811      1.0  0.45696  0.93708  0.36999  1.0000
  C   C812      1.0  0.45599  0.90862  0.37027  1.0000
  H   H963      1.0  0.45813  0.89697  0.42279  1.0000
  H   H964      1.0  0.46027  0.94702  0.42237  1.0000
  H   H965      1.0  0.47871  0.86299  0.59023  1.0000
  H   H966      1.0  0.45494  0.89794  0.35563  1.0000
  C   C813      1.0  0.48434  0.75794  0.49865  1.0000
  C   C814      1.0  0.47615  0.73262  0.49910  1.0000
  C   C815      1.0  0.48149  0.71298  0.51420  1.0000
  H   H967      1.0  0.40466  0.72430  0.42884  1.0000
  H   H968      1.0  0.37386  0.64549  0.37143  1.0000
  H   H969      1.0  0.44871  0.75980  0.59653  1.0000
  H   H970      1.0  0.46558  0.72822  0.48794  1.0000
  H   H971      1.0  0.47488  0.69361  0.51445  1.0000
  H   H972      1.0  0.31819  0.54198  0.55112  1.0000
  H   H973      1.0  0.27879  0.50892  0.34676  1.0000
  C   C816      1.0  0.47980  0.84244  0.61994  1.0000
  H   H974      1.0  0.40344  0.65738  0.34954  1.0000
  H   H975      1.0  0.38718  0.64368  0.41885  1.0000
  S   S217      1.0  0.29158  0.82096  0.33724  1.0000
  H   H976      1.0  0.42100  0.72435  0.39432  1.0000
  H   H977      1.0  0.49722  0.49911  0.33196  1.0000
  H   H978      1.0  0.48850  0.62732  0.44058  1.0000
  C   C817      1.0  0.39422  0.66120  0.41275  1.0000
  C   C818      1.0  0.27110  0.68638  0.37674  1.0000
  C   C819      1.0  0.26233  0.91617  0.39855  1.0000
  N   N53       1.0  0.32053  0.55590  0.50933  1.0000
  C   C820      1.0  0.31903  0.56936  0.48850  1.0000
  C   C821      1.0  0.34056  0.55370  0.51419  1.0000
  C   C822      1.0  0.31322  0.52832  0.50737  1.0000
  C   C823      1.0  0.31023  0.57047  0.52636  1.0000
  C   C824      1.0  0.29953  0.59459  0.52286  1.0000
  C   C825      1.0  0.27223  0.51726  0.36138  1.0000
  H   H979      1.0  0.32688  0.55797  0.47601  1.0000
  H   H980      1.0  0.30437  0.57063  0.48347  1.0000
  H   H981      1.0  0.32467  0.59004  0.48856  1.0000
  H   H982      1.0  0.34881  0.54398  0.50116  1.0000
  H   H983      1.0  0.34321  0.54132  0.52848  1.0000
  H   H984      1.0  0.34632  0.57403  0.51672  1.0000
  H   H985      1.0  0.29801  0.52917  0.50451  1.0000
  H   H986      1.0  0.32000  0.51714  0.49404  1.0000
  H   H987      1.0  0.31535  0.51581  0.52168  1.0000
  H   H988      1.0  0.29790  0.60345  0.50745  1.0000
  S   S218      1.0  0.27409  0.73178  0.40153  1.0000
  N   N54       1.0  0.39283  0.86550  0.39879  1.0000
  C   C826      1.0  0.40530  0.87462  0.41540  1.0000
  C   C827      1.0  0.37534  0.85670  0.40928  1.0000
  C   C828      1.0  0.40156  0.84154  0.38845  1.0000
  C   C829      1.0  0.39004  0.88725  0.38300  1.0000
  C   C830      1.0  0.40554  0.89818  0.37209  1.0000
  C   C831      1.0  0.37218  0.89769  0.37756  1.0000
  C   C832      1.0  0.40339  0.91830  0.35676  1.0000
  C   C833      1.0  0.37015  0.91773  0.36210  1.0000
  C   C834      1.0  0.38571  0.92797  0.35169  1.0000
  H   H989      1.0  0.39975  0.89343  0.42291  1.0000
  H   H990      1.0  0.40710  0.85897  0.42792  1.0000
  H   H991      1.0  0.41955  0.87856  0.40926  1.0000
  H   H992      1.0  0.37804  0.84061  0.42128  1.0000
  H   H993      1.0  0.36577  0.84778  0.39788  1.0000
  H   H994      1.0  0.36802  0.87367  0.41761  1.0000
  H   H995      1.0  0.41552  0.84565  0.38151  1.0000
  H   H996      1.0  0.40365  0.82470  0.39985  1.0000
  H   H997      1.0  0.39282  0.83412  0.37563  1.0000
  H   H998      1.0  0.41948  0.89077  0.37509  1.0000
  H   H999      1.0  0.48769  0.73749  0.45136  1.0000
  H   H1000     1.0  0.41554  0.92605  0.34859  1.0000
  C   C835      1.0  0.49392  0.64409  0.44925  1.0000
  H   H1001     1.0  0.46699  0.74226  0.61039  1.0000
  S   S219      1.0  0.29309  0.75502  0.34490  1.0000
  H   H1002     1.0  0.30081  0.56506  0.57936  1.0000
  C   C836      1.0  0.41283  0.61398  0.38954  1.0000
  H   H1003     1.0  0.48183  0.78338  0.55346  1.0000
  H   H1004     1.0  0.38406  0.94327  0.33955  1.0000
  H   H1005     1.0  0.27585  0.63702  0.42416  1.0000
  C   C837      1.0  0.27461  0.65061  0.41089  1.0000
  H   H1006     1.0  0.38165  0.61170  0.36540  1.0000
  C   C838      1.0  0.30063  0.57338  0.56357  1.0000
  H   H1007     1.0  0.42063  0.68549  0.37172  1.0000
  H   H1008     1.0  0.26016  0.95708  0.41046  1.0000
  C   C839      1.0  0.28978  0.60753  0.53930  1.0000
  C   C840      1.0  0.47971  0.81758  0.63028  1.0000
  C   C841      1.0  0.31053  0.56033  0.54727  1.0000
  C   C842      1.0  0.27310  0.89690  0.38713  1.0000
  C   C843      1.0  0.49521  0.71812  0.52895  1.0000
  N   N55       1.0  0.33392  0.70656  0.39526  1.0000
  C   C844      1.0  0.35389  0.71287  0.39288  1.0000
  C   C845      1.0  0.32436  0.71785  0.37659  1.0000
  C   C846      1.0  0.32599  0.72071  0.41395  1.0000
  C   C847      1.0  0.33187  0.67705  0.39801  1.0000
  C   C848      1.0  0.32065  0.66148  0.38489  1.0000
  C   C849      1.0  0.34112  0.66305  0.41448  1.0000
  C   C850      1.0  0.31898  0.63368  0.38808  1.0000
  C   C851      1.0  0.33931  0.63521  0.41751  1.0000
  C   C852      1.0  0.32820  0.62064  0.40437  1.0000
  H   H1009     1.0  0.36062  0.70131  0.37975  1.0000
  C   C853      1.0  0.29023  0.59689  0.55956  1.0000
  N   N56       1.0  0.40230  0.63641  0.37936  1.0000
  C   C854      1.0  0.49893  0.66770  0.43858  1.0000
  H   H1010     1.0  0.32642  0.73999  0.37477  1.0000
  H   H1011     1.0  0.30906  0.71536  0.37790  1.0000
  H   H1012     1.0  0.33348  0.71534  0.42850  1.0000
  H   H1013     1.0  0.32651  0.74308  0.41209  1.0000
  H   H1014     1.0  0.31112  0.71566  0.41660  1.0000
  H   H1015     1.0  0.31268  0.67031  0.37230  1.0000
  H   H1016     1.0  0.34956  0.67364  0.42532  1.0000
  H   H1017     1.0  0.49713  0.66781  0.42180  1.0000
  H   H1018     1.0  0.34629  0.62477  0.43026  1.0000
  H   H1019     1.0  0.32647  0.59923  0.40704  1.0000
  N   N57       1.0  0.47624  0.76848  0.58496  1.0000
  C   C855      1.0  0.46267  0.74980  0.59473  1.0000
  H   H1020     1.0  0.40129  0.95218  0.39538  1.0000
  H   H1021     1.0  0.48146  0.81674  0.64713  1.0000
  C   C856      1.0  0.47666  0.79408  0.59677  1.0000
  C   C857      1.0  0.47672  0.81985  0.58669  1.0000
  C   C858      1.0  0.47843  0.79371  0.61892  1.0000
  C   C859      1.0  0.27357  0.69667  0.39682  1.0000
  H   H1022     1.0  0.49035  0.71505  0.41537  1.0000
  H   H1023     1.0  0.47962  0.77495  0.62764  1.0000
  S   S220      1.0  0.27018  0.60510  0.38676  1.0000
  C   C860      1.0  0.47829  0.84358  0.59821  1.0000
  H   H1024     1.0  0.27750  0.53796  0.36339  1.0000
  C   C861      1.0  0.47108  0.77231  0.56264  1.0000
  H   H1025     1.0  0.48161  0.86081  0.62874  1.0000
  C   C862      1.0  0.49492  0.75535  0.58535  1.0000
  H   H1026     1.0  0.50436  0.66173  0.49889  1.0000
  H   H1027     1.0  0.35583  0.73461  0.38944  1.0000
  H   H1028     1.0  0.35952  0.89043  0.38477  1.0000
  C   C863      1.0  0.27005  0.65828  0.37384  1.0000
  H   H1029     1.0  0.27747  0.68643  0.42938  1.0000
  C   C864      1.0  0.39479  0.68390  0.42562  1.0000
  C   C865      1.0  0.27173  0.64029  0.39091  1.0000
  H   H1030     1.0  0.38822  0.68370  0.44109  1.0000
  C   C866      1.0  0.41042  0.64028  0.35793  1.0000
  H   H1031     1.0  0.37648  0.62020  0.39177  1.0000
  C   C867      1.0  0.41280  0.68422  0.38634  1.0000
  H   H1032     1.0  0.45669  0.94806  0.35525  1.0000
  C   C868      1.0  0.26872  0.94255  0.40180  1.0000
  H   H1033     1.0  0.41355  0.59563  0.37958  1.0000
  H   H1034     1.0  0.35637  0.92513  0.35800  1.0000
  S   S221      1.0  0.27030  0.47301  0.41451  1.0000
  C   C869      1.0  0.40414  0.70675  0.41882  1.0000
  H   H1035     1.0  0.28125  0.62544  0.53615  1.0000
  H   H1036     1.0  0.31006  0.62224  0.37814  1.0000
  H   H1037     1.0  0.42737  0.61967  0.39243  1.0000
  H   H1038     1.0  0.28224  0.60670  0.57210  1.0000
  H   H1039     1.0  0.46118  0.73126  0.58516  1.0000
  H   H1040     1.0  0.50469  0.78245  0.51308  1.0000
  H   H1041     1.0  0.40424  0.96123  0.42231  1.0000
  S   S222      1.0  0.50115  0.69246  0.54774  1.0000
  H   H1042     1.0  0.26781  0.65049  0.35833  1.0000
  S   S223      1.0  0.26372  0.86442  0.38251  1.0000
  H   H1043     1.0  0.42309  0.96416  0.40361  1.0000
  H   H1044     1.0  0.49931  0.75073  0.60165  1.0000
  C   C870      1.0  0.50562  0.71707  0.41646  1.0000
  H   H1045     1.0  0.49535  0.73593  0.57666  1.0000
  S   S224      1.0  0.50395  0.68642  0.60892  1.0000
  H   H1046     1.0  0.49177  0.62372  0.47911  1.0000
  H   H1047     1.0  0.50558  0.76854  0.57803  1.0000
  H   H1048     1.0  0.26957  0.70006  0.36353  1.0000
  C   C871      1.0  0.26685  0.94282  0.34222  1.0000
  S   S225      1.0  0.26621  0.55969  0.49215  1.0000
  C   C872      1.0  0.40779  0.96690  0.40580  1.0000
  Fe  Fe112     1.0  0.27307  0.78570  0.33091  1.0000
  H   H1049     1.0  0.50394  0.53354  0.61032  1.0000
  C   C873      1.0  0.50799  0.68702  0.47147  1.0000
  C   C874      1.0  0.50303  0.73924  0.44956  1.0000
  S   S226      1.0  0.25999  0.54812  0.43022  1.0000
  H   H1050     1.0  0.27317  0.96042  0.34878  1.0000
  H   H1051     1.0  0.50866  0.74219  0.46541  1.0000
  H   H1052     1.0  0.50571  0.75845  0.44097  1.0000
  H   H1053     1.0  0.37405  0.97154  0.37917  1.0000
  H   H1054     1.0  0.50895  0.73684  0.40900  1.0000
  S   S227      1.0  0.44301  0.52627  0.32987  1.0000
  Fe  Fe113     1.0  0.46541  0.52967  0.94673  1.0000
  S   S228      1.0  0.48279  0.53400  0.91687  1.0000
  S   S229      1.0  0.47483  0.52757  0.98095  1.0000
  Fe  Fe114     1.0  0.42905  0.53147  0.92287  1.0000
  S   S230      1.0  0.44376  0.53541  0.89199  1.0000
  S   S231      1.0  0.39767  0.52972  0.92536  1.0000
  Fe  Fe115     1.0  0.46347  0.50357  0.90397  1.0000
  H   H1055     1.0  0.42237  0.61493  0.88614  1.0000
  Fe  Fe116     1.0  0.46155  0.56591  0.90695  1.0000
  S   S232      1.0  0.46762  0.59994  0.88320  1.0000
  S   S233      1.0  0.44746  0.49720  0.93411  1.0000
  S   S234      1.0  0.44546  0.56397  0.93765  1.0000
  Fe  Fe117     1.0  0.45594  0.76541  0.86577  1.0000
  S   S235      1.0  0.44408  0.77029  0.83352  1.0000
  S   S236      1.0  0.45501  0.72850  0.88794  1.0000
  Fe  Fe118     1.0  0.45918  0.82789  0.86978  1.0000
  S   S237      1.0  0.44748  0.83665  0.83810  1.0000
  S   S238      1.0  0.46567  0.86010  0.89329  1.0000
  Fe  Fe119     1.0  0.42693  0.80486  0.84706  1.0000
  S   S239      1.0  0.39584  0.80909  0.84312  1.0000
  Fe  Fe120     1.0  0.46597  0.80181  0.82754  1.0000
  S   S240      1.0  0.48433  0.80222  0.79766  1.0000
  S   S241      1.0  0.43748  0.79849  0.87932  1.0000
  S   S242      1.0  0.47902  0.79462  0.85917  1.0000
  H   H1056     1.0  0.27354  0.66792  0.92321  1.0000
  H   H1057     1.0  0.40696  0.93376  0.92432  1.0000
  Fe  Fe121     1.0  0.31852  0.54043  0.84489  1.0000
  S   S243      1.0  0.30443  0.55766  0.87347  1.0000
  S   S244      1.0  0.34947  0.53207  0.84320  1.0000
  Fe  Fe122     1.0  0.28237  0.53971  0.81969  1.0000
  Fe  Fe123     1.0  0.28936  0.58605  0.85165  1.0000
  Fe  Fe124     1.0  0.28244  0.52774  0.86641  1.0000
  H   H1058     1.0  0.26927  0.89067  0.91925  1.0000
  S   S245      1.0  0.30489  0.57003  0.82307  1.0000
  S   S246      1.0  0.29771  0.50862  0.83908  1.0000
  Fe  Fe125     1.0  0.31688  0.80943  0.92770  1.0000
  S   S247      1.0  0.30179  0.79579  0.89958  1.0000
  S   S248      1.0  0.34798  0.81418  0.92788  1.0000
  Fe  Fe126     1.0  0.28087  0.81654  0.95476  1.0000
  Fe  Fe127     1.0  0.28499  0.77050  0.92202  1.0000
  Fe  Fe128     1.0  0.28193  0.83015  0.90806  1.0000
  C   C875      1.0  0.28508  0.81488  0.71046  1.0000
  S   S249      1.0  0.30160  0.78212  0.94982  1.0000
  S   S250      1.0  0.29799  0.84502  0.93519  1.0000
  S   S251      1.0  0.27375  0.50077  0.89357  1.0000
  C   C876      1.0  0.28153  0.65182  0.89284  1.0000
  C   C877      1.0  0.27890  0.67271  0.90767  1.0000
  C   C878      1.0  0.27277  0.95052  0.89245  1.0000
  H   H1059     1.0  0.42885  0.94624  0.91409  1.0000
  H   H1060     1.0  0.41198  0.96891  0.92553  1.0000
  H   H1061     1.0  0.32319  0.63358  0.88406  1.0000
  C   C879      1.0  0.49001  0.50453  0.99439  1.0000
  H   H1062     1.0  0.27483  0.89490  0.71668  1.0000
  H   H1063     1.0  0.49407  0.51498  0.86315  1.0000
  C   C880      1.0  0.28808  0.65768  0.87251  1.0000
  C   C881      1.0  0.40619  0.93064  0.88125  1.0000
  C   C882      1.0  0.39727  0.93077  0.86161  1.0000
  C   C883      1.0  0.38239  0.81142  0.86654  1.0000
  C   C884      1.0  0.36380  0.80374  0.86670  1.0000
  C   C885      1.0  0.35310  0.80437  0.88542  1.0000
  C   C886      1.0  0.36090  0.81282  0.90409  1.0000
  C   C887      1.0  0.37933  0.82115  0.90378  1.0000
  C   C888      1.0  0.39000  0.82060  0.88506  1.0000
  H   H1064     1.0  0.35777  0.79677  0.85239  1.0000
  H   H1065     1.0  0.33894  0.79793  0.88543  1.0000
  H   H1066     1.0  0.38539  0.82812  0.91808  1.0000
  H   H1067     1.0  0.40405  0.82749  0.88503  1.0000
  C   C889      1.0  0.49191  0.83044  0.78246  1.0000
  C   C890      1.0  0.31914  0.96061  0.89256  1.0000
  C   C891      1.0  0.49015  0.49294  0.82398  1.0000
  C   C892      1.0  0.50262  0.48200  0.78943  1.0000
  H   H1068     1.0  0.50559  0.90540  0.86479  1.0000
  C   C893      1.0  0.48694  0.85706  0.78778  1.0000
  H   H1069     1.0  0.29288  0.72609  0.87802  1.0000
  C   C894      1.0  0.40777  0.61770  0.88253  1.0000
  H   H1070     1.0  0.47754  0.86092  0.80095  1.0000
  C   C895      1.0  0.38445  0.53036  0.90239  1.0000
  C   C896      1.0  0.39283  0.52851  0.88243  1.0000
  C   C897      1.0  0.38194  0.52910  0.86445  1.0000
  C   C898      1.0  0.36258  0.53193  0.86623  1.0000
  C   C899      1.0  0.35416  0.53401  0.88617  1.0000
  C   C900      1.0  0.36505  0.53296  0.90418  1.0000
  H   H1071     1.0  0.40768  0.52652  0.88070  1.0000
  H   H1072     1.0  0.38857  0.52747  0.84909  1.0000
  H   H1073     1.0  0.33929  0.53638  0.88783  1.0000
  H   H1074     1.0  0.35845  0.53451  0.91957  1.0000
  C   C901      1.0  0.46573  0.89482  0.88674  1.0000
  C   C902      1.0  0.46394  0.90407  0.86605  1.0000
  C   C903      1.0  0.46479  0.93189  0.86146  1.0000
  C   C904      1.0  0.46730  0.95061  0.87752  1.0000
  C   C905      1.0  0.46880  0.94134  0.89820  1.0000
  C   C906      1.0  0.46809  0.91358  0.90275  1.0000
  H   H1075     1.0  0.46214  0.88982  0.85357  1.0000
  H   H1076     1.0  0.46360  0.93887  0.84542  1.0000
  H   H1077     1.0  0.47106  0.95548  0.91065  1.0000
  C   C907      1.0  0.50397  0.82599  0.76505  1.0000
  C   C908      1.0  0.46336  0.63555  0.88469  1.0000
  C   C909      1.0  0.46630  0.65162  0.86662  1.0000
  C   C910      1.0  0.46364  0.68000  0.86716  1.0000
  C   C911      1.0  0.45820  0.69273  0.88591  1.0000
  C   C912      1.0  0.45505  0.67660  0.90390  1.0000
  C   C913      1.0  0.45748  0.64822  0.90330  1.0000
  H   H1078     1.0  0.47085  0.64210  0.85212  1.0000
  H   H1079     1.0  0.46614  0.69203  0.85319  1.0000
  H   H1080     1.0  0.41249  0.65047  0.86106  1.0000
  H   H1081     1.0  0.32984  0.65176  0.85064  1.0000
  N   N58       1.0  0.40519  0.95493  0.89465  1.0000
  C   C914      1.0  0.38331  0.64124  0.86357  1.0000
  H   H1082     1.0  0.40841  0.86719  0.84469  1.0000
  C   C915      1.0  0.50149  0.48568  0.98378  1.0000
  H   H1083     1.0  0.37995  0.65694  0.85235  1.0000
  H   H1084     1.0  0.27989  0.95388  0.85955  1.0000
  H   H1085     1.0  0.38988  0.94863  0.85604  1.0000
  H   H1086     1.0  0.31305  0.47385  0.88819  1.0000
  S   S252      1.0  0.29133  0.63240  0.85284  1.0000
  S   S253      1.0  0.47121  0.47305  0.87888  1.0000
  H   H1087     1.0  0.49214  0.94464  0.76325  1.0000
  C   C916      1.0  0.40212  0.63776  0.86841  1.0000
  C   C917      1.0  0.41361  0.95058  0.91553  1.0000
  C   C918      1.0  0.28290  0.69971  0.90251  1.0000
  H   H1088     1.0  0.35887  0.86021  0.88020  1.0000
  C   C919      1.0  0.33696  0.96152  0.86012  1.0000
  S   S254      1.0  0.26561  0.55761  0.84689  1.0000
  C   C920      1.0  0.27732  0.94028  0.87254  1.0000
  C   C921      1.0  0.27164  0.90438  0.90622  1.0000
  H   H1089     1.0  0.41817  0.48616  0.89923  1.0000
  C   C922      1.0  0.37589  0.60409  0.88699  1.0000
  H   H1090     1.0  0.39915  0.58515  0.90266  1.0000
  H   H1091     1.0  0.50375  0.95040  0.84989  1.0000
  H   H1092     1.0  0.32905  0.60381  0.85235  1.0000
  S   S255      1.0  0.27546  0.85911  0.88129  1.0000
  H   H1093     1.0  0.49058  0.89923  0.78072  1.0000
  C   C923      1.0  0.50038  0.52868  0.80064  1.0000
  C   C924      1.0  0.27685  0.83871  0.71836  1.0000
  H   H1094     1.0  0.48205  0.57544  0.81663  1.0000
  H   H1095     1.0  0.31531  0.92276  0.90728  1.0000
  H   H1096     1.0  0.28528  0.85134  0.72781  1.0000
  C   C925      1.0  0.39807  0.90812  0.84862  1.0000
  H   H1097     1.0  0.47565  0.94030  0.79689  1.0000
  C   C926      1.0  0.40778  0.88476  0.85476  1.0000
  H   H1098     1.0  0.37702  0.94677  0.90434  1.0000
  H   H1099     1.0  0.36638  0.59013  0.89427  1.0000
  C   C927      1.0  0.26004  0.50715  0.77415  1.0000
  H   H1100     1.0  0.33368  0.88350  0.91304  1.0000
  H   H1101     1.0  0.46142  0.55432  0.85265  1.0000
  H   H1102     1.0  0.28104  0.90448  0.85374  1.0000
  H   H1103     1.0  0.33479  0.48427  0.89794  1.0000
  H   H1104     1.0  0.25940  0.89448  0.69497  1.0000
  H   H1105     1.0  0.33920  0.61308  0.89816  1.0000
  C   C928      1.0  0.27509  0.79809  0.69770  1.0000
  H   H1106     1.0  0.34456  0.58425  0.86804  1.0000
  H   H1107     1.0  0.41871  0.73728  0.87209  1.0000
  H   H1108     1.0  0.45524  0.63624  0.91736  1.0000
  H   H1109     1.0  0.35259  0.59737  0.84335  1.0000
  H   H1110     1.0  0.48428  0.48554  0.83859  1.0000
  H   H1111     1.0  0.45093  0.68617  0.91854  1.0000
  H   H1112     1.0  0.50791  0.80551  0.76077  1.0000
  C   C929      1.0  0.41632  0.90668  0.88682  1.0000
  H   H1113     1.0  0.26670  0.94020  0.92476  1.0000
  H   H1114     1.0  0.26572  0.52183  0.74272  1.0000
  N   N59       1.0  0.33570  0.88852  0.87931  1.0000
  C   C930      1.0  0.32765  0.87563  0.89845  1.0000
  C   C931      1.0  0.32728  0.87577  0.86096  1.0000
  C   C932      1.0  0.35595  0.88224  0.87888  1.0000
  C   C933      1.0  0.33243  0.91816  0.87839  1.0000
  C   C934      1.0  0.32191  0.93260  0.89400  1.0000
  C   C935      1.0  0.33986  0.93352  0.86137  1.0000
  H   H1115     1.0  0.29934  0.80948  0.71410  1.0000
  H   H1116     1.0  0.34257  0.64887  0.89616  1.0000
  C   C936      1.0  0.38550  0.96374  0.89835  1.0000
  H   H1117     1.0  0.31227  0.87850  0.89930  1.0000
  H   H1118     1.0  0.49736  0.95297  0.72995  1.0000
  C   C937      1.0  0.49510  0.47382  0.80869  1.0000
  H   H1119     1.0  0.33341  0.88282  0.84581  1.0000
  H   H1120     1.0  0.31204  0.88021  0.86071  1.0000
  H   H1121     1.0  0.32918  0.85335  0.86140  1.0000
  H   H1122     1.0  0.27554  0.76212  0.98944  1.0000
  H   H1123     1.0  0.42988  0.97085  0.88016  1.0000
  N   N60       1.0  0.48674  0.54080  0.83680  1.0000
  H   H1124     1.0  0.31071  0.97121  0.90436  1.0000
  H   H1125     1.0  0.34775  0.92392  0.84876  1.0000
  H   H1126     1.0  0.49312  0.55006  0.86887  1.0000
  C   C938      1.0  0.27823  0.91222  0.86933  1.0000
  S   S256      1.0  0.27077  0.82119  0.98895  1.0000
  N   N61       1.0  0.39653  0.73178  0.89508  1.0000
  C   C939      1.0  0.40483  0.75198  0.90888  1.0000
  C   C940      1.0  0.40370  0.70455  0.90116  1.0000
  C   C941      1.0  0.40325  0.73742  0.87330  1.0000
  C   C942      1.0  0.37600  0.73277  0.89752  1.0000
  C   C943      1.0  0.36395  0.73605  0.88023  1.0000
  C   C944      1.0  0.36745  0.72960  0.91766  1.0000
  C   C945      1.0  0.34461  0.73632  0.88313  1.0000
  C   C946      1.0  0.34811  0.73023  0.92038  1.0000
  C   C947      1.0  0.33672  0.73353  0.90316  1.0000
  H   H1127     1.0  0.40233  0.74777  0.92582  1.0000
  H   H1128     1.0  0.42023  0.75250  0.90666  1.0000
  H   H1129     1.0  0.39916  0.77258  0.90553  1.0000
  H   H1130     1.0  0.39744  0.68860  0.89164  1.0000
  H   H1131     1.0  0.41907  0.70276  0.89887  1.0000
  H   H1132     1.0  0.39846  0.75779  0.86782  1.0000
  H   H1133     1.0  0.39875  0.72198  0.86209  1.0000
  H   H1134     1.0  0.36908  0.73910  0.86437  1.0000
  H   H1135     1.0  0.37565  0.72685  0.93153  1.0000
  H   H1136     1.0  0.33564  0.73937  0.86984  1.0000
  H   H1137     1.0  0.34189  0.72850  0.93598  1.0000
  H   H1138     1.0  0.32172  0.73422  0.90540  1.0000
  H   H1139     1.0  0.27820  0.63127  0.89704  1.0000
  H   H1140     1.0  0.32733  0.49577  0.87272  1.0000
  C   C948      1.0  0.49431  0.87883  0.77617  1.0000
  C   C949      1.0  0.29235  0.68461  0.86745  1.0000
  C   C950      1.0  0.50529  0.50935  0.78544  1.0000
  H   H1141     1.0  0.29738  0.68946  0.85178  1.0000
  S   S257      1.0  0.27863  0.72529  0.92176  1.0000
  C   C951      1.0  0.36956  0.62445  0.87283  1.0000
  H   H1142     1.0  0.42417  0.90484  0.90103  1.0000
  H   H1143     1.0  0.36292  0.89202  0.89213  1.0000
  H   H1144     1.0  0.46316  0.51875  0.84881  1.0000
  H   H1145     1.0  0.50151  0.48512  0.96683  1.0000
  H   H1146     1.0  0.40076  0.69980  0.91796  1.0000
  C   C952      1.0  0.28983  0.70548  0.88232  1.0000
  H   H1147     1.0  0.35786  0.47615  0.85611  1.0000
  H   H1148     1.0  0.49710  0.86020  0.86717  1.0000
  H   H1149     1.0  0.45837  0.54074  0.82692  1.0000
  H   H1150     1.0  0.46962  0.90656  0.91877  1.0000
  C   C953      1.0  0.39467  0.60094  0.89181  1.0000
  H   H1151     1.0  0.34886  0.66973  0.86062  1.0000
  H   H1152     1.0  0.42503  0.86625  0.87821  1.0000
  C   C954      1.0  0.41699  0.88416  0.87373  1.0000
  H   H1153     1.0  0.35199  0.64775  0.83799  1.0000
  H   H1154     1.0  0.33032  0.85337  0.89868  1.0000
  N   N62       1.0  0.34958  0.62707  0.86785  1.0000
  C   C955      1.0  0.33825  0.63083  0.88742  1.0000
  C   C956      1.0  0.34504  0.65017  0.85366  1.0000
  C   C957      1.0  0.34373  0.60212  0.85746  1.0000
  H   H1155     1.0  0.26619  0.87372  0.75020  1.0000
  C   C958      1.0  0.46657  0.53851  0.84145  1.0000
  S   S258      1.0  0.26327  0.80365  0.92798  1.0000
  H   H1156     1.0  0.36289  0.88863  0.86402  1.0000
  C   C959      1.0  0.27530  0.89418  0.88612  1.0000
  C   C960      1.0  0.49008  0.56932  0.83068  1.0000
  C   C961      1.0  0.49257  0.52099  0.82046  1.0000
  S   S259      1.0  0.27255  0.53347  0.78603  1.0000
  H   H1157     1.0  0.49609  0.84364  0.83045  1.0000
  C   C962      1.0  0.27014  0.93246  0.90929  1.0000
  C   C963      1.0  0.27279  0.74109  0.98456  1.0000
  H   H1158     1.0  0.39134  0.90870  0.83358  1.0000
  C   C964      1.0  0.25997  0.89496  0.71241  1.0000
  C   C965      1.0  0.49702  0.53519  0.85636  1.0000
  H   H1159     1.0  0.47839  0.96661  0.97616  1.0000
  H   H1160     1.0  0.27988  0.73813  0.96900  1.0000
  H   H1161     1.0  0.28152  0.77972  0.69147  1.0000
  H   H1162     1.0  0.48562  0.58357  0.84342  1.0000
  C   C966      1.0  0.32768  0.47803  0.88354  1.0000
  H   H1163     1.0  0.50276  0.54946  0.79643  1.0000
  H   H1164     1.0  0.50510  0.57276  0.82761  1.0000
  C   C967      1.0  0.47981  0.96008  0.79140  1.0000
  C   C968      1.0  0.48914  0.96286  0.77202  1.0000
  C   C969      1.0  0.50647  0.87441  0.75887  1.0000
  H   H1165     1.0  0.27967  0.72722  0.99599  1.0000
  Fe  Fe129     1.0  0.53440  0.44951  0.11170  1.0000
  C   C970      1.0  0.67325  0.07126  0.18333  1.0000
  C   C971      1.0  0.53807  0.27277  0.14725  1.0000
  Fe  Fe130     1.0  0.53581  0.38953  0.09906  1.0000
  S   S260      1.0  0.55358  0.39908  0.07060  1.0000
  S   S261      1.0  0.54254  0.24531  0.16510  1.0000
  Fe  Fe131     1.0  0.56930  0.42579  0.09190  1.0000
  S   S262      1.0  0.60072  0.42619  0.09166  1.0000
  Fe  Fe132     1.0  0.53458  0.43544  0.06512  1.0000
  S   S263      1.0  0.55291  0.41395  0.12059  1.0000
  Fe  Fe133     1.0  0.53876  0.19921  0.16905  1.0000
  S   S264      1.0  0.55282  0.18375  0.19830  1.0000
  Fe  Fe134     1.0  0.52918  0.14028  0.15787  1.0000
  S   S265      1.0  0.54321  0.12193  0.18579  1.0000
  H   H1166     1.0  0.59923  0.32514  0.10305  1.0000
  H   H1167     1.0  0.53908  0.07371  0.15551  1.0000
  Fe  Fe135     1.0  0.56555  0.15144  0.17754  1.0000
  S   S266      1.0  0.59638  0.14112  0.17859  1.0000
  S   S267      1.0  0.55256  0.16761  0.14824  1.0000
  Fe  Fe136     1.0  0.67760  0.16806  0.09915  1.0000
  S   S268      1.0  0.69091  0.18064  0.12881  1.0000
  S   S269      1.0  0.64668  0.16143  0.09704  1.0000
  Fe  Fe137     1.0  0.71451  0.16879  0.07346  1.0000
  S   S270      1.0  0.73010  0.18194  0.10166  1.0000
  S   S271      1.0  0.73035  0.16578  0.04192  1.0000
  Fe  Fe138     1.0  0.71336  0.15035  0.11877  1.0000
  S   S272      1.0  0.72511  0.11855  0.14107  1.0000
  Fe  Fe139     1.0  0.70612  0.21113  0.10875  1.0000
  S   S273      1.0  0.70673  0.25762  0.11139  1.0000
  S   S274      1.0  0.69902  0.13600  0.09031  1.0000
  S   S275      1.0  0.69150  0.19968  0.07932  1.0000
  Fe  Fe140     1.0  0.70789  0.45113  0.20664  1.0000
  S   S276      1.0  0.72843  0.43774  0.18128  1.0000
  H   H1168     1.0  0.51347  0.05973  0.26406  1.0000
  Fe  Fe141     1.0  0.67459  0.44195  0.17766  1.0000
  S   S277      1.0  0.69276  0.42837  0.15067  1.0000
  S   S278      1.0  0.64320  0.44493  0.17628  1.0000
  Fe  Fe142     1.0  0.70864  0.40385  0.17452  1.0000
  S   S279      1.0  0.71437  0.35770  0.17407  1.0000
  Fe  Fe143     1.0  0.71039  0.46324  0.15970  1.0000
  H   H1169     1.0  0.51936  0.17910  0.31914  1.0000
  S   S280      1.0  0.68926  0.41598  0.20135  1.0000
  S   S281      1.0  0.72317  0.99264  0.12167  1.0000
  Fe  Fe144     1.0  0.52893  0.15575  0.20379  1.0000
  C   C972      1.0  0.52353  0.29292  0.11640  1.0000
  C   C973      1.0  0.52900  0.06310  0.14663  1.0000
  H   H1170     1.0  0.74443  0.01906  0.01538  1.0000
  C   C974      1.0  0.67679  0.04618  0.19266  1.0000
  H   H1171     1.0  0.54577  0.08402  0.01435  1.0000
  C   C975      1.0  0.66748  0.04088  0.13322  1.0000
  C   C976      1.0  0.53845  0.07707  0.00082  1.0000
  C   C977      1.0  0.63888  0.08014  0.13295  1.0000
  H   H1172     1.0  0.72625  0.07188  0.16743  1.0000
  H   H1173     1.0  0.73807  0.99963  0.29469  1.0000
  C   C978      1.0  0.72358  0.08374  0.13523  1.0000
  C   C979      1.0  0.72471  0.06481  0.15165  1.0000
  C   C980      1.0  0.72392  0.03694  0.14777  1.0000
  C   C981      1.0  0.72253  0.02765  0.12723  1.0000
  C   C982      1.0  0.72159  0.04655  0.11069  1.0000
  C   C983      1.0  0.72199  0.07448  0.11467  1.0000
  H   H1174     1.0  0.75232  0.11176  0.10579  1.0000
  H   H1175     1.0  0.72491  0.02260  0.16060  1.0000
  H   H1176     1.0  0.72061  0.03956  0.09473  1.0000
  H   H1177     1.0  0.72133  0.08869  0.10176  1.0000
  C   C984      1.0  0.70933  0.28499  0.12917  1.0000
  C   C985      1.0  0.70864  0.31168  0.12128  1.0000
  C   C986      1.0  0.71048  0.33410  0.13459  1.0000
  C   C987      1.0  0.71292  0.33022  0.15614  1.0000
  C   C988      1.0  0.71365  0.30352  0.16404  1.0000
  C   C989      1.0  0.71180  0.28108  0.15072  1.0000
  H   H1178     1.0  0.70686  0.31503  0.10464  1.0000
  H   H1179     1.0  0.71020  0.35436  0.12813  1.0000
  H   H1180     1.0  0.71564  0.30017  0.18065  1.0000
  H   H1181     1.0  0.71246  0.26079  0.15710  1.0000
  N   N63       1.0  0.61539  0.04534  0.14504  1.0000
  C   C990      1.0  0.74306  0.08729  0.02684  1.0000
  C   C991      1.0  0.73506  0.11025  0.03677  1.0000
  C   C992      1.0  0.74015  0.13611  0.03026  1.0000
  C   C993      1.0  0.52145  0.12804  0.31336  1.0000
  H   H1182     1.0  0.73913  0.06741  0.03212  1.0000
  H   H1183     1.0  0.72487  0.10794  0.04935  1.0000
  H   H1184     1.0  0.51667  0.41906  0.14166  1.0000
  C   C994      1.0  0.61026  0.14651  0.15582  1.0000
  C   C995      1.0  0.60257  0.14722  0.13587  1.0000
  C   C996      1.0  0.61390  0.15184  0.11802  1.0000
  C   C997      1.0  0.63301  0.15576  0.11993  1.0000
  C   C998      1.0  0.64072  0.15485  0.13987  1.0000
  C   C999      1.0  0.62940  0.15005  0.15773  1.0000
  H   H1185     1.0  0.58793  0.14392  0.13413  1.0000
  H   H1186     1.0  0.60786  0.15228  0.10263  1.0000
  H   H1187     1.0  0.65541  0.15769  0.14157  1.0000
  H   H1188     1.0  0.63548  0.14938  0.17310  1.0000
  H   H1189     1.0  0.68520  0.07276  0.12272  1.0000
  C   C1000     1.0  0.61233  0.43177  0.11524  1.0000
  C   C1001     1.0  0.60255  0.43609  0.13417  1.0000
  C   C1002     1.0  0.61221  0.44009  0.15275  1.0000
  C   C1003     1.0  0.63168  0.43976  0.15257  1.0000
  C   C1004     1.0  0.64146  0.43577  0.13360  1.0000
  C   C1005     1.0  0.63180  0.43177  0.11501  1.0000
  H   H1190     1.0  0.58756  0.43639  0.13454  1.0000
  H   H1191     1.0  0.73803  0.04417  0.19406  1.0000
  H   H1192     1.0  0.65643  0.43569  0.13315  1.0000
  H   H1193     1.0  0.63945  0.42850  0.10039  1.0000
  H   H1194     1.0  0.75847  0.14218  0.09278  1.0000
  H   H1195     1.0  0.74517  0.07777  0.23418  1.0000
  C   C1006     1.0  0.60193  0.06858  0.14683  1.0000
  H   H1196     1.0  0.66116  0.07443  0.17373  1.0000
  C   C1007     1.0  0.70107  0.08837  0.19849  1.0000
  S   S282      1.0  0.52650  0.44223  0.03068  1.0000
  C   C1008     1.0  0.54560  0.29817  0.15129  1.0000
  C   C1009     1.0  0.54237  0.32064  0.13787  1.0000
  H   H1197     1.0  0.55387  0.30059  0.16506  1.0000
  H   H1198     1.0  0.54816  0.33996  0.14140  1.0000
  H   H1199     1.0  0.67865  0.02569  0.13318  1.0000
  S   S283      1.0  0.51343  0.98516  0.13903  1.0000
  H   H1200     1.0  0.53879  0.45513  0.24537  1.0000
  C   C1010     1.0  0.52710  0.27029  0.12956  1.0000
  C   C1011     1.0  0.73407  0.03744  0.21018  1.0000
  H   H1201     1.0  0.60848  0.03701  0.11310  1.0000
  H   H1202     1.0  0.51632  0.45163  0.31397  1.0000
  H   H1203     1.0  0.62857  0.09632  0.13226  1.0000
  C   C1012     1.0  0.51298  0.46750  0.01726  1.0000
  H   H1204     1.0  0.72277  0.98234  0.07124  1.0000
  H   H1205     1.0  0.75226  0.47101  0.23190  1.0000
  H   H1206     1.0  0.51469  0.29078  0.10305  1.0000
  C   C1013     1.0  0.74156  0.99500  0.27849  1.0000
  H   H1207     1.0  0.74645  0.11698  0.07882  1.0000
  H   H1208     1.0  0.53934  0.02332  0.15578  1.0000
  S   S284      1.0  0.52478  0.34661  0.10415  1.0000
  C   C1014     1.0  0.75593  0.08989  0.01005  1.0000
  H   H1209     1.0  0.73867  0.09028  0.20900  1.0000
  C   C1015     1.0  0.74523  0.97499  0.01468  1.0000
  C   C1016     1.0  0.51542  0.07778  0.13554  1.0000
  C   C1017     1.0  0.53002  0.47095  0.25231  1.0000
  H   H1210     1.0  0.71002  0.10542  0.19962  1.0000
  N   N64       1.0  0.65530  0.34970  0.15389  1.0000
  C   C1018     1.0  0.66571  0.32586  0.16241  1.0000
  C   C1019     1.0  0.66827  0.36564  0.14077  1.0000
  C   C1020     1.0  0.64895  0.36637  0.17212  1.0000
  C   C1021     1.0  0.63952  0.34221  0.14081  1.0000
  C   C1022     1.0  0.62555  0.36167  0.13544  1.0000
  C   C1023     1.0  0.63846  0.31632  0.13145  1.0000
  C   C1024     1.0  0.61115  0.35541  0.12214  1.0000
  C   C1025     1.0  0.62395  0.31021  0.11821  1.0000
  C   C1026     1.0  0.61028  0.32969  0.11363  1.0000
  H   H1211     1.0  0.67356  0.31452  0.14991  1.0000
  H   H1212     1.0  0.67651  0.33190  0.17360  1.0000
  H   H1213     1.0  0.65631  0.31194  0.17098  1.0000
  H   H1214     1.0  0.66156  0.38457  0.13480  1.0000
  H   H1215     1.0  0.67342  0.35397  0.12686  1.0000
  H   H1216     1.0  0.68060  0.37142  0.14978  1.0000
  H   H1217     1.0  0.63771  0.35640  0.18129  1.0000
  H   H1218     1.0  0.66051  0.37024  0.18296  1.0000
  H   H1219     1.0  0.64384  0.38684  0.16746  1.0000
  H   H1220     1.0  0.62587  0.38219  0.14092  1.0000
  H   H1221     1.0  0.64897  0.30066  0.13365  1.0000
  H   H1222     1.0  0.60088  0.37090  0.11794  1.0000
  H   H1223     1.0  0.62361  0.29047  0.11102  1.0000
  N   N65       1.0  0.60089  0.23594  0.15203  1.0000
  C   C1027     1.0  0.59758  0.22010  0.17157  1.0000
  C   C1028     1.0  0.59370  0.26398  0.15527  1.0000
  C   C1029     1.0  0.58974  0.22387  0.13535  1.0000
  C   C1030     1.0  0.62106  0.23630  0.14696  1.0000
  C   C1031     1.0  0.63352  0.24725  0.16140  1.0000
  C   C1032     1.0  0.62892  0.22627  0.12779  1.0000
  C   C1033     1.0  0.65257  0.24833  0.15684  1.0000
  C   C1034     1.0  0.64798  0.22764  0.12336  1.0000
  C   C1035     1.0  0.65975  0.23872  0.13779  1.0000
  H   H1224     1.0  0.60367  0.22936  0.18553  1.0000
  H   H1225     1.0  0.58245  0.21823  0.17523  1.0000
  H   H1226     1.0  0.60364  0.19927  0.17015  1.0000
  H   H1227     1.0  0.59591  0.27662  0.14097  1.0000
  H   H1228     1.0  0.60029  0.27401  0.16859  1.0000
  H   H1229     1.0  0.57854  0.26443  0.15896  1.0000
  H   H1230     1.0  0.59390  0.20236  0.13268  1.0000
  H   H1231     1.0  0.57464  0.22405  0.13965  1.0000
  H   H1232     1.0  0.59103  0.23522  0.12027  1.0000
  H   H1233     1.0  0.62861  0.25483  0.17642  1.0000
  H   H1234     1.0  0.62077  0.21678  0.11604  1.0000
  H   H1235     1.0  0.66193  0.25638  0.16817  1.0000
  H   H1236     1.0  0.65373  0.21955  0.10874  1.0000
  H   H1237     1.0  0.67453  0.23949  0.13430  1.0000
  N   N66       1.0  0.72186  0.05781  0.22092  1.0000
  C   C1036     1.0  0.73297  0.08224  0.22413  1.0000
  C   C1037     1.0  0.71651  0.04717  0.24200  1.0000
  C   C1038     1.0  0.75014  0.98305  0.23629  1.0000
  C   C1039     1.0  0.70509  0.06301  0.20832  1.0000
  C   C1040     1.0  0.69249  0.04200  0.20490  1.0000
  C   C1041     1.0  0.73298  0.00319  0.04371  1.0000
  H   H1238     1.0  0.73276  0.19187  0.99911  1.0000
  H   H1239     1.0  0.69484  0.02198  0.21144  1.0000
  C   C1042     1.0  0.51282  0.10006  0.25082  1.0000
  H   H1240     1.0  0.52085  0.38332  0.14100  1.0000
  H   H1241     1.0  0.52158  0.10787  0.30570  1.0000
  H   H1242     1.0  0.72456  0.09846  0.23213  1.0000
  H   H1243     1.0  0.70658  0.06127  0.25025  1.0000
  H   H1244     1.0  0.60454  0.44336  0.16735  1.0000
  H   H1245     1.0  0.72998  0.02306  0.05020  1.0000
  C   C1043     1.0  0.75328  0.13867  0.01373  1.0000
  H   H1246     1.0  0.52382  0.09576  0.23940  1.0000
  H   H1247     1.0  0.64712  0.01290  0.14295  1.0000
  H   H1248     1.0  0.66001  0.10733  0.12203  1.0000
  S   S285      1.0  0.51563  0.42425  0.09235  1.0000
  H   H1249     1.0  0.75364  0.97852  0.22009  1.0000
  H   H1250     1.0  0.58784  0.06205  0.15193  1.0000
  H   H1251     1.0  0.62310  0.01134  0.16509  1.0000
  H   H1252     1.0  0.60008  0.07921  0.13152  1.0000
  H   H1253     1.0  0.60638  0.08352  0.15859  1.0000
  C   C1044     1.0  0.61525  0.03097  0.16560  1.0000
  H   H1254     1.0  0.60091  0.02593  0.17090  1.0000
  H   H1255     1.0  0.72880  0.04398  0.25215  1.0000
  H   H1256     1.0  0.59438  0.02001  0.13254  1.0000
  H   H1257     1.0  0.54761  0.03563  0.00499  1.0000
  H   H1258     1.0  0.66747  0.02972  0.19017  1.0000
  C   C1045     1.0  0.53116  0.31825  0.12036  1.0000
  H   H1259     1.0  0.62138  0.04349  0.17795  1.0000
  C   C1046     1.0  0.65700  0.08685  0.12704  1.0000
  H   H1260     1.0  0.52237  0.40106  0.16528  1.0000
  S   S286      1.0  0.55201  0.46286  0.08420  1.0000
  H   H1261     1.0  0.51347  0.99453  0.03828  1.0000
  C   C1047     1.0  0.52925  0.03452  0.14660  1.0000
  S   S287      1.0  0.51321  0.11356  0.13621  1.0000
  C   C1048     1.0  0.64938  0.03386  0.13897  1.0000
  H   H1262     1.0  0.68289  0.11152  0.17833  1.0000
  S   S288      1.0  0.51113  0.15264  0.23423  1.0000
  C   C1049     1.0  0.74117  0.00066  0.02368  1.0000
  S   S289      1.0  0.51390  0.17339  0.17596  1.0000
  H   H1263     1.0  0.75759  0.15850  0.00879  1.0000
  H   H1264     1.0  0.61769  0.00850  0.12715  1.0000
  C   C1050     1.0  0.63452  0.05337  0.13924  1.0000
  C   C1051     1.0  0.60868  0.02696  0.12880  1.0000
  C   C1052     1.0  0.73253  0.97700  0.24444  1.0000
  H   H1265     1.0  0.70990  0.02717  0.24128  1.0000
  C   C1053     1.0  0.68543  0.09222  0.18610  1.0000
  C   C1054     1.0  0.51600  0.02046  0.13543  1.0000
  H   H1266     1.0  0.51214  0.14108  0.30366  1.0000
  C   C1055     1.0  0.67125  0.06733  0.12729  1.0000
  H   H1267     1.0  0.72728  0.01763  0.20879  1.0000
  S   S290      1.0  0.71187  0.46738  0.23991  1.0000
  H   H1268     1.0  0.52108  0.25107  0.12621  1.0000
  S   S291      1.0  0.69510  0.98227  0.17313  1.0000
  H   H1269     1.0  0.53581  0.13572  0.31205  1.0000
  C   C1056     1.0  0.72847  0.98266  0.26571  1.0000
  H   H1270     1.0  0.52209  0.44631  0.27807  1.0000
  C   C1057     1.0  0.72892  0.98029  0.05558  1.0000
  C   C1058     1.0  0.51442  0.39993  0.15056  1.0000
  H   H1271     1.0  0.74716  0.03369  0.21878  1.0000
  C   C1059     1.0  0.52030  0.46617  0.27120  1.0000
  C   C1060     1.0  0.75740  0.12005  0.09053  1.0000
  C   C1061     1.0  0.75895  0.00193  0.27014  1.0000
  H   H1272     1.0  0.71497  0.97789  0.27231  1.0000
  H   H1273     1.0  0.50974  0.35876  0.02132  1.0000
  S   S292      1.0  0.54371  0.43265  0.64394  1.0000
  C   C1062     1.0  0.52822  0.07297  0.64114  1.0000
  S   S293      1.0  0.51699  0.23675  0.65285  1.0000
  C   C1063     1.0  0.53476  0.30754  0.62769  1.0000
  Fe  Fe145     1.0  0.56319  0.18079  0.60955  1.0000
  S   S294      1.0  0.54759  0.17127  0.63946  1.0000
  S   S295      1.0  0.59469  0.17712  0.60755  1.0000
  Fe  Fe146     1.0  0.52730  0.18828  0.58367  1.0000
  Fe  Fe147     1.0  0.52868  0.20583  0.62939  1.0000
  H   H1274     1.0  0.68867  0.38449  0.43625  1.0000
  Fe  Fe148     1.0  0.53037  0.14479  0.61947  1.0000
  H   H1275     1.0  0.54329  0.31385  0.61443  1.0000
  S   S296      1.0  0.54545  0.21707  0.60050  1.0000
  S   S297      1.0  0.54689  0.15289  0.58987  1.0000
  H   H1276     1.0  0.58557  0.19361  0.65054  1.0000
  C   C1064     1.0  0.64421  0.01541  0.64569  1.0000
  C   C1065     1.0  0.60512  0.98044  0.62597  1.0000
  S   S298      1.0  0.71806  0.24888  0.64272  1.0000
  H   H1277     1.0  0.64341  0.29745  0.60329  1.0000
  H   H1278     1.0  0.62756  0.26907  0.64688  1.0000
  C   C1066     1.0  0.52596  0.32708  0.64051  1.0000
  Fe  Fe149     1.0  0.67562  0.42772  0.60074  1.0000
  S   S299      1.0  0.68807  0.43934  0.63107  1.0000
  S   S300      1.0  0.64444  0.42841  0.59685  1.0000
  Fe  Fe150     1.0  0.71363  0.41891  0.57818  1.0000
  S   S301      1.0  0.72861  0.43023  0.60743  1.0000
  S   S302      1.0  0.73109  0.41456  0.54765  1.0000
  Fe  Fe151     1.0  0.70786  0.40421  0.62454  1.0000
  H   H1279     1.0  0.66009  0.97744  0.62189  1.0000
  S   S303      1.0  0.51224  0.19250  0.55219  1.0000
  S   S304      1.0  0.69455  0.00317  0.62184  1.0000
  S   S305      1.0  0.69410  0.39081  0.59523  1.0000
  S   S306      1.0  0.69372  0.45470  0.58112  1.0000
  C   C1067     1.0  0.66760  0.25353  0.61984  1.0000
  C   C1068     1.0  0.72701  0.42889  0.47575  1.0000
  C   C1069     1.0  0.66519  0.31400  0.64831  1.0000
  Fe  Fe152     1.0  0.70740  0.46437  0.61140  1.0000
  C   C1070     1.0  0.57659  0.99151  0.64519  1.0000
  H   H1280     1.0  0.52701  0.08615  0.33705  1.0000
  H   H1281     1.0  0.69885  0.08821  0.59119  1.0000
  S   S307      1.0  0.72220  0.11292  0.66287  1.0000
  H   H1282     1.0  0.74618  0.36394  0.42713  1.0000
  C   C1071     1.0  0.52635  0.10529  0.34616  1.0000
  C   C1072     1.0  0.74604  0.34386  0.50289  1.0000
  C   C1073     1.0  0.74917  0.39045  0.51388  1.0000
  C   C1074     1.0  0.73633  0.38690  0.53063  1.0000
  C   C1075     1.0  0.72828  0.36168  0.53333  1.0000
  C   C1076     1.0  0.73193  0.45025  0.46258  1.0000
  C   C1077     1.0  0.73316  0.34032  0.51957  1.0000
  H   H1283     1.0  0.57192  0.09825  0.59668  1.0000
  H   H1284     1.0  0.71840  0.35858  0.54611  1.0000
  H   H1285     1.0  0.65829  0.37526  0.62457  1.0000
  C   C1078     1.0  0.71391  0.34137  0.64948  1.0000
  C   C1079     1.0  0.53261  0.27991  0.63182  1.0000
  H   H1286     1.0  0.58670  0.04897  0.62156  1.0000
  C   C1080     1.0  0.71536  0.28438  0.64575  1.0000
  C   C1081     1.0  0.71775  0.30112  0.62805  1.0000
  C   C1082     1.0  0.71678  0.32945  0.62983  1.0000
  H   H1287     1.0  0.72051  0.29214  0.61283  1.0000
  H   H1288     1.0  0.71876  0.34205  0.61605  1.0000
  H   H1289     1.0  0.52058  0.09947  0.36183  1.0000
  C   C1083     1.0  0.69579  0.08028  0.64462  1.0000
  C   C1084     1.0  0.69021  0.05595  0.63543  1.0000
  C   C1085     1.0  0.70214  0.03288  0.63466  1.0000
  H   H1290     1.0  0.57362  0.06002  0.64454  1.0000
  H   H1291     1.0  0.56155  0.99147  0.64640  1.0000
  H   H1292     1.0  0.64060  0.02330  0.66154  1.0000
  H   H1293     1.0  0.67668  0.05523  0.62852  1.0000
  H   H1294     1.0  0.56402  0.06481  0.61964  1.0000
  C   C1086     1.0  0.60830  0.18145  0.62995  1.0000
  C   C1087     1.0  0.62758  0.17664  0.62837  1.0000
  C   C1088     1.0  0.63886  0.17997  0.64585  1.0000
  C   C1089     1.0  0.62010  0.10515  0.62524  1.0000
  H   H1295     1.0  0.63087  0.26155  0.61947  1.0000
  C   C1090     1.0  0.60037  0.18967  0.64916  1.0000
  H   H1296     1.0  0.63381  0.17028  0.61356  1.0000
  H   H1297     1.0  0.65363  0.17604  0.64442  1.0000
  C   C1091     1.0  0.71971  0.03448  0.64342  1.0000
  H   H1298     1.0  0.69541  0.35835  0.41790  1.0000
  C   C1092     1.0  0.59881  0.42519  0.63545  1.0000
  C   C1093     1.0  0.61114  0.42257  0.61807  1.0000
  C   C1094     1.0  0.62953  0.43104  0.61922  1.0000
  C   C1095     1.0  0.63544  0.44244  0.63784  1.0000
  C   C1096     1.0  0.74789  0.05529  0.59655  1.0000
  H   H1299     1.0  0.58473  0.41836  0.63444  1.0000
  H   H1300     1.0  0.60643  0.41373  0.60373  1.0000
  C   C1097     1.0  0.64007  0.09372  0.65425  1.0000
  C   C1098     1.0  0.64465  0.97832  0.62186  1.0000
  H   H1301     1.0  0.72766  0.42085  0.41539  1.0000
  H   H1302     1.0  0.57306  0.10711  0.65452  1.0000
  C   C1099     1.0  0.63674  0.25822  0.63526  1.0000
  H   H1303     1.0  0.57765  0.97340  0.61473  1.0000
  H   H1304     1.0  0.74821  0.97430  0.59006  1.0000
  C   C1100     1.0  0.58571  0.98131  0.62736  1.0000
  H   H1305     1.0  0.70069  0.39276  0.41216  1.0000
  H   H1306     1.0  0.51594  0.25178  0.54885  1.0000
  C   C1101     1.0  0.65796  0.35356  0.62707  1.0000
  C   C1102     1.0  0.71264  0.07910  0.59232  1.0000
  C   C1103     1.0  0.62306  0.44546  0.65508  1.0000
  H   H1307     1.0  0.61875  0.11620  0.61064  1.0000
  H   H1308     1.0  0.63556  0.23621  0.63856  1.0000
  C   C1104     1.0  0.60469  0.43692  0.65396  1.0000
  C   C1105     1.0  0.66566  0.34195  0.64495  1.0000
  C   C1106     1.0  0.69985  0.37751  0.42506  1.0000
  H   H1309     1.0  0.75767  0.00229  0.60303  1.0000
  H   H1310     1.0  0.64060  0.99158  0.60847  1.0000
  C   C1107     1.0  0.72745  0.42221  0.43232  1.0000
  C   C1108     1.0  0.60497  0.09157  0.63493  1.0000
  C   C1109     1.0  0.72280  0.39976  0.44527  1.0000
  H   H1311     1.0  0.64944  0.44931  0.63893  1.0000
  H   H1312     1.0  0.64862  0.11691  0.62729  1.0000
  N   N67       1.0  0.71778  0.37382  0.43577  1.0000
  C   C1110     1.0  0.71589  0.35146  0.45132  1.0000
  C   C1111     1.0  0.72812  0.46298  0.65658  1.0000
  C   C1112     1.0  0.58680  0.00096  0.66174  1.0000
  C   C1113     1.0  0.75394  0.36916  0.50002  1.0000
  H   H1313     1.0  0.51070  0.17855  0.39645  1.0000
  H   H1314     1.0  0.73602  0.46352  0.43060  1.0000
  N   N68       1.0  0.58616  0.09211  0.62598  1.0000
  H   H1315     1.0  0.75558  0.40980  0.51170  1.0000
  H   H1316     1.0  0.72675  0.43157  0.49266  1.0000
  H   H1317     1.0  0.63908  0.03036  0.63388  1.0000
  S   S308      1.0  0.52781  0.36143  0.63340  1.0000
  N   N69       1.0  0.51488  0.12656  0.33562  1.0000
  C   C1114     1.0  0.52128  0.27143  0.64855  1.0000
  H   H1318     1.0  0.71320  0.33183  0.44369  1.0000
  C   C1115     1.0  0.73418  0.04047  0.58627  1.0000
  H   H1319     1.0  0.71900  0.38831  0.47854  1.0000
  N   N70       1.0  0.73869  0.01305  0.57816  1.0000
  C   C1116     1.0  0.61601  0.98991  0.64260  1.0000
  H   H1320     1.0  0.72100  0.97598  0.43156  1.0000
  H   H1321     1.0  0.72696  0.32083  0.52196  1.0000
  H   H1322     1.0  0.66220  0.23509  0.65894  1.0000
  C   C1117     1.0  0.51578  0.15262  0.34675  1.0000
  C   C1118     1.0  0.58605  0.09967  0.60334  1.0000
  H   H1323     1.0  0.68661  0.09791  0.64470  1.0000
  H   H1324     1.0  0.59567  0.08640  0.59392  1.0000
  C   C1119     1.0  0.73210  0.44694  0.44090  1.0000
  H   H1325     1.0  0.67223  0.35473  0.65620  1.0000
  C   C1120     1.0  0.51309  0.17822  0.37959  1.0000
  C   C1121     1.0  0.52450  0.04640  0.63513  1.0000
  H   H1326     1.0  0.58981  0.12109  0.60063  1.0000
  C   C1122     1.0  0.71353  0.08205  0.65297  1.0000
  H   H1327     1.0  0.72907  0.01706  0.64315  1.0000
  C   C1123     1.0  0.74391  0.08097  0.60471  1.0000
  C   C1124     1.0  0.66336  0.25739  0.65705  1.0000
  C   C1125     1.0  0.73219  0.36506  0.42007  1.0000
  H   H1328     1.0  0.70413  0.35520  0.46262  1.0000
  C   C1126     1.0  0.72253  0.40396  0.46734  1.0000
  C   C1127     1.0  0.63739  0.10592  0.63475  1.0000
  S   S309      1.0  0.75202  0.31584  0.48650  1.0000
  Fe  Fe153     1.0  0.52159  0.45694  0.66124  1.0000
  S   S310      1.0  0.52330  0.09998  0.62328  1.0000
  H   H1329     1.0  0.53965  0.26528  0.62188  1.0000
  N   N71       1.0  0.65622  0.26706  0.63655  1.0000
  C   C1128     1.0  0.71638  0.05326  0.58431  1.0000
  C   C1129     1.0  0.64954  0.30925  0.61537  1.0000
  C   C1130     1.0  0.57456  0.11231  0.63757  1.0000
  C   C1131     1.0  0.65696  0.29675  0.63362  1.0000
  H   H1330     1.0  0.73302  0.37873  0.40620  1.0000
  S   S311      1.0  0.75593  0.29965  0.42609  1.0000
  H   H1331     1.0  0.68227  0.26018  0.62005  1.0000
  H   H1332     1.0  0.52456  0.00406  0.64393  1.0000
  C   C1132     1.0  0.72276  0.99996  0.56834  1.0000
  C   C1133     1.0  0.52779  0.02425  0.64876  1.0000
  H   H1333     1.0  0.72944  0.34484  0.41351  1.0000
  H   H1334     1.0  0.58074  0.13269  0.63646  1.0000
  H   H1335     1.0  0.65968  0.01489  0.64457  1.0000
  C   C1134     1.0  0.51780  0.17771  0.33599  1.0000
  H   H1336     1.0  0.64414  0.34645  0.59830  1.0000
  C   C1135     1.0  0.51315  0.15372  0.36888  1.0000
  H   H1337     1.0  0.54081  0.11203  0.34819  1.0000
  C   C1136     1.0  0.74493  0.99519  0.59558  1.0000
  C   C1137     1.0  0.72537  0.05891  0.65233  1.0000
  H   H1338     1.0  0.66789  0.23114  0.62186  1.0000
  H   H1339     1.0  0.71094  0.99779  0.57974  1.0000
  H   H1340     1.0  0.72315  0.11239  0.60957  1.0000
  H   H1341     1.0  0.72887  0.34836  0.46028  1.0000
  H   H1342     1.0  0.71781  0.01156  0.55443  1.0000
  N   N72       1.0  0.63658  0.98834  0.64209  1.0000
  C   C1138     1.0  0.64997  0.33725  0.61227  1.0000
  C   C1139     1.0  0.57742  0.06530  0.62806  1.0000
  S   S312      1.0  0.71410  0.37694  0.65252  1.0000
  C   C1140     1.0  0.53551  0.07710  0.66099  1.0000
  H   H1343     1.0  0.66228  0.25795  0.60392  1.0000
  H   H1344     1.0  0.70493  0.04350  0.57715  1.0000
  S   S313      1.0  0.69164  0.18299  0.65531  1.0000
  C   C1141     1.0  0.60814  0.07963  0.65494  1.0000
  H   H1345     1.0  0.72693  0.44090  0.65380  1.0000
  H   H1346     1.0  0.56034  0.11401  0.63118  1.0000
  H   H1347     1.0  0.73395  0.99398  0.60813  1.0000
  H   H1348     1.0  0.75434  0.09155  0.61319  1.0000
  C   C1142     1.0  0.72632  0.09283  0.60262  1.0000
  C   C1143     1.0  0.60622  0.00020  0.66054  1.0000
  H   H1349     1.0  0.51880  0.04295  0.61984  1.0000
  Fe  Fe154     1.0  0.52964  0.39575  0.65654  1.0000
  H   H1350     1.0  0.67835  0.26162  0.65859  1.0000
  H   H1351     1.0  0.50960  0.37039  0.56125  1.0000
  C   C1144     1.0  0.51501  0.20241  0.36859  1.0000
  H   H1352     1.0  0.75714  0.99436  0.55504  1.0000
  H   H1353     1.0  0.51850  0.22114  0.33837  1.0000
  H   H1354     1.0  0.73562  0.46939  0.46921  1.0000
  H   H1355     1.0  0.51408  0.22145  0.37691  1.0000
  H   H1356     1.0  0.73913  0.05998  0.65867  1.0000
  C   C1145     1.0  0.51477  0.31873  0.65747  1.0000
  C   C1146     1.0  0.51738  0.20217  0.34686  1.0000
  S   S314      1.0  0.50967  0.17853  0.61227  1.0000
  H   H1357     1.0  0.65336  0.09510  0.66181  1.0000
  H   H1358     1.0  0.74996  0.02862  0.54912  1.0000
  C   C1147     1.0  0.51247  0.29097  0.66150  1.0000
  H   H1359     1.0  0.51032  0.13581  0.37811  1.0000
  H   H1360     1.0  0.73689  0.47089  0.64346  1.0000
  C   C1148     1.0  0.75386  0.01451  0.56209  1.0000
  H   H1361     1.0  0.72650  0.97916  0.56277  1.0000
  H   H1362     1.0  0.75725  0.32937  0.56135  1.0000
  H   H1363     1.0  0.72653  0.97268  0.39331  1.0000
  H   H1364     1.0  0.67150  0.30643  0.66245  1.0000
  Fe  Fe155     1.0  0.52381  0.41905  0.70016  1.0000
  Fe  Fe156     1.0  0.55899  0.43218  0.67399  1.0000
  H   H1365     1.0  0.75235  0.27571  0.66499  1.0000
  C   C1149     1.0  0.63098  0.18845  0.66503  1.0000
  S   S315      1.0  0.54686  0.39336  0.68544  1.0000
  H   H1366     1.0  0.60548  0.19981  0.68136  1.0000
  H   H1367     1.0  0.72499  0.38109  0.81694  1.0000
  H   H1368     1.0  0.70978  0.45980  0.69333  1.0000
  Fe  Fe157     1.0  0.71202  0.19456  0.71121  1.0000
  S   S316      1.0  0.72951  0.18703  0.68188  1.0000
  S   S317      1.0  0.72701  0.19791  0.74279  1.0000
  Fe  Fe158     1.0  0.67622  0.19016  0.68579  1.0000
  S   S318      1.0  0.64473  0.19425  0.68713  1.0000
  H   H1369     1.0  0.74407  0.20496  0.94262  1.0000
  S   S319      1.0  0.69335  0.15974  0.70416  1.0000
  S   S320      1.0  0.69315  0.22540  0.69568  1.0000
  H   H1370     1.0  0.51266  0.02031  0.72019  1.0000
  S   S321      1.0  0.58941  0.44244  0.67566  1.0000
  H   H1371     1.0  0.52371  0.35990  0.71400  1.0000
  C   C1150     1.0  0.51779  0.08656  0.97132  1.0000
  C   C1151     1.0  0.72954  0.20991  0.94783  1.0000
  H   H1372     1.0  0.70896  0.33370  0.68245  1.0000
  C   C1152     1.0  0.61169  0.19321  0.66660  1.0000
  C   C1153     1.0  0.74446  0.99040  0.97818  1.0000
  N   N73       1.0  0.73289  0.36846  0.84817  1.0000
  H   H1373     1.0  0.71543  0.15409  0.99533  1.0000
  H   H1374     1.0  0.55429  0.25724  0.67482  1.0000
  H   H1375     1.0  0.62770  0.45450  0.66936  1.0000
  C   C1154     1.0  0.54808  0.28910  0.69695  1.0000
  C   C1155     1.0  0.74680  0.26128  0.79035  1.0000
  C   C1156     1.0  0.53934  0.27453  0.73212  1.0000
  H   H1376     1.0  0.52639  0.37245  0.98944  1.0000
  C   C1157     1.0  0.72458  0.16443  0.96339  1.0000
  H   H1377     1.0  0.72484  0.43097  0.68954  1.0000
  C   C1158     1.0  0.54185  0.24760  0.72593  1.0000
  N   N74       1.0  0.53992  0.32492  0.72360  1.0000
  H   H1378     1.0  0.53248  0.98201  0.73164  1.0000
  C   C1159     1.0  0.73382  0.22295  0.76111  1.0000
  C   C1160     1.0  0.73003  0.25063  0.75828  1.0000
  C   C1161     1.0  0.73656  0.26958  0.77270  1.0000
  H   H1379     1.0  0.73285  0.43542  0.90013  1.0000
  C   C1162     1.0  0.73588  0.39612  0.85591  1.0000
  H   H1380     1.0  0.72209  0.25746  0.74499  1.0000
  H   H1381     1.0  0.73369  0.29088  0.77013  1.0000
  H   H1382     1.0  0.75655  0.36738  0.82648  1.0000
  H   H1383     1.0  0.73503  0.34716  0.87775  1.0000
  H   H1384     1.0  0.55067  0.30437  0.68508  1.0000
  H   H1385     1.0  0.54394  0.05847  0.69017  1.0000
  H   H1386     1.0  0.54289  0.32047  0.75715  1.0000
  H   H1387     1.0  0.71733  0.10535  0.99066  1.0000
  H   H1388     1.0  0.53135  0.35097  0.74929  1.0000
  C   C1163     1.0  0.51952  0.05874  0.96626  1.0000
  C   C1164     1.0  0.53302  0.32906  0.74553  1.0000
  H   H1389     1.0  0.74936  0.33509  0.83538  1.0000
  H   H1390     1.0  0.73205  0.26968  0.70840  1.0000
  H   H1391     1.0  0.73808  0.23458  0.71092  1.0000
  N   N75       1.0  0.73573  0.46850  0.67747  1.0000
  H   H1392     1.0  0.72321  0.32931  0.85816  1.0000
  S   S322      1.0  0.53827  0.00148  0.68709  1.0000
  C   C1165     1.0  0.52772  0.09529  0.98897  1.0000
  C   C1166     1.0  0.73205  0.40391  0.87703  1.0000
  N   N76       1.0  0.72408  0.19402  0.96677  1.0000
  C   C1167     1.0  0.75079  0.35647  0.84034  1.0000
  C   C1168     1.0  0.73111  0.12439  0.94162  1.0000
  H   H1393     1.0  0.52701  0.10925  0.93477  1.0000
  C   C1169     1.0  0.55033  0.26213  0.69091  1.0000
  C   C1170     1.0  0.74389  0.21466  0.77886  1.0000
  C   C1171     1.0  0.62546  0.08068  0.66435  1.0000
  C   C1172     1.0  0.52636  0.33845  0.70956  1.0000
  H   H1394     1.0  0.56329  0.33855  0.70473  1.0000
  H   H1395     1.0  0.73162  0.24790  0.68596  1.0000
  C   C1173     1.0  0.73933  0.25244  0.70036  1.0000
  H   H1396     1.0  0.53493  0.27784  0.74821  1.0000
  C   C1174     1.0  0.71174  0.29629  0.66531  1.0000
  H   H1397     1.0  0.73390  0.16427  0.93024  1.0000
  C   C1175     1.0  0.73533  0.43011  0.88381  1.0000
  S   S323      1.0  0.53762  0.45828  0.69103  1.0000
  H   H1398     1.0  0.53826  0.09740  0.66597  1.0000
  C   C1176     1.0  0.72068  0.11854  0.97751  1.0000
  C   C1177     1.0  0.72532  0.34988  0.86449  1.0000
  H   H1399     1.0  0.51595  0.39502  0.97069  1.0000
  H   H1400     1.0  0.74590  0.01228  0.98131  1.0000
  C   C1178     1.0  0.53865  0.05496  0.67471  1.0000
  H   H1401     1.0  0.72905  0.23205  0.95080  1.0000
  H   H1402     1.0  0.53141  0.99116  0.75889  1.0000
  H   H1403     1.0  0.70944  0.28377  0.67903  1.0000
  H   H1404     1.0  0.51982  0.14192  0.96456  1.0000
  C   C1179     1.0  0.51293  0.46745  0.99514  1.0000
  H   H1405     1.0  0.52729  0.11601  0.99409  1.0000
  H   H1406     1.0  0.69474  0.19717  0.96148  1.0000
  H   H1407     1.0  0.74588  0.46911  0.87556  1.0000
  H   H1408     1.0  0.53943  0.23138  0.73711  1.0000
  H   H1409     1.0  0.72940  0.98604  0.97803  1.0000
  Fe  Fe159     1.0  0.70965  0.21632  0.66625  1.0000
  H   H1410     1.0  0.70615  0.37911  0.83580  1.0000
  C   C1180     1.0  0.73008  0.15247  0.94392  1.0000
  H   H1411     1.0  0.71162  0.35732  0.87082  1.0000
  C   C1181     1.0  0.54237  0.29617  0.71772  1.0000
  H   H1412     1.0  0.75806  0.22671  0.80682  1.0000
  H   H1413     1.0  0.75084  0.29916  0.68586  1.0000
  H   H1414     1.0  0.56872  0.32851  0.73107  1.0000
  H   H1415     1.0  0.63904  0.97697  0.67484  1.0000
  H   H1416     1.0  0.51011  0.08447  0.92906  1.0000
  C   C1182     1.0  0.72659  0.10747  0.95842  1.0000
  Fe  Fe160     1.0  0.70971  0.15409  0.67384  1.0000
  C   C1183     1.0  0.71966  0.14656  0.98002  1.0000
  C   C1184     1.0  0.55794  0.33855  0.72124  1.0000
  S   S324      1.0  0.51536  0.41129  0.73476  1.0000
  H   H1417     1.0  0.71682  0.34888  0.82484  1.0000
  H   H1418     1.0  0.72020  0.20642  0.93451  1.0000
  H   H1419     1.0  0.54883  0.22056  0.70045  1.0000
  H   H1420     1.0  0.72779  0.08573  0.95668  1.0000
  C   C1185     1.0  0.54720  0.24143  0.70534  1.0000
  H   H1421     1.0  0.73773  0.22283  0.98607  1.0000
  H   H1422     1.0  0.51206  0.05048  0.95336  1.0000
  H   H1423     1.0  0.51910  0.32024  0.74825  1.0000
  C   C1186     1.0  0.74319  0.41615  0.84218  1.0000
  C   C1187     1.0  0.72466  0.45299  0.69317  1.0000
  H   H1424     1.0  0.55671  0.36018  0.72599  1.0000
  H   H1425     1.0  0.72707  0.38997  0.88886  1.0000
  H   H1426     1.0  0.74687  0.19336  0.78137  1.0000
  H   H1427     1.0  0.65537  0.26659  0.67046  1.0000
  H   H1428     1.0  0.73569  0.11566  0.92674  1.0000
  H   H1429     1.0  0.53136  0.33907  0.69298  1.0000
  C   C1188     1.0  0.71964  0.36950  0.83069  1.0000
  C   C1189     1.0  0.74267  0.44915  0.86998  1.0000
  H   H1430     1.0  0.75266  0.45700  0.83866  1.0000
  C   C1190     1.0  0.51206  0.10442  0.93643  1.0000
  C   C1191     1.0  0.71137  0.32465  0.66721  1.0000
  H   H1431     1.0  0.75019  0.98749  0.96191  1.0000
  H   H1432     1.0  0.57953  0.00816  0.67581  1.0000
  S   S325      1.0  0.75539  0.28921  0.86953  1.0000
  H   H1433     1.0  0.70394  0.22542  0.97510  1.0000
  C   C1192     1.0  0.73701  0.20065  0.98365  1.0000
  H   H1434     1.0  0.74668  0.41166  0.82600  1.0000
  C   C1193     1.0  0.53018  0.04070  0.97827  1.0000
  H   H1435     1.0  0.70063  0.19430  0.98866  1.0000
  H   H1436     1.0  0.53065  0.01936  0.97449  1.0000
  H   H1437     1.0  0.62742  0.07211  0.67989  1.0000
  C   C1194     1.0  0.70502  0.20309  0.97326  1.0000
  C   C1195     1.0  0.74659  0.44221  0.84920  1.0000
  H   H1438     1.0  0.75134  0.19286  0.97986  1.0000
  H   H1439     1.0  0.51477  0.03170  0.74622  1.0000
  C   C1196     1.0  0.53472  0.02842  0.66874  1.0000
  H   H1440     1.0  0.73020  0.45481  0.70923  1.0000
  H   H1441     1.0  0.51282  0.32815  0.71010  1.0000
  C   C1197     1.0  0.52413  0.98017  0.74650  1.0000
  C   C1198     1.0  0.51651  0.38994  0.98769  1.0000
  H   H1442     1.0  0.61352  0.00699  0.67406  1.0000
  C   C1199     1.0  0.75516  0.45787  0.67792  1.0000
  C   C1200     1.0  0.75028  0.23358  0.79339  1.0000
  H   H1443     1.0  0.52180  0.45324  0.98662  1.0000
  S   S326      1.0  0.75528  0.28638  0.80760  1.0000
  C   C1201     1.0  0.75900  0.28127  0.67994  1.0000
  N   N77       1.0  0.75893  0.25854  0.69534  1.0000
  H   H1444     1.0  0.75593  0.43561  0.67546  1.0000
  H   H1445     1.0  0.59705  0.07036  0.66386  1.0000
  N   N78       1.0  0.75432  0.97286  0.99361  1.0000
  C   C1202     1.0  0.53960  0.04982  0.99554  1.0000
  H   H1446     1.0  0.52273  0.40736  0.99560  1.0000
  Fe  Fe161     1.0  0.52687  0.95527  0.11590  1.0000
  C   C1203     1.0  0.73881  0.87606  0.24803  1.0000
  C   C1204     1.0  0.74303  0.72103  0.00596  1.0000
  Fe  Fe162     1.0  0.53722  0.89451  0.10774  1.0000
  S   S327      1.0  0.55039  0.90589  0.07651  1.0000
  H   H1447     1.0  0.51637  0.53617  0.24357  1.0000
  Fe  Fe163     1.0  0.56289  0.94031  0.09356  1.0000
  S   S328      1.0  0.59346  0.94905  0.08902  1.0000
  Fe  Fe164     1.0  0.52581  0.93439  0.07127  1.0000
  S   S329      1.0  0.55099  0.92811  0.12481  1.0000
  Fe  Fe165     1.0  0.52834  0.69633  0.16370  1.0000
  S   S330      1.0  0.54503  0.69086  0.19286  1.0000
  Fe  Fe166     1.0  0.53113  0.63469  0.15508  1.0000
  S   S331      1.0  0.54780  0.62564  0.18372  1.0000
  C   C1205     1.0  0.54425  0.66880  0.08666  1.0000
  Fe  Fe167     1.0  0.52772  0.65438  0.20035  1.0000
  Fe  Fe168     1.0  0.56335  0.66255  0.17372  1.0000
  S   S332      1.0  0.59472  0.66142  0.17424  1.0000
  S   S333      1.0  0.54781  0.67013  0.14425  1.0000
  Fe  Fe169     1.0  0.67528  0.66912  0.09362  1.0000
  S   S334      1.0  0.68764  0.68428  0.12304  1.0000
  S   S335      1.0  0.64423  0.66461  0.09046  1.0000
  Fe  Fe170     1.0  0.71347  0.66286  0.07059  1.0000
  S   S336      1.0  0.72825  0.67710  0.09917  1.0000
  S   S337      1.0  0.72941  0.65892  0.03898  1.0000
  Fe  Fe171     1.0  0.70847  0.65004  0.11721  1.0000
  S   S338      1.0  0.71334  0.62075  0.14442  1.0000
  Fe  Fe172     1.0  0.70591  0.71009  0.10231  1.0000
  S   S339      1.0  0.71079  0.75635  0.10137  1.0000
  S   S340      1.0  0.69525  0.63402  0.08850  1.0000
  S   S341      1.0  0.69195  0.69666  0.07294  1.0000
  Fe  Fe173     1.0  0.71007  0.95273  0.19421  1.0000
  S   S342      1.0  0.72909  0.93615  0.16849  1.0000
  H   H1448     1.0  0.75676  0.54357  0.24011  1.0000
  Fe  Fe174     1.0  0.67565  0.94919  0.16611  1.0000
  S   S343      1.0  0.69205  0.93234  0.13867  1.0000
  S   S344      1.0  0.64467  0.95812  0.16825  1.0000
  Fe  Fe175     1.0  0.70693  0.90553  0.16209  1.0000
  S   S345      1.0  0.71119  0.85897  0.16336  1.0000
  Fe  Fe176     1.0  0.71256  0.96410  0.14711  1.0000
  H   H1449     1.0  0.52467  0.56972  0.16565  1.0000
  S   S346      1.0  0.68897  0.92079  0.18917  1.0000
  H   H1450     1.0  0.75347  0.88551  0.21001  1.0000
  C   C1206     1.0  0.52772  0.56946  0.13198  1.0000
  C   C1207     1.0  0.66266  0.59162  0.12251  1.0000
  H   H1451     1.0  0.73220  0.91922  0.24938  1.0000
  H   H1452     1.0  0.64540  0.56429  0.07871  1.0000
  S   S347      1.0  0.51165  0.92081  0.10156  1.0000
  H   H1453     1.0  0.51222  0.65098  0.06688  1.0000
  C   C1208     1.0  0.52536  0.52891  0.15365  1.0000
  C   C1209     1.0  0.74747  0.90687  0.27601  1.0000
  C   C1210     1.0  0.74889  0.47989  0.24700  1.0000
  H   H1454     1.0  0.58490  0.95522  0.13367  1.0000
  H   H1455     1.0  0.70720  0.90120  0.23300  1.0000
  C   C1211     1.0  0.71242  0.58537  0.14064  1.0000
  C   C1212     1.0  0.70891  0.56841  0.15801  1.0000
  C   C1213     1.0  0.71026  0.54011  0.15606  1.0000
  C   C1214     1.0  0.71525  0.52845  0.13677  1.0000
  C   C1215     1.0  0.71804  0.54538  0.11923  1.0000
  C   C1216     1.0  0.71654  0.57370  0.12112  1.0000
  H   H1456     1.0  0.70576  0.57726  0.17316  1.0000
  H   H1457     1.0  0.70825  0.52733  0.16965  1.0000
  H   H1458     1.0  0.72187  0.53658  0.10422  1.0000
  H   H1459     1.0  0.71938  0.58647  0.10764  1.0000
  C   C1217     1.0  0.70971  0.78454  0.11906  1.0000
  C   C1218     1.0  0.70959  0.78145  0.14094  1.0000
  C   C1219     1.0  0.70991  0.80437  0.15410  1.0000
  C   C1220     1.0  0.71006  0.83085  0.14575  1.0000
  C   C1221     1.0  0.70970  0.83399  0.12389  1.0000
  C   C1222     1.0  0.70971  0.81105  0.11072  1.0000
  H   H1460     1.0  0.70964  0.76136  0.14774  1.0000
  H   H1461     1.0  0.71014  0.80147  0.17092  1.0000
  H   H1462     1.0  0.70978  0.85406  0.11708  1.0000
  H   H1463     1.0  0.70978  0.81391  0.09388  1.0000
  C   C1223     1.0  0.74802  0.72907  0.05233  1.0000
  C   C1224     1.0  0.73970  0.58296  0.01532  1.0000
  C   C1225     1.0  0.73339  0.60421  0.02857  1.0000
  C   C1226     1.0  0.73850  0.63079  0.02426  1.0000
  H   H1464     1.0  0.60505  0.51021  0.08625  1.0000
  H   H1465     1.0  0.66119  0.49191  0.12008  1.0000
  H   H1466     1.0  0.72426  0.60007  0.04185  1.0000
  C   C1227     1.0  0.65663  0.58985  0.10198  1.0000
  C   C1228     1.0  0.60826  0.66405  0.15088  1.0000
  C   C1229     1.0  0.60014  0.66780  0.13129  1.0000
  C   C1230     1.0  0.61130  0.66787  0.11288  1.0000
  C   C1231     1.0  0.63067  0.66467  0.11391  1.0000
  C   C1232     1.0  0.63877  0.66097  0.13349  1.0000
  C   C1233     1.0  0.62762  0.66067  0.15187  1.0000
  H   H1467     1.0  0.58531  0.67054  0.13029  1.0000
  H   H1468     1.0  0.60501  0.67067  0.09777  1.0000
  H   H1469     1.0  0.65363  0.65807  0.13451  1.0000
  H   H1470     1.0  0.63403  0.65761  0.16693  1.0000
  C   C1234     1.0  0.72659  0.49105  0.27460  1.0000
  C   C1235     1.0  0.60753  0.95261  0.11110  1.0000
  C   C1236     1.0  0.59979  0.95479  0.13135  1.0000
  C   C1237     1.0  0.61137  0.95652  0.14871  1.0000
  C   C1238     1.0  0.63075  0.95599  0.14599  1.0000
  C   C1239     1.0  0.63853  0.95427  0.12573  1.0000
  C   C1240     1.0  0.62693  0.95267  0.10834  1.0000
  C   C1241     1.0  0.56636  0.70316  0.09444  1.0000
  C   C1242     1.0  0.74059  0.50286  0.28638  1.0000
  H   H1471     1.0  0.65345  0.95412  0.12343  1.0000
  H   H1472     1.0  0.73230  0.51010  0.21275  1.0000
  H   H1473     1.0  0.74591  0.83692  0.21761  1.0000
  N   N79       1.0  0.73693  0.74777  0.03893  1.0000
  H   H1474     1.0  0.75141  0.78819  0.01205  1.0000
  H   H1475     1.0  0.74328  0.73005  0.06912  1.0000
  C   C1243     1.0  0.56254  0.67760  0.08694  1.0000
  H   H1476     1.0  0.74685  0.70762  0.04773  1.0000
  C   C1244     1.0  0.54178  0.77346  0.14292  1.0000
  H   H1477     1.0  0.70851  0.75228  0.02947  1.0000
  C   C1245     1.0  0.52859  0.49607  0.24235  1.0000
  C   C1246     1.0  0.54792  0.79887  0.13560  1.0000
  S   S348      1.0  0.52733  0.60506  0.12860  1.0000
  H   H1478     1.0  0.62910  0.50174  0.12859  1.0000
  H   H1479     1.0  0.72978  0.93700  0.05677  1.0000
  N   N80       1.0  0.74426  0.54988  0.20991  1.0000
  H   H1480     1.0  0.65778  0.60708  0.09145  1.0000
  C   C1247     1.0  0.73820  0.88933  0.21134  1.0000
  C   C1248     1.0  0.73811  0.77524  0.04795  1.0000
  H   H1481     1.0  0.52170  0.71208  0.23482  1.0000
  C   C1249     1.0  0.75039  0.63562  0.00682  1.0000
  C   C1250     1.0  0.52601  0.55728  0.15180  1.0000
  C   C1251     1.0  0.51627  0.81401  0.13030  1.0000
  C   C1252     1.0  0.53358  0.71150  0.10150  1.0000
  H   H1482     1.0  0.66878  0.61015  0.12773  1.0000
  C   C1253     1.0  0.59746  0.51777  0.09998  1.0000
  H   H1483     1.0  0.67155  0.53156  0.16719  1.0000
  C   C1254     1.0  0.52674  0.51246  0.13577  1.0000
  H   H1484     1.0  0.73714  0.51209  0.30133  1.0000
  H   H1485     1.0  0.74839  0.83420  0.25399  1.0000
  H   H1486     1.0  0.67937  0.50598  0.13480  1.0000
  H   H1487     1.0  0.73230  0.88568  0.19564  1.0000
  C   C1255     1.0  0.66134  0.56949  0.13619  1.0000
  H   H1488     1.0  0.72621  0.58497  0.20632  1.0000
  H   H1489     1.0  0.71126  0.74311  0.05653  1.0000
  N   N81       1.0  0.65202  0.52094  0.14363  1.0000
  H   H1490     1.0  0.52834  0.73573  0.21494  1.0000
  C   C1256     1.0  0.65668  0.52641  0.16576  1.0000
  H   H1491     1.0  0.71538  0.71835  0.03676  1.0000
  C   C1257     1.0  0.65373  0.54480  0.12962  1.0000
  H   H1492     1.0  0.66672  0.57220  0.15168  1.0000
  C   C1258     1.0  0.64812  0.54351  0.10846  1.0000
  S   S349      1.0  0.51410  0.73631  0.15303  1.0000
  H   H1493     1.0  0.65462  0.50833  0.17603  1.0000
  C   C1259     1.0  0.52903  0.52465  0.11604  1.0000
  H   H1494     1.0  0.53069  0.56216  0.09875  1.0000
  H   H1495     1.0  0.73804  0.70307  0.01369  1.0000
  C   C1260     1.0  0.74776  0.85478  0.25944  1.0000
  C   C1261     1.0  0.63268  0.51120  0.14367  1.0000
  C   C1262     1.0  0.71719  0.74004  0.04040  1.0000
  H   H1496     1.0  0.52304  0.74725  0.24105  1.0000
  H   H1497     1.0  0.51081  0.65953  0.12455  1.0000
  H   H1498     1.0  0.63040  0.49533  0.15586  1.0000
  C   C1263     1.0  0.64952  0.56577  0.09490  1.0000
  H   H1499     1.0  0.55491  0.73977  0.10787  1.0000
  H   H1500     1.0  0.66466  0.48115  0.14656  1.0000
  C   C1264     1.0  0.75142  0.58780  0.99776  1.0000
  H   H1501     1.0  0.72934  0.79024  0.03931  1.0000
  H   H1502     1.0  0.69605  0.66930  0.00619  1.0000
  C   C1265     1.0  0.57646  0.50970  0.12919  1.0000
  C   C1266     1.0  0.53525  0.81942  0.12923  1.0000
  H   H1503     1.0  0.73538  0.56258  0.01867  1.0000
  C   C1267     1.0  0.74098  0.95198  0.02727  1.0000
  H   H1504     1.0  0.56262  0.80266  0.13499  1.0000
  C   C1268     1.0  0.72863  0.53180  0.21505  1.0000
  C   C1269     1.0  0.52937  0.55299  0.11416  1.0000
  H   H1505     1.0  0.72402  0.53338  0.23182  1.0000
  N   N82       1.0  0.50956  0.67717  0.09375  1.0000
  S   S350      1.0  0.54403  0.85117  0.12016  1.0000
  H   H1506     1.0  0.52296  0.72517  0.10783  1.0000
  H   H1507     1.0  0.51921  0.50217  0.31835  1.0000
  H   H1508     1.0  0.54235  0.64861  0.08100  1.0000
  C   C1270     1.0  0.70963  0.87928  0.22990  1.0000
  C   C1271     1.0  0.52280  0.76807  0.14395  1.0000
  C   C1272     1.0  0.75041  0.76843  0.00523  1.0000
  S   S351      1.0  0.71491  0.96308  0.22880  1.0000
  C   C1273     1.0  0.58675  0.50015  0.11193  1.0000
  C   C1274     1.0  0.55191  0.72004  0.10174  1.0000
  H   H1509     1.0  0.74378  0.93161  0.02200  1.0000
  C   C1275     1.0  0.73810  0.57768  0.21592  1.0000
  N   N83       1.0  0.58889  0.58440  0.12841  1.0000
  C   C1276     1.0  0.60857  0.59232  0.12986  1.0000
  C   C1277     1.0  0.57985  0.60076  0.11175  1.0000
  C   C1278     1.0  0.57942  0.59139  0.14868  1.0000
  C   C1279     1.0  0.58801  0.55542  0.12310  1.0000
  C   C1280     1.0  0.59806  0.54505  0.10536  1.0000
  C   C1281     1.0  0.57696  0.53693  0.13476  1.0000
  H   H1510     1.0  0.61602  0.59245  0.11443  1.0000
  H   H1511     1.0  0.60975  0.61312  0.13592  1.0000
  H   H1512     1.0  0.61636  0.57874  0.14072  1.0000
  H   H1513     1.0  0.58708  0.59837  0.09626  1.0000
  H   H1514     1.0  0.57963  0.62269  0.11549  1.0000
  H   H1515     1.0  0.56517  0.59479  0.10987  1.0000
  H   H1516     1.0  0.58530  0.57950  0.16196  1.0000
  H   H1517     1.0  0.58094  0.61311  0.15259  1.0000
  H   H1518     1.0  0.56419  0.58824  0.14817  1.0000
  H   H1519     1.0  0.60619  0.55810  0.09531  1.0000
  H   H1520     1.0  0.56824  0.54303  0.14798  1.0000
  H   H1521     1.0  0.64293  0.52505  0.10216  1.0000
  H   H1522     1.0  0.58058  0.70979  0.09485  1.0000
  C   C1282     1.0  0.66480  0.49907  0.13591  1.0000
  H   H1523     1.0  0.75269  0.78206  0.04805  1.0000
  H   H1524     1.0  0.58612  0.47911  0.10752  1.0000
  C   C1283     1.0  0.73117  0.84358  0.22020  1.0000
  H   H1525     1.0  0.64780  0.54308  0.17244  1.0000
  H   H1526     1.0  0.55177  0.75810  0.14782  1.0000
  H   H1527     1.0  0.70245  0.62038  0.00311  1.0000
  H   H1528     1.0  0.60526  0.95802  0.16434  1.0000
  H   H1529     1.0  0.71643  0.53665  0.20520  1.0000
  H   H1530     1.0  0.71248  0.49105  0.28080  1.0000
  C   C1284     1.0  0.75141  0.57008  0.17376  1.0000
  H   H1531     1.0  0.70209  0.87485  0.21530  1.0000
  H   H1532     1.0  0.56766  0.49598  0.13803  1.0000
  H   H1533     1.0  0.62244  0.52788  0.14697  1.0000
  C   C1285     1.0  0.73886  0.90217  0.25702  1.0000
  S   S352      1.0  0.71895  0.49304  0.13418  1.0000
  H   H1534     1.0  0.73580  0.91122  0.21451  1.0000
  H   H1535     1.0  0.74739  0.92716  0.28236  1.0000
  S   S353      1.0  0.69111  0.47813  0.18523  1.0000
  H   H1536     1.0  0.75397  0.50344  0.18833  1.0000
  H   H1537     1.0  0.73299  0.77573  0.06463  1.0000
  H   H1538     1.0  0.63301  0.95113  0.09270  1.0000
  N   N84       1.0  0.60473  0.86221  0.11688  1.0000
  C   C1286     1.0  0.60671  0.87816  0.09721  1.0000
  C   C1287     1.0  0.59609  0.83628  0.11161  1.0000
  C   C1288     1.0  0.59161  0.87689  0.13135  1.0000
  C   C1289     1.0  0.62316  0.85877  0.12654  1.0000
  C   C1290     1.0  0.63220  0.88145  0.13461  1.0000
  C   C1291     1.0  0.63296  0.83346  0.12759  1.0000
  C   C1292     1.0  0.64967  0.87897  0.14360  1.0000
  C   C1293     1.0  0.65056  0.83124  0.13645  1.0000
  C   C1294     1.0  0.65884  0.85391  0.14452  1.0000
  H   H1539     1.0  0.61606  0.86761  0.08562  1.0000
  H   H1540     1.0  0.59305  0.88215  0.08974  1.0000
  H   H1541     1.0  0.61269  0.89821  0.09997  1.0000
  H   H1542     1.0  0.60430  0.82500  0.09941  1.0000
  H   H1543     1.0  0.58196  0.83962  0.10509  1.0000
  H   H1544     1.0  0.59436  0.82324  0.12580  1.0000
  H   H1545     1.0  0.59555  0.89806  0.13401  1.0000
  H   H1546     1.0  0.57739  0.87848  0.12493  1.0000
  H   H1547     1.0  0.59054  0.86646  0.14685  1.0000
  H   H1548     1.0  0.62586  0.90138  0.13391  1.0000
  H   H1549     1.0  0.62740  0.81509  0.12165  1.0000
  H   H1550     1.0  0.65614  0.89666  0.14984  1.0000
  H   H1551     1.0  0.65792  0.81183  0.13704  1.0000
  H   H1552     1.0  0.67242  0.85207  0.15144  1.0000
  H   H1553     1.0  0.73341  0.57863  0.23269  1.0000
  N   N85       1.0  0.72968  0.87188  0.22776  1.0000
  C   C1295     1.0  0.73054  0.47985  0.25471  1.0000
  C   C1296     1.0  0.52913  0.68570  0.09377  1.0000
  H   H1554     1.0  0.53617  0.49975  0.22776  1.0000
  C   C1297     1.0  0.51013  0.78858  0.13759  1.0000
  C   C1298     1.0  0.75624  0.85966  0.27854  1.0000
  H   H1555     1.0  0.75453  0.65601  0.00333  1.0000
  H   H1556     1.0  0.74804  0.59048  0.17863  1.0000
  C   C1299     1.0  0.51886  0.73293  0.22877  1.0000
  H   H1557     1.0  0.70291  0.86787  0.24300  1.0000
  C   C1300     1.0  0.74361  0.74591  0.01680  1.0000
  H   H1558     1.0  0.72423  0.82938  0.23129  1.0000
  S   S354      1.0  0.51693  0.65230  0.23455  1.0000
  S   S355      1.0  0.52508  0.47690  0.13860  1.0000
  C   C1301     1.0  0.74987  0.54738  0.18749  1.0000
  H   H1559     1.0  0.53004  0.51230  0.10214  1.0000
  H   H1560     1.0  0.72429  0.84129  0.20481  1.0000
  H   H1561     1.0  0.57387  0.66447  0.08142  1.0000
  C   C1302     1.0  0.75613  0.88564  0.28678  1.0000
  H   H1562     1.0  0.51436  0.63396  0.09204  1.0000
  C   C1303     1.0  0.75666  0.56690  0.15264  1.0000
  C   C1304     1.0  0.75449  0.52164  0.17887  1.0000
  C   C1305     1.0  0.75881  0.50376  0.27836  1.0000
  H   H1563     1.0  0.75692  0.58436  0.14224  1.0000
  S   S356      1.0  0.50941  0.93514  0.04053  1.0000
  H   H1564     1.0  0.52358  0.51969  0.16898  1.0000
  C   C1306     1.0  0.51745  0.51653  0.25123  1.0000
  H   H1565     1.0  0.74957  0.59219  0.21410  1.0000
  C   C1307     1.0  0.73293  0.95475  0.04738  1.0000
  S   S357      1.0  0.53969  0.96977  0.08558  1.0000
  S   S358      1.0  0.50984  0.66132  0.17207  1.0000
  C   C1308     1.0  0.58264  0.59729  0.63208  1.0000
  H   H1566     1.0  0.58490  0.61888  0.63238  1.0000
  H   H1567     1.0  0.58875  0.47501  0.62144  1.0000
  C   C1309     1.0  0.52539  0.79411  0.62343  1.0000
  Fe  Fe177     1.0  0.55696  0.68704  0.59785  1.0000
  S   S359      1.0  0.54436  0.68344  0.62979  1.0000
  S   S360      1.0  0.58836  0.68387  0.59590  1.0000
  H   H1568     1.0  0.66350  0.48628  0.61021  1.0000
  Fe  Fe178     1.0  0.52456  0.71622  0.61979  1.0000
  N   N86       1.0  0.74251  0.81687  0.58594  1.0000
  Fe  Fe179     1.0  0.52513  0.65348  0.61651  1.0000
  H   H1569     1.0  0.60450  0.76585  0.65086  1.0000
  S   S361      1.0  0.53847  0.72236  0.58826  1.0000
  S   S362      1.0  0.53889  0.65533  0.58445  1.0000
  S   S363      1.0  0.68138  0.68133  0.65426  1.0000
  C   C1310     1.0  0.63245  0.56513  0.59755  1.0000
  C   C1311     1.0  0.62662  0.59086  0.60441  1.0000
  S   S364      1.0  0.71274  0.74289  0.63993  1.0000
  H   H1570     1.0  0.73521  0.56470  0.43237  1.0000
  C   C1312     1.0  0.62071  0.69997  0.65566  1.0000
  H   H1571     1.0  0.63695  0.94946  0.65720  1.0000
  Fe  Fe180     1.0  0.67594  0.91243  0.60306  1.0000
  S   S365      1.0  0.68649  0.92629  0.63371  1.0000
  S   S366      1.0  0.64532  0.90480  0.60104  1.0000
  Fe  Fe181     1.0  0.71401  0.91608  0.58041  1.0000
  S   S367      1.0  0.72693  0.93079  0.61009  1.0000
  S   S368      1.0  0.73308  0.91437  0.55091  1.0000
  Fe  Fe182     1.0  0.71046  0.89788  0.62595  1.0000
  S   S369      1.0  0.72244  0.86878  0.65003  1.0000
  Fe  Fe183     1.0  0.70148  0.95812  0.61499  1.0000
  S   S370      1.0  0.71523  0.50862  0.61585  1.0000
  S   S371      1.0  0.69897  0.88198  0.59624  1.0000
  S   S372      1.0  0.68959  0.94530  0.58430  1.0000
  H   H1572     1.0  0.52925  0.83201  0.60707  1.0000
  C   C1313     1.0  0.67394  0.52990  0.58622  1.0000
  C   C1314     1.0  0.53191  0.71714  0.43894  1.0000
  C   C1315     1.0  0.72892  0.92931  0.39365  1.0000
  H   H1573     1.0  0.71841  0.82253  0.56691  1.0000
  H   H1574     1.0  0.75277  0.86789  0.42520  1.0000
  H   H1575     1.0  0.74564  0.77774  0.60127  1.0000
  C   C1316     1.0  0.60672  0.80889  0.64253  1.0000
  N   N87       1.0  0.57369  0.51133  0.63086  1.0000
  C   C1317     1.0  0.59163  0.55152  0.64196  1.0000
  C   C1318     1.0  0.63105  0.89444  0.66272  1.0000
  H   H1576     1.0  0.56587  0.48006  0.65278  1.0000
  C   C1319     1.0  0.73807  0.88795  0.53242  1.0000
  C   C1320     1.0  0.72848  0.86376  0.53271  1.0000
  C   C1321     1.0  0.51396  0.52747  0.64168  1.0000
  C   C1322     1.0  0.57441  0.79304  0.64650  1.0000
  S   S373      1.0  0.52537  0.87386  0.63799  1.0000
  H   H1577     1.0  0.71739  0.86095  0.54415  1.0000
  C   C1323     1.0  0.65269  0.59221  0.62739  1.0000
  C   C1324     1.0  0.71722  0.83403  0.64952  1.0000
  S   S374      1.0  0.51700  0.74691  0.64493  1.0000
  H   H1578     1.0  0.67214  0.54408  0.57273  1.0000
  C   C1325     1.0  0.71252  0.77769  0.64600  1.0000
  C   C1326     1.0  0.70164  0.79604  0.63431  1.0000
  C   C1327     1.0  0.70380  0.82411  0.63627  1.0000
  H   H1579     1.0  0.69194  0.78848  0.62321  1.0000
  H   H1580     1.0  0.64915  0.49196  0.57833  1.0000
  H   H1581     1.0  0.62972  0.50860  0.59093  1.0000
  H   H1582     1.0  0.72091  0.93582  0.45364  1.0000
  H   H1583     1.0  0.69405  0.51255  0.65611  1.0000
  C   C1328     1.0  0.70875  0.53599  0.63281  1.0000
  C   C1329     1.0  0.71432  0.56221  0.62729  1.0000
  H   H1584     1.0  0.51433  0.74757  0.53930  1.0000
  C   C1330     1.0  0.62019  0.82864  0.63799  1.0000
  H   H1585     1.0  0.71331  0.81908  0.59442  1.0000
  H   H1586     1.0  0.72224  0.56530  0.61288  1.0000
  C   C1331     1.0  0.60062  0.69045  0.61896  1.0000
  C   C1332     1.0  0.61933  0.68206  0.62031  1.0000
  C   C1333     1.0  0.62931  0.68668  0.63862  1.0000
  H   H1587     1.0  0.66068  0.60283  0.63885  1.0000
  H   H1588     1.0  0.63747  0.75572  0.65097  1.0000
  C   C1334     1.0  0.59211  0.70408  0.63591  1.0000
  H   H1589     1.0  0.62611  0.67192  0.60715  1.0000
  H   H1590     1.0  0.64363  0.67989  0.63951  1.0000
  H   H1591     1.0  0.57793  0.71139  0.63483  1.0000
  C   C1335     1.0  0.65937  0.50698  0.61560  1.0000
  C   C1336     1.0  0.60324  0.90742  0.64427  1.0000
  C   C1337     1.0  0.61358  0.90823  0.62534  1.0000
  C   C1338     1.0  0.63274  0.90263  0.62504  1.0000
  C   C1339     1.0  0.64146  0.89558  0.64379  1.0000
  H   H1592     1.0  0.67081  0.51342  0.62561  1.0000
  H   H1593     1.0  0.58854  0.91180  0.64417  1.0000
  H   H1594     1.0  0.60670  0.91347  0.61088  1.0000
  H   H1595     1.0  0.64044  0.95737  0.61866  1.0000
  S   S375      1.0  0.75267  0.81959  0.48489  1.0000
  H   H1596     1.0  0.74055  0.80496  0.61855  1.0000
  H   H1597     1.0  0.70655  0.89372  0.46399  1.0000
  C   C1340     1.0  0.52489  0.83832  0.64026  1.0000
  H   H1598     1.0  0.75621  0.88878  0.44761  1.0000
  C   C1341     1.0  0.74895  0.55576  0.43672  1.0000
  C   C1342     1.0  0.70996  0.58454  0.64033  1.0000
  N   N88       1.0  0.72761  0.88194  0.44099  1.0000
  C   C1343     1.0  0.72110  0.88561  0.46312  1.0000
  C   C1344     1.0  0.57651  0.54085  0.63110  1.0000
  C   C1345     1.0  0.74733  0.87290  0.44121  1.0000
  C   C1346     1.0  0.72610  0.90687  0.42808  1.0000
  C   C1347     1.0  0.72927  0.90587  0.40601  1.0000
  C   C1348     1.0  0.72297  0.93288  0.43700  1.0000
  C   C1349     1.0  0.59467  0.57930  0.64229  1.0000
  C   C1350     1.0  0.75669  0.87100  0.50216  1.0000
  H   H1599     1.0  0.64665  0.50514  0.62571  1.0000
  H   H1600     1.0  0.57661  0.77698  0.63448  1.0000
  H   H1601     1.0  0.60640  0.58694  0.65056  1.0000
  H   H1602     1.0  0.64917  0.83761  0.63399  1.0000
  C   C1351     1.0  0.63670  0.60433  0.61931  1.0000
  S   S376      1.0  0.52377  0.61936  0.64105  1.0000
  C   C1352     1.0  0.72593  0.95446  0.40287  1.0000
  C   C1353     1.0  0.71657  0.86009  0.43199  1.0000
  C   C1354     1.0  0.72276  0.81190  0.58151  1.0000
  H   H1603     1.0  0.53875  0.69941  0.43104  1.0000
  N   N89       1.0  0.58664  0.81626  0.64230  1.0000
  H   H1604     1.0  0.72229  0.85294  0.41661  1.0000
  C   C1355     1.0  0.64541  0.79601  0.64263  1.0000
  H   H1605     1.0  0.73020  0.89920  0.47185  1.0000
  H   H1606     1.0  0.56172  0.51003  0.60013  1.0000
  C   C1356     1.0  0.52130  0.78175  0.64275  1.0000
  H   H1607     1.0  0.52676  0.78208  0.60939  1.0000
  H   H1608     1.0  0.65846  0.96690  0.65847  1.0000
  C   C1357     1.0  0.64880  0.55224  0.60540  1.0000
  H   H1609     1.0  0.73885  0.60057  0.45342  1.0000
  C   C1358     1.0  0.70016  0.58089  0.65930  1.0000
  C   C1359     1.0  0.74730  0.84661  0.50270  1.0000
  S   S377      1.0  0.55470  0.92927  0.66057  1.0000
  H   H1610     1.0  0.65614  0.89053  0.64367  1.0000
  C   C1360     1.0  0.52688  0.82238  0.62217  1.0000
  H   H1611     1.0  0.55733  0.48089  0.61629  1.0000
  H   H1612     1.0  0.53711  0.71765  0.45524  1.0000
  H   H1613     1.0  0.71658  0.84173  0.44226  1.0000
  H   H1614     1.0  0.75068  0.55679  0.65844  1.0000
  H   H1615     1.0  0.74973  0.55448  0.45412  1.0000
  H   H1616     1.0  0.70189  0.86692  0.42982  1.0000
  H   H1617     1.0  0.72000  0.79009  0.57961  1.0000
  H   H1618     1.0  0.74918  0.53461  0.43076  1.0000
  C   C1361     1.0  0.60211  0.70878  0.65414  1.0000
  N   N90       1.0  0.65609  0.52577  0.59769  1.0000
  H   H1619     1.0  0.72144  0.86615  0.47207  1.0000
  H   H1620     1.0  0.61427  0.60060  0.59804  1.0000
  H   H1621     1.0  0.74930  0.85449  0.45103  1.0000
  H   H1622     1.0  0.56717  0.84252  0.65915  1.0000
  H   H1623     1.0  0.74864  0.67800  0.39885  1.0000
  C   C1362     1.0  0.63921  0.82219  0.63789  1.0000
  C   C1363     1.0  0.59107  0.49684  0.62400  1.0000
  C   C1364     1.0  0.55887  0.50322  0.61653  1.0000
  C   C1365     1.0  0.51301  0.57114  0.62305  1.0000
  H   H1624     1.0  0.72568  0.82455  0.51863  1.0000
  H   H1625     1.0  0.59660  0.50534  0.60900  1.0000
  H   H1626     1.0  0.74935  0.58452  0.40042  1.0000
  C   C1366     1.0  0.56741  0.58756  0.62175  1.0000
  C   C1367     1.0  0.56428  0.55981  0.62123  1.0000
  H   H1627     1.0  0.73286  0.88711  0.39817  1.0000
  H   H1628     1.0  0.74054  0.64733  0.46403  1.0000
  H   H1629     1.0  0.55198  0.55385  0.61330  1.0000
  H   H1630     1.0  0.73893  0.85974  0.58011  1.0000
  C   C1368     1.0  0.69850  0.53243  0.65152  1.0000
  H   H1631     1.0  0.75816  0.85040  0.59681  1.0000
  H   H1632     1.0  0.61609  0.84928  0.63441  1.0000
  H   H1633     1.0  0.54503  0.51135  0.62168  1.0000
  C   C1369     1.0  0.52165  0.82576  0.65967  1.0000
  H   H1634     1.0  0.60109  0.53842  0.65049  1.0000
  C   C1370     1.0  0.65872  0.56667  0.62049  1.0000
  H   H1635     1.0  0.71464  0.60444  0.63600  1.0000
  H   H1636     1.0  0.62405  0.55600  0.58589  1.0000
  C   C1371     1.0  0.64346  0.51221  0.58324  1.0000
  C   C1372     1.0  0.58175  0.82776  0.62149  1.0000
  H   H1637     1.0  0.67150  0.55858  0.62677  1.0000
  H   H1638     1.0  0.53675  0.73575  0.43079  1.0000
  H   H1639     1.0  0.64145  0.52405  0.56851  1.0000
  C   C1373     1.0  0.74829  0.79947  0.60383  1.0000
  C   C1374     1.0  0.75180  0.63828  0.45470  1.0000
  C   C1375     1.0  0.73311  0.84325  0.51804  1.0000
  H   H1640     1.0  0.55772  0.60170  0.61438  1.0000
  C   C1376     1.0  0.75212  0.89146  0.51692  1.0000
  H   H1641     1.0  0.55947  0.79928  0.64609  1.0000
  C   C1377     1.0  0.61354  0.78233  0.64725  1.0000
  Fe  Fe184     1.0  0.51897  0.69056  0.57742  1.0000
  H   H1642     1.0  0.73494  0.84976  0.60684  1.0000
  C   C1378     1.0  0.72294  0.95625  0.42447  1.0000
  C   C1379     1.0  0.63260  0.77615  0.64733  1.0000
  C   C1380     1.0  0.72535  0.78770  0.65992  1.0000
  H   H1643     1.0  0.69544  0.83800  0.62707  1.0000
  H   H1644     1.0  0.68460  0.53850  0.59639  1.0000
  H   H1645     1.0  0.68007  0.51061  0.58007  1.0000
  H   H1646     1.0  0.73181  0.92809  0.37691  1.0000
  H   H1647     1.0  0.57668  0.78419  0.66236  1.0000
  C   C1381     1.0  0.74375  0.84545  0.59259  1.0000
  H   H1648     1.0  0.56659  0.83268  0.62058  1.0000
  C   C1382     1.0  0.75416  0.81019  0.56716  1.0000
  C   C1383     1.0  0.75102  0.61132  0.44840  1.0000
  H   H1649     1.0  0.58554  0.81335  0.60868  1.0000
  C   C1384     1.0  0.52020  0.58393  0.64045  1.0000
  C   C1385     1.0  0.52143  0.54021  0.65894  1.0000
  S   S378      1.0  0.75689  0.80369  0.42520  1.0000
  C   C1386     1.0  0.58226  0.83688  0.65854  1.0000
  H   H1650     1.0  0.63219  0.62431  0.62450  1.0000
  H   H1651     1.0  0.58885  0.84700  0.61798  1.0000
  H   H1652     1.0  0.60208  0.49734  0.63592  1.0000
  H   H1653     1.0  0.51359  0.70284  0.48082  1.0000
  H   H1654     1.0  0.74584  0.76817  0.56583  1.0000
  H   H1655     1.0  0.66015  0.79098  0.64258  1.0000
  H   H1656     1.0  0.71407  0.47252  0.65502  1.0000
  C   C1387     1.0  0.72760  0.81572  0.66177  1.0000
  C   C1388     1.0  0.75412  0.78379  0.55865  1.0000
  H   H1657     1.0  0.51264  0.70134  0.40652  1.0000
  C   C1389     1.0  0.52442  0.56826  0.65835  1.0000
  C   C1390     1.0  0.51965  0.79763  0.66086  1.0000
  H   H1658     1.0  0.55561  0.51263  0.65817  1.0000
  H   H1659     1.0  0.75140  0.50815  0.65283  1.0000
  C   C1391     1.0  0.56850  0.50207  0.65231  1.0000
  H   H1660     1.0  0.58965  0.85593  0.65552  1.0000
  C   C1392     1.0  0.50978  0.54314  0.62376  1.0000
  N   N91       1.0  0.51144  0.71537  0.43866  1.0000
  H   H1661     1.0  0.50958  0.58289  0.60922  1.0000
  S   S379      1.0  0.50994  0.49211  0.64139  1.0000
  H   H1662     1.0  0.61122  0.97161  0.61190  1.0000
  C   C1393     1.0  0.64305  0.96969  0.65889  1.0000
  C   C1394     1.0  0.61192  0.90065  0.66309  1.0000
  Fe  Fe185     1.0  0.53124  0.90645  0.71369  1.0000
  Fe  Fe186     1.0  0.56828  0.90900  0.68789  1.0000
  H   H1663     1.0  0.68190  0.88594  0.67638  1.0000
  S   S380      1.0  0.55408  0.93659  0.71132  1.0000
  S   S381      1.0  0.54715  0.87678  0.69297  1.0000
  C   C1395     1.0  0.74446  0.51568  0.66689  1.0000
  H   H1664     1.0  0.60297  0.66223  0.69382  1.0000
  H   H1665     1.0  0.52440  0.95840  0.75098  1.0000
  Fe  Fe187     1.0  0.69746  0.70108  0.71064  1.0000
  S   S382      1.0  0.71726  0.68470  0.68562  1.0000
  S   S383      1.0  0.70368  0.71287  0.74473  1.0000
  Fe  Fe188     1.0  0.66366  0.69708  0.68099  1.0000
  C   C1396     1.0  0.51572  0.93902  0.81993  1.0000
  C   C1397     1.0  0.70143  0.84926  0.71596  1.0000
  S   S384      1.0  0.67645  0.66908  0.70480  1.0000
  S   S385      1.0  0.68263  0.73042  0.68918  1.0000
  H   H1666     1.0  0.53699  0.65206  0.67566  1.0000
  C   C1398     1.0  0.71526  0.60481  0.92713  1.0000
  C   C1399     1.0  0.54037  0.85059  0.84626  1.0000
  C   C1400     1.0  0.71720  0.63966  0.95370  1.0000
  H   H1667     1.0  0.57956  0.50547  0.66380  1.0000
  C   C1401     1.0  0.70564  0.67830  0.97467  1.0000
  H   H1668     1.0  0.67663  0.80216  0.69048  1.0000
  H   H1669     1.0  0.51232  0.81745  0.83798  1.0000
  H   H1670     1.0  0.72445  0.78961  0.70739  1.0000
  Fe  Fe189     1.0  0.69524  0.65425  0.67820  1.0000
  H   H1671     1.0  0.51727  0.83766  0.81566  1.0000
  H   H1672     1.0  0.71095  0.85276  0.72841  1.0000
  C   C1402     1.0  0.71313  0.62291  0.97131  1.0000
  N   N92       1.0  0.72602  0.62794  0.93450  1.0000
  H   H1673     1.0  0.71554  0.58746  0.93832  1.0000
  C   C1403     1.0  0.55110  0.65532  0.68021  1.0000
  C   C1404     1.0  0.51115  0.83850  0.83179  1.0000
  C   C1405     1.0  0.69408  0.82342  0.71222  1.0000
  H   H1674     1.0  0.54711  0.85029  0.83039  1.0000
  H   H1675     1.0  0.51228  0.53598  0.85350  1.0000
  C   C1406     1.0  0.71967  0.73309  0.78012  1.0000
  C   C1407     1.0  0.72178  0.72897  0.75833  1.0000
  C   C1408     1.0  0.73773  0.73858  0.74810  1.0000
  N   N93       1.0  0.54383  0.70325  0.69289  1.0000
  S   S386      1.0  0.59924  0.89909  0.68714  1.0000
  H   H1676     1.0  0.70746  0.72572  0.78829  1.0000
  H   H1677     1.0  0.51915  0.86747  0.87853  1.0000
  H   H1678     1.0  0.51635  0.78827  0.67584  1.0000
  H   H1679     1.0  0.53869  0.69153  0.72499  1.0000
  C   C1409     1.0  0.68215  0.82133  0.69487  1.0000
  C   C1410     1.0  0.75696  0.61429  0.99379  1.0000
  H   H1680     1.0  0.51338  0.83357  0.87270  1.0000
  H   H1681     1.0  0.73983  0.73524  0.73147  1.0000
  C   C1411     1.0  0.68224  0.78489  0.73189  1.0000
  H   H1682     1.0  0.71899  0.49845  0.71082  1.0000
  H   H1683     1.0  0.71274  0.78651  0.75331  1.0000
  H   H1684     1.0  0.54067  0.74486  0.68281  1.0000
  H   H1685     1.0  0.72369  0.81342  0.73982  1.0000
  H   H1686     1.0  0.56418  0.73395  0.68662  1.0000
  H   H1687     1.0  0.71343  0.76094  0.71941  1.0000
  H   H1688     1.0  0.70295  0.69984  0.97620  1.0000
  H   H1689     1.0  0.67247  0.79872  0.74063  1.0000
  C   C1412     1.0  0.51114  0.84780  0.75324  1.0000
  C   C1413     1.0  0.74427  0.54359  0.67001  1.0000
  C   C1414     1.0  0.52415  0.89170  0.81591  1.0000
  C   C1415     1.0  0.72636  0.51005  0.69907  1.0000
  S   S387      1.0  0.51539  0.92613  0.68724  1.0000
  H   H1690     1.0  0.70048  0.61091  0.92469  1.0000
  C   C1416     1.0  0.73313  0.74677  0.79150  1.0000
  H   H1691     1.0  0.73450  0.57651  0.68951  1.0000
  H   H1692     1.0  0.70298  0.89090  0.70599  1.0000
  H   H1693     1.0  0.72109  0.59662  0.91205  1.0000
  H   H1694     1.0  0.68564  0.76741  0.74243  1.0000
  H   H1695     1.0  0.67466  0.77610  0.71874  1.0000
  H   H1696     1.0  0.53296  0.72636  0.71920  1.0000
  C   C1417     1.0  0.72629  0.53803  0.70202  1.0000
  H   H1697     1.0  0.71365  0.65606  0.91248  1.0000
  H   H1698     1.0  0.51984  0.83785  0.67365  1.0000
  H   H1699     1.0  0.70202  0.81949  0.75428  1.0000
  H   H1700     1.0  0.73123  0.74971  0.80822  1.0000
  C   C1418     1.0  0.69432  0.55472  0.66466  1.0000
  C   C1419     1.0  0.67759  0.84376  0.68237  1.0000
  C   C1420     1.0  0.58240  0.63638  0.68147  1.0000
  H   H1701     1.0  0.75328  0.63443  0.94610  1.0000
  S   S388      1.0  0.69602  0.60754  0.67765  1.0000
  C   C1421     1.0  0.56379  0.63395  0.67648  1.0000
  H   H1702     1.0  0.55908  0.61555  0.66942  1.0000
  H   H1703     1.0  0.58629  0.82961  0.67442  1.0000
  C   C1422     1.0  0.51069  0.90778  0.84882  1.0000
  H   H1704     1.0  0.70413  0.77620  0.69645  1.0000
  H   H1705     1.0  0.66867  0.84161  0.66907  1.0000
  H   H1706     1.0  0.52451  0.52856  0.67293  1.0000
  H   H1707     1.0  0.52051  0.84400  0.74004  1.0000
  H   H1708     1.0  0.74490  0.60120  0.95110  1.0000
  N   N94       1.0  0.52033  0.85801  0.84541  1.0000
  H   H1709     1.0  0.52399  0.69436  0.66917  1.0000
  H   H1710     1.0  0.73679  0.66436  0.92037  1.0000
  H   H1711     1.0  0.68681  0.55161  0.67934  1.0000
  C   C1423     1.0  0.52284  0.91790  0.80762  1.0000
  H   H1712     1.0  0.63784  0.88879  0.67714  1.0000
  N   N95       1.0  0.69919  0.79913  0.72477  1.0000
  C   C1424     1.0  0.71081  0.78069  0.71148  1.0000
  C   C1425     1.0  0.70984  0.80510  0.74382  1.0000
  H   H1713     1.0  0.74818  0.69949  0.97709  1.0000
  H   H1714     1.0  0.74064  0.93677  0.98435  1.0000
  H   H1715     1.0  0.58121  0.69955  0.70099  1.0000
  Fe  Fe190     1.0  0.53896  0.95520  0.68401  1.0000
  C   C1426     1.0  0.51219  0.85481  0.86688  1.0000
  C   C1427     1.0  0.52453  0.69853  0.68627  1.0000
  C   C1428     1.0  0.71328  0.66784  0.95596  1.0000
  H   H1716     1.0  0.51112  0.51556  0.77037  1.0000
  H   H1717     1.0  0.71617  0.68229  0.94361  1.0000
  Fe  Fe191     1.0  0.53287  0.89817  0.66642  1.0000
  H   H1718     1.0  0.73367  0.63785  0.90236  1.0000
  C   C1429     1.0  0.72750  0.64750  0.91675  1.0000
  H   H1719     1.0  0.73420  0.77374  0.66853  1.0000
  H   H1720     1.0  0.75256  0.61028  0.92524  1.0000
  C   C1430     1.0  0.75484  0.94497  0.98513  1.0000
  C   C1431     1.0  0.57579  0.68155  0.69421  1.0000
  H   H1721     1.0  0.71889  0.54704  0.71534  1.0000
  C   C1432     1.0  0.69690  0.87151  0.70321  1.0000
  C   C1433     1.0  0.74500  0.61805  0.93944  1.0000
  C   C1434     1.0  0.74878  0.71879  0.98492  1.0000
  C   C1435     1.0  0.58839  0.66014  0.69029  1.0000
  C   C1436     1.0  0.75610  0.76598  0.98415  1.0000
  C   C1437     1.0  0.51812  0.88577  0.83678  1.0000
  C   C1438     1.0  0.55677  0.67995  0.68906  1.0000
  C   C1439     1.0  0.70162  0.66118  0.99153  1.0000
  H   H1722     1.0  0.52992  0.87612  0.80572  1.0000
  S   S389      1.0  0.63258  0.70606  0.67909  1.0000
  H   H1723     1.0  0.59547  0.71945  0.66709  1.0000
  S   S390      1.0  0.75804  0.56028  0.98094  1.0000
  C   C1440     1.0  0.73541  0.49801  0.68126  1.0000
  H   H1724     1.0  0.54266  0.83009  0.85323  1.0000
  C   C1441     1.0  0.55054  0.72726  0.68118  1.0000
  H   H1725     1.0  0.54787  0.86523  0.85592  1.0000
  H   H1726     1.0  0.71658  0.60151  0.97125  1.0000
  S   S391      1.0  0.51615  0.90285  0.74569  1.0000
  H   H1727     1.0  0.59223  0.61989  0.67845  1.0000
  C   C1442     1.0  0.73519  0.55475  0.68752  1.0000
  H   H1728     1.0  0.55667  0.71563  0.72152  1.0000
  C   C1443     1.0  0.70519  0.63355  0.98976  1.0000
  H   H1729     1.0  0.52988  0.57794  0.67196  1.0000
  H   H1730     1.0  0.51523  0.71658  0.68895  1.0000
  C   C1444     1.0  0.50955  0.93395  0.84041  1.0000
  Fe  Fe192     1.0  0.70134  0.71308  0.66399  1.0000
  H   H1731     1.0  0.52730  0.92170  0.79150  1.0000
  H   H1732     1.0  0.55207  0.72291  0.66410  1.0000
  H   H1733     1.0  0.73799  0.82319  0.67207  1.0000
  C   C1445     1.0  0.54303  0.70946  0.71562  1.0000
  C   C1446     1.0  0.68499  0.86878  0.68650  1.0000
  H   H1734     1.0  0.51826  0.68138  0.69504  1.0000
  S   S392      1.0  0.75498  0.79896  0.85650  1.0000
  C   C1447     1.0  0.74883  0.75695  0.78118  1.0000
  C   C1448     1.0  0.75096  0.75280  0.75939  1.0000
  H   H1735     1.0  0.51487  0.95935  0.81356  1.0000
  C   C1449     1.0  0.75526  0.74125  0.97400  1.0000
  H   H1736     1.0  0.95606  0.41565  0.28193  1.0000
  H   H1737     1.0  0.77224  0.12217  0.05184  1.0000
  H   H1738     1.0  0.98464  0.26379  0.32495  1.0000
  C   C1450     1.0  0.99772  0.24603  0.09001  1.0000
  C   C1451     1.0  0.97706  0.33293  0.10490  1.0000
  H   H1739     1.0  0.97674  0.42866  0.25336  1.0000
  S   S393      1.0  0.96037  0.33727  0.29606  1.0000
  C   C1452     1.0  0.98057  0.43247  0.26940  1.0000
  C   C1453     1.0  0.77479  0.03905  0.05624  1.0000
  C   C1454     1.0  0.00502  0.29378  0.27155  1.0000
  H   H1740     1.0  0.99596  0.02490  0.23423  1.0000
  C   C1455     1.0  0.97910  0.35289  0.28227  1.0000
  C   C1456     1.0  0.77697  0.06666  0.05947  1.0000
  H   H1741     1.0  0.97462  0.01083  0.22498  1.0000
  C   C1457     1.0  0.78213  0.12310  0.06493  1.0000
  C   C1458     1.0  0.98989  0.00743  0.22623  1.0000
  C   C1459     1.0  0.98153  0.22960  0.00114  1.0000
  C   C1460     1.0  0.99768  0.44363  0.27320  1.0000
  H   H1742     1.0  0.99037  0.37440  0.23233  1.0000
  H   H1743     1.0  0.99537  0.25987  0.21843  1.0000
  H   H1744     1.0  0.98426  0.30473  0.15275  1.0000
  H   H1745     1.0  0.77658  0.00072  0.24237  1.0000
  H   H1746     1.0  0.98363  0.27515  0.05892  1.0000
  C   C1461     1.0  0.96538  0.25922  0.29020  1.0000
  C   C1462     1.0  0.99808  0.26923  0.23333  1.0000
  H   H1747     1.0  0.78152  0.07826  0.04596  1.0000
  H   H1748     1.0  0.97590  0.35266  0.09745  1.0000
  H   H1749     1.0  0.98731  0.22119  0.30893  1.0000
  H   H1750     1.0  0.00801  0.26006  0.08300  1.0000
  C   C1463     1.0  0.97634  0.30950  0.09287  1.0000
  H   H1751     1.0  0.95881  0.25124  0.30491  1.0000
  C   C1464     1.0  0.98873  0.20997  0.01526  1.0000
  C   C1465     1.0  0.98122  0.28242  0.12420  1.0000
  H   H1752     1.0  0.94497  0.39232  0.31020  1.0000
  C   C1466     1.0  0.96878  0.42506  0.28609  1.0000
  Fe  Fe193     1.0  0.78040  0.03116  0.31932  1.0000
  C   C1467     1.0  0.97754  0.35793  0.26059  1.0000
  H   H1753     1.0  0.96514  0.35211  0.25272  1.0000
  H   H1754     1.0  0.97447  0.31244  0.07624  1.0000
  H   H1755     1.0  0.99693  0.35633  0.30870  1.0000
  C   C1468     1.0  0.99530  0.36038  0.29216  1.0000
  C   C1469     1.0  0.97841  0.28341  0.10222  1.0000
  C   C1470     1.0  0.00789  0.37850  0.25890  1.0000
  C   C1471     1.0  0.00309  0.44760  0.29374  1.0000
  C   C1472     1.0  0.97003  0.99973  0.28946  1.0000
  H   H1756     1.0  0.78346  0.14496  0.06843  1.0000
  C   C1473     1.0  0.99185  0.37053  0.24894  1.0000
  C   C1474     1.0  0.97693  0.00195  0.26881  1.0000
  C   C1475     1.0  0.96566  0.23855  0.09929  1.0000
  N   N96       1.0  0.96171  0.42162  0.32542  1.0000
  C   C1476     1.0  0.94339  0.41141  0.31933  1.0000
  C   C1477     1.0  0.00870  0.29230  0.23370  1.0000
  C   C1478     1.0  0.99402  0.27034  0.27176  1.0000
  C   C1479     1.0  0.98164  0.30597  0.13608  1.0000
  N   N97       1.0  0.99437  0.98151  0.23718  1.0000
  C   C1480     1.0  0.97973  0.33117  0.12643  1.0000
  C   C1481     1.0  0.98653  0.97989  0.25884  1.0000
  C   C1482     1.0  0.76101  0.11572  0.00353  1.0000
  H   H1757     1.0  0.99627  0.44378  0.32622  1.0000
  H   H1758     1.0  0.97000  0.23122  0.11500  1.0000
  H   H1759     1.0  0.95141  0.24766  0.10094  1.0000
  N   N98       1.0  0.97873  0.25820  0.08988  1.0000
  H   H1760     1.0  0.99577  0.00770  0.20986  1.0000
  C   C1483     1.0  0.77310  0.07850  0.07942  1.0000
  N   N99       1.0  0.98594  0.25860  0.29129  1.0000
  H   H1761     1.0  0.96485  0.22007  0.08950  1.0000
  H   H1762     1.0  0.98086  0.34941  0.13558  1.0000
  C   C1484     1.0  0.99081  0.25837  0.25203  1.0000
  H   H1763     1.0  0.96711  0.97411  0.31676  1.0000
  C   C1485     1.0  0.99087  0.27320  0.31055  1.0000
  S   S394      1.0  0.77563  0.01948  0.28483  1.0000
  C   C1486     1.0  0.97378  0.42914  0.30728  1.0000
  H   H1764     1.0  0.96031  0.24692  0.27715  1.0000
  H   H1765     1.0  0.77761  0.03064  0.04079  1.0000
  C   C1487     1.0  0.99972  0.26328  0.01765  1.0000
  H   H1766     1.0  0.95990  0.28027  0.28781  1.0000
  H   H1767     1.0  0.80256  0.10064  0.09621  1.0000
  H   H1768     1.0  0.96279  0.01677  0.29683  1.0000
  H   H1769     1.0  0.97460  0.02115  0.26105  1.0000
  C   C1488     1.0  0.97351  0.26240  0.06763  1.0000
  H   H1770     1.0  0.00799  0.22874  0.29386  1.0000
  H   H1771     1.0  0.98431  0.18933  0.01426  1.0000
  N   N100      1.0  0.77542  0.10759  0.08355  1.0000
  H   H1772     1.0  0.99866  0.22700  0.08086  1.0000
  H   H1773     1.0  0.95940  0.27190  0.06638  1.0000
  C   C1489     1.0  0.99135  0.44055  0.31057  1.0000
  C   C1490     1.0  0.00147  0.21677  0.03068  1.0000
  H   H1774     1.0  0.98385  0.26348  0.13231  1.0000
  C   C1491     1.0  0.78903  0.11082  0.10041  1.0000
  C   C1492     1.0  0.98686  0.25651  0.00231  1.0000
  C   C1493     1.0  0.76886  0.02240  0.07266  1.0000
  H   H1775     1.0  0.00227  0.24089  0.10617  1.0000
  H   H1776     1.0  0.00614  0.27303  0.31275  1.0000
  H   H1777     1.0  0.76715  0.00101  0.07011  1.0000
  H   H1778     1.0  0.97343  0.24298  0.05888  1.0000
  H   H1779     1.0  0.00700  0.44844  0.26017  1.0000
  H   H1780     1.0  0.98558  0.29453  0.31015  1.0000
  H   H1781     1.0  0.79601  0.11552  0.05924  1.0000
  H   H1782     1.0  0.79164  0.13251  0.10340  1.0000
  H   H1783     1.0  0.98775  0.21695  0.28118  1.0000
  C   C1494     1.0  0.76315  0.99565  0.24900  1.0000
  H   H1784     1.0  0.78411  0.10217  0.11564  1.0000
  H   H1785     1.0  0.75991  0.02041  0.10500  1.0000
  H   H1786     1.0  0.00806  0.30460  0.28563  1.0000
  C   C1495     1.0  0.76487  0.03335  0.09233  1.0000
  H   H1787     1.0  0.97362  0.38157  0.32823  1.0000
  H   H1788     1.0  0.76337  0.06852  0.11122  1.0000
  C   C1496     1.0  0.00709  0.24358  0.03162  1.0000
  H   H1789     1.0  0.93553  0.42664  0.30987  1.0000
  C   C1497     1.0  0.76690  0.06097  0.09572  1.0000
  S   S395      1.0  0.80039  0.06466  0.32492  1.0000
  S   S396      1.0  0.76604  0.06033  0.99858  1.0000
  H   H1790     1.0  0.98249  0.24064  0.25091  1.0000
  H   H1791     1.0  0.00406  0.28396  0.01868  1.0000
  C   C1498     1.0  0.99254  0.23015  0.29385  1.0000
  H   H1792     1.0  0.77442  0.00329  0.99958  1.0000
  C   C1499     1.0  0.97243  0.97570  0.30074  1.0000
  H   H1793     1.0  0.82086  0.44485  0.39179  1.0000
  H   H1794     1.0  0.88993  0.37362  0.37554  1.0000
  Fe  Fe194     1.0  0.95778  0.03426  0.45427  1.0000
  S   S397      1.0  0.97247  0.04743  0.42425  1.0000
  S   S398      1.0  0.97373  0.03076  0.48524  1.0000
  Fe  Fe195     1.0  0.92002  0.03466  0.43214  1.0000
  S   S399      1.0  0.93251  0.04685  0.40122  1.0000
  S   S400      1.0  0.88885  0.03021  0.43484  1.0000
  Fe  Fe196     1.0  0.95481  0.01599  0.40925  1.0000
  H   H1795     1.0  0.88417  0.45496  0.39799  1.0000
  Fe  Fe197     1.0  0.94842  0.07727  0.41910  1.0000
  S   S401      1.0  0.94377  0.12306  0.41247  1.0000
  S   S402      1.0  0.94124  0.00194  0.43929  1.0000
  S   S403      1.0  0.93490  0.06585  0.45013  1.0000
  S   S404      1.0  0.97399  0.30886  0.35479  1.0000
  Fe  Fe198     1.0  0.92021  0.31183  0.35852  1.0000
  S   S405      1.0  0.93738  0.29644  0.38522  1.0000
  S   S406      1.0  0.88889  0.31511  0.35807  1.0000
  Fe  Fe199     1.0  0.95500  0.33236  0.37709  1.0000
  S   S407      1.0  0.96415  0.36110  0.40218  1.0000
  Fe  Fe200     1.0  0.95448  0.27405  0.36051  1.0000
  S   S408      1.0  0.96493  0.22962  0.35903  1.0000
  S   S409      1.0  0.93661  0.34888  0.35195  1.0000
  C   C1500     1.0  0.88540  0.24209  0.38174  1.0000
  C   C1501     1.0  0.82181  0.39350  0.37865  1.0000
  Fe  Fe201     1.0  0.80814  0.30941  0.43501  1.0000
  S   S410      1.0  0.79743  0.29698  0.40396  1.0000
  S   S411      1.0  0.83872  0.31257  0.44112  1.0000
  Fe  Fe202     1.0  0.76932  0.31225  0.45599  1.0000
  Fe  Fe203     1.0  0.77931  0.26833  0.42215  1.0000
  Fe  Fe204     1.0  0.77550  0.32940  0.41068  1.0000
  C   C1502     1.0  0.83319  0.24319  0.41433  1.0000
  S   S412      1.0  0.79137  0.27943  0.45315  1.0000
  S   S413      1.0  0.78741  0.34339  0.44070  1.0000
  Fe  Fe205     1.0  0.77814  0.01819  0.36635  1.0000
  C   C1503     1.0  0.95702  0.43892  0.47579  1.0000
  H   H1796     1.0  0.80721  0.23598  0.38710  1.0000
  Fe  Fe206     1.0  0.78182  0.07763  0.35222  1.0000
  C   C1504     1.0  0.77300  0.36530  0.55767  1.0000
  Fe  Fe207     1.0  0.81440  0.03689  0.34796  1.0000
  S   S414      1.0  0.84561  0.03020  0.34911  1.0000
  S   S415      1.0  0.79718  0.05142  0.37541  1.0000
  C   C1505     1.0  0.78187  0.14619  0.39369  1.0000
  C   C1506     1.0  0.78226  0.16813  0.40774  1.0000
  H   H1797     1.0  0.78397  0.12573  0.39938  1.0000
  S   S416      1.0  0.93603  0.28751  0.33418  1.0000
  H   H1798     1.0  0.95678  0.38537  0.46594  1.0000
  S   S417      1.0  0.77023  0.98885  0.39254  1.0000
  H   H1799     1.0  0.82090  0.22031  0.36673  1.0000
  H   H1800     1.0  0.82724  0.45971  0.36661  1.0000
  H   H1801     1.0  0.83966  0.13187  0.34824  1.0000
  C   C1507     1.0  0.76909  0.33852  0.55355  1.0000
  H   H1802     1.0  0.82509  0.25461  0.37386  1.0000
  S   S418      1.0  0.77685  0.12390  0.35390  1.0000
  N   N101      1.0  0.97152  0.42261  0.46432  1.0000
  C   C1508     1.0  0.87558  0.31585  0.38160  1.0000
  C   C1509     1.0  0.88363  0.31260  0.40127  1.0000
  C   C1510     1.0  0.87231  0.31222  0.41958  1.0000
  C   C1511     1.0  0.85295  0.31539  0.41830  1.0000
  C   C1512     1.0  0.84507  0.31971  0.39868  1.0000
  C   C1513     1.0  0.85629  0.31954  0.38042  1.0000
  H   H1803     1.0  0.89852  0.30998  0.40236  1.0000
  H   H1804     1.0  0.87856  0.30909  0.43471  1.0000
  H   H1805     1.0  0.83032  0.32325  0.39750  1.0000
  H   H1806     1.0  0.84999  0.32228  0.36527  1.0000
  C   C1514     1.0  0.85729  0.03103  0.37314  1.0000
  C   C1515     1.0  0.87637  0.02473  0.37319  1.0000
  C   C1516     1.0  0.88606  0.02396  0.39206  1.0000
  C   C1517     1.0  0.87680  0.02984  0.41104  1.0000
  C   C1518     1.0  0.85765  0.03573  0.41108  1.0000
  C   C1519     1.0  0.84793  0.03642  0.39218  1.0000
  H   H1807     1.0  0.88368  0.02018  0.35856  1.0000
  H   H1808     1.0  0.90064  0.01852  0.39185  1.0000
  H   H1809     1.0  0.85035  0.04013  0.42572  1.0000
  H   H1810     1.0  0.83323  0.04119  0.39240  1.0000
  C   C1520     1.0  0.95003  0.15238  0.39737  1.0000
  C   C1521     1.0  0.96301  0.15137  0.38069  1.0000
  C   C1522     1.0  0.96732  0.17510  0.36920  1.0000
  C   C1523     1.0  0.95872  0.20027  0.37409  1.0000
  C   C1524     1.0  0.94561  0.20125  0.39067  1.0000
  C   C1525     1.0  0.94138  0.17754  0.40221  1.0000
  H   H1811     1.0  0.96985  0.13234  0.37670  1.0000
  H   H1812     1.0  0.97750  0.17396  0.35649  1.0000
  H   H1813     1.0  0.93892  0.22034  0.39480  1.0000
  H   H1814     1.0  0.93148  0.17883  0.41520  1.0000
  C   C1526     1.0  0.97044  0.45226  0.39306  1.0000
  C   C1527     1.0  0.98506  0.43417  0.38778  1.0000
  C   C1528     1.0  0.98282  0.40617  0.38969  1.0000
  C   C1529     1.0  0.96572  0.39586  0.39618  1.0000
  C   C1530     1.0  0.95085  0.41389  0.40083  1.0000
  C   C1531     1.0  0.95322  0.44204  0.39940  1.0000
  C   C1532     1.0  0.77542  0.17763  0.36550  1.0000
  H   H1815     1.0  0.98905  0.42881  0.43665  1.0000
  H   H1816     1.0  0.93768  0.40609  0.40624  1.0000
  H   H1817     1.0  0.00800  0.00286  0.40694  1.0000
  H   H1818     1.0  0.94995  0.42683  0.48824  1.0000
  H   H1819     1.0  0.76380  0.37234  0.48726  1.0000
  C   C1533     1.0  0.77177  0.43595  0.41185  1.0000
  H   H1820     1.0  0.76173  0.04696  0.59870  1.0000
  H   H1821     1.0  0.89567  0.25666  0.38589  1.0000
  H   H1822     1.0  0.86556  0.25807  0.40346  1.0000
  C   C1534     1.0  0.95812  0.44544  0.33907  1.0000
  H   H1823     1.0  0.99840  0.44189  0.38285  1.0000
  C   C1535     1.0  0.98398  0.00534  0.50185  1.0000
  H   H1824     1.0  0.77351  0.21999  0.37384  1.0000
  H   H1825     1.0  0.82423  0.99325  0.37907  1.0000
  C   C1536     1.0  0.87620  0.20535  0.36006  1.0000
  H   H1826     1.0  0.84338  0.23777  0.42663  1.0000
  H   H1827     1.0  0.84120  0.18840  0.41341  1.0000
  H   H1828     1.0  0.79039  0.39860  0.55005  1.0000
  C   C1537     1.0  0.76922  0.45332  0.39454  1.0000
  H   H1829     1.0  0.96262  0.39418  0.35182  1.0000
  H   H1830     1.0  0.97092  0.45268  0.34635  1.0000
  H   H1831     1.0  0.97157  0.38857  0.44310  1.0000
  N   N102      1.0  0.80634  0.32108  0.51161  1.0000
  C   C1538     1.0  0.80079  0.29270  0.50863  1.0000
  C   C1539     1.0  0.80470  0.33517  0.49110  1.0000
  C   C1540     1.0  0.82613  0.32042  0.51761  1.0000
  C   C1541     1.0  0.79489  0.33574  0.52767  1.0000
  C   C1542     1.0  0.79856  0.36304  0.53240  1.0000
  C   C1543     1.0  0.77972  0.32389  0.53870  1.0000
  C   C1544     1.0  0.78771  0.37755  0.54712  1.0000
  H   H1832     1.0  0.90344  0.41335  0.39224  1.0000
  C   C1545     1.0  0.83021  0.19739  0.40334  1.0000
  H   H1833     1.0  0.78628  0.29173  0.50302  1.0000
  H   H1834     1.0  0.80973  0.28222  0.49657  1.0000
  H   H1835     1.0  0.80195  0.28068  0.52339  1.0000
  H   H1836     1.0  0.81011  0.35594  0.49128  1.0000
  H   H1837     1.0  0.78990  0.33682  0.48650  1.0000
  H   H1838     1.0  0.81263  0.32428  0.47840  1.0000
  H   H1839     1.0  0.82787  0.31079  0.53331  1.0000
  H   H1840     1.0  0.83502  0.30889  0.50605  1.0000
  H   H1841     1.0  0.83197  0.34093  0.51821  1.0000
  H   H1842     1.0  0.80965  0.37357  0.52442  1.0000
  H   H1843     1.0  0.77537  0.30361  0.53573  1.0000
  C   C1546     1.0  0.77596  0.19959  0.37951  1.0000
  C   C1547     1.0  0.98662  0.41642  0.49990  1.0000
  C   C1548     1.0  0.85960  0.43852  0.38492  1.0000
  N   N103      1.0  0.83512  0.22491  0.39598  1.0000
  C   C1549     1.0  0.88958  0.22341  0.36602  1.0000
  C   C1550     1.0  0.82154  0.23432  0.38021  1.0000
  H   H1844     1.0  0.83498  0.26469  0.40970  1.0000
  C   C1551     1.0  0.85397  0.22439  0.38618  1.0000
  C   C1552     1.0  0.88907  0.41413  0.38756  1.0000
  C   C1553     1.0  0.85863  0.20583  0.36990  1.0000
  H   H1845     1.0  0.83889  0.43047  0.33771  1.0000
  H   H1846     1.0  0.96901  0.45044  0.43821  1.0000
  H   H1847     1.0  0.99450  0.39248  0.38654  1.0000
  H   H1848     1.0  0.77389  0.39466  0.42288  1.0000
  H   H1849     1.0  0.80688  0.39371  0.37446  1.0000
  H   H1850     1.0  0.00106  0.40994  0.52889  1.0000
  H   H1851     1.0  0.85782  0.37499  0.36457  1.0000
  H   H1852     1.0  0.76484  0.45517  0.36126  1.0000
  S   S419      1.0  0.96425  0.98501  0.38469  1.0000
  H   H1853     1.0  0.78475  0.16421  0.42417  1.0000
  C   C1554     1.0  0.83124  0.41382  0.34566  1.0000
  H   H1854     1.0  0.87936  0.19135  0.34742  1.0000
  H   H1855     1.0  0.82785  0.18333  0.39023  1.0000
  H   H1856     1.0  0.98711  0.99779  0.45034  1.0000
  H   H1857     1.0  0.81542  0.11416  0.37214  1.0000
  S   S420      1.0  0.76856  0.36100  0.38575  1.0000
  H   H1858     1.0  0.77256  0.18148  0.34914  1.0000
  C   C1555     1.0  0.00090  0.40569  0.51221  1.0000
  H   H1859     1.0  0.95024  0.40734  0.44461  1.0000
  H   H1860     1.0  0.82246  0.39417  0.39608  1.0000
  C   C1556     1.0  0.85133  0.41602  0.37545  1.0000
  H   H1861     1.0  0.94844  0.44080  0.35242  1.0000
  C   C1557     1.0  0.97112  0.40005  0.33780  1.0000
  C   C1558     1.0  0.88145  0.39181  0.37817  1.0000
  S   S421      1.0  0.79636  0.00234  0.34015  1.0000
  C   C1559     1.0  0.76941  0.39644  0.38961  1.0000
  H   H1862     1.0  0.84852  0.19197  0.36435  1.0000
  H   H1863     1.0  0.98812  0.45631  0.45489  1.0000
  H   H1864     1.0  0.80652  0.44113  0.36959  1.0000
  H   H1865     1.0  0.93451  0.40654  0.33330  1.0000
  H   H1866     1.0  0.96294  0.45709  0.48302  1.0000
  H   H1867     1.0  0.81701  0.19766  0.41279  1.0000
  H   H1868     1.0  0.97996  0.98535  0.42569  1.0000
  C   C1560     1.0  0.98343  0.97770  0.49751  1.0000
  H   H1869     1.0  0.81909  0.24237  0.42186  1.0000
  S   S422      1.0  0.78006  0.22180  0.41950  1.0000
  H   H1870     1.0  0.94178  0.45584  0.40329  1.0000
  C   C1561     1.0  0.97982  0.44022  0.44785  1.0000
  C   C1562     1.0  0.82124  0.44166  0.37452  1.0000
  C   C1563     1.0  0.86293  0.39273  0.37207  1.0000
  C   C1564     1.0  0.98634  0.41163  0.47794  1.0000
  C   C1565     1.0  0.77202  0.40766  0.40939  1.0000
  H   H1871     1.0  0.83116  0.97998  0.40391  1.0000
  C   C1566     1.0  0.77919  0.19500  0.40083  1.0000
  C   C1567     1.0  0.86789  0.24270  0.39172  1.0000
  N   N104      1.0  0.88675  0.11703  0.39669  1.0000
  C   C1568     1.0  0.89840  0.09998  0.38229  1.0000
  C   C1569     1.0  0.89334  0.14516  0.39545  1.0000
  C   C1570     1.0  0.88995  0.10697  0.41839  1.0000
  C   C1571     1.0  0.86707  0.11637  0.39045  1.0000
  C   C1572     1.0  0.86179  0.12589  0.37029  1.0000
  C   C1573     1.0  0.85272  0.10621  0.40378  1.0000
  C   C1574     1.0  0.84336  0.12517  0.36388  1.0000
  C   C1575     1.0  0.83431  0.10571  0.39722  1.0000
  C   C1576     1.0  0.82966  0.11509  0.37731  1.0000
  H   H1872     1.0  0.89801  0.10722  0.36577  1.0000
  H   H1873     1.0  0.91328  0.09970  0.38675  1.0000
  H   H1874     1.0  0.89370  0.07874  0.38256  1.0000
  H   H1875     1.0  0.88437  0.15898  0.40520  1.0000
  H   H1876     1.0  0.89373  0.15322  0.37915  1.0000
  H   H1877     1.0  0.90779  0.14650  0.40115  1.0000
  H   H1878     1.0  0.88615  0.08544  0.42025  1.0000
  H   H1879     1.0  0.90488  0.10775  0.42257  1.0000
  H   H1880     1.0  0.88203  0.11924  0.43026  1.0000
  H   H1881     1.0  0.87197  0.13346  0.35917  1.0000
  H   H1882     1.0  0.85537  0.09799  0.41921  1.0000
  C   C1577     1.0  0.99345  0.01337  0.51978  1.0000
  H   H1883     1.0  0.82360  0.09742  0.40743  1.0000
  H   H1884     1.0  0.81672  0.41468  0.33993  1.0000
  C   C1578     1.0  0.96216  0.40003  0.45410  1.0000
  C   C1579     1.0  0.77824  0.15074  0.37244  1.0000
  H   H1885     1.0  0.82758  0.37352  0.37359  1.0000
  C   C1580     1.0  0.87819  0.43747  0.39085  1.0000
  N   N105      1.0  0.83174  0.41644  0.36879  1.0000
  C   C1581     1.0  0.00118  0.39559  0.46922  1.0000
  H   H1886     1.0  0.94598  0.44660  0.46517  1.0000
  Fe  Fe208     1.0  0.95435  0.32343  0.32993  1.0000
  H   H1887     1.0  0.85206  0.45728  0.38782  1.0000
  H   H1888     1.0  0.91971  0.97498  0.40021  1.0000
  H   H1889     1.0  0.77350  0.44438  0.42725  1.0000
  H   H1890     1.0  0.83761  0.39439  0.34013  1.0000
  N   N106      1.0  0.00817  0.97473  0.43308  1.0000
  H   H1891     1.0  0.76422  0.37687  0.56857  1.0000
  H   H1892     1.0  0.99389  0.03463  0.52346  1.0000
  C   C1582     1.0  0.82469  0.97455  0.38892  1.0000
  H   H1893     1.0  0.97624  0.42883  0.50797  1.0000
  H   H1894     1.0  0.76699  0.02165  0.56869  1.0000
  H   H1895     1.0  0.90313  0.22338  0.35821  1.0000
  C   C1583     1.0  0.98860  0.98037  0.43948  1.0000
  H   H1896     1.0  0.98473  0.40631  0.34367  1.0000
  H   H1897     1.0  0.00186  0.39109  0.45264  1.0000
  H   H1898     1.0  0.76491  0.40546  0.35694  1.0000
  C   C1584     1.0  0.76701  0.41385  0.37231  1.0000
  C   C1585     1.0  0.76704  0.44210  0.37472  1.0000
  S   S423      1.0  0.76074  0.04556  0.34534  1.0000
  C   C1586     1.0  0.00259  0.99427  0.53288  1.0000
  H   H1899     1.0  0.85592  0.97663  0.36348  1.0000
  H   H1900     1.0  0.90218  0.97536  0.43402  1.0000
  H   H1901     1.0  0.95195  0.46267  0.33005  1.0000
  Fe  Fe209     1.0  0.92301  0.27754  0.93401  1.0000
  S   S424      1.0  0.93575  0.28521  0.90254  1.0000
  S   S425      1.0  0.89195  0.27007  0.93665  1.0000
  Fe  Fe210     1.0  0.96053  0.28174  0.95544  1.0000
  S   S426      1.0  0.97544  0.29063  0.92454  1.0000
  C   C1587     1.0  0.87586  0.46630  0.88356  1.0000
  Fe  Fe211     1.0  0.95121  0.31884  0.91716  1.0000
  S   S427      1.0  0.94947  0.35521  0.89430  1.0000
  Fe  Fe212     1.0  0.95860  0.25680  0.91228  1.0000
  S   S428      1.0  0.96789  0.22818  0.88629  1.0000
  S   S429      1.0  0.93719  0.31241  0.94879  1.0000
  S   S430      1.0  0.94491  0.24642  0.94320  1.0000
  Fe  Fe213     1.0  0.95842  0.07395  0.87243  1.0000
  S   S431      1.0  0.94098  0.08873  0.84573  1.0000
  S   S432      1.0  0.96692  0.10054  0.89909  1.0000
  Fe  Fe214     1.0  0.95840  0.01471  0.85906  1.0000
  S   S433      1.0  0.94134  0.02558  0.83097  1.0000
  H   H1902     1.0  0.90599  0.10479  0.79866  1.0000
  Fe  Fe215     1.0  0.95959  0.06152  0.82567  1.0000
  S   S434      1.0  0.96565  0.07222  0.79092  1.0000
  Fe  Fe216     1.0  0.92434  0.05197  0.85292  1.0000
  S   S435      1.0  0.89304  0.05099  0.85172  1.0000
  S   S436      1.0  0.97821  0.04872  0.85223  1.0000
  S   S437      1.0  0.94015  0.03913  0.88122  1.0000
  H   H1903     1.0  0.83212  0.39297  0.92731  1.0000
  C   C1588     1.0  0.91293  0.08448  0.79940  1.0000
  Fe  Fe217     1.0  0.80849  0.28246  0.86088  1.0000
  S   S438      1.0  0.79528  0.28833  0.89250  1.0000
  S   S439      1.0  0.83982  0.28192  0.85744  1.0000
  Fe  Fe218     1.0  0.77105  0.28292  0.83870  1.0000
  Fe  Fe219     1.0  0.77698  0.31963  0.87719  1.0000
  Fe  Fe220     1.0  0.77517  0.25749  0.88224  1.0000
  N   N107      1.0  0.99540  0.00716  0.91443  1.0000
  S   S440      1.0  0.79143  0.31568  0.84573  1.0000
  S   S441      1.0  0.78969  0.24928  0.85118  1.0000
  Fe  Fe221     1.0  0.81508  0.05541  0.93742  1.0000
  S   S442      1.0  0.79986  0.03992  0.90988  1.0000
  S   S443      1.0  0.84534  0.06704  0.93584  1.0000
  Fe  Fe222     1.0  0.77968  0.05739  0.96591  1.0000
  Fe  Fe223     1.0  0.78553  0.01218  0.93298  1.0000
  Fe  Fe224     1.0  0.77826  0.07154  0.91953  1.0000
  H   H1904     1.0  0.76159  0.23078  0.66937  1.0000
  S   S444      1.0  0.80232  0.02599  0.96015  1.0000
  S   S445      1.0  0.79421  0.08827  0.94599  1.0000
  H   H1905     1.0  0.83015  0.31800  0.91992  1.0000
  H   H1906     1.0  0.96856  0.28438  0.85511  1.0000
  H   H1907     1.0  0.82971  0.34452  0.93934  1.0000
  H   H1908     1.0  0.00771  0.05153  0.75353  1.0000
  H   H1909     1.0  0.96849  0.00666  0.90094  1.0000
  H   H1910     1.0  0.99742  0.02349  0.94572  1.0000
  H   H1911     1.0  0.76158  0.46217  0.69322  1.0000
  H   H1912     1.0  0.77104  0.11803  0.99079  1.0000
  C   C1589     1.0  0.77433  0.29068  0.72023  1.0000
  S   S446      1.0  0.97739  0.28262  0.98577  1.0000
  C   C1590     1.0  0.88073  0.05320  0.87592  1.0000
  C   C1591     1.0  0.88787  0.06694  0.89290  1.0000
  C   C1592     1.0  0.87704  0.07052  0.91138  1.0000
  C   C1593     1.0  0.85907  0.06030  0.91305  1.0000
  C   C1594     1.0  0.85220  0.04582  0.89630  1.0000
  C   C1595     1.0  0.86296  0.04241  0.87777  1.0000
  H   H1913     1.0  0.90160  0.07523  0.89167  1.0000
  H   H1914     1.0  0.88258  0.08135  0.92440  1.0000
  H   H1915     1.0  0.83858  0.03733  0.89753  1.0000
  H   H1916     1.0  0.85744  0.03150  0.86478  1.0000
  C   C1596     1.0  0.98265  0.09258  0.77805  1.0000
  C   C1597     1.0  0.98064  0.09901  0.75662  1.0000
  C   C1598     1.0  0.99415  0.11395  0.74544  1.0000
  H   H1917     1.0  0.97168  0.22394  0.98952  1.0000
  H   H1918     1.0  0.90819  0.07455  0.81420  1.0000
  C   C1599     1.0  0.99837  0.10146  0.78819  1.0000
  H   H1919     1.0  0.96856  0.09237  0.74856  1.0000
  C   C1600     1.0  0.99448  0.35344  0.86997  1.0000
  C   C1601     1.0  0.77102  0.24380  0.73047  1.0000
  C   C1602     1.0  0.87753  0.27378  0.91456  1.0000
  C   C1603     1.0  0.85844  0.26912  0.91686  1.0000
  C   C1604     1.0  0.84669  0.27160  0.89954  1.0000
  C   C1605     1.0  0.85393  0.27882  0.87977  1.0000
  C   C1606     1.0  0.87299  0.28333  0.87749  1.0000
  C   C1607     1.0  0.88470  0.28087  0.89476  1.0000
  H   H1920     1.0  0.85275  0.26342  0.93207  1.0000
  H   H1921     1.0  0.83211  0.26752  0.90150  1.0000
  H   H1922     1.0  0.87874  0.28892  0.86228  1.0000
  H   H1923     1.0  0.89922  0.28474  0.89264  1.0000
  C   C1608     1.0  0.96789  0.19276  0.89015  1.0000
  C   C1609     1.0  0.96735  0.17580  0.87264  1.0000
  C   C1610     1.0  0.96694  0.14754  0.87518  1.0000
  C   C1611     1.0  0.96742  0.13597  0.89527  1.0000
  C   C1612     1.0  0.96824  0.15293  0.91277  1.0000
  C   C1613     1.0  0.96837  0.18122  0.91024  1.0000
  H   H1924     1.0  0.96714  0.18454  0.85702  1.0000
  H   H1925     1.0  0.96652  0.13471  0.86156  1.0000
  H   H1926     1.0  0.96880  0.14415  0.92835  1.0000
  H   H1927     1.0  0.96913  0.19406  0.92382  1.0000
  C   C1614     1.0  0.95443  0.39036  0.89466  1.0000
  C   C1615     1.0  0.95032  0.40639  0.87688  1.0000
  C   C1616     1.0  0.95433  0.43419  0.87611  1.0000
  C   C1617     1.0  0.96264  0.44638  0.89313  1.0000
  C   C1618     1.0  0.96672  0.43034  0.91090  1.0000
  C   C1619     1.0  0.96260  0.40259  0.91172  1.0000
  H   H1928     1.0  0.94410  0.39719  0.86352  1.0000
  H   H1929     1.0  0.95114  0.44613  0.86230  1.0000
  H   H1930     1.0  0.97309  0.43948  0.92421  1.0000
  H   H1931     1.0  0.96595  0.39061  0.92547  1.0000
  H   H1932     1.0  0.83465  0.06068  0.77410  1.0000
  N   N108      1.0  0.90953  0.18138  0.91307  1.0000
  C   C1620     1.0  0.91779  0.16150  0.89797  1.0000
  C   C1621     1.0  0.91290  0.20880  0.90430  1.0000
  C   C1622     1.0  0.91940  0.17893  0.93317  1.0000
  C   C1623     1.0  0.88963  0.17593  0.91699  1.0000
  C   C1624     1.0  0.88398  0.14965  0.92302  1.0000
  C   C1625     1.0  0.87547  0.19643  0.91596  1.0000
  C   C1626     1.0  0.86534  0.14419  0.92744  1.0000
  C   C1627     1.0  0.85689  0.19079  0.92050  1.0000
  C   C1628     1.0  0.85181  0.16473  0.92616  1.0000
  H   H1933     1.0  0.93212  0.16681  0.89299  1.0000
  H   H1934     1.0  0.91915  0.14077  0.90470  1.0000
  H   H1935     1.0  0.90946  0.16056  0.88353  1.0000
  H   H1936     1.0  0.92793  0.21190  0.90070  1.0000
  H   H1937     1.0  0.90875  0.22491  0.91566  1.0000
  H   H1938     1.0  0.90535  0.21243  0.88947  1.0000
  H   H1939     1.0  0.91872  0.15824  0.94002  1.0000
  H   H1940     1.0  0.93437  0.18350  0.93115  1.0000
  H   H1941     1.0  0.91336  0.19331  0.94500  1.0000
  H   H1942     1.0  0.89401  0.13318  0.92476  1.0000
  H   H1943     1.0  0.87843  0.21711  0.91199  1.0000
  H   H1944     1.0  0.86141  0.12399  0.93226  1.0000
  H   H1945     1.0  0.84638  0.20686  0.91979  1.0000
  H   H1946     1.0  0.83740  0.16055  0.92983  1.0000
  C   C1629     1.0  0.85853  0.05228  0.79296  1.0000
  H   H1947     1.0  0.96830  0.01895  0.92727  1.0000
  H   H1948     1.0  0.88614  0.08630  0.74756  1.0000
  C   C1630     1.0  0.91852  0.08123  0.76232  1.0000
  H   H1949     1.0  0.89283  0.32964  0.92889  1.0000
  H   H1950     1.0  0.79021  0.27918  0.76956  1.0000
  S   S447      1.0  0.76817  0.22721  0.90793  1.0000
  C   C1631     1.0  0.85981  0.07451  0.75917  1.0000
  H   H1951     1.0  0.85276  0.08233  0.74545  1.0000
  H   H1952     1.0  0.77339  0.28734  0.67583  1.0000
  H   H1953     1.0  0.00625  0.03285  0.88966  1.0000
  C   C1632     1.0  0.91739  0.04083  0.78321  1.0000
  C   C1633     1.0  0.84957  0.06235  0.77530  1.0000
  H   H1954     1.0  0.90844  0.35847  0.90251  1.0000
  C   C1634     1.0  0.76344  0.15313  0.88168  1.0000
  C   C1635     1.0  0.99427  0.97848  0.92106  1.0000
  H   H1955     1.0  0.99734  0.28934  0.83106  1.0000
  H   H1956     1.0  0.00019  0.09674  0.80463  1.0000
  C   C1636     1.0  0.99988  0.32661  0.87566  1.0000
  H   H1957     1.0  0.88386  0.45456  0.87218  1.0000
  H   H1958     1.0  0.93281  0.04134  0.78423  1.0000
  H   H1959     1.0  0.77586  0.18271  0.93542  1.0000
  H   H1960     1.0  0.93381  0.08211  0.76456  1.0000
  H   H1961     1.0  0.91245  0.03066  0.79784  1.0000
  H   H1962     1.0  0.81074  0.38626  0.91470  1.0000
  H   H1963     1.0  0.00077  0.06864  0.71780  1.0000
  N   N109      1.0  0.83335  0.35819  0.90727  1.0000
  N   N110      1.0  0.90901  0.06833  0.78061  1.0000
  H   H1964     1.0  0.78301  0.23771  0.68214  1.0000
  S   S448      1.0  0.77008  0.35723  0.89696  1.0000
  S   S449      1.0  0.76219  0.04241  0.93989  1.0000
  H   H1965     1.0  0.77456  0.13332  0.93107  1.0000
  C   C1637     1.0  0.78460  0.27504  0.75429  1.0000
  H   H1966     1.0  0.85059  0.04278  0.80554  1.0000
  H   H1967     1.0  0.99441  0.32502  0.83316  1.0000
  C   C1638     1.0  0.87775  0.05430  0.79454  1.0000
  C   C1639     1.0  0.86341  0.37468  0.89154  1.0000
  C   C1640     1.0  0.82614  0.35041  0.88661  1.0000
  H   H1968     1.0  0.88981  0.38718  0.87854  1.0000
  C   C1641     1.0  0.00544  0.01106  0.89404  1.0000
  C   C1642     1.0  0.78514  0.40297  0.87784  1.0000
  H   H1969     1.0  0.76138  0.35678  0.85276  1.0000
  C   C1643     1.0  0.76788  0.23474  0.68484  1.0000
  H   H1970     1.0  0.76622  0.21577  0.69407  1.0000
  C   C1644     1.0  0.78398  0.44788  0.89410  1.0000
  H   H1971     1.0  0.88404  0.04620  0.80858  1.0000
  H   H1972     1.0  0.90927  0.43811  0.89213  1.0000
  H   H1973     1.0  0.00158  0.02127  0.72523  1.0000
  H   H1974     1.0  0.79529  0.43939  0.86317  1.0000
  N   N111      1.0  0.82577  0.12005  0.87538  1.0000
  C   C1645     1.0  0.82201  0.11041  0.89712  1.0000
  C   C1646     1.0  0.80929  0.11498  0.86258  1.0000
  C   C1647     1.0  0.84145  0.10337  0.86654  1.0000
  C   C1648     1.0  0.82938  0.14935  0.87547  1.0000
  C   C1649     1.0  0.81556  0.16789  0.88318  1.0000
  C   C1650     1.0  0.84627  0.16041  0.86775  1.0000
  C   C1651     1.0  0.81808  0.19574  0.88243  1.0000
  C   C1652     1.0  0.84864  0.18837  0.86702  1.0000
  C   C1653     1.0  0.83450  0.20596  0.87411  1.0000
  H   H1975     1.0  0.80908  0.11958  0.90412  1.0000
  H   H1976     1.0  0.82021  0.08819  0.89777  1.0000
  H   H1977     1.0  0.83369  0.11483  0.90756  1.0000
  H   H1978     1.0  0.80600  0.09311  0.86231  1.0000
  H   H1979     1.0  0.81139  0.12213  0.84612  1.0000
  H   H1980     1.0  0.79652  0.12532  0.86885  1.0000
  H   H1981     1.0  0.85406  0.10457  0.87626  1.0000
  H   H1982     1.0  0.83791  0.08167  0.86602  1.0000
  H   H1983     1.0  0.84499  0.10932  0.85009  1.0000
  H   H1984     1.0  0.80256  0.16094  0.88962  1.0000
  H   H1985     1.0  0.85780  0.14794  0.86209  1.0000
  H   H1986     1.0  0.80713  0.20949  0.88813  1.0000
  H   H1987     1.0  0.86147  0.19658  0.86081  1.0000
  H   H1988     1.0  0.83628  0.22756  0.87318  1.0000
  C   C1654     1.0  0.88455  0.34241  0.91856  1.0000
  H   H1989     1.0  0.85937  0.32838  0.93156  1.0000
  C   C1655     1.0  0.78889  0.43083  0.87714  1.0000
  H   H1990     1.0  0.82965  0.36502  0.87393  1.0000
  C   C1656     1.0  0.86514  0.34192  0.91991  1.0000
  C   C1657     1.0  0.89337  0.35864  0.90368  1.0000
  C   C1658     1.0  0.88866  0.06649  0.77841  1.0000
  C   C1659     1.0  0.78228  0.29577  0.73960  1.0000
  H   H1991     1.0  0.91665  0.06969  0.74766  1.0000
  H   H1992     1.0  0.90470  0.44410  0.91959  1.0000
  H   H1993     1.0  0.99694  0.25997  0.86054  1.0000
  H   H1994     1.0  0.76606  0.22362  0.72822  1.0000
  H   H1995     1.0  0.78122  0.97993  0.97944  1.0000
  H   H1996     1.0  0.96811  0.30170  0.87966  1.0000
  C   C1660     1.0  0.77625  0.39182  0.89550  1.0000
  C   C1661     1.0  0.97359  0.30251  0.86326  1.0000
  C   C1662     1.0  0.91176  0.45214  0.90521  1.0000
  H   H1997     1.0  0.91411  0.02767  0.76981  1.0000
  H   H1998     1.0  0.81009  0.33959  0.92328  1.0000
  H   H1999     1.0  0.99233  0.11878  0.72902  1.0000
  H   H2000     1.0  0.97647  0.04004  0.90639  1.0000
  C   C1663     1.0  0.77563  0.43653  0.91200  1.0000
  H   H2001     1.0  0.91355  0.10250  0.76002  1.0000
  H   H2002     1.0  0.99609  0.27210  0.88656  1.0000
  C   C1664     1.0  0.85393  0.35804  0.90632  1.0000
  H   H2003     1.0  0.83193  0.33029  0.88175  1.0000
  H   H2004     1.0  0.81072  0.34920  0.88701  1.0000
  H   H2005     1.0  0.92808  0.08753  0.80101  1.0000
  C   C1665     1.0  0.76842  0.26441  0.71509  1.0000
  C   C1666     1.0  0.88283  0.37479  0.89021  1.0000
  C   C1667     1.0  0.82612  0.38572  0.91249  1.0000
  H   H2006     1.0  0.82928  0.40076  0.89996  1.0000
  C   C1668     1.0  0.87908  0.07664  0.76060  1.0000
  H   H2007     1.0  0.98591  0.35751  0.85656  1.0000
  H   H2008     1.0  0.84999  0.45573  0.86970  1.0000
  H   H2009     1.0  0.85582  0.38754  0.88077  1.0000
  C   C1669     1.0  0.77251  0.17455  0.92032  1.0000
  C   C1670     1.0  0.82560  0.33924  0.92320  1.0000
  C   C1671     1.0  0.97637  0.01873  0.91221  1.0000
  H   H2010     1.0  0.77267  0.30773  0.70974  1.0000
  C   C1672     1.0  0.76430  0.18132  0.88407  1.0000
  C   C1673     1.0  0.76734  0.13556  0.89854  1.0000
  H   H2011     1.0  0.78638  0.31599  0.74345  1.0000
  C   C1674     1.0  0.77916  0.24907  0.74963  1.0000
  H   H2012     1.0  0.96692  0.32061  0.85587  1.0000
  C   C1675     1.0  0.77172  0.40873  0.91263  1.0000
  H   H2013     1.0  0.92696  0.45099  0.90801  1.0000
  H   H2014     1.0  0.78872  0.39034  0.86452  1.0000
  H   H2015     1.0  0.78052  0.23314  0.76133  1.0000
  H   H2016     1.0  0.99464  0.39579  0.87758  1.0000
  N   N112      1.0  0.99414  0.30352  0.86290  1.0000
  C   C1676     1.0  0.77195  0.14644  0.91784  1.0000
  C   C1677     1.0  0.77372  0.98177  0.99488  1.0000
  C   C1678     1.0  0.00510  0.02281  0.93042  1.0000
  H   H2017     1.0  0.76489  0.40035  0.92642  1.0000
  C   C1679     1.0  0.85650  0.46662  0.88211  1.0000
  H   H2018     1.0  0.76113  0.19470  0.87104  1.0000
  C   C1680     1.0  0.00080  0.30696  0.84086  1.0000
  S   S450      1.0  0.76666  0.10023  0.89486  1.0000
  H   H2019     1.0  0.77174  0.44929  0.92517  1.0000
  H   H2020     1.0  0.97982  0.98695  0.95088  1.0000
  H   H2021     1.0  0.99818  0.00134  0.88096  1.0000
  C   C1681     1.0  0.99932  0.37554  0.88198  1.0000
  H   H2022     1.0  0.00668  0.04430  0.92545  1.0000
  C   C1682     1.0  0.00145  0.27690  0.87048  1.0000
  C   C1683     1.0  0.76866  0.19210  0.90350  1.0000
  H   H2023     1.0  0.76402  0.46702  0.66538  1.0000
  H   H2024     1.0  0.75977  0.14492  0.86670  1.0000
  H   H2025     1.0  0.76391  0.53882  0.12805  1.0000
  C   C1684     1.0  0.00571  0.71638  0.22448  1.0000
  S   S451      1.0  0.77626  0.52265  0.29064  1.0000
  H   H2026     1.0  0.96881  0.75838  0.29168  1.0000
  H   H2027     1.0  0.98824  0.74378  0.09816  1.0000
  H   H2028     1.0  0.97170  0.95960  0.22481  1.0000
  S   S452      1.0  0.96696  0.81825  0.29268  1.0000
  C   C1685     1.0  0.98715  0.95945  0.22429  1.0000
  H   H2029     1.0  0.98777  0.70971  0.05247  1.0000
  H   H2030     1.0  0.96387  0.79277  0.06960  1.0000
  H   H2031     1.0  0.00124  0.79080  0.27989  1.0000
  C   C1686     1.0  0.98186  0.84171  0.27989  1.0000
  C   C1687     1.0  0.99113  0.86144  0.29083  1.0000
  H   H2032     1.0  0.97766  0.82476  0.24935  1.0000
  H   H2033     1.0  0.98207  0.82053  0.14739  1.0000
  H   H2034     1.0  0.97533  0.76037  0.06758  1.0000
  C   C1688     1.0  0.99669  0.85766  0.24714  1.0000
  H   H2035     1.0  0.99344  0.72772  0.30786  1.0000
  H   H2036     1.0  0.98362  0.93500  0.30016  1.0000
  H   H2037     1.0  0.97266  0.77135  0.26566  1.0000
  H   H2038     1.0  0.96814  0.73621  0.26977  1.0000
  H   H2039     1.0  0.98830  0.70723  0.25081  1.0000
  C   C1689     1.0  0.98475  0.83992  0.25800  1.0000
  H   H2040     1.0  0.98219  0.83358  0.07540  1.0000
  H   H2041     1.0  0.76296  0.84318  0.28705  1.0000
  H   H2042     1.0  0.98915  0.86299  0.30766  1.0000
  C   C1690     1.0  0.99045  0.72228  0.03882  1.0000
  C   C1691     1.0  0.97553  0.73274  0.02692  1.0000
  H   H2043     1.0  0.76219  0.49874  0.15124  1.0000
  H   H2044     1.0  0.96143  0.72823  0.03168  1.0000
  C   C1692     1.0  0.98676  0.76113  0.10831  1.0000
  H   H2045     1.0  0.78164  0.96950  0.00651  1.0000
  C   C1693     1.0  0.99698  0.75458  0.00306  1.0000
  C   C1694     1.0  0.00372  0.77161  0.28872  1.0000
  C   C1695     1.0  0.98640  0.80923  0.11503  1.0000
  C   C1696     1.0  0.97550  0.75365  0.27614  1.0000
  H   H2046     1.0  0.00271  0.68834  0.99925  1.0000
  H   H2047     1.0  0.76505  0.52082  0.22017  1.0000
  H   H2048     1.0  0.97958  0.77349  0.16028  1.0000
  C   C1697     1.0  0.98157  0.77751  0.14365  1.0000
  C   C1698     1.0  0.98861  0.78783  0.10034  1.0000
  H   H2049     1.0  0.99213  0.93910  0.22958  1.0000
  H   H2050     1.0  0.97977  0.78550  0.04806  1.0000
  C   C1699     1.0  0.98297  0.80397  0.13635  1.0000
  N   N113      1.0  0.99271  0.79246  0.07773  1.0000
  C   C1700     1.0  0.97727  0.78237  0.06524  1.0000
  C   C1701     1.0  0.97867  0.74896  0.00898  1.0000
  H   H2051     1.0  0.98784  0.83020  0.11068  1.0000
  C   C1702     1.0  0.99875  0.72414  0.29150  1.0000
  H   H2052     1.0  0.76302  0.73385  0.05151  1.0000
  C   C1703     1.0  0.99510  0.82135  0.07207  1.0000
  H   H2053     1.0  0.98283  0.73552  0.13549  1.0000
  H   H2054     1.0  0.99176  0.96128  0.20754  1.0000
  C   C1704     1.0  0.98341  0.75614  0.12965  1.0000
  H   H2055     1.0  0.99142  0.70621  0.28592  1.0000
  H   H2056     1.0  0.77234  0.55506  0.21964  1.0000
  H   H2057     1.0  0.99870  0.85605  0.23032  1.0000
  N   N114      1.0  0.99576  0.74827  0.27789  1.0000
  Fe  Fe225     1.0  0.95837  0.81247  0.32721  1.0000
  C   C1705     1.0  0.00305  0.87920  0.27996  1.0000
  H   H2058     1.0  0.99712  0.77494  0.30452  1.0000
  H   H2059     1.0  0.00126  0.69925  0.21556  1.0000
  C   C1706     1.0  0.99845  0.72110  0.24471  1.0000
  H   H2060     1.0  0.99839  0.82400  0.05502  1.0000
  C   C1707     1.0  0.00592  0.87745  0.25807  1.0000
  Fe  Fe226     1.0  0.78254  0.52985  0.32531  1.0000
  H   H2061     1.0  0.99603  0.93828  0.26445  1.0000
  H   H2062     1.0  0.00675  0.83014  0.08073  1.0000
  C   C1708     1.0  0.76059  0.54128  0.14460  1.0000
  H   H2063     1.0  0.77693  0.49227  0.25240  1.0000
  C   C1709     1.0  0.76288  0.49185  0.25873  1.0000
  C   C1710     1.0  0.00875  0.72804  0.03297  1.0000
  C   C1711     1.0  0.98874  0.95579  0.27085  1.0000
  C   C1712     1.0  0.98174  0.95375  0.29142  1.0000
  C   C1713     1.0  0.00398  0.74345  0.25668  1.0000
  C   C1714     1.0  0.76027  0.54201  0.22302  1.0000
  H   H2064     1.0  0.76273  0.88934  0.30157  1.0000
  H   H2065     1.0  0.00920  0.75551  0.07369  1.0000
  C   C1715     1.0  0.75958  0.51871  0.15771  1.0000
  H   H2066     1.0  0.91938  0.93628  0.37741  1.0000
  H   H2067     1.0  0.96544  0.59981  0.47022  1.0000
  Fe  Fe227     1.0  0.95727  0.52765  0.46097  1.0000
  S   S453      1.0  0.97599  0.54345  0.43513  1.0000
  S   S454      1.0  0.96359  0.51653  0.49522  1.0000
  Fe  Fe228     1.0  0.92290  0.53317  0.43290  1.0000
  S   S455      1.0  0.93907  0.54869  0.40503  1.0000
  S   S456      1.0  0.89176  0.52901  0.43470  1.0000
  Fe  Fe229     1.0  0.95990  0.51603  0.41428  1.0000
  H   H2068     1.0  0.96073  0.86543  0.52818  1.0000
  Fe  Fe230     1.0  0.95345  0.57495  0.42803  1.0000
  S   S457      1.0  0.95570  0.62143  0.42750  1.0000
  S   S458      1.0  0.94256  0.49877  0.44048  1.0000
  S   S459      1.0  0.93589  0.56088  0.45554  1.0000
  S   S460      1.0  0.97656  0.79878  0.35381  1.0000
  Fe  Fe231     1.0  0.92285  0.80729  0.35492  1.0000
  S   S461      1.0  0.93845  0.79356  0.38310  1.0000
  S   S462      1.0  0.89158  0.81185  0.35460  1.0000
  Fe  Fe232     1.0  0.95784  0.82685  0.37339  1.0000
  S   S463      1.0  0.96442  0.85728  0.39849  1.0000
  Fe  Fe233     1.0  0.95530  0.76673  0.36109  1.0000
  S   S464      1.0  0.95945  0.72035  0.36151  1.0000
  S   S465      1.0  0.94104  0.84195  0.34637  1.0000
  H   H2069     1.0  0.89078  0.75457  0.36500  1.0000
  H   H2070     1.0  0.91311  0.71835  0.40903  1.0000
  Fe  Fe234     1.0  0.80946  0.80309  0.43335  1.0000
  S   S466      1.0  0.79725  0.79380  0.40228  1.0000
  S   S467      1.0  0.84071  0.80323  0.43703  1.0000
  Fe  Fe235     1.0  0.77138  0.81251  0.45536  1.0000
  Fe  Fe236     1.0  0.77720  0.76829  0.42072  1.0000
  Fe  Fe237     1.0  0.77847  0.82977  0.40965  1.0000
  H   H2071     1.0  0.88480  0.66649  0.39312  1.0000
  S   S468      1.0  0.79047  0.77565  0.45181  1.0000
  S   S469      1.0  0.79182  0.84049  0.43979  1.0000
  Fe  Fe238     1.0  0.77935  0.51443  0.37140  1.0000
  S   S470      1.0  0.79471  0.49530  0.34418  1.0000
  C   C1716     1.0  0.80083  0.66804  0.38479  1.0000
  Fe  Fe239     1.0  0.79092  0.57263  0.35966  1.0000
  H   H2072     1.0  0.92273  0.89582  0.36245  1.0000
  Fe  Fe240     1.0  0.81736  0.52330  0.35206  1.0000
  S   S471      1.0  0.84767  0.51023  0.35158  1.0000
  S   S472      1.0  0.80299  0.54011  0.38057  1.0000
  S   S473      1.0  0.93831  0.77901  0.33322  1.0000
  C   C1717     1.0  0.79425  0.69264  0.39378  1.0000
  C   C1718     1.0  0.99428  0.60759  0.46481  1.0000
  H   H2073     1.0  0.88379  0.89558  0.42305  1.0000
  H   H2074     1.0  0.96814  0.49892  0.53781  1.0000
  H   H2075     1.0  0.88645  0.72511  0.34992  1.0000
  C   C1719     1.0  0.77188  0.94124  0.36991  1.0000
  C   C1720     1.0  0.99996  0.58402  0.50504  1.0000
  C   C1721     1.0  0.77538  0.69648  0.39907  1.0000
  C   C1722     1.0  0.96179  0.88535  0.53469  1.0000
  H   H2076     1.0  0.78269  0.79160  0.51591  1.0000
  C   C1723     1.0  0.91078  0.86581  0.39377  1.0000
  H   H2077     1.0  0.83302  0.69680  0.41810  1.0000
  C   C1724     1.0  0.87787  0.80943  0.37781  1.0000
  C   C1725     1.0  0.88572  0.80498  0.39747  1.0000
  C   C1726     1.0  0.87423  0.80332  0.41557  1.0000
  C   C1727     1.0  0.85485  0.80612  0.41415  1.0000
  C   C1728     1.0  0.84711  0.81115  0.39455  1.0000
  C   C1729     1.0  0.85855  0.81266  0.37647  1.0000
  H   H2078     1.0  0.90058  0.80267  0.39879  1.0000
  H   H2079     1.0  0.88033  0.79957  0.43071  1.0000
  H   H2080     1.0  0.83231  0.81398  0.39323  1.0000
  H   H2081     1.0  0.85236  0.81638  0.36137  1.0000
  C   C1730     1.0  0.85999  0.51304  0.37497  1.0000
  C   C1731     1.0  0.87940  0.51467  0.37402  1.0000
  C   C1732     1.0  0.88938  0.51917  0.39230  1.0000
  C   C1733     1.0  0.87997  0.52180  0.41163  1.0000
  C   C1734     1.0  0.86064  0.51925  0.41267  1.0000
  C   C1735     1.0  0.85068  0.51476  0.39442  1.0000
  H   H2082     1.0  0.88671  0.51305  0.35904  1.0000
  H   H2083     1.0  0.90430  0.52090  0.39138  1.0000
  H   H2084     1.0  0.85335  0.52095  0.42765  1.0000
  H   H2085     1.0  0.83580  0.51278  0.39542  1.0000
  C   C1736     1.0  0.95610  0.64852  0.40872  1.0000
  C   C1737     1.0  0.95517  0.67537  0.41594  1.0000
  C   C1738     1.0  0.95601  0.69756  0.40185  1.0000
  C   C1739     1.0  0.95801  0.69325  0.38024  1.0000
  C   C1740     1.0  0.95866  0.66640  0.37298  1.0000
  C   C1741     1.0  0.95762  0.64421  0.38706  1.0000
  H   H2086     1.0  0.95403  0.67903  0.43263  1.0000
  H   H2087     1.0  0.95555  0.71796  0.40779  1.0000
  H   H2088     1.0  0.96022  0.66270  0.35633  1.0000
  H   H2089     1.0  0.95846  0.62378  0.38119  1.0000
  C   C1742     1.0  0.96236  0.94957  0.38849  1.0000
  C   C1743     1.0  0.95906  0.93821  0.40837  1.0000
  C   C1744     1.0  0.95951  0.90995  0.41112  1.0000
  C   C1745     1.0  0.96268  0.89267  0.39398  1.0000
  C   C1746     1.0  0.96512  0.90396  0.37394  1.0000
  C   C1747     1.0  0.96521  0.93227  0.37127  1.0000
  H   H2090     1.0  0.90959  0.73758  0.35217  1.0000
  H   H2091     1.0  0.95747  0.90142  0.42666  1.0000
  H   H2092     1.0  0.96770  0.89090  0.36061  1.0000
  H   H2093     1.0  0.96781  0.94078  0.35583  1.0000
  C   C1748     1.0  0.89628  0.73409  0.36093  1.0000
  H   H2094     1.0  0.92538  0.87173  0.39614  1.0000
  C   C1749     1.0  0.85110  0.72686  0.40527  1.0000
  H   H2095     1.0  0.89010  0.62239  0.34780  1.0000
  H   H2096     1.0  0.86302  0.94241  0.36829  1.0000
  C   C1750     1.0  0.84626  0.70052  0.41032  1.0000
  C   C1751     1.0  0.91070  0.73077  0.39465  1.0000
  H   H2097     1.0  0.87888  0.86420  0.36960  1.0000
  C   C1752     1.0  0.98149  0.49672  0.50721  1.0000
  H   H2098     1.0  0.78393  0.83754  0.53032  1.0000
  S   S474      1.0  0.76627  0.72651  0.41157  1.0000
  H   H2099     1.0  0.83184  0.86170  0.42611  1.0000
  C   C1753     1.0  0.99718  0.48704  0.49602  1.0000
  C   C1754     1.0  0.76548  0.82937  0.55661  1.0000
  H   H2100     1.0  0.81143  0.94644  0.35808  1.0000
  H   H2101     1.0  0.85489  0.65870  0.41002  1.0000
  H   H2102     1.0  0.99203  0.61645  0.44941  1.0000
  S   S475      1.0  0.80679  0.55667  0.33123  1.0000
  C   C1755     1.0  0.88096  0.71055  0.39000  1.0000
  N   N115      1.0  0.83483  0.95208  0.37805  1.0000
  C   C1756     1.0  0.90748  0.89250  0.36243  1.0000
  H   H2103     1.0  0.96428  0.95909  0.55420  1.0000
  H   H2104     1.0  0.83698  0.62268  0.34636  1.0000
  C   C1757     1.0  0.83369  0.92722  0.39105  1.0000
  C   C1758     1.0  0.84228  0.92575  0.41087  1.0000
  C   C1759     1.0  0.82393  0.90412  0.38478  1.0000
  C   C1760     1.0  0.84165  0.90233  0.42329  1.0000
  C   C1761     1.0  0.91149  0.95774  0.40478  1.0000
  C   C1762     1.0  0.83239  0.87982  0.41643  1.0000
  C   C1763     1.0  0.77520  0.79650  0.53040  1.0000
  H   H2105     1.0  0.98180  0.92343  0.57202  1.0000
  H   H2106     1.0  0.99272  0.93744  0.50649  1.0000
  H   H2107     1.0  0.90419  0.75033  0.39971  1.0000
  H   H2108     1.0  0.79150  0.60864  0.41930  1.0000
  H   H2109     1.0  0.86102  0.96636  0.38944  1.0000
  H   H2110     1.0  0.98248  0.96264  0.44763  1.0000
  H   H2111     1.0  0.76956  0.95362  0.35610  1.0000
  H   H2112     1.0  0.77039  0.90358  0.35331  1.0000
  C   C1764     1.0  0.88028  0.87956  0.38205  1.0000
  C   C1765     1.0  0.96321  0.93836  0.54906  1.0000
  C   C1766     1.0  0.84316  0.58577  0.37454  1.0000
  C   C1767     1.0  0.82344  0.88081  0.39731  1.0000
  C   C1768     1.0  0.76980  0.65085  0.38575  1.0000
  H   H2113     1.0  0.87468  0.86994  0.39662  1.0000
  H   H2114     1.0  0.85989  0.63478  0.34261  1.0000
  C   C1769     1.0  0.77726  0.90872  0.40564  1.0000
  N   N116      1.0  0.89981  0.88809  0.38400  1.0000
  C   C1770     1.0  0.78199  0.55599  0.43200  1.0000
  H   H2115     1.0  0.95652  0.95108  0.42174  1.0000
  C   C1771     1.0  0.78121  0.64261  0.43642  1.0000
  C   C1772     1.0  0.98195  0.58640  0.49636  1.0000
  S   S476      1.0  0.79811  0.61581  0.37016  1.0000
  C   C1773     1.0  0.90960  0.69193  0.37255  1.0000
  C   C1774     1.0  0.98624  0.56317  0.53716  1.0000
  H   H2116     1.0  0.91128  0.84747  0.38381  1.0000
  H   H2117     1.0  0.98307  0.88712  0.59396  1.0000
  C   C1775     1.0  0.00262  0.96675  0.52809  1.0000
  H   H2118     1.0  0.80375  0.70865  0.39669  1.0000
  C   C1776     1.0  0.77463  0.89644  0.38629  1.0000
  H   H2119     1.0  0.84813  0.90168  0.43848  1.0000
  H   H2120     1.0  0.83876  0.59832  0.38826  1.0000
  H   H2121     1.0  0.76618  0.85010  0.56156  1.0000
  H   H2122     1.0  0.76335  0.80138  0.60685  1.0000
  S   S477      1.0  0.77296  0.86092  0.38386  1.0000
  C   C1777     1.0  0.78048  0.61584  0.42979  1.0000
  C   C1778     1.0  0.78869  0.64688  0.38074  1.0000
  H   H2123     1.0  0.97591  0.97100  0.48417  1.0000
  H   H2124     1.0  0.78486  0.55587  0.44908  1.0000
  C   C1779     1.0  0.98027  0.49174  0.52899  1.0000
  H   H2125     1.0  0.94521  0.94889  0.52370  1.0000
  N   N117      1.0  0.85811  0.59855  0.36185  1.0000
  H   H2126     1.0  0.96967  0.57896  0.50428  1.0000
  H   H2127     1.0  0.87199  0.59028  0.33196  1.0000
  C   C1780     1.0  0.76441  0.77718  0.54047  1.0000
  C   C1781     1.0  0.87533  0.60243  0.37362  1.0000
  C   C1782     1.0  0.87772  0.59283  0.39453  1.0000
  S   S478      1.0  0.76792  0.48882  0.39822  1.0000
  C   C1783     1.0  0.89441  0.59608  0.40488  1.0000
  H   H2128     1.0  0.91914  0.62763  0.36651  1.0000
  C   C1784     1.0  0.90917  0.60889  0.39487  1.0000
  H   H2129     1.0  0.87093  0.89687  0.37795  1.0000
  N   N118      1.0  0.89905  0.71650  0.37968  1.0000
  C   C1785     1.0  0.91108  0.93526  0.39170  1.0000
  H   H2130     1.0  0.90042  0.90996  0.35457  1.0000
  H   H2131     1.0  0.94362  0.90192  0.51108  1.0000
  C   C1786     1.0  0.77587  0.82243  0.53855  1.0000
  C   C1787     1.0  0.85858  0.67911  0.40566  1.0000
  C   C1788     1.0  0.97912  0.86853  0.58570  1.0000
  H   H2132     1.0  0.96394  0.86606  0.58825  1.0000
  H   H2133     1.0  0.86712  0.58207  0.40316  1.0000
  H   H2134     1.0  0.81545  0.66543  0.38092  1.0000
  H   H2135     1.0  0.89610  0.58791  0.42062  1.0000
  H   H2136     1.0  0.81623  0.90362  0.37045  1.0000
  H   H2137     1.0  0.92218  0.61088  0.40291  1.0000
  H   H2138     1.0  0.79261  0.65510  0.43125  1.0000
  C   C1789     1.0  0.00839  0.95218  0.41780  1.0000
  H   H2139     1.0  0.77745  0.94636  0.42247  1.0000
  S   S479      1.0  0.76560  0.54808  0.35241  1.0000
  H   H2140     1.0  0.87133  0.75268  0.39210  1.0000
  C   C1790     1.0  0.00412  0.87544  0.56051  1.0000
  C   C1791     1.0  0.97322  0.91772  0.55919  1.0000
  C   C1792     1.0  0.89170  0.93550  0.43017  1.0000
  H   H2141     1.0  0.76765  0.87400  0.49055  1.0000
  C   C1793     1.0  0.87576  0.68391  0.39579  1.0000
  C   C1794     1.0  0.86818  0.73186  0.39534  1.0000
  C   C1795     1.0  0.86232  0.58094  0.34354  1.0000
  C   C1796     1.0  0.90736  0.61839  0.37437  1.0000
  H   H2142     1.0  0.90570  0.87452  0.35231  1.0000
  H   H2143     1.0  0.92457  0.73533  0.38758  1.0000
  N   N119      1.0  0.76452  0.57140  0.42754  1.0000
  H   H2144     1.0  0.90498  0.85978  0.40938  1.0000
  H   H2145     1.0  0.92247  0.69716  0.36356  1.0000
  H   H2146     1.0  0.84165  0.74362  0.40927  1.0000
  H   H2147     1.0  0.98925  0.55367  0.55267  1.0000
  N   N120      1.0  0.00343  0.57166  0.52590  1.0000
  C   C1797     1.0  0.77327  0.95346  0.38949  1.0000
  H   H2148     1.0  0.77393  0.58247  0.39628  1.0000
  H   H2149     1.0  0.90124  0.67964  0.36195  1.0000
  H   H2150     1.0  0.77970  0.89642  0.41941  1.0000
  S   S480      1.0  0.97425  0.48731  0.39116  1.0000
  C   C1798     1.0  0.82672  0.94935  0.35697  1.0000
  H   H2151     1.0  0.96694  0.83567  0.55620  1.0000
  C   C1799     1.0  0.97290  0.89056  0.55231  1.0000
  C   C1800     1.0  0.85053  0.62495  0.35425  1.0000
  C   C1801     1.0  0.77233  0.91286  0.36838  1.0000
  C   C1802     1.0  0.99289  0.95865  0.51036  1.0000
  H   H2152     1.0  0.78138  0.53457  0.42680  1.0000
  C   C1803     1.0  0.77621  0.93707  0.40729  1.0000
  H   H2153     1.0  0.81571  0.86354  0.39232  1.0000
  H   H2154     1.0  0.84791  0.63913  0.36751  1.0000
  C   C1804     1.0  0.95257  0.93265  0.53179  1.0000
  H   H2155     1.0  0.83336  0.93230  0.34809  1.0000
  H   H2156     1.0  0.91435  0.67922  0.38602  1.0000
  C   C1805     1.0  0.89071  0.61529  0.36385  1.0000
  H   H2157     1.0  0.79426  0.56434  0.42361  1.0000
  C   C1806     1.0  0.76681  0.65392  0.44863  1.0000
  C   C1807     1.0  0.90058  0.91227  0.39740  1.0000
  C   C1808     1.0  0.76325  0.67538  0.39489  1.0000
  C   C1809     1.0  0.89125  0.91285  0.41726  1.0000
  H   H2158     1.0  0.84747  0.56535  0.38005  1.0000
  H   H2159     1.0  0.99847  0.49095  0.47934  1.0000
  H   H2160     1.0  0.88447  0.93561  0.44528  1.0000
  H   H2161     1.0  0.97649  0.58061  0.54009  1.0000
  H   H2162     1.0  0.84933  0.94290  0.41698  1.0000
  C   C1810     1.0  0.95181  0.90620  0.52466  1.0000
  H   H2163     1.0  0.83056  0.58282  0.36516  1.0000
  C   C1811     1.0  0.98166  0.84176  0.55461  1.0000
  C   C1812     1.0  0.90172  0.95794  0.42388  1.0000
  H   H2164     1.0  0.97887  0.54782  0.52815  1.0000
  H   H2165     1.0  0.99352  0.47424  0.55631  1.0000
  N   N121      1.0  0.98416  0.86930  0.56298  1.0000
  C   C1813     1.0  0.97927  0.59819  0.47660  1.0000
  H   H2166     1.0  0.86881  0.56134  0.34859  1.0000
  H   H2167     1.0  0.82869  0.96787  0.34717  1.0000
  C   C1814     1.0  0.85454  0.95952  0.37480  1.0000
  H   H2168     1.0  0.76711  0.67506  0.45294  1.0000
  H   H2169     1.0  0.81005  0.96929  0.39262  1.0000
  H   H2170     1.0  0.84954  0.57602  0.33496  1.0000
  C   C1815     1.0  0.99467  0.47782  0.53957  1.0000
  C   C1816     1.0  0.76539  0.59928  0.43564  1.0000
  H   H2171     1.0  0.98630  0.84039  0.53786  1.0000
  H   H2172     1.0  0.98646  0.85162  0.59401  1.0000
  H   H2173     1.0  0.99014  0.82634  0.56328  1.0000
  C   C1817     1.0  0.76212  0.57264  0.40454  1.0000
  H   H2174     1.0  0.76020  0.63500  0.38275  1.0000
  H   H2175     1.0  0.76378  0.75713  0.53388  1.0000
  H   H2176     1.0  0.00052  0.95771  0.40344  1.0000
  H   H2177     1.0  0.00153  0.93400  0.42442  1.0000
  H   H2178     1.0  0.76101  0.55206  0.39782  1.0000
  H   H2179     1.0  0.00407  0.61023  0.54105  1.0000
  H   H2180     1.0  0.00828  0.87785  0.54368  1.0000
  H   H2181     1.0  0.00754  0.89453  0.56830  1.0000
  H   H2182     1.0  0.75963  0.91008  0.51642  1.0000
  H   H2183     1.0  0.98750  0.50833  0.66244  1.0000
  Fe  Fe241     1.0  0.91963  0.78665  0.93330  1.0000
  S   S481      1.0  0.93650  0.80162  0.90595  1.0000
  S   S482      1.0  0.88828  0.78474  0.93390  1.0000
  Fe  Fe242     1.0  0.95386  0.77963  0.96199  1.0000
  S   S483      1.0  0.97307  0.79547  0.93648  1.0000
  H   H2184     1.0  0.82692  0.90381  0.91029  1.0000
  Fe  Fe243     1.0  0.95067  0.82747  0.92930  1.0000
  S   S484      1.0  0.94917  0.87413  0.92754  1.0000
  Fe  Fe244     1.0  0.95699  0.76855  0.91523  1.0000
  S   S485      1.0  0.96981  0.74036  0.89058  1.0000
  S   S486      1.0  0.93276  0.81333  0.95659  1.0000
  S   S487      1.0  0.93880  0.75178  0.94088  1.0000
  Fe  Fe245     1.0  0.96376  0.58184  0.87810  1.0000
  S   S488      1.0  0.95096  0.59053  0.84690  1.0000
  S   S489      1.0  0.96685  0.61308  0.90355  1.0000
  Fe  Fe246     1.0  0.96270  0.51938  0.87280  1.0000
  S   S490      1.0  0.94981  0.52417  0.84106  1.0000
  N   N122      1.0  0.98270  0.58960  0.70016  1.0000
  Fe  Fe247     1.0  0.97037  0.55752  0.83468  1.0000
  S   S491      1.0  0.98768  0.55855  0.80377  1.0000
  Fe  Fe248     1.0  0.93183  0.55698  0.85601  1.0000
  S   S492      1.0  0.90060  0.56070  0.85276  1.0000
  S   S493      1.0  0.98446  0.55061  0.86581  1.0000
  S   S494      1.0  0.94340  0.55032  0.88775  1.0000
  H   H2185     1.0  0.93624  0.67561  0.87474  1.0000
  C   C1818     1.0  0.92895  0.66291  0.86345  1.0000
  Fe  Fe249     1.0  0.80874  0.78806  0.85475  1.0000
  S   S495      1.0  0.79358  0.80303  0.88357  1.0000
  S   S496      1.0  0.83986  0.77977  0.85207  1.0000
  Fe  Fe250     1.0  0.77273  0.78426  0.82895  1.0000
  Fe  Fe251     1.0  0.77712  0.82985  0.86184  1.0000
  Fe  Fe252     1.0  0.77318  0.77094  0.87607  1.0000
  H   H2186     1.0  0.76624  0.61837  0.98067  1.0000
  S   S497      1.0  0.79376  0.81671  0.83317  1.0000
  S   S498      1.0  0.78935  0.75457  0.84838  1.0000
  Fe  Fe253     1.0  0.81472  0.55949  0.92938  1.0000
  S   S499      1.0  0.80291  0.55347  0.89780  1.0000
  S   S500      1.0  0.84581  0.56535  0.93264  1.0000
  Fe  Fe254     1.0  0.77620  0.55753  0.95090  1.0000
  Fe  Fe255     1.0  0.78598  0.52063  0.91282  1.0000
  Fe  Fe256     1.0  0.78067  0.58316  0.90797  1.0000
  C   C1819     1.0  0.78291  0.91381  0.91946  1.0000
  S   S501      1.0  0.79885  0.52556  0.94446  1.0000
  S   S502      1.0  0.79342  0.59167  0.93882  1.0000
  H   H2187     1.0  0.90847  0.50951  0.87567  1.0000
  H   H2188     1.0  0.97662  0.93976  0.96151  1.0000
  S   S503      1.0  0.76221  0.55026  0.92006  1.0000
  C   C1820     1.0  0.78091  0.94141  0.91411  1.0000
  H   H2189     1.0  0.84099  0.84040  0.86708  1.0000
  H   H2190     1.0  0.99966  0.76714  0.98940  1.0000
  H   H2191     1.0  0.76302  0.76053  0.75116  1.0000
  C   C1821     1.0  0.77389  0.68886  0.91364  1.0000
  H   H2192     1.0  0.83041  0.48169  0.89521  1.0000
  H   H2193     1.0  0.90050  0.64477  0.84269  1.0000
  C   C1822     1.0  0.88573  0.56192  0.87522  1.0000
  C   C1823     1.0  0.89233  0.56706  0.89524  1.0000
  C   C1824     1.0  0.87999  0.56803  0.91270  1.0000
  C   C1825     1.0  0.86096  0.56386  0.91032  1.0000
  C   C1826     1.0  0.85441  0.55899  0.89026  1.0000
  C   C1827     1.0  0.86670  0.55813  0.87282  1.0000
  H   H2194     1.0  0.90689  0.57043  0.89732  1.0000
  H   H2195     1.0  0.88524  0.57191  0.92813  1.0000
  H   H2196     1.0  0.83994  0.55546  0.88806  1.0000
  H   H2197     1.0  0.86144  0.55411  0.85742  1.0000
  C   C1828     1.0  0.99462  0.58542  0.78660  1.0000
  H   H2198     1.0  0.75963  0.73954  0.95762  1.0000
  H   H2199     1.0  0.00198  0.72532  0.94541  1.0000
  S   S504      1.0  0.78767  0.48324  0.89144  1.0000
  C   C1829     1.0  0.99184  0.63155  0.77297  1.0000
  C   C1830     1.0  0.98642  0.61134  0.78752  1.0000
  H   H2200     1.0  0.86743  0.73064  0.90306  1.0000
  H   H2201     1.0  0.93931  0.64754  0.85755  1.0000
  H   H2202     1.0  0.97579  0.61577  0.79933  1.0000
  C   C1831     1.0  0.87540  0.78491  0.91071  1.0000
  C   C1832     1.0  0.85606  0.78839  0.91231  1.0000
  C   C1833     1.0  0.84512  0.78723  0.89441  1.0000
  C   C1834     1.0  0.85339  0.78230  0.87473  1.0000
  C   C1835     1.0  0.87281  0.77905  0.87306  1.0000
  C   C1836     1.0  0.88382  0.78050  0.89098  1.0000
  H   H2203     1.0  0.84946  0.79193  0.92750  1.0000
  H   H2204     1.0  0.83028  0.79008  0.89596  1.0000
  H   H2205     1.0  0.87935  0.77525  0.85789  1.0000
  H   H2206     1.0  0.89872  0.77750  0.88960  1.0000
  C   C1837     1.0  0.96815  0.70494  0.89369  1.0000
  C   C1838     1.0  0.97408  0.68764  0.87733  1.0000
  C   C1839     1.0  0.97338  0.65934  0.87983  1.0000
  C   C1840     1.0  0.96692  0.64824  0.89881  1.0000
  C   C1841     1.0  0.96093  0.66553  0.91505  1.0000
  C   C1842     1.0  0.96143  0.69367  0.91244  1.0000
  H   H2207     1.0  0.97943  0.69616  0.86279  1.0000
  H   H2208     1.0  0.97827  0.64617  0.86730  1.0000
  H   H2209     1.0  0.95609  0.65709  0.92982  1.0000
  H   H2210     1.0  0.95716  0.70663  0.92519  1.0000
  C   C1843     1.0  0.95345  0.90011  0.90847  1.0000
  C   C1844     1.0  0.94696  0.92667  0.91270  1.0000
  C   C1845     1.0  0.95082  0.94830  0.89878  1.0000
  C   C1846     1.0  0.96162  0.94381  0.88053  1.0000
  C   C1847     1.0  0.96793  0.91720  0.87618  1.0000
  C   C1848     1.0  0.96373  0.89546  0.88989  1.0000
  H   H2211     1.0  0.93911  0.93066  0.92706  1.0000
  H   H2212     1.0  0.96032  0.58091  0.72201  1.0000
  H   H2213     1.0  0.97633  0.91339  0.86217  1.0000
  H   H2214     1.0  0.96893  0.87527  0.88637  1.0000
  C   C1849     1.0  0.77648  0.90045  0.88365  1.0000
  C   C1850     1.0  0.83205  0.87230  0.88786  1.0000
  S   S505      1.0  0.77247  0.87582  0.86407  1.0000
  N   N123      1.0  0.90530  0.48020  0.90055  1.0000
  H   H2215     1.0  0.84502  0.50688  0.92340  1.0000
  H   H2216     1.0  0.77126  0.93373  0.86239  1.0000
  C   C1851     1.0  0.97061  0.60052  0.68332  1.0000
  C   C1852     1.0  0.97262  0.59397  0.72051  1.0000
  S   S506      1.0  0.96755  0.48154  0.89355  1.0000
  N   N124      1.0  0.91242  0.65023  0.87317  1.0000
  C   C1853     1.0  0.87057  0.69880  0.88048  1.0000
  H   H2217     1.0  0.00340  0.48451  0.69122  1.0000
  C   C1854     1.0  0.89966  0.67175  0.88142  1.0000
  C   C1855     1.0  0.88203  0.67779  0.87263  1.0000
  C   C1856     1.0  0.99973  0.60560  0.69986  1.0000
  H   H2218     1.0  0.99649  0.62739  0.70266  1.0000
  C   C1857     1.0  0.87626  0.71426  0.89716  1.0000
  C   C1858     1.0  0.99901  0.92985  0.91479  1.0000
  C   C1859     1.0  0.78085  0.89345  0.90432  1.0000
  C   C1860     1.0  0.77385  0.69390  0.79425  1.0000
  S   S507      1.0  0.76621  0.77501  0.79442  1.0000
  H   H2219     1.0  0.85730  0.70355  0.87342  1.0000
  C   C1861     1.0  0.91849  0.63204  0.89050  1.0000
  N   N125      1.0  0.81693  0.73718  0.78790  1.0000
  C   C1862     1.0  0.81183  0.74941  0.76737  1.0000
  C   C1863     1.0  0.81851  0.75958  0.80297  1.0000
  C   C1864     1.0  0.83542  0.72360  0.78512  1.0000
  C   C1865     1.0  0.80331  0.71760  0.79617  1.0000
  C   C1866     1.0  0.80642  0.70375  0.81544  1.0000
  C   C1867     1.0  0.78667  0.71185  0.78569  1.0000
  H   H2220     1.0  0.98189  0.65200  0.99137  1.0000
  H   H2221     1.0  0.79841  0.76111  0.76864  1.0000
  H   H2222     1.0  0.82231  0.76400  0.76160  1.0000
  H   H2223     1.0  0.81067  0.73377  0.75508  1.0000
  H   H2224     1.0  0.80484  0.77014  0.80557  1.0000
  H   H2225     1.0  0.82848  0.77500  0.79737  1.0000
  H   H2226     1.0  0.82340  0.75250  0.81850  1.0000
  H   H2227     1.0  0.83460  0.70566  0.77481  1.0000
  H   H2228     1.0  0.84579  0.73745  0.77798  1.0000
  H   H2229     1.0  0.84128  0.71670  0.80030  1.0000
  H   H2230     1.0  0.81861  0.70737  0.82447  1.0000
  H   H2231     1.0  0.78289  0.72157  0.77115  1.0000
  N   N126      1.0  0.88877  0.87214  0.90883  1.0000
  C   C1868     1.0  0.88913  0.86360  0.93117  1.0000
  C   C1869     1.0  0.90176  0.85382  0.89693  1.0000
  C   C1870     1.0  0.89617  0.89978  0.90690  1.0000
  C   C1871     1.0  0.86941  0.87188  0.90141  1.0000
  C   C1872     1.0  0.85560  0.88967  0.91025  1.0000
  C   C1873     1.0  0.86356  0.85394  0.88569  1.0000
  C   C1874     1.0  0.76569  0.69687  0.87749  1.0000
  C   C1875     1.0  0.84516  0.85432  0.87906  1.0000
  H   H2232     1.0  0.97803  0.60054  0.66776  1.0000
  H   H2233     1.0  0.88103  0.87768  0.94154  1.0000
  H   H2234     1.0  0.88320  0.84318  0.93334  1.0000
  H   H2235     1.0  0.90359  0.86249  0.93712  1.0000
  H   H2236     1.0  0.89806  0.83230  0.89912  1.0000
  H   H2237     1.0  0.91629  0.85531  0.90239  1.0000
  H   H2238     1.0  0.90208  0.85885  0.87988  1.0000
  H   H2239     1.0  0.88861  0.91455  0.91716  1.0000
  H   H2240     1.0  0.91100  0.90025  0.91152  1.0000
  H   H2241     1.0  0.89542  0.90739  0.89044  1.0000
  H   H2242     1.0  0.85886  0.90350  0.92257  1.0000
  H   H2243     1.0  0.87286  0.83920  0.87837  1.0000
  H   H2244     1.0  0.76168  0.71057  0.86497  1.0000
  H   H2245     1.0  0.97898  0.71936  0.96825  1.0000
  H   H2246     1.0  0.87840  0.50742  0.92630  1.0000
  C   C1876     1.0  0.76684  0.66891  0.87391  1.0000
  C   C1877     1.0  0.90406  0.63307  0.85708  1.0000
  H   H2247     1.0  0.92701  0.64236  0.90213  1.0000
  C   C1878     1.0  0.90514  0.68837  0.89814  1.0000
  C   C1879     1.0  0.00565  0.62636  0.75740  1.0000
  H   H2248     1.0  0.98146  0.58973  0.73426  1.0000
  H   H2249     1.0  0.79608  0.67546  0.83862  1.0000
  H   H2250     1.0  0.97016  0.69655  0.98725  1.0000
  H   H2251     1.0  0.77655  0.69657  0.92907  1.0000
  H   H2252     1.0  0.81779  0.87251  0.88262  1.0000
  C   C1880     1.0  0.00415  0.70667  0.93693  1.0000
  C   C1881     1.0  0.00089  0.95670  0.90828  1.0000
  C   C1882     1.0  0.77552  0.66089  0.90987  1.0000
  H   H2253     1.0  0.96635  0.62199  0.68623  1.0000
  C   C1883     1.0  0.98773  0.65224  0.97503  1.0000
  C   C1884     1.0  0.89354  0.70922  0.90589  1.0000
  H   H2254     1.0  0.87686  0.66680  0.85955  1.0000
  H   H2255     1.0  0.91868  0.68583  0.90503  1.0000
  H   H2256     1.0  0.96784  0.61541  0.72246  1.0000
  H   H2257     1.0  0.90819  0.51937  0.91443  1.0000
  H   H2258     1.0  0.78225  0.87238  0.90874  1.0000
  N   N127      1.0  0.83361  0.64501  0.91387  1.0000
  C   C1885     1.0  0.82513  0.62364  0.90127  1.0000
  C   C1886     1.0  0.85405  0.64080  0.91257  1.0000
  C   C1887     1.0  0.82734  0.64118  0.93603  1.0000
  C   C1888     1.0  0.82863  0.67270  0.90663  1.0000
  C   C1889     1.0  0.81861  0.67798  0.88800  1.0000
  C   C1890     1.0  0.83392  0.69548  0.91826  1.0000
  C   C1891     1.0  0.81391  0.70435  0.88183  1.0000
  C   C1892     1.0  0.82890  0.72178  0.91204  1.0000
  C   C1893     1.0  0.81887  0.72618  0.89388  1.0000
  H   H2259     1.0  0.83036  0.62364  0.88473  1.0000
  H   H2260     1.0  0.82843  0.60313  0.90748  1.0000
  H   H2261     1.0  0.80971  0.62579  0.90143  1.0000
  H   H2262     1.0  0.85926  0.64212  0.89607  1.0000
  H   H2263     1.0  0.85831  0.62050  0.91876  1.0000
  H   H2264     1.0  0.86145  0.65591  0.92182  1.0000
  H   H2265     1.0  0.81226  0.64619  0.93803  1.0000
  H   H2266     1.0  0.82975  0.61994  0.94150  1.0000
  H   H2267     1.0  0.83494  0.65377  0.94712  1.0000
  H   H2268     1.0  0.81376  0.66212  0.87817  1.0000
  H   H2269     1.0  0.84197  0.69319  0.93230  1.0000
  H   H2270     1.0  0.80580  0.70787  0.86796  1.0000
  H   H2271     1.0  0.83279  0.73890  0.92133  1.0000
  H   H2272     1.0  0.81477  0.74653  0.88921  1.0000
  H   H2273     1.0  0.77532  0.96944  0.88894  1.0000
  H   H2274     1.0  0.00728  0.60393  0.68448  1.0000
  H   H2275     1.0  0.89150  0.62284  0.86337  1.0000
  C   C1894     1.0  0.00009  0.68131  0.94632  1.0000
  C   C1895     1.0  0.98562  0.97157  0.94057  1.0000
  C   C1896     1.0  0.77167  0.65081  0.89004  1.0000
  C   C1897     1.0  0.99040  0.92382  0.93397  1.0000
  H   H2276     1.0  0.77940  0.64719  0.92238  1.0000
  S   S508      1.0  0.76622  0.74181  0.90270  1.0000
  C   C1898     1.0  0.77730  0.68077  0.81321  1.0000
  C   C1899     1.0  0.99752  0.54638  0.71362  1.0000
  H   H2277     1.0  0.97803  0.55547  0.66549  1.0000
  H   H2278     1.0  0.00694  0.95975  0.89281  1.0000
  S   S509      1.0  0.96887  0.97074  0.86357  1.0000
  H   H2279     1.0  0.89813  0.72205  0.91842  1.0000
  H   H2280     1.0  0.98528  0.65143  0.77383  1.0000
  H   H2281     1.0  0.90639  0.62332  0.89903  1.0000
  S   S510      1.0  0.78253  0.96608  0.93422  1.0000
  C   C1900     1.0  0.91251  0.49789  0.91705  1.0000
  H   H2282     1.0  0.76381  0.93104  0.99450  1.0000
  C   C1901     1.0  0.77698  0.94839  0.89334  1.0000
  S   S511      1.0  0.77186  0.61582  0.88482  1.0000
  H   H2283     1.0  0.94585  0.96852  0.90248  1.0000
  C   C1902     1.0  0.91375  0.48899  0.88023  1.0000
  C   C1903     1.0  0.77466  0.92804  0.87830  1.0000
  H   H2284     1.0  0.96511  0.69206  0.96005  1.0000
  H   H2285     1.0  0.91386  0.61664  0.85171  1.0000
  C   C1904     1.0  0.98793  0.56066  0.69756  1.0000
  S   S512      1.0  0.95918  0.76222  0.99511  1.0000
  C   C1905     1.0  0.00846  0.58022  0.77103  1.0000
  H   H2286     1.0  0.00130  0.55625  0.72791  1.0000
  C   C1906     1.0  0.79359  0.68557  0.82375  1.0000
  H   H2287     1.0  0.92508  0.67632  0.85005  1.0000
  H   H2288     1.0  0.92803  0.49732  0.91712  1.0000
  H   H2289     1.0  0.00356  0.91353  0.90450  1.0000
  H   H2290     1.0  0.78593  0.90809  0.93545  1.0000
  C   C1907     1.0  0.97614  0.69766  0.97100  1.0000
  H   H2291     1.0  0.92747  0.61490  0.88466  1.0000
  C   C1908     1.0  0.76898  0.70695  0.89744  1.0000
  C   C1909     1.0  0.83724  0.88991  0.90346  1.0000
  C   C1910     1.0  0.00277  0.51915  0.71146  1.0000
  C   C1911     1.0  0.98980  0.51891  0.67695  1.0000
  H   H2292     1.0  0.76095  0.69061  0.78628  1.0000
  H   H2293     1.0  0.97697  0.64405  0.96471  1.0000
  H   H2294     1.0  0.76721  0.66705  0.81982  1.0000
  C   C1912     1.0  0.98447  0.54616  0.67894  1.0000
  N   N128      1.0  0.99294  0.67987  0.96827  1.0000
  C   C1913     1.0  0.87305  0.49552  0.91380  1.0000
  C   C1914     1.0  0.99889  0.50543  0.69316  1.0000
  H   H2295     1.0  0.95773  0.58878  0.68222  1.0000
  C   C1915     1.0  0.00745  0.68902  0.98249  1.0000
  H   H2296     1.0  0.99998  0.63804  0.97496  1.0000
  C   C1916     1.0  0.85369  0.49541  0.91233  1.0000
  C   C1917     1.0  0.98373  0.94463  0.94685  1.0000
  H   H2297     1.0  0.76363  0.66123  0.85862  1.0000
  H   H2298     1.0  0.98830  0.90293  0.93851  1.0000
  H   H2299     1.0  0.00085  0.63778  0.93934  1.0000
  H   H2300     1.0  0.90781  0.49145  0.93303  1.0000
  H   H2301     1.0  0.92917  0.48980  0.88097  1.0000
  C   C1918     1.0  0.00367  0.65796  0.93384  1.0000
  C   C1919     1.0  0.84543  0.48121  0.89645  1.0000
  C   C1920     1.0  0.88477  0.48103  0.89931  1.0000
  H   H2302     1.0  0.91097  0.47516  0.86715  1.0000
  H   H2303     1.0  0.76118  0.78339  0.97553  1.0000
  H   H2304     1.0  0.76089  0.94427  0.96885  1.0000
