data_image0
_chemical_formula_structural       S2FeSFeSFeS2FeCSFeS2FeS2FeSFeS3HCH2C7H4C4H5FeC6H4C2HC2HC2H3C4HSC2HNC6H14CNCH2C2H8C2H6SCH3C2HC2NH2C3H3C3HNC2H2CNC2HCH2C4H2SHCHCH4CH2C3H2CHC3HC4HCH3CHCHC2NCH3CFeS2H2CFeS2FeS2FeSFeS3H4C4H4C4H2C3H2C6H4CH3C3H3C4H3C2HCHCH6NH3NH3C2H2CH4CH4C3HC3H2CNC4H6CH3CNC5H2C2HC2H2C2HC2H3C3NH5C2H2CH5CS2FeSFeSFeS2H3FeS2FeSHFeSFeS3C3H2C6H6C4H3C5HCH2C2HCHCHSHNC7HCH11C3NH3CHSH3C3FeSH2C2H8CHC5H4NHNHCHCHC2H4C2H2CSHC3H2CH4CH2SHC2NHCH2CH4CHCHFeS2H3FeS2FeS2FeCFeS3CSCHC4HCH2C4H2C3H2C6H5CHCH2CH3C5HCNC2H6C3H2SCHCHC2NHC2NH2CHCHCHCH4CHCH3C2SH4CH2CHCHCH2CH2CHC7H3C2FeHFeSHS2HCSFeSH4C2H2CSH2C5H3CSFeCSH4FeSHNHCH2C3H5CH2FeH2CH3CH2CHSHC2FeCH2CHCH2S2CHCHFeSHCFeS2FeSCFeSFeSC2H2CHC2HCHC4H3CFeSC5H2C2HCH3C4SCH2SHCH3NSNC9H14CH5CHCH2SH4CSNHSCSHSH2SH2CHFeSHC2FeCSCSC2HNFeHCHC2H2SHC2SH3C2H3SCSHC2HCHSHCSFeH2FeH2NCH3C2H3SH2FeH2CH4CHC7HFeS2CFeS2FeSCFeSFeSC2H4C2HC4H4NCFeSHC4H2CHCHC3NH3CH2CH4CH2CHCHCH2SHC2H3CH2C2H7S2HSHC3SC5NCSH2CH3CH2CHSHSHCH4CH4CFeS2H3FeS2FeS2FeSFeS3CSFeS2FeS2Fe2S2C3HC3H4C6H3C6H4CHCH2C2H3CHC6H4NC9H14NHC7H3NH4CHNCH2CSHCH6NH3FeSH2C2NC4HCHC3H2CH5CHSH4Fe2H2CHSHC2H2CHCSC3H4CH3CH2CHCHCS2FeS2CHCH2SHCFeSHCFeHSFeS2FeS2FeSFeS3C8H2CH4CH2C3H2C2NC2H2C6H5FeCNCS2H4CH3FeSHCFeC3NC6HCH15C2NCH2C2HCHCH2CHCHCHCH2C4H2CHC2H9CH2C2FeS2CHCFeS2FeS2FeSFeS3CSFeS2FeS2Fe2S2C3HC3H3C6H4C6H4CS2HNCSHCHCHC6H4FeH3CHSHCH4C2HNC9H14C5H4SHNC4HFeCH2C2HCHNH3CH2CH3NH6CHC2H2FeH2CHC4FeHC5HC3SH2CSC2H2SH4C2HCH3C2FeS2H2C4HCHSC2FeS2FeS2FeS2FeSFeS3HC5H6CHC2H2CH2CHCH2C2H2C6H6NC2HFeCHCSC3HCHC6HN2H8C4H4C3HC2HCHNHCH8FeH4SH2NC4HCH2C2H3CHCH2C2HC3H3C5HCH3FeH4C2H3C3H
_chemical_formula_sum              "S192 Fe96 C720 H864 N48"
_cell_length_a       51.4676
_cell_length_b       51.689
_cell_length_c       37.872
_cell_angle_alpha    90.1499
_cell_angle_beta     89.8745
_cell_angle_gamma    119.906

_space_group_name_H-M_alt    "P 1"
_space_group_IT_number       1

loop_
  _space_group_symop_operation_xyz
  'x, y, z'

loop_
  _atom_site_type_symbol
  _atom_site_label
  _atom_site_symmetry_multiplicity
  _atom_site_fract_x
  _atom_site_fract_y
  _atom_site_fract_z
  _atom_site_occupancy
  S   S1        1.0  0.26544  0.14260  0.11378  1.0000
  S   S2        1.0  0.26817  0.14996  0.19991  1.0000
  Fe  Fe1       1.0  0.27126  0.11878  0.16047  1.0000
  S   S3        1.0  0.24198  0.06850  0.16873  1.0000
  Fe  Fe2       1.0  0.26756  0.17653  0.15318  1.0000
  S   S4        1.0  0.23658  0.19624  0.15350  1.0000
  Fe  Fe3       1.0  0.16300  0.32969  0.44362  1.0000
  S   S5        1.0  0.13829  0.27958  0.44256  1.0000
  S   S6        1.0  0.18990  0.35917  0.39748  1.0000
  Fe  Fe4       1.0  0.10474  0.28237  0.47868  1.0000
  C   C1        1.0  0.22533  0.31630  0.28003  1.0000
  S   S7        1.0  0.12744  0.33225  0.47574  1.0000
  Fe  Fe5       1.0  0.24105  0.35327  0.14740  1.0000
  S   S8        1.0  0.19077  0.32735  0.14447  1.0000
  S   S9        1.0  0.27187  0.33332  0.14306  1.0000
  Fe  Fe6       1.0  0.24232  0.41292  0.16019  1.0000
  S   S10       1.0  0.19232  0.39091  0.15902  1.0000
  S   S11       1.0  0.27291  0.46252  0.17172  1.0000
  Fe  Fe7       1.0  0.19241  0.35473  0.19156  1.0000
  S   S12       1.0  0.15794  0.33136  0.23473  1.0000
  Fe  Fe8       1.0  0.19485  0.36558  0.11180  1.0000
  S   S13       1.0  0.16174  0.36033  0.06868  1.0000
  S   S14       1.0  0.24239  0.37844  0.19674  1.0000
  S   S15       1.0  0.24528  0.38990  0.11092  1.0000
  H   H1        1.0  0.26555  0.19812  0.04590  1.0000
  C   C2        1.0  0.99635  0.24034  0.48358  1.0000
  H   H2        1.0  0.05712  0.30882  0.46954  1.0000
  H   H3        1.0  0.25749  0.25325  0.24477  1.0000
  C   C3        1.0  0.22376  0.26439  0.49699  1.0000
  C   C4        1.0  0.18127  0.34942  0.35254  1.0000
  C   C5        1.0  0.20279  0.36621  0.32676  1.0000
  C   C6        1.0  0.19629  0.36020  0.29061  1.0000
  C   C7        1.0  0.16795  0.33762  0.27990  1.0000
  C   C8        1.0  0.14655  0.32057  0.30567  1.0000
  C   C9        1.0  0.15324  0.32625  0.34189  1.0000
  H   H4        1.0  0.22458  0.38404  0.33486  1.0000
  H   H5        1.0  0.21312  0.37321  0.27112  1.0000
  H   H6        1.0  0.12455  0.30311  0.29764  1.0000
  H   H7        1.0  0.13646  0.31327  0.36153  1.0000
  C   C10       1.0  0.26311  0.25089  0.49350  1.0000
  C   C11       1.0  0.30932  0.10745  0.24056  1.0000
  C   C12       1.0  0.23044  0.01043  0.17056  1.0000
  C   C13       1.0  0.25271  0.04066  0.16759  1.0000
  H   H8        1.0  0.28969  0.28614  0.26180  1.0000
  H   H9        1.0  0.04075  0.24875  0.39173  1.0000
  H   H10       1.0  0.21738  0.46273  0.15478  1.0000
  H   H11       1.0  0.20724  0.00464  0.17339  1.0000
  H   H12       1.0  0.27986  0.15715  0.33998  1.0000
  Fe  Fe9       1.0  0.16472  0.28351  0.49165  1.0000
  C   C14       1.0  0.24709  0.23459  0.15155  1.0000
  C   C15       1.0  0.22484  0.24265  0.15504  1.0000
  C   C16       1.0  0.23206  0.27276  0.15299  1.0000
  C   C17       1.0  0.26171  0.29519  0.14720  1.0000
  C   C18       1.0  0.28403  0.28715  0.14402  1.0000
  C   C19       1.0  0.27682  0.25705  0.14625  1.0000
  H   H13       1.0  0.20176  0.22544  0.15906  1.0000
  H   H14       1.0  0.21464  0.27856  0.15539  1.0000
  H   H15       1.0  0.22651  0.32408  0.25317  1.0000
  H   H16       1.0  0.28863  0.27477  0.21682  1.0000
  C   C20       1.0  0.01132  0.29960  0.47391  1.0000
  C   C21       1.0  0.02659  0.26208  0.47831  1.0000
  H   H17       1.0  0.25002  0.07675  0.24669  1.0000
  C   C22       1.0  0.25971  0.22326  0.30491  1.0000
  C   C23       1.0  0.19548  0.46450  0.27181  1.0000
  H   H18       1.0  0.19478  0.24897  0.42232  1.0000
  C   C24       1.0  0.19932  0.29138  0.29199  1.0000
  C   C25       1.0  0.02419  0.29006  0.09317  1.0000
  H   H19       1.0  0.13554  0.33836  0.14673  1.0000
  H   H20       1.0  0.24107  0.02982  0.26076  1.0000
  H   H21       1.0  0.22647  0.44847  0.22714  1.0000
  C   C26       1.0  0.28624  0.21077  0.06197  1.0000
  C   C27       1.0  0.00177  0.26884  0.11474  1.0000
  C   C28       1.0  0.25642  0.05065  0.07668  1.0000
  C   C29       1.0  0.30995  0.17637  0.29570  1.0000
  H   H22       1.0  0.30699  0.30434  0.13926  1.0000
  S   S16       1.0  0.05412  0.25095  0.47692  1.0000
  C   C30       1.0  0.22565  0.03423  0.07082  1.0000
  C   C31       1.0  0.18581  0.34744  0.01012  1.0000
  H   H23       1.0  0.15795  0.40514  0.21625  1.0000
  N   N1        1.0  0.09494  0.29754  0.13469  1.0000
  C   C32       1.0  0.10035  0.28321  0.16565  1.0000
  C   C33       1.0  0.10773  0.29078  0.10317  1.0000
  C   C34       1.0  0.11152  0.33021  0.14096  1.0000
  C   C35       1.0  0.06288  0.28744  0.12844  1.0000
  C   C36       1.0  0.03944  0.26588  0.15004  1.0000
  C   C37       1.0  0.05429  0.29928  0.09982  1.0000
  H   H24       1.0  0.22991  0.20084  0.34860  1.0000
  H   H25       1.0  0.27974  0.21190  0.08975  1.0000
  H   H26       1.0  0.24897  0.07079  0.29400  1.0000
  H   H27       1.0  0.08938  0.25858  0.16238  1.0000
  H   H28       1.0  0.12471  0.29144  0.16956  1.0000
  H   H29       1.0  0.09250  0.28847  0.19066  1.0000
  H   H30       1.0  0.09534  0.26652  0.09689  1.0000
  H   H31       1.0  0.13177  0.29767  0.10700  1.0000
  H   H32       1.0  0.10724  0.30301  0.07929  1.0000
  H   H33       1.0  0.10199  0.33639  0.16372  1.0000
  H   H34       1.0  0.11140  0.34313  0.11758  1.0000
  H   H35       1.0  0.04368  0.25569  0.17248  1.0000
  H   H36       1.0  0.07089  0.31585  0.08237  1.0000
  H   H37       1.0  0.14766  0.43173  0.23200  1.0000
  C   C38       1.0  0.21275  0.43209  0.24792  1.0000
  N   N2        1.0  0.18601  0.43422  0.25799  1.0000
  C   C39       1.0  0.98106  0.27783  0.47891  1.0000
  H   H38       1.0  0.23734  0.33127  0.40875  1.0000
  H   H39       1.0  0.19378  0.23952  0.37669  1.0000
  C   C40       1.0  0.29898  0.31073  0.04231  1.0000
  C   C41       1.0  0.22724  0.98746  0.07115  1.0000
  H   H40       1.0  0.18028  0.28013  0.27433  1.0000
  H   H41       1.0  0.21667  0.30181  0.43979  1.0000
  H   H42       1.0  0.26513  0.10766  0.27641  1.0000
  H   H43       1.0  0.20635  0.40965  0.23706  1.0000
  H   H44       1.0  0.19795  0.34137  0.02849  1.0000
  H   H45       1.0  0.17781  0.45219  0.32586  1.0000
  H   H46       1.0  0.29682  0.04891  0.08433  1.0000
  H   H47       1.0  0.26739  0.07465  0.08019  1.0000
  C   C42       1.0  0.16755  0.35832  0.02281  1.0000
  C   C43       1.0  0.24782  0.28556  0.39706  1.0000
  H   H48       1.0  0.28914  0.15272  0.03152  1.0000
  H   H49       1.0  0.27285  0.99520  0.08001  1.0000
  H   H50       1.0  0.18182  0.41162  0.30751  1.0000
  H   H51       1.0  0.21601  0.22034  0.48480  1.0000
  H   H52       1.0  0.00532  0.19483  0.38411  1.0000
  H   H53       1.0  0.26613  0.33593  0.35516  1.0000
  S   S17       1.0  0.18503  0.25304  0.49482  1.0000
  C   C44       1.0  0.03401  0.29185  0.47379  1.0000
  H   H54       1.0  0.21284  0.04566  0.06950  1.0000
  H   H55       1.0  0.17962  0.44325  0.20376  1.0000
  H   H56       1.0  0.01724  0.32262  0.46984  1.0000
  C   C45       1.0  0.28346  0.22086  0.23345  1.0000
  C   C46       1.0  0.23274  0.24311  0.49099  1.0000
  H   H57       1.0  0.18743  0.99150  0.06262  1.0000
  C   C47       1.0  0.16701  0.42839  0.22619  1.0000
  C   C48       1.0  0.24927  0.33193  0.30305  1.0000
  N   N3        1.0  0.29237  0.08690  0.26985  1.0000
  H   H58       1.0  0.25862  0.20741  0.23510  1.0000
  H   H59       1.0  0.29740  0.19708  0.06227  1.0000
  C   C49       1.0  0.29011  0.02499  0.16388  1.0000
  C   C50       1.0  0.28265  0.04782  0.16426  1.0000
  C   C51       1.0  0.25873  0.00497  0.07659  1.0000
  H   H60       1.0  0.14768  0.41003  0.29218  1.0000
  H   H61       1.0  0.17260  0.25652  0.39320  1.0000
  H   H62       1.0  0.99178  0.24034  0.15983  1.0000
  C   C52       1.0  0.16837  0.40998  0.28372  1.0000
  C   C53       1.0  0.26130  0.00321  0.25488  1.0000
  C   C54       1.0  0.00614  0.26050  0.39279  1.0000
  H   H63       1.0  0.02182  0.28411  0.39629  1.0000
  N   N4        1.0  0.29625  0.24839  0.25518  1.0000
  C   C55       1.0  0.26237  0.03052  0.26023  1.0000
  C   C56       1.0  0.21800  0.30825  0.41151  1.0000
  H   H64       1.0  0.27093  0.21595  0.39209  1.0000
  H   H65       1.0  0.29270  0.20640  0.24170  1.0000
  C   C57       1.0  0.24745  0.32238  0.33798  1.0000
  N   N5        1.0  0.22032  0.28667  0.38781  1.0000
  C   C58       1.0  0.19424  0.25660  0.39499  1.0000
  C   C59       1.0  0.26275  0.08530  0.27186  1.0000
  H   H66       1.0  0.24117  0.21581  0.28671  1.0000
  C   C60       1.0  0.30257  0.17271  0.33183  1.0000
  H   H67       1.0  0.24622  0.27607  0.42391  1.0000
  H   H68       1.0  0.26815  0.30802  0.39803  1.0000
  C   C61       1.0  0.26297  0.25055  0.05971  1.0000
  C   C62       1.0  0.30835  0.09993  0.30352  1.0000
  C   C63       1.0  0.28240  0.26637  0.24432  1.0000
  C   C64       1.0  0.25165  0.27011  0.06211  1.0000
  H   H69       1.0  0.26114  0.31545  0.05702  1.0000
  H   H70       1.0  0.17620  0.26256  0.33449  1.0000
  S   S18       1.0  0.19096  0.33354  0.49125  1.0000
  H   H71       1.0  0.99037  0.21724  0.48700  1.0000
  C   C65       1.0  0.22169  0.29642  0.35073  1.0000
  H   H72       1.0  0.25187  0.27157  0.37792  1.0000
  C   C66       1.0  0.27597  0.22337  0.36487  1.0000
  H   H73       1.0  0.26955  0.23417  0.48906  1.0000
  H   H74       1.0  0.28871  0.22598  0.20495  1.0000
  H   H75       1.0  0.22753  0.43600  0.27104  1.0000
  H   H76       1.0  0.26904  0.35196  0.29394  1.0000
  C   C67       1.0  0.26972  0.30019  0.05390  1.0000
  H   H77       1.0  0.30008  0.07087  0.16171  1.0000
  H   H78       1.0  0.16085  0.38753  0.27210  1.0000
  C   C68       1.0  0.19731  0.28153  0.32680  1.0000
  C   C69       1.0  0.00938  0.25682  0.14310  1.0000
  C   C70       1.0  0.01686  0.24060  0.39008  1.0000
  H   H79       1.0  0.19756  0.30955  0.40548  1.0000
  H   H80       1.0  0.29300  0.16365  0.27622  1.0000
  C   C71       1.0  0.29021  0.05754  0.26379  1.0000
  H   H81       1.0  0.29419  0.25126  0.14340  1.0000
  C   C72       1.0  0.28981  0.24036  0.29298  1.0000
  C   C73       1.0  0.23791  0.98761  0.17012  1.0000
  C   C74       1.0  0.18906  0.46986  0.30676  1.0000
  H   H82       1.0  0.01817  0.29945  0.07119  1.0000
  C   C75       1.0  0.25299  0.21477  0.34030  1.0000
  C   C76       1.0  0.26782  0.99476  0.16671  1.0000
  C   C77       1.0  0.28764  0.00196  0.25241  1.0000
  C   C78       1.0  0.21126  0.00315  0.06758  1.0000
  H   H83       1.0  0.24784  0.22772  0.06735  1.0000
  C   C79       1.0  0.99682  0.21021  0.38614  1.0000
  H   H84       1.0  0.22900  0.26210  0.07153  1.0000
  H   H85       1.0  0.29700  0.08450  0.32603  1.0000
  H   H86       1.0  0.29813  0.09800  0.21483  1.0000
  C   C80       1.0  0.30677  0.16083  0.01195  1.0000
  H   H87       1.0  0.27308  0.48061  0.29343  1.0000
  C   C81       1.0  0.27296  0.03609  0.07907  1.0000
  H   H88       1.0  0.13767  0.37440  0.00810  1.0000
  C   C82       1.0  0.30568  0.24071  0.35423  1.0000
  C   C83       1.0  0.29308  0.26078  0.04901  1.0000
  N   N6        1.0  0.30626  0.24103  0.04738  1.0000
  C   C84       1.0  0.31049  0.29134  0.03953  1.0000
  H   H89       1.0  0.97842  0.26172  0.10951  1.0000
  H   H90       1.0  0.30938  0.12150  0.30974  1.0000
  H   H91       1.0  0.09246  0.28735  0.63099  1.0000
  C   C85       1.0  0.26312  0.03208  0.91403  1.0000
  Fe  Fe10      1.0  0.15298  0.33124  0.52343  1.0000
  S   S19       1.0  0.12870  0.28133  0.52782  1.0000
  S   S20       1.0  0.15443  0.36122  0.56811  1.0000
  H   H92       1.0  0.03110  0.29901  0.90581  1.0000
  H   H93       1.0  0.25728  0.18238  0.54278  1.0000
  C   C86       1.0  0.19940  0.42714  0.72799  1.0000
  Fe  Fe11      1.0  0.15675  0.35931  0.85742  1.0000
  S   S21       1.0  0.13227  0.38510  0.85976  1.0000
  S   S22       1.0  0.17309  0.34324  0.90379  1.0000
  Fe  Fe12      1.0  0.15436  0.35652  0.77629  1.0000
  S   S23       1.0  0.12971  0.38197  0.77317  1.0000
  S   S24       1.0  0.16771  0.33784  0.72981  1.0000
  Fe  Fe13      1.0  0.16254  0.41186  0.81469  1.0000
  S   S25       1.0  0.18354  0.46250  0.81086  1.0000
  Fe  Fe14      1.0  0.10197  0.35265  0.81815  1.0000
  S   S26       1.0  0.05108  0.33239  0.81970  1.0000
  S   S27       1.0  0.18892  0.38802  0.81495  1.0000
  S   S28       1.0  0.12468  0.32529  0.81859  1.0000
  H   H94       1.0  0.02890  0.31570  0.57777  1.0000
  H   H95       1.0  0.22095  0.01895  0.88575  1.0000
  H   H96       1.0  0.28721  0.18939  0.63175  1.0000
  H   H97       1.0  0.98703  0.30274  0.82647  1.0000
  C   C87       1.0  0.28091  0.01638  0.81076  1.0000
  C   C88       1.0  0.28892  0.04621  0.80414  1.0000
  C   C89       1.0  0.26623  0.05341  0.80054  1.0000
  C   C90       1.0  0.23589  0.03093  0.80302  1.0000
  H   H98       1.0  0.23860  0.45891  0.81519  1.0000
  H   H99       1.0  0.27628  0.14586  0.96773  1.0000
  H   H100      1.0  0.27202  0.07621  0.79517  1.0000
  H   H101      1.0  0.21851  0.03669  0.79963  1.0000
  C   C91       1.0  0.02358  0.29389  0.82091  1.0000
  C   C92       1.0  0.03123  0.27152  0.81852  1.0000
  C   C93       1.0  0.00878  0.24122  0.82051  1.0000
  C   C94       1.0  0.99319  0.28558  0.82455  1.0000
  H   H102      1.0  0.05442  0.27755  0.81503  1.0000
  H   H103      1.0  0.30997  0.24885  0.59656  1.0000
  C   C95       1.0  0.18768  0.34352  0.97355  1.0000
  C   C96       1.0  0.17198  0.35112  0.94923  1.0000
  C   C97       1.0  0.15435  0.36278  0.96188  1.0000
  H   H104      1.0  0.20134  0.33444  0.96402  1.0000
  H   H105      1.0  0.14238  0.36906  0.94356  1.0000
  C   C98       1.0  0.15612  0.35276  0.61286  1.0000
  C   C99       1.0  0.14798  0.36663  0.63911  1.0000
  C   C100      1.0  0.15035  0.36145  0.67509  1.0000
  C   C101      1.0  0.16174  0.34299  0.68506  1.0000
  C   C102      1.0  0.16936  0.32871  0.65877  1.0000
  C   C103      1.0  0.16628  0.33331  0.62278  1.0000
  H   H106      1.0  0.13982  0.38148  0.63156  1.0000
  H   H107      1.0  0.14354  0.37190  0.69497  1.0000
  H   H108      1.0  0.17801  0.31425  0.66629  1.0000
  H   H109      1.0  0.17263  0.32253  0.60275  1.0000
  C   C104      1.0  0.07767  0.29295  0.64521  1.0000
  H   H110      1.0  0.01496  0.22408  0.81882  1.0000
  H   H111      1.0  0.00300  0.27665  0.58758  1.0000
  H   H112      1.0  0.02146  0.28743  0.54605  1.0000
  C   C105      1.0  0.99235  0.25660  0.91025  1.0000
  C   C106      1.0  0.06513  0.30682  0.70115  1.0000
  C   C107      1.0  0.27949  0.01954  0.92947  1.0000
  H   H113      1.0  0.21352  0.18288  0.55666  1.0000
  H   H114      1.0  0.23362  0.06491  0.90861  1.0000
  H   H115      1.0  0.22171  0.46453  0.89115  1.0000
  C   C108      1.0  0.03699  0.30374  0.64851  1.0000
  C   C109      1.0  0.22067  0.20340  0.57101  1.0000
  C   C110      1.0  0.04241  0.30952  0.68470  1.0000
  C   C111      1.0  0.20977  0.24269  0.58548  1.0000
  H   H116      1.0  0.03873  0.25305  0.55271  1.0000
  H   H117      1.0  0.29658  0.23726  0.55253  1.0000
  H   H118      1.0  0.28217  0.21930  0.64681  1.0000
  C   C112      1.0  0.98026  0.22595  0.91418  1.0000
  C   C113      1.0  0.25893  0.99702  0.71605  1.0000
  H   H119      1.0  0.18659  0.43342  0.70967  1.0000
  C   C114      1.0  0.03027  0.23308  0.91967  1.0000
  H   H120      1.0  0.24191  0.27800  0.61833  1.0000
  C   C115      1.0  0.22906  0.42695  0.67917  1.0000
  H   H121      1.0  0.02926  0.31660  0.70011  1.0000
  H   H122      1.0  0.06250  0.25517  0.58780  1.0000
  H   H123      1.0  0.26539  0.42772  0.72901  1.0000
  H   H124      1.0  0.19561  0.25260  0.58257  1.0000
  H   H125      1.0  0.26612  0.09913  0.89654  1.0000
  H   H126      1.0  0.29489  0.07130  0.96671  1.0000
  N   N7        1.0  0.27533  0.06482  0.91462  1.0000
  H   H127      1.0  0.18182  0.20513  0.55270  1.0000
  H   H128      1.0  0.24976  0.99799  0.74130  1.0000
  H   H129      1.0  0.25015  0.18281  0.64114  1.0000
  N   N8        1.0  0.26896  0.20612  0.59244  1.0000
  H   H130      1.0  0.06953  0.31169  0.72913  1.0000
  H   H131      1.0  0.21535  0.40213  0.67785  1.0000
  H   H132      1.0  0.22880  0.39992  0.74154  1.0000
  C   C116      1.0  0.24786  0.21774  0.59061  1.0000
  C   C117      1.0  0.25469  0.24474  0.60812  1.0000
  H   H133      1.0  0.29264  0.32415  0.51448  1.0000
  H   H134      1.0  0.98957  0.19028  0.92172  1.0000
  C   C118      1.0  0.02342  0.27564  0.91021  1.0000
  H   H135      1.0  0.23765  0.15980  0.58094  1.0000
  H   H136      1.0  0.08428  0.33419  0.57596  1.0000
  H   H137      1.0  0.01917  0.30647  0.63751  1.0000
  H   H138      1.0  0.07440  0.30763  0.54047  1.0000
  C   C119      1.0  0.27872  0.07534  0.95169  1.0000
  H   H139      1.0  0.25689  0.06398  0.96590  1.0000
  H   H140      1.0  0.27488  0.25680  0.62360  1.0000
  H   H141      1.0  0.27587  0.17058  0.57294  1.0000
  H   H142      1.0  0.02345  0.24185  0.59640  1.0000
  C   C120      1.0  0.28820  0.01945  0.70855  1.0000
  C   C121      1.0  0.97840  0.23289  0.82444  1.0000
  C   C122      1.0  0.08259  0.29839  0.68148  1.0000
  H   H143      1.0  0.29635  0.99623  0.62756  1.0000
  C   C123      1.0  0.22785  0.00108  0.80949  1.0000
  C   C124      1.0  0.25610  0.07439  0.89610  1.0000
  C   C125      1.0  0.15178  0.36587  0.99852  1.0000
  H   H144      1.0  0.25163  0.43331  0.66859  1.0000
  H   H145      1.0  0.17810  0.47208  0.89306  1.0000
  C   C126      1.0  0.23491  0.01175  0.89876  1.0000
  N   N9        1.0  0.07646  0.28376  0.91431  1.0000
  C   C127      1.0  0.08640  0.31501  0.90386  1.0000
  C   C128      1.0  0.08832  0.28445  0.95013  1.0000
  C   C129      1.0  0.09035  0.27205  0.88918  1.0000
  C   C130      1.0  0.04342  0.26434  0.91448  1.0000
  H   H146      1.0  0.19915  0.43591  0.75478  1.0000
  H   H147      1.0  0.07931  0.32650  0.92324  1.0000
  H   H148      1.0  0.11124  0.32867  0.90234  1.0000
  H   H149      1.0  0.07763  0.31595  0.87733  1.0000
  H   H150      1.0  0.07894  0.29366  0.96978  1.0000
  H   H151      1.0  0.11323  0.29869  0.95089  1.0000
  C   C131      1.0  0.25057  0.99396  0.81373  1.0000
  H   H152      1.0  0.08032  0.26895  0.86243  1.0000
  H   H153      1.0  0.11500  0.28749  0.88654  1.0000
  H   H154      1.0  0.08788  0.25040  0.89759  1.0000
  C   C132      1.0  0.27224  0.19918  0.62961  1.0000
  N   N10       1.0  0.04988  0.28939  0.58909  1.0000
  C   C133      1.0  0.07741  0.31056  0.56963  1.0000
  C   C134      1.0  0.04334  0.25855  0.58134  1.0000
  C   C135      1.0  0.02469  0.29248  0.57480  1.0000
  C   C136      1.0  0.05462  0.29532  0.62755  1.0000
  C   C137      1.0  0.24374  0.42457  0.73901  1.0000
  H   H155      1.0  0.25328  0.06783  0.86776  1.0000
  H   H156      1.0  0.04392  0.22290  0.92384  1.0000
  C   C138      1.0  0.20201  0.21583  0.56866  1.0000
  C   C139      1.0  0.24562  0.29374  0.50497  1.0000
  H   H157      1.0  0.09680  0.30757  0.57608  1.0000
  C   C140      1.0  0.26851  0.98872  0.92917  1.0000
  C   C141      1.0  0.30520  0.08023  0.89738  1.0000
  H   H158      1.0  0.18657  0.40240  0.72991  1.0000
  H   H159      1.0  0.30110  0.03356  0.94151  1.0000
  C   C142      1.0  0.99917  0.21422  0.91903  1.0000
  C   C143      1.0  0.25933  0.17853  0.57130  1.0000
  H   H160      1.0  0.29829  0.01056  0.81365  1.0000
  C   C144      1.0  0.29870  0.22909  0.57894  1.0000
  C   C145      1.0  0.29953  0.15682  0.97578  1.0000
  H   H161      1.0  0.21874  0.43610  0.66084  1.0000
  H   H162      1.0  0.10056  0.29673  0.69430  1.0000
  H   H163      1.0  0.97968  0.23335  0.75292  1.0000
  C   C146      1.0  0.23595  0.25703  0.60537  1.0000
  C   C147      1.0  0.24920  0.47107  0.71591  1.0000
  C   C148      1.0  0.28576  0.99646  0.65225  1.0000
  N   N11       1.0  0.23055  0.43808  0.71563  1.0000
  H   H164      1.0  0.08290  0.26188  0.95921  1.0000
  H   H165      1.0  0.30063  0.03698  0.72780  1.0000
  H   H166      1.0  0.99113  0.24693  0.70894  1.0000
  H   H167      1.0  0.28742  0.09985  0.95297  1.0000
  H   H168      1.0  0.24752  0.43427  0.76605  1.0000
  C   C149      1.0  0.30156  0.01923  0.67664  1.0000
  C   C150      1.0  0.27599  0.30149  0.50769  1.0000
  H   H169      1.0  0.97753  0.26556  0.90593  1.0000
  H   H170      1.0  0.29217  0.22742  0.99375  1.0000
  C   C151      1.0  0.24478  0.48206  0.81222  1.0000
  H   H171      1.0  0.30401  0.07193  0.87001  1.0000
  H   H172      1.0  0.29145  0.47227  0.70471  1.0000
  H   H173      1.0  0.98347  0.26819  0.74089  1.0000
  H   H174      1.0  0.23908  0.31035  0.50981  1.0000
  H   H175      1.0  0.21337  0.48171  0.72594  1.0000
  C   C152      1.0  0.28492  0.28011  0.50221  1.0000
  S   S29       1.0  0.27406  0.64574  0.11084  1.0000
  S   S30       1.0  0.27347  0.64965  0.19711  1.0000
  Fe  Fe15      1.0  0.27503  0.61829  0.15661  1.0000
  S   S31       1.0  0.24302  0.56796  0.16115  1.0000
  Fe  Fe16      1.0  0.27755  0.67946  0.15141  1.0000
  S   S32       1.0  0.24786  0.70066  0.14605  1.0000
  Fe  Fe17      1.0  0.16035  0.83010  0.45785  1.0000
  S   S33       1.0  0.13733  0.78040  0.45099  1.0000
  S   S34       1.0  0.18194  0.86373  0.41331  1.0000
  H   H176      1.0  0.26025  0.69449  0.03529  1.0000
  H   H177      1.0  0.22713  0.72841  0.40068  1.0000
  H   H178      1.0  0.18582  0.95385  0.02250  1.0000
  Fe  Fe18      1.0  0.24903  0.85693  0.15653  1.0000
  S   S35       1.0  0.19893  0.83002  0.15793  1.0000
  S   S36       1.0  0.27956  0.83710  0.14673  1.0000
  Fe  Fe19      1.0  0.24807  0.91612  0.16669  1.0000
  S   S37       1.0  0.19777  0.89243  0.16944  1.0000
  H   H179      1.0  0.29866  0.79192  0.43557  1.0000
  Fe  Fe20      1.0  0.20199  0.85914  0.20399  1.0000
  S   S38       1.0  0.17139  0.83217  0.24938  1.0000
  Fe  Fe21      1.0  0.19963  0.86568  0.12348  1.0000
  S   S39       1.0  0.16718  0.85465  0.07773  1.0000
  S   S40       1.0  0.25246  0.88456  0.20444  1.0000
  S   S41       1.0  0.24964  0.89097  0.11874  1.0000
  C   C153      1.0  0.17780  0.86293  0.03288  1.0000
  C   C154      1.0  0.27797  0.52297  0.30848  1.0000
  C   C155      1.0  0.02900  0.78712  0.48452  1.0000
  H   H180      1.0  0.22472  0.87836  0.04094  1.0000
  H   H181      1.0  0.23818  0.76731  0.39906  1.0000
  C   C156      1.0  0.18102  0.85430  0.36807  1.0000
  C   C157      1.0  0.19552  0.87725  0.34310  1.0000
  C   C158      1.0  0.19385  0.87078  0.30670  1.0000
  C   C159      1.0  0.17713  0.84127  0.29490  1.0000
  C   C160      1.0  0.16285  0.81831  0.31990  1.0000
  C   C161      1.0  0.16516  0.82471  0.35631  1.0000
  H   H182      1.0  0.20794  0.90019  0.35194  1.0000
  H   H183      1.0  0.20483  0.88866  0.28774  1.0000
  H   H184      1.0  0.14994  0.79542  0.31099  1.0000
  H   H185      1.0  0.15438  0.80673  0.37514  1.0000
  H   H186      1.0  0.01114  0.81669  0.49208  1.0000
  H   H187      1.0  0.29128  0.80550  0.39602  1.0000
  C   C162      1.0  0.22922  0.50928  0.15551  1.0000
  C   C163      1.0  0.25231  0.53914  0.15894  1.0000
  C   C164      1.0  0.28180  0.54506  0.16262  1.0000
  C   C165      1.0  0.28786  0.52134  0.16489  1.0000
  H   H188      1.0  0.30552  0.74199  0.40805  1.0000
  H   H189      1.0  0.20637  0.50447  0.15206  1.0000
  H   H190      1.0  0.98752  0.71410  0.46142  1.0000
  C   C166      1.0  0.23537  0.48555  0.15713  1.0000
  C   C167      1.0  0.25741  0.73877  0.14913  1.0000
  C   C168      1.0  0.23429  0.74579  0.15086  1.0000
  C   C169      1.0  0.24069  0.77571  0.15147  1.0000
  C   C170      1.0  0.27037  0.79907  0.14941  1.0000
  H   H191      1.0  0.16410  0.79507  0.08683  1.0000
  C   C171      1.0  0.28714  0.76212  0.14817  1.0000
  H   H192      1.0  0.21122  0.72791  0.15195  1.0000
  H   H193      1.0  0.22266  0.78068  0.15325  1.0000
  C   C172      1.0  0.00583  0.79417  0.48566  1.0000
  C   C173      1.0  0.23043  0.94142  0.07755  1.0000
  H   H194      1.0  0.24392  0.75217  0.43829  1.0000
  C   C174      1.0  0.29055  0.55319  0.29992  1.0000
  H   H195      1.0  0.30522  0.75717  0.14710  1.0000
  C   C175      1.0  0.21840  0.51839  0.26092  1.0000
  H   H196      1.0  0.24943  0.94816  0.05887  1.0000
  S   S42       1.0  0.27853  0.96691  0.16653  1.0000
  H   H197      1.0  0.23992  0.98291  0.25151  1.0000
  N   N12       1.0  0.08406  0.82404  0.38289  1.0000
  C   C176      1.0  0.09260  0.80434  0.40188  1.0000
  C   C177      1.0  0.09324  0.82612  0.34536  1.0000
  C   C178      1.0  0.10150  0.85434  0.39866  1.0000
  C   C179      1.0  0.05117  0.81132  0.38514  1.0000
  C   C180      1.0  0.03154  0.78189  0.37285  1.0000
  C   C181      1.0  0.03768  0.82711  0.39997  1.0000
  C   C182      1.0  0.20131  0.94593  0.03105  1.0000
  H   H198      1.0  0.21217  0.76206  0.08382  1.0000
  C   C183      1.0  0.15586  0.85819  0.00764  1.0000
  H   H199      1.0  0.08307  0.79958  0.42901  1.0000
  H   H200      1.0  0.08456  0.78246  0.38863  1.0000
  H   H201      1.0  0.11733  0.81466  0.40429  1.0000
  H   H202      1.0  0.08371  0.80386  0.33255  1.0000
  H   H203      1.0  0.11806  0.83683  0.34260  1.0000
  H   H204      1.0  0.08595  0.83960  0.32979  1.0000
  H   H205      1.0  0.09646  0.85411  0.42732  1.0000
  H   H206      1.0  0.12615  0.86310  0.39677  1.0000
  H   H207      1.0  0.09719  0.87077  0.38482  1.0000
  H   H208      1.0  0.04020  0.76847  0.36158  1.0000
  H   H209      1.0  0.05063  0.84938  0.41055  1.0000
  C   C184      1.0  0.99271  0.73650  0.46837  1.0000
  C   C185      1.0  0.29706  0.78891  0.40640  1.0000
  C   C186      1.0  0.22202  0.81814  0.07250  1.0000
  N   N13       1.0  0.27478  0.75785  0.39630  1.0000
  H   H210      1.0  0.26057  0.78370  0.28265  1.0000
  H   H211      1.0  0.19116  0.94858  0.11932  1.0000
  H   H212      1.0  0.22064  0.95533  0.01243  1.0000
  C   C187      1.0  0.27443  0.75478  0.35736  1.0000
  H   H213      1.0  0.28762  0.72038  0.35414  1.0000
  S   S43       1.0  0.12240  0.82893  0.48876  1.0000
  H   H214      1.0  0.99655  0.82585  0.41507  1.0000
  H   H215      1.0  0.17845  0.77498  0.11015  1.0000
  H   H216      1.0  0.21736  0.48757  0.22321  1.0000
  C   C188      1.0  0.00650  0.81394  0.40254  1.0000
  C   C189      1.0  0.26911  0.71848  0.04185  1.0000
  C   C190      1.0  0.27385  0.75035  0.28248  1.0000
  Fe  Fe22      1.0  0.10077  0.77922  0.48531  1.0000
  S   S44       1.0  0.05114  0.74846  0.47264  1.0000
  H   H217      1.0  0.16696  0.94550  0.08342  1.0000
  H   H218      1.0  0.27340  0.74852  0.25389  1.0000
  C   C191      1.0  0.26688  0.77239  0.33557  1.0000
  C   C192      1.0  0.19677  0.49867  0.31797  1.0000
  H   H219      1.0  0.28300  0.74060  0.44447  1.0000
  H   H220      1.0  0.29524  0.66861  0.27119  1.0000
  H   H221      1.0  0.23945  0.94788  0.10485  1.0000
  H   H222      1.0  0.30703  0.62703  0.24282  1.0000
  H   H223      1.0  0.19032  0.74628  0.04449  1.0000
  H   H224      1.0  0.17393  0.91583  0.09196  1.0000
  H   H225      1.0  0.24278  0.82757  0.05636  1.0000
  H   H226      1.0  0.22880  0.77564  0.04180  1.0000
  C   C193      1.0  0.28274  0.73762  0.41530  1.0000
  H   H227      1.0  0.15279  0.75694  0.07465  1.0000
  C   C194      1.0  0.26465  0.49147  0.16309  1.0000
  C   C195      1.0  0.26659  0.77012  0.29874  1.0000
  C   C196      1.0  0.21106  0.48979  0.24968  1.0000
  C   C197      1.0  0.21108  0.52282  0.29497  1.0000
  C   C198      1.0  0.18978  0.79478  0.02200  1.0000
  H   H228      1.0  0.26639  0.71368  0.40993  1.0000
  H   H229      1.0  0.21501  0.83527  0.07413  1.0000
  H   H230      1.0  0.30345  0.50015  0.23908  1.0000
  H   H231      1.0  0.25993  0.72827  0.02289  1.0000
  N   N14       1.0  0.21141  0.95449  0.06803  1.0000
  H   H232      1.0  0.13286  0.84958  0.01592  1.0000
  N   N15       1.0  0.19746  0.78976  0.05808  1.0000
  H   H233      1.0  0.22062  0.96455  0.17313  1.0000
  C   C199      1.0  0.17199  0.77865  0.08335  1.0000
  H   H234      1.0  0.29834  0.65477  0.03083  1.0000
  C   C200      1.0  0.18479  0.94068  0.09165  1.0000
  H   H235      1.0  0.27753  0.66642  0.33265  1.0000
  C   C201      1.0  0.24475  0.75116  0.40897  1.0000
  C   C202      1.0  0.20762  0.76748  0.05688  1.0000
  H   H236      1.0  0.29983  0.56788  0.16410  1.0000
  H   H237      1.0  0.28075  0.59747  0.27027  1.0000
  H   H238      1.0  0.28553  0.56689  0.31704  1.0000
  H   H239      1.0  0.25966  0.71887  0.06830  1.0000
  C   C203      1.0  0.28146  0.73280  0.30301  1.0000
  C   C204      1.0  0.00043  0.76889  0.37583  1.0000
  H   H240      1.0  0.21753  0.91662  0.07690  1.0000
  H   H241      1.0  0.19126  0.50224  0.34455  1.0000
  C   C205      1.0  0.30116  0.67516  0.32756  1.0000
  S   S45       1.0  0.30964  0.70362  0.49609  1.0000
  H   H242      1.0  0.22857  0.81518  0.09953  1.0000
  C   C206      1.0  0.20748  0.87424  0.02191  1.0000
  C   C207      1.0  0.29351  0.79204  0.14784  1.0000
  C   C208      1.0  0.02261  0.75826  0.47558  1.0000
  H   H243      1.0  0.28695  0.71734  0.29021  1.0000
  H   H244      1.0  0.26104  0.78806  0.34688  1.0000
  C   C209      1.0  0.98795  0.78488  0.39070  1.0000
  H   H245      1.0  0.18905  0.92126  0.02756  1.0000
  H   H246      1.0  0.22957  0.53711  0.24284  1.0000
  H   H247      1.0  0.21652  0.54499  0.30354  1.0000
  H   H248      1.0  0.26413  0.51417  0.33189  1.0000
  C   C210      1.0  0.28175  0.73481  0.33990  1.0000
  H   H249      1.0  0.05183  0.80410  0.49025  1.0000
  H   H250      1.0  0.28657  0.58971  0.22560  1.0000
  S   S46       1.0  0.30795  0.68442  0.39893  1.0000
  H   H251      1.0  0.14300  0.78308  0.03179  1.0000
  C   C211      1.0  0.28284  0.50399  0.28679  1.0000
  C   C212      1.0  0.29810  0.60313  0.24957  1.0000
  N   N16       1.0  0.30243  0.73515  0.04208  1.0000
  H   H252      1.0  0.98593  0.74607  0.36729  1.0000
  C   C213      1.0  0.30021  0.51510  0.25644  1.0000
  H   H253      1.0  0.28663  0.98083  0.24709  1.0000
  H   H254      1.0  0.30690  0.69893  0.06276  1.0000
  C   C214      1.0  0.16086  0.78984  0.01276  1.0000
  H   H255      1.0  0.23608  0.80766  0.49950  1.0000
  H   H256      1.0  0.30066  0.72034  0.09566  1.0000
  H   H257      1.0  0.28943  0.82026  0.49885  1.0000
  H   H258      1.0  0.30174  0.76816  0.07650  1.0000
  C   C215      1.0  0.30912  0.56546  0.26974  1.0000
  H   H259      1.0  0.30680  0.77784  0.03041  1.0000
  C   C216      1.0  0.28609  0.53418  0.71701  1.0000
  H   H260      1.0  0.20628  0.91523  0.66451  1.0000
  Fe  Fe23      1.0  0.14553  0.82516  0.53727  1.0000
  S   S47       1.0  0.12189  0.77509  0.53533  1.0000
  S   S48       1.0  0.14117  0.84942  0.58516  1.0000
  H   H261      1.0  0.16192  0.71857  0.61829  1.0000
  H   H262      1.0  0.29906  0.71040  0.92175  1.0000
  H   H263      1.0  0.16811  0.78330  0.73372  1.0000
  Fe  Fe24      1.0  0.17400  0.87820  0.86938  1.0000
  S   S49       1.0  0.14553  0.89987  0.86939  1.0000
  S   S50       1.0  0.20302  0.87943  0.91543  1.0000
  Fe  Fe25      1.0  0.16690  0.86734  0.78905  1.0000
  S   S51       1.0  0.13818  0.88852  0.78388  1.0000
  S   S52       1.0  0.18492  0.85268  0.74287  1.0000
  Fe  Fe26      1.0  0.17137  0.92388  0.82066  1.0000
  C   C217      1.0  0.25646  0.97382  0.65960  1.0000
  Fe  Fe27      1.0  0.11492  0.86213  0.83277  1.0000
  S   S53       1.0  0.06401  0.84130  0.83829  1.0000
  S   S54       1.0  0.20143  0.90440  0.82260  1.0000
  S   S55       1.0  0.14200  0.83878  0.83602  1.0000
  C   C218      1.0  0.17922  0.77476  0.68154  1.0000
  S   S56       1.0  0.18928  0.97353  0.81116  1.0000
  C   C219      1.0  0.25393  0.51057  0.90244  1.0000
  H   H264      1.0  0.29249  0.58009  0.86055  1.0000
  C   C220      1.0  0.27529  0.50439  0.81084  1.0000
  C   C221      1.0  0.28383  0.53475  0.80761  1.0000
  C   C222      1.0  0.26138  0.54247  0.80580  1.0000
  C   C223      1.0  0.23089  0.52014  0.80712  1.0000
  H   H265      1.0  0.29242  0.49813  0.81229  1.0000
  C   C224      1.0  0.20434  0.51890  0.90533  1.0000
  H   H266      1.0  0.26743  0.56562  0.80279  1.0000
  H   H267      1.0  0.21376  0.52641  0.80554  1.0000
  C   C225      1.0  0.03498  0.80368  0.83163  1.0000
  C   C226      1.0  0.04083  0.78006  0.82872  1.0000
  C   C227      1.0  0.01690  0.75036  0.82626  1.0000
  C   C228      1.0  0.00496  0.79719  0.83113  1.0000
  H   H268      1.0  0.06374  0.78462  0.82915  1.0000
  H   H269      1.0  0.00016  0.81527  0.83334  1.0000
  C   C229      1.0  0.22236  0.48980  0.81011  1.0000
  C   C230      1.0  0.19286  0.87452  0.96056  1.0000
  C   C231      1.0  0.16336  0.86414  0.97162  1.0000
  H   H270      1.0  0.23774  0.88778  0.97748  1.0000
  H   H271      1.0  0.14620  0.85990  0.95232  1.0000
  C   C232      1.0  0.15255  0.84813  0.62880  1.0000
  C   C233      1.0  0.17827  0.84636  0.63582  1.0000
  C   C234      1.0  0.18802  0.84786  0.67089  1.0000
  C   C235      1.0  0.17205  0.85098  0.69920  1.0000
  C   C236      1.0  0.14619  0.85247  0.69217  1.0000
  C   C237      1.0  0.13667  0.85132  0.65710  1.0000
  H   H272      1.0  0.19098  0.84461  0.61415  1.0000
  H   H273      1.0  0.20802  0.84662  0.67616  1.0000
  H   H274      1.0  0.13353  0.85458  0.71371  1.0000
  H   H275      1.0  0.11687  0.85294  0.65184  1.0000
  H   H276      1.0  0.02170  0.73226  0.82466  1.0000
  C   C238      1.0  0.29878  0.72123  0.97687  1.0000
  H   H277      1.0  0.24556  0.53528  0.72662  1.0000
  C   C239      1.0  0.19257  0.96301  0.71148  1.0000
  H   H278      1.0  0.13672  0.76574  0.60838  1.0000
  H   H279      1.0  0.21106  0.74872  0.65167  1.0000
  C   C240      1.0  0.19555  0.92873  0.67138  1.0000
  H   H280      1.0  0.26255  0.72801  0.51457  1.0000
  H   H281      1.0  0.27464  0.71022  0.97665  1.0000
  H   H282      1.0  0.19963  0.77644  0.69149  1.0000
  C   C241      1.0  0.02520  0.77681  0.91627  1.0000
  C   C242      1.0  0.17645  0.80461  0.95225  1.0000
  C   C243      1.0  0.17116  0.76985  0.64521  1.0000
  C   C244      1.0  0.15442  0.79456  0.97829  1.0000
  C   C245      1.0  0.20505  0.80997  0.96048  1.0000
  H   H283      1.0  0.28577  0.64811  0.96701  1.0000
  C   C246      1.0  0.24201  0.97362  0.69177  1.0000
  N   N17       1.0  0.18992  0.76642  0.61795  1.0000
  C   C247      1.0  0.20011  0.79102  0.59194  1.0000
  C   C248      1.0  0.17206  0.73750  0.59933  1.0000
  H   H284      1.0  0.21490  0.78965  0.57143  1.0000
  H   H285      1.0  0.18115  0.79059  0.57743  1.0000
  H   H286      1.0  0.21286  0.81316  0.60507  1.0000
  H   H287      1.0  0.23045  0.76413  0.61108  1.0000
  H   H288      1.0  0.15363  0.73679  0.58328  1.0000
  H   H289      1.0  0.18599  0.73312  0.58031  1.0000
  C   C249      1.0  0.16111  0.77843  0.70634  1.0000
  C   C250      1.0  0.21488  0.87981  0.98590  1.0000
  C   C251      1.0  0.30884  0.65731  0.97521  1.0000
  H   H290      1.0  0.19190  0.97750  0.69026  1.0000
  H   H291      1.0  0.27567  0.58770  0.95350  1.0000
  S   S57       1.0  0.18601  0.83140  0.50686  1.0000
  C   C252      1.0  0.23311  0.54310  0.91095  1.0000
  H   H292      1.0  0.17167  0.80935  0.92590  1.0000
  C   C253      1.0  0.29873  0.51622  0.71102  1.0000
  H   H293      1.0  0.99701  0.75835  0.58479  1.0000
  C   C254      1.0  0.29134  0.57893  0.95008  1.0000
  C   C255      1.0  0.12614  0.77258  0.66053  1.0000
  N   N18       1.0  0.21129  0.94980  0.70090  1.0000
  H   H294      1.0  0.23237  0.78883  0.64522  1.0000
  C   C256      1.0  0.14401  0.76881  0.63554  1.0000
  C   C257      1.0  0.21707  0.76705  0.63235  1.0000
  N   N19       1.0  0.28912  0.56596  0.91445  1.0000
  H   H295      1.0  0.20922  0.71550  0.51595  1.0000
  H   H296      1.0  0.20285  0.96595  0.88625  1.0000
  C   C258      1.0  0.25524  0.52118  0.72153  1.0000
  H   H297      1.0  0.23511  0.56461  0.91601  1.0000
  C   C259      1.0  0.13465  0.77734  0.69588  1.0000
  H   H298      1.0  0.17196  0.91231  0.67841  1.0000
  C   C260      1.0  0.21288  0.93232  0.73093  1.0000
  H   H299      1.0  0.27201  0.50579  0.90007  1.0000
  C   C261      1.0  0.23693  0.49013  0.72113  1.0000
  H   H300      1.0  0.05119  0.82474  0.91619  1.0000
  H   H301      1.0  0.22169  0.94603  0.75531  1.0000
  H   H302      1.0  0.13250  0.79143  0.97196  1.0000
  H   H303      1.0  0.99509  0.73040  0.91450  1.0000
  C   C262      1.0  0.98107  0.76757  0.82800  1.0000
  H   H304      1.0  0.00803  0.83127  0.93071  1.0000
  C   C263      1.0  0.25886  0.53976  0.90935  1.0000
  H   H305      1.0  0.30027  0.55823  0.71878  1.0000
  H   H306      1.0  0.19043  0.91323  0.73764  1.0000
  H   H307      1.0  0.22230  0.81872  0.94027  1.0000
  C   C264      1.0  0.00484  0.80895  0.92853  1.0000
  C   C265      1.0  0.24088  0.96947  0.91380  1.0000
  S   S58       1.0  0.18047  0.75067  0.50945  1.0000
  H   H308      1.0  0.22754  0.92273  0.72471  1.0000
  H   H309      1.0  0.28630  0.56204  0.97109  1.0000
  H   H310      1.0  0.10605  0.77273  0.65226  1.0000
  H   H311      1.0  0.12131  0.78127  0.71505  1.0000
  C   C266      1.0  0.29448  0.58896  0.88772  1.0000
  H   H312      1.0  0.16909  0.94549  0.71761  1.0000
  H   H313      1.0  0.24485  0.97118  0.81900  1.0000
  C   C267      1.0  0.99670  0.75169  0.91978  1.0000
  H   H314      1.0  0.28164  0.97965  0.94042  1.0000
  C   C268      1.0  0.27977  0.77499  0.50653  1.0000
  H   H315      1.0  0.04412  0.77426  0.90860  1.0000
  C   C269      1.0  0.02925  0.80534  0.92051  1.0000
  H   H316      1.0  0.19451  0.94056  0.64739  1.0000
  H   H317      1.0  0.23259  0.94561  0.91302  1.0000
  C   C270      1.0  0.98687  0.74387  0.82607  1.0000
  H   H318      1.0  0.24570  0.95663  0.63979  1.0000
  H   H319      1.0  0.27882  0.59781  0.89011  1.0000
  C   C271      1.0  0.28059  0.48515  0.70994  1.0000
  H   H320      1.0  0.18506  0.52210  0.90575  1.0000
  C   C272      1.0  0.22669  0.73841  0.51206  1.0000
  C   C273      1.0  0.22500  0.48647  0.89732  1.0000
  C   C274      1.0  0.21888  0.76071  0.50771  1.0000
  C   C275      1.0  0.22410  0.98097  0.89882  1.0000
  C   C276      1.0  0.25693  0.74544  0.51127  1.0000
  C   C277      1.0  0.20032  0.49067  0.89843  1.0000
  C   C278      1.0  0.21169  0.80504  0.99475  1.0000
  H   H321      1.0  0.20074  0.97666  0.73592  1.0000
  H   H322      1.0  0.98237  0.73133  0.63675  1.0000
  H   H323      1.0  0.97993  0.79555  0.59502  1.0000
  C   C279      1.0  0.24170  0.79023  0.50283  1.0000
  C   C280      1.0  0.27195  0.79731  0.50249  1.0000
  Fe  Fe28      1.0  0.16086  0.78136  0.50149  1.0000
  H   H324      1.0  0.23430  0.80986  0.99987  1.0000
  Fe  Fe29      1.0  0.34249  0.21266  0.44805  1.0000
  S   S59       1.0  0.36886  0.26286  0.44853  1.0000
  H   H325      1.0  0.33269  0.11180  0.23850  1.0000
  S   S60       1.0  0.32158  0.14415  0.15864  1.0000
  S   S61       1.0  0.31738  0.20521  0.15034  1.0000
  H   H326      1.0  0.62829  0.34445  0.01704  1.0000
  C   C281      1.0  0.59303  0.35012  0.41784  1.0000
  S   S62       1.0  0.34726  0.18431  0.06733  1.0000
  Fe  Fe30      1.0  0.34166  0.25928  0.49674  1.0000
  S   S63       1.0  0.34981  0.20113  0.24007  1.0000
  H   H327      1.0  0.56925  0.27778  0.39728  1.0000
  H   H328      1.0  0.57447  0.29531  0.43923  1.0000
  H   H329      1.0  0.62515  0.37399  0.36344  1.0000
  H   H330      1.0  0.58427  0.34586  0.44539  1.0000
  C   C282      1.0  0.57344  0.30464  0.33294  1.0000
  C   C283      1.0  0.32880  0.26594  0.24690  1.0000
  H   H331      1.0  0.33285  0.27133  0.21823  1.0000
  H   H332      1.0  0.53984  0.32932  0.38291  1.0000
  C   C284      1.0  0.32431  0.18923  0.35753  1.0000
  S   S64       1.0  0.45104  0.28981  0.48485  1.0000
  H   H333      1.0  0.53638  0.31090  0.42432  1.0000
  H   H334      1.0  0.61741  0.35767  0.41995  1.0000
  C   C285      1.0  0.61205  0.35536  0.34607  1.0000
  C   C286      1.0  0.33928  0.19635  0.28505  1.0000
  C   C287      1.0  0.36094  0.21308  0.31070  1.0000
  C   C288      1.0  0.35350  0.20964  0.34683  1.0000
  C   C289      1.0  0.58759  0.32795  0.35819  1.0000
  H   H335      1.0  0.32296  0.22283  0.00782  1.0000
  H   H336      1.0  0.38368  0.22862  0.30261  1.0000
  H   H337      1.0  0.37039  0.22249  0.36640  1.0000
  C   C290      1.0  0.33464  0.25426  0.06787  1.0000
  S   S65       1.0  0.37574  0.20729  0.48163  1.0000
  Fe  Fe31      1.0  0.31573  0.16975  0.11430  1.0000
  C   C291      1.0  0.58284  0.30869  0.29771  1.0000
  S   S66       1.0  0.63427  0.28090  0.45756  1.0000
  H   H338      1.0  0.59045  0.36883  0.40743  1.0000
  H   H339      1.0  0.34406  0.23896  0.06910  1.0000
  H   H340      1.0  0.51499  0.32515  0.49367  1.0000
  H   H341      1.0  0.55526  0.28293  0.34035  1.0000
  Fe  Fe32      1.0  0.40033  0.25746  0.48565  1.0000
  S   S67       1.0  0.31369  0.20961  0.49443  1.0000
  H   H342      1.0  0.53055  0.29087  0.38442  1.0000
  N   N20       1.0  0.57712  0.32304  0.39534  1.0000
  H   H343      1.0  0.60602  0.30625  0.41052  1.0000
  C   C292      1.0  0.62109  0.35920  0.31070  1.0000
  H   H344      1.0  0.57214  0.29047  0.27895  1.0000
  H   H345      1.0  0.33626  0.26128  0.31235  1.0000
  C   C293      1.0  0.33681  0.17581  0.02250  1.0000
  C   C294      1.0  0.54464  0.31316  0.39669  1.0000
  C   C295      1.0  0.58188  0.29955  0.41117  1.0000
  H   H346      1.0  0.33992  0.28756  0.26137  1.0000
  H   H347      1.0  0.41143  0.34961  0.48189  1.0000
  H   H348      1.0  0.34038  0.25315  0.25330  1.0000
  H   H349      1.0  0.32347  0.24657  0.37335  1.0000
  H   H350      1.0  0.31289  0.33418  0.03586  1.0000
  C   C296      1.0  0.31270  0.24895  0.31883  1.0000
  H   H351      1.0  0.64028  0.37998  0.30214  1.0000
  H   H352      1.0  0.35261  0.27522  0.05602  1.0000
  Fe  Fe33      1.0  0.60430  0.28435  0.49886  1.0000
  H   H353      1.0  0.55539  0.31225  0.49927  1.0000
  H   H354      1.0  0.38269  0.19723  0.00461  1.0000
  C   C297      1.0  0.31289  0.23751  0.01012  1.0000
  H   H355      1.0  0.33324  0.30057  0.03016  1.0000
  H   H356      1.0  0.63732  0.28882  0.31381  1.0000
  H   H357      1.0  0.44901  0.23210  0.48741  1.0000
  C   C298      1.0  0.60651  0.33596  0.28659  1.0000
  H   H358      1.0  0.61431  0.33878  0.25947  1.0000
  H   H359      1.0  0.33566  0.02689  0.25294  1.0000
  C   C299      1.0  0.49509  0.24247  0.49284  1.0000
  H   H360      1.0  0.33197  0.10485  0.30286  1.0000
  S   S68       1.0  0.31382  0.18389  0.40252  1.0000
  H   H361      1.0  0.33104  0.25920  0.09548  1.0000
  C   C300      1.0  0.47210  0.24968  0.49005  1.0000
  C   C301      1.0  0.47908  0.27952  0.49001  1.0000
  Fe  Fe34      1.0  0.31807  0.17693  0.19483  1.0000
  C   C302      1.0  0.31662  0.05539  0.26128  1.0000
  H   H362      1.0  0.33859  0.07495  0.26338  1.0000
  H   H363      1.0  0.46569  0.38278  0.49498  1.0000
  C   C303      1.0  0.53231  0.29476  0.49651  1.0000
  H   H364      1.0  0.41293  0.31698  0.49469  1.0000
  C   C304      1.0  0.50931  0.30200  0.49347  1.0000
  H   H365      1.0  0.31334  0.03077  0.16142  1.0000
  H   H366      1.0  0.64308  0.30326  0.37708  1.0000
  S   S69       1.0  0.62705  0.33417  0.49649  1.0000
  S   S70       1.0  0.55341  0.25440  0.49804  1.0000
  C   C305      1.0  0.52533  0.26488  0.49580  1.0000
  H   H367      1.0  0.48939  0.21928  0.49238  1.0000
  C   C306      1.0  0.31525  0.02800  0.25552  1.0000
  H   H368      1.0  0.31106  0.12969  0.24385  1.0000
  Fe  Fe35      1.0  0.34918  0.20893  0.52813  1.0000
  S   S71       1.0  0.37532  0.25852  0.53402  1.0000
  H   H369      1.0  0.40413  0.37027  0.55103  1.0000
  C   C307      1.0  0.35348  0.21694  0.62951  1.0000
  Fe  Fe36      1.0  0.35508  0.18315  0.78031  1.0000
  S   S72       1.0  0.38181  0.15988  0.77462  1.0000
  S   S73       1.0  0.35302  0.21217  0.73646  1.0000
  Fe  Fe37      1.0  0.34318  0.16722  0.85923  1.0000
  S   S74       1.0  0.37055  0.14437  0.85849  1.0000
  C   C308      1.0  0.33664  0.16555  0.64463  1.0000
  Fe  Fe38      1.0  0.40387  0.18330  0.82537  1.0000
  S   S75       1.0  0.45491  0.20397  0.83005  1.0000
  Fe  Fe39      1.0  0.34590  0.12348  0.80802  1.0000
  S   S76       1.0  0.37825  0.20787  0.83014  1.0000
  C   C309      1.0  0.48397  0.24208  0.82992  1.0000
  C   C310      1.0  0.47846  0.26538  0.82224  1.0000
  H   H370      1.0  0.51823  0.23119  0.84240  1.0000
  H   H371      1.0  0.45570  0.26054  0.81802  1.0000
  C   C311      1.0  0.42786  0.37781  0.54415  1.0000
  H   H372      1.0  0.57617  0.32182  0.75126  1.0000
  C   C312      1.0  0.35212  0.18092  0.96053  1.0000
  C   C313      1.0  0.59314  0.32060  0.68059  1.0000
  H   H373      1.0  0.36973  0.18873  0.94088  1.0000
  C   C314      1.0  0.34314  0.18745  0.61886  1.0000
  H   H374      1.0  0.59828  0.26603  0.76790  1.0000
  C   C315      1.0  0.34009  0.17288  0.68078  1.0000
  C   C316      1.0  0.34949  0.20214  0.69143  1.0000
  C   C317      1.0  0.57311  0.27402  0.63161  1.0000
  C   C318      1.0  0.39923  0.30346  0.61353  1.0000
  H   H375      1.0  0.60221  0.33980  0.69787  1.0000
  H   H376      1.0  0.60640  0.34944  0.63504  1.0000
  H   H377      1.0  0.62079  0.28450  0.73013  1.0000
  C   C319      1.0  0.44806  0.32124  0.56814  1.0000
  Fe  Fe40      1.0  0.61274  0.36155  0.82887  1.0000
  S   S77       1.0  0.56163  0.33983  0.82317  1.0000
  C   C320      1.0  0.58050  0.29088  0.69349  1.0000
  C   C321      1.0  0.53223  0.30200  0.82665  1.0000
  C   C322      1.0  0.53767  0.27873  0.83484  1.0000
  C   C323      1.0  0.51372  0.24899  0.83614  1.0000
  C   C324      1.0  0.50247  0.29507  0.82034  1.0000
  H   H378      1.0  0.56028  0.28363  0.84042  1.0000
  H   H379      1.0  0.49791  0.31290  0.81445  1.0000
  C   C325      1.0  0.35622  0.22413  0.66569  1.0000
  C   C326      1.0  0.58586  0.30337  0.61992  1.0000
  H   H380      1.0  0.58875  0.30826  0.59186  1.0000
  C   C327      1.0  0.42845  0.33277  0.56227  1.0000
  H   H381      1.0  0.53764  0.24113  0.72704  1.0000
  H   H382      1.0  0.53277  0.27242  0.73752  1.0000
  H   H383      1.0  0.61348  0.32658  0.75029  1.0000
  C   C328      1.0  0.58939  0.31032  0.75489  1.0000
  C   C329      1.0  0.41923  0.29308  0.61891  1.0000
  C   C330      1.0  0.54727  0.26248  0.74183  1.0000
  C   C331      1.0  0.59565  0.32654  0.64433  1.0000
  S   S78       1.0  0.32738  0.07357  0.79961  1.0000
  C   C332      1.0  0.59730  0.26985  0.73909  1.0000
  H   H384      1.0  0.58744  0.30430  0.78335  1.0000
  H   H385      1.0  0.45833  0.29285  0.59953  1.0000
  S   S79       1.0  0.31187  0.16166  0.90489  1.0000
  H   H386      1.0  0.43361  0.39480  0.52305  1.0000
  C   C333      1.0  0.57047  0.26777  0.66781  1.0000
  H   H387      1.0  0.33479  0.15575  0.70040  1.0000
  H   H388      1.0  0.35889  0.23406  0.60996  1.0000
  H   H389      1.0  0.36352  0.24680  0.67387  1.0000
  N   N21       1.0  0.57870  0.28375  0.73163  1.0000
  S   S80       1.0  0.33637  0.17667  0.57398  1.0000
  N   N22       1.0  0.44545  0.23340  0.71314  1.0000
  C   C334      1.0  0.42113  0.20844  0.69278  1.0000
  C   C335      1.0  0.45933  0.22078  0.73658  1.0000
  C   C336      1.0  0.43109  0.24648  0.73543  1.0000
  C   C337      1.0  0.46907  0.25644  0.69039  1.0000
  C   C338      1.0  0.49143  0.28394  0.70503  1.0000
  C   C339      1.0  0.47196  0.25156  0.65392  1.0000
  C   C340      1.0  0.51461  0.30549  0.68429  1.0000
  C   C341      1.0  0.49541  0.27318  0.63350  1.0000
  C   C342      1.0  0.51651  0.30016  0.64857  1.0000
  H   H390      1.0  0.42900  0.19449  0.67919  1.0000
  H   H391      1.0  0.40233  0.19288  0.71011  1.0000
  H   H392      1.0  0.41111  0.21680  0.67298  1.0000
  H   H393      1.0  0.47050  0.21071  0.72117  1.0000
  H   H394      1.0  0.44245  0.20302  0.75402  1.0000
  H   H395      1.0  0.47627  0.23793  0.75450  1.0000
  H   H396      1.0  0.42049  0.25652  0.71900  1.0000
  H   H397      1.0  0.41318  0.22928  0.75251  1.0000
  H   H398      1.0  0.44674  0.26361  0.75423  1.0000
  H   H399      1.0  0.49164  0.28886  0.73286  1.0000
  H   H400      1.0  0.45653  0.23110  0.64053  1.0000
  H   H401      1.0  0.53137  0.32635  0.69611  1.0000
  H   H402      1.0  0.49726  0.26892  0.60575  1.0000
  H   H403      1.0  0.53457  0.31686  0.63259  1.0000
  C   C343      1.0  0.40986  0.33552  0.50486  1.0000
  H   H404      1.0  0.56116  0.24472  0.67553  1.0000
  H   H405      1.0  0.56581  0.25609  0.61241  1.0000
  H   H406      1.0  0.58875  0.24794  0.72574  1.0000
  H   H407      1.0  0.54552  0.25649  0.77031  1.0000
  H   H408      1.0  0.32430  0.03664  0.67098  1.0000
  C   C344      1.0  0.40347  0.32269  0.58541  1.0000
  H   H409      1.0  0.44201  0.38932  0.56759  1.0000
  C   C345      1.0  0.44340  0.30176  0.59608  1.0000
  H   H410      1.0  0.41560  0.27774  0.64031  1.0000
  H   H411      1.0  0.38649  0.32887  0.58137  1.0000
  S   S81       1.0  0.63893  0.38786  0.78128  1.0000
  H   H412      1.0  0.37998  0.29603  0.63080  1.0000
  H   H413      1.0  0.32860  0.14267  0.63661  1.0000
  H   H414      1.0  0.32231  0.07722  0.91168  1.0000
  H   H415      1.0  0.48059  0.37804  0.53581  1.0000
  C   C346      1.0  0.32215  0.16680  0.94994  1.0000
  S   S82       1.0  0.63234  0.28342  0.54408  1.0000
  N   N23       1.0  0.43235  0.35285  0.53234  1.0000
  H   H416      1.0  0.46674  0.32625  0.55093  1.0000
  S   S83       1.0  0.32335  0.29073  0.50695  1.0000
  C   C347      1.0  0.46258  0.36634  0.51584  1.0000
  S   S84       1.0  0.63850  0.33730  0.83575  1.0000
  H   H417      1.0  0.32910  0.25916  0.99782  1.0000
  S   S85       1.0  0.64259  0.39876  0.86655  1.0000
  H   H418      1.0  0.38658  0.32529  0.51524  1.0000
  H   H419      1.0  0.31420  0.10477  0.89578  1.0000
  S   S86       1.0  0.31743  0.14501  0.80962  1.0000
  H   H420      1.0  0.31429  0.22016  0.57616  1.0000
  H   H421      1.0  0.64150  0.35545  0.95356  1.0000
  C   C348      1.0  0.35939  0.18567  0.99666  1.0000
  H   H422      1.0  0.46623  0.34930  0.50217  1.0000
  Fe  Fe41      1.0  0.33639  0.70822  0.44698  1.0000
  S   S87       1.0  0.36242  0.75819  0.44873  1.0000
  H   H423      1.0  0.47105  0.81007  0.40627  1.0000
  C   C349      1.0  0.50479  0.79459  0.47619  1.0000
  C   C350      1.0  0.39335  0.77383  0.35166  1.0000
  Fe  Fe42      1.0  0.32372  0.67289  0.19505  1.0000
  C   C351      1.0  0.45233  0.80568  0.38796  1.0000
  S   S88       1.0  0.35630  0.68302  0.06729  1.0000
  C   C352      1.0  0.47436  0.77247  0.47808  1.0000
  S   S89       1.0  0.35495  0.68868  0.24253  1.0000
  C   C353      1.0  0.46695  0.74257  0.48089  1.0000
  C   C354      1.0  0.34158  0.68755  0.28586  1.0000
  H   H424      1.0  0.36222  0.75778  0.02705  1.0000
  N   N24       1.0  0.32232  0.59755  0.26133  1.0000
  Fe  Fe43      1.0  0.33701  0.75351  0.49894  1.0000
  H   H425      1.0  0.33708  0.77981  0.05591  1.0000
  C   C355      1.0  0.37397  0.76577  0.29206  1.0000
  H   H426      1.0  0.31984  0.79508  0.39663  1.0000
  C   C356      1.0  0.52024  0.75711  0.47959  1.0000
  C   C357      1.0  0.43070  0.75214  0.38951  1.0000
  H   H427      1.0  0.35114  0.64007  0.28655  1.0000
  H   H428      1.0  0.32064  0.61512  0.31305  1.0000
  S   S90       1.0  0.37182  0.70332  0.47609  1.0000
  H   H429      1.0  0.42269  0.73119  0.37404  1.0000
  C   C358      1.0  0.36186  0.69714  0.31424  1.0000
  C   C359      1.0  0.35192  0.69647  0.34907  1.0000
  S   S91       1.0  0.54803  0.74618  0.48004  1.0000
  H   H430      1.0  0.36378  0.60351  0.23966  1.0000
  H   H431      1.0  0.38538  0.70535  0.30921  1.0000
  H   H432      1.0  0.36760  0.70406  0.37077  1.0000
  C   C360      1.0  0.48977  0.73500  0.48169  1.0000
  C   C361      1.0  0.42019  0.77501  0.34010  1.0000
  H   H433      1.0  0.44366  0.72525  0.48206  1.0000
  H   H434      1.0  0.32668  0.55250  0.22426  1.0000
  H   H435      1.0  0.35569  0.63240  0.22815  1.0000
  S   S92       1.0  0.32786  0.70466  0.15208  1.0000
  C   C362      1.0  0.34585  0.67459  0.02228  1.0000
  S   S93       1.0  0.44650  0.78320  0.47571  1.0000
  H   H436      1.0  0.43398  0.80358  0.40542  1.0000
  C   C363      1.0  0.34531  0.60792  0.23289  1.0000
  C   C364      1.0  0.47091  0.78163  0.34965  1.0000
  H   H437      1.0  0.44765  0.75345  0.40877  1.0000
  C   C365      1.0  0.40002  0.76688  0.27974  1.0000
  H   H438      1.0  0.31655  0.80994  0.14645  1.0000
  S   S94       1.0  0.62431  0.82604  0.47420  1.0000
  H   H439      1.0  0.35190  0.60903  0.30609  1.0000
  C   C366      1.0  0.42291  0.77147  0.30323  1.0000
  S   S95       1.0  0.32514  0.63990  0.15725  1.0000
  Fe  Fe44      1.0  0.59918  0.77593  0.47810  1.0000
  H   H440      1.0  0.45973  0.82581  0.37120  1.0000
  H   H441      1.0  0.63427  0.87170  0.32909  1.0000
  Fe  Fe45      1.0  0.39591  0.75308  0.48201  1.0000
  H   H442      1.0  0.33550  0.59731  0.20707  1.0000
  H   H443      1.0  0.48803  0.78502  0.36993  1.0000
  N   N25       1.0  0.44327  0.77861  0.36607  1.0000
  C   C367      1.0  0.37067  0.76932  0.32795  1.0000
  H   H444      1.0  0.51082  0.81779  0.47401  1.0000
  H   H445      1.0  0.44217  0.77154  0.29183  1.0000
  H   H446      1.0  0.39152  0.69263  0.00475  1.0000
  C   C368      1.0  0.52762  0.78701  0.47703  1.0000
  C   C369      1.0  0.32155  0.68566  0.35579  1.0000
  H   H447      1.0  0.46624  0.76113  0.33482  1.0000
  H   H448      1.0  0.38945  0.77574  0.37928  1.0000
  H   H449      1.0  0.35012  0.76785  0.33754  1.0000
  S   S96       1.0  0.62980  0.77003  0.43967  1.0000
  H   H450      1.0  0.41153  0.74989  0.40552  1.0000
  H   H451      1.0  0.48153  0.80118  0.33156  1.0000
  Fe  Fe46      1.0  0.32425  0.66935  0.11402  1.0000
  H   H452      1.0  0.61899  0.80443  0.29169  1.0000
  H   H453      1.0  0.40202  0.76320  0.25187  1.0000
  C   C370      1.0  0.33699  0.61602  0.29315  1.0000
  H   H454      1.0  0.33655  0.73482  0.07553  1.0000
  H   H455      1.0  0.35603  0.76144  0.27381  1.0000
  H   H456      1.0  0.63045  0.80963  0.35595  1.0000
  H   H457      1.0  0.48381  0.71179  0.48355  1.0000
  C   C371      1.0  0.34763  0.74758  0.00465  1.0000
  H   H458      1.0  0.55091  0.80429  0.47543  1.0000
  C   C372      1.0  0.64150  0.81979  0.30064  1.0000
  C   C373      1.0  0.31595  0.66136  0.01143  1.0000
  C   C374      1.0  0.31339  0.54540  0.24804  1.0000
  C   C375      1.0  0.31210  0.72184  0.07014  1.0000
  C   C376      1.0  0.31603  0.73435  0.00786  1.0000
  C   C377      1.0  0.31245  0.76659  0.05161  1.0000
  C   C378      1.0  0.31113  0.67633  0.29270  1.0000
  H   H459      1.0  0.31069  0.52611  0.16825  1.0000
  Fe  Fe47      1.0  0.34769  0.70381  0.52571  1.0000
  S   S97       1.0  0.37324  0.75358  0.53265  1.0000
  S   S98       1.0  0.34562  0.67184  0.56800  1.0000
  C   C379      1.0  0.56473  0.78145  0.58977  1.0000
  Fe  Fe48      1.0  0.35248  0.67119  0.77586  1.0000
  S   S99       1.0  0.37710  0.64590  0.76863  1.0000
  S   S100      1.0  0.34376  0.69624  0.73259  1.0000
  Fe  Fe49      1.0  0.34780  0.66184  0.85650  1.0000
  S   S101      1.0  0.37338  0.63708  0.85439  1.0000
  C   C380      1.0  0.36107  0.74744  0.97259  1.0000
  Fe  Fe50      1.0  0.40402  0.67255  0.81567  1.0000
  S   S102      1.0  0.45497  0.69244  0.81379  1.0000
  Fe  Fe51      1.0  0.34384  0.61294  0.80780  1.0000
  S   S103      1.0  0.38061  0.69918  0.82146  1.0000
  C   C381      1.0  0.48189  0.73116  0.81451  1.0000
  C   C382      1.0  0.47356  0.75298  0.81828  1.0000
  H   H460      1.0  0.51924  0.72349  0.80968  1.0000
  H   H461      1.0  0.45009  0.74642  0.82000  1.0000
  H   H462      1.0  0.57172  0.82030  0.74602  1.0000
  H   H463      1.0  0.35104  0.64212  0.62904  1.0000
  C   C383      1.0  0.36116  0.67781  0.96037  1.0000
  C   C384      1.0  0.42307  0.72040  0.69451  1.0000
  H   H464      1.0  0.37875  0.68461  0.94085  1.0000
  C   C385      1.0  0.34514  0.67899  0.61365  1.0000
  C   C386      1.0  0.34848  0.66055  0.63826  1.0000
  C   C387      1.0  0.34828  0.66563  0.67479  1.0000
  C   C388      1.0  0.34454  0.68913  0.68698  1.0000
  H   H465      1.0  0.47615  0.76281  0.91675  1.0000
  H   H466      1.0  0.52909  0.79689  0.92902  1.0000
  H   H467      1.0  0.33617  0.57923  0.91441  1.0000
  H   H468      1.0  0.61079  0.82951  0.90116  1.0000
  N   N26       1.0  0.57649  0.78693  0.92119  1.0000
  C   C389      1.0  0.33140  0.66577  0.94951  1.0000
  Fe  Fe52      1.0  0.60387  0.85147  0.81731  1.0000
  S   S104      1.0  0.55328  0.83099  0.82213  1.0000
  H   H469      1.0  0.33858  0.72595  0.67159  1.0000
  C   C390      1.0  0.52634  0.79240  0.81888  1.0000
  C   C391      1.0  0.53470  0.77062  0.81471  1.0000
  C   C392      1.0  0.51257  0.74021  0.81238  1.0000
  C   C393      1.0  0.49568  0.78339  0.82046  1.0000
  H   H470      1.0  0.55814  0.77711  0.81366  1.0000
  H   H471      1.0  0.48895  0.80003  0.82364  1.0000
  C   C394      1.0  0.42351  0.72764  0.65885  1.0000
  H   H472      1.0  0.53574  0.73449  0.59728  1.0000
  C   C395      1.0  0.45670  0.70814  0.64642  1.0000
  H   H473      1.0  0.59214  0.77807  0.71173  1.0000
  C   C396      1.0  0.58006  0.80933  0.60597  1.0000
  C   C397      1.0  0.57444  0.81962  0.71684  1.0000
  C   C398      1.0  0.58108  0.79512  0.95914  1.0000
  N   N27       1.0  0.55728  0.78870  0.70277  1.0000
  H   H474      1.0  0.46774  0.68963  0.69126  1.0000
  H   H475      1.0  0.42495  0.70417  0.54666  1.0000
  H   H476      1.0  0.40437  0.68472  0.58530  1.0000
  C   C399      1.0  0.44061  0.72193  0.63366  1.0000
  H   H477      1.0  0.42648  0.75036  0.55825  1.0000
  H   H478      1.0  0.60521  0.81025  0.96541  1.0000
  C   C400      1.0  0.42473  0.74469  0.58687  1.0000
  H   H479      1.0  0.56699  0.77940  0.56150  1.0000
  H   H480      1.0  0.52289  0.77920  0.74176  1.0000
  H   H481      1.0  0.54822  0.72700  0.89756  1.0000
  H   H482      1.0  0.48453  0.76832  0.59983  1.0000
  C   C401      1.0  0.36834  0.68245  0.99659  1.0000
  H   H483      1.0  0.56675  0.83437  0.70515  1.0000
  H   H484      1.0  0.51550  0.78858  0.69880  1.0000
  C   C402      1.0  0.52262  0.77461  0.92011  1.0000
  H   H485      1.0  0.49521  0.69432  0.88614  1.0000
  C   C403      1.0  0.34189  0.70278  0.62582  1.0000
  H   H486      1.0  0.59448  0.82887  0.59018  1.0000
  C   C404      1.0  0.55981  0.78680  0.66394  1.0000
  H   H487      1.0  0.43367  0.76605  0.60169  1.0000
  H   H488      1.0  0.55494  0.74660  0.71479  1.0000
  S   S105      1.0  0.63694  0.88525  0.85568  1.0000
  H   H489      1.0  0.44040  0.68873  0.57665  1.0000
  C   C405      1.0  0.59656  0.77496  0.91175  1.0000
  C   C406      1.0  0.54432  0.76564  0.91467  1.0000
  H   H490      1.0  0.57570  0.82757  0.90880  1.0000
  H   H491      1.0  0.47369  0.75503  0.55547  1.0000
  H   H492      1.0  0.51136  0.75250  0.70716  1.0000
  C   C407      1.0  0.58612  0.81431  0.89995  1.0000
  H   H493      1.0  0.53063  0.73849  0.66117  1.0000
  H   H494      1.0  0.59894  0.82952  0.71197  1.0000
  C   C408      1.0  0.57790  0.81213  0.64249  1.0000
  C   C409      1.0  0.45592  0.70080  0.68213  1.0000
  H   H495      1.0  0.40957  0.73698  0.65167  1.0000
  H   H496      1.0  0.46938  0.70226  0.62863  1.0000
  H   H497      1.0  0.43828  0.70101  0.73380  1.0000
  H   H498      1.0  0.40933  0.72438  0.71314  1.0000
  H   H499      1.0  0.57992  0.80857  0.87176  1.0000
  H   H500      1.0  0.45896  0.71156  0.89539  1.0000
  H   H501      1.0  0.38515  0.75684  0.97101  1.0000
  S   S106      1.0  0.62591  0.82366  0.81730  1.0000
  S   S107      1.0  0.32268  0.56200  0.80553  1.0000
  H   H502      1.0  0.33921  0.71708  0.60715  1.0000
  S   S108      1.0  0.62882  0.87863  0.76982  1.0000
  H   H503      1.0  0.56934  0.77338  0.74967  1.0000
  C   C410      1.0  0.48244  0.72631  0.90157  1.0000
  C   C411      1.0  0.54702  0.75618  0.61002  1.0000
  C   C412      1.0  0.56880  0.77084  0.72043  1.0000
  S   S109      1.0  0.62469  0.77422  0.52557  1.0000
  C   C413      1.0  0.54438  0.75873  0.64651  1.0000
  C   C414      1.0  0.50302  0.71663  0.89636  1.0000
  C   C415      1.0  0.43923  0.70705  0.70616  1.0000
  C   C416      1.0  0.42729  0.70043  0.57516  1.0000
  C   C417      1.0  0.52541  0.77669  0.71290  1.0000
  N   N28       1.0  0.44121  0.72873  0.59555  1.0000
  C   C418      1.0  0.34149  0.70773  0.66234  1.0000
  S   S110      1.0  0.31724  0.63639  0.81121  1.0000
  H   H504      1.0  0.40033  0.73066  0.59249  1.0000
  H   H505      1.0  0.59120  0.83432  0.65327  1.0000
  C   C419      1.0  0.47262  0.74778  0.58340  1.0000
  H   H506      1.0  0.48567  0.73601  0.58410  1.0000
  H   H507      1.0  0.56902  0.80694  0.96757  1.0000
  H   H508      1.0  0.62064  0.79177  0.91638  1.0000
  C   C420      1.0  0.49221  0.75523  0.91343  1.0000
  H   H509      1.0  0.35071  0.65121  0.69350  1.0000
  H   H510      1.0  0.59461  0.76892  0.88323  1.0000
  C   C421      1.0  0.53355  0.73587  0.90276  1.0000
  H   H511      1.0  0.59179  0.75518  0.92802  1.0000
  S   S111      1.0  0.32153  0.66347  0.90435  1.0000
  H   H512      1.0  0.31190  0.54254  0.93113  1.0000
  S   S112      1.0  0.31822  0.78508  0.50454  1.0000
  H   H513      1.0  0.31395  0.55013  0.88408  1.0000
  C   C422      1.0  0.31373  0.55895  0.91094  1.0000
  H   H514      1.0  0.64009  0.87726  0.99734  1.0000
  H   H515      1.0  0.57299  0.77495  0.97606  1.0000
  H   H516      1.0  0.31731  0.60857  0.89026  1.0000
  H   H517      1.0  0.31416  0.59826  0.95512  1.0000
  C   C423      1.0  0.34355  0.73443  0.94277  1.0000
  H   H518      1.0  0.64138  0.79984  0.60059  1.0000
  H   H519      1.0  0.63839  0.78748  0.66422  1.0000
  H   H520      1.0  0.32279  0.52653  0.70772  1.0000
  H   H521      1.0  0.35388  0.73349  0.91815  1.0000
  C   C424      1.0  0.31252  0.72139  0.94490  1.0000
  Fe  Fe53      1.0  0.84480  0.20888  0.45361  1.0000
  S   S113      1.0  0.86884  0.25865  0.44872  1.0000
  S   S114      1.0  0.82370  0.17592  0.40839  1.0000
  H   H522      1.0  0.75650  0.33538  0.26357  1.0000
  H   H523      1.0  0.82305  0.08924  0.10190  1.0000
  H   H524      1.0  0.69656  0.44929  0.02293  1.0000
  Fe  Fe54      1.0  0.81798  0.16747  0.12007  1.0000
  S   S115      1.0  0.76779  0.14245  0.11629  1.0000
  S   S116      1.0  0.84967  0.17153  0.07582  1.0000
  Fe  Fe55      1.0  0.81657  0.17667  0.20009  1.0000
  S   S117      1.0  0.76627  0.15071  0.20174  1.0000
  S   S118      1.0  0.84597  0.20592  0.24487  1.0000
  Fe  Fe56      1.0  0.76988  0.11823  0.16465  1.0000
  S   S119      1.0  0.73904  0.06749  0.16446  1.0000
  Fe  Fe57      1.0  0.76918  0.17739  0.15349  1.0000
  S   S120      1.0  0.73822  0.19723  0.15125  1.0000
  S   S121      1.0  0.82013  0.14211  0.16717  1.0000
  S   S122      1.0  0.81930  0.20443  0.15303  1.0000
  C   C425      1.0  0.66955  0.33276  0.29541  1.0000
  S   S123      1.0  0.67740  0.36148  0.41131  1.0000
  Fe  Fe58      1.0  0.74327  0.35372  0.16207  1.0000
  S   S124      1.0  0.69348  0.32450  0.16011  1.0000
  S   S125      1.0  0.77499  0.33497  0.15697  1.0000
  Fe  Fe59      1.0  0.73823  0.41073  0.17239  1.0000
  S   S126      1.0  0.68789  0.38427  0.17259  1.0000
  S   S127      1.0  0.76579  0.46180  0.17068  1.0000
  Fe  Fe60      1.0  0.69325  0.35149  0.20662  1.0000
  Fe  Fe61      1.0  0.69343  0.36009  0.12621  1.0000
  S   S128      1.0  0.74340  0.37959  0.21013  1.0000
  S   S129      1.0  0.74342  0.38763  0.12444  1.0000
  C   C426      1.0  0.67342  0.35855  0.03393  1.0000
  C   C427      1.0  0.69576  0.23633  0.05392  1.0000
  C   C428      1.0  0.96594  0.19953  0.38557  1.0000
  H   H525      1.0  0.72044  0.37437  0.04184  1.0000
  C   C429      1.0  0.67527  0.34939  0.36722  1.0000
  C   C430      1.0  0.69222  0.37045  0.34120  1.0000
  C   C431      1.0  0.68964  0.36213  0.30543  1.0000
  H   H526      1.0  0.72180  0.25912  0.42994  1.0000
  H   H527      1.0  0.70714  0.39344  0.34868  1.0000
  H   H528      1.0  0.70245  0.37864  0.28553  1.0000
  H   H529      1.0  0.75507  0.28872  0.41160  1.0000
  C   C432      1.0  0.73157  0.27175  0.40506  1.0000
  C   C433      1.0  0.72656  0.00957  0.15534  1.0000
  C   C434      1.0  0.74892  0.03909  0.16285  1.0000
  C   C435      1.0  0.77819  0.04502  0.16904  1.0000
  C   C436      1.0  0.78479  0.02158  0.16822  1.0000
  C   C437      1.0  0.97372  0.24816  0.48412  1.0000
  H   H530      1.0  0.70388  0.00476  0.15033  1.0000
  H   H531      1.0  0.79563  0.06756  0.17500  1.0000
  H   H532      1.0  0.80739  0.02633  0.17363  1.0000
  C   C438      1.0  0.74906  0.23563  0.15413  1.0000
  C   C439      1.0  0.72675  0.24370  0.15694  1.0000
  C   C440      1.0  0.73433  0.27393  0.15872  1.0000
  C   C441      1.0  0.76437  0.29653  0.15721  1.0000
  C   C442      1.0  0.78671  0.28845  0.15492  1.0000
  C   C443      1.0  0.77915  0.25820  0.15352  1.0000
  H   H533      1.0  0.70342  0.22642  0.15748  1.0000
  H   H534      1.0  0.71691  0.27971  0.16083  1.0000
  H   H535      1.0  0.81002  0.30574  0.15364  1.0000
  H   H536      1.0  0.79657  0.25239  0.15115  1.0000
  C   C444      1.0  0.84043  0.17008  0.03063  1.0000
  H   H537      1.0  0.73010  0.31746  0.10111  1.0000
  C   C445      1.0  0.71377  0.26726  0.06151  1.0000
  H   H538      1.0  0.80026  0.17233  0.03924  1.0000
  H   H539      1.0  0.75583  0.07987  0.05909  1.0000
  C   C446      1.0  0.75637  0.25871  0.06861  1.0000
  C   C447      1.0  0.70312  0.37013  0.02285  1.0000
  H   H540      1.0  0.77354  0.04030  0.09486  1.0000
  H   H541      1.0  0.73831  0.44417  0.04842  1.0000
  H   H542      1.0  0.67201  0.44451  0.11692  1.0000
  C   C448      1.0  0.65613  0.31971  0.35735  1.0000
  H   H543      1.0  0.79145  0.11411  0.06396  1.0000
  C   C449      1.0  0.82830  0.18528  0.36306  1.0000
  C   C450      1.0  0.81328  0.16252  0.33798  1.0000
  C   C451      1.0  0.81773  0.16867  0.30160  1.0000
  C   C452      1.0  0.83773  0.19758  0.29007  1.0000
  C   C453      1.0  0.85233  0.22047  0.31510  1.0000
  C   C454      1.0  0.84732  0.21447  0.35144  1.0000
  H   H544      1.0  0.79841  0.13990  0.34676  1.0000
  H   H545      1.0  0.80637  0.15087  0.28253  1.0000
  H   H546      1.0  0.86759  0.24298  0.30631  1.0000
  H   H547      1.0  0.85830  0.23240  0.37035  1.0000
  N   N29       1.0  0.78456  0.24167  0.26640  1.0000
  C   C455      1.0  0.76423  0.25280  0.25528  1.0000
  C   C456      1.0  0.81398  0.25966  0.24871  1.0000
  C   C457      1.0  0.77147  0.21052  0.25329  1.0000
  C   C458      1.0  0.78877  0.24447  0.30523  1.0000
  C   C459      1.0  0.79944  0.27261  0.32200  1.0000
  C   C460      1.0  0.78323  0.22001  0.32735  1.0000
  C   C461      1.0  0.80411  0.27599  0.35853  1.0000
  C   C462      1.0  0.78784  0.22364  0.36388  1.0000
  C   C463      1.0  0.79833  0.25155  0.37943  1.0000
  H   H548      1.0  0.77400  0.27715  0.25966  1.0000
  H   H549      1.0  0.75913  0.24924  0.22653  1.0000
  H   H550      1.0  0.74247  0.24100  0.26961  1.0000
  H   H551      1.0  0.82425  0.28388  0.25447  1.0000
  H   H552      1.0  0.81198  0.25712  0.21944  1.0000
  H   H553      1.0  0.83015  0.25250  0.25727  1.0000
  H   H554      1.0  0.74921  0.19553  0.26540  1.0000
  H   H555      1.0  0.76795  0.20912  0.22411  1.0000
  H   H556      1.0  0.78661  0.20132  0.25839  1.0000
  H   H557      1.0  0.80481  0.29233  0.30680  1.0000
  H   H558      1.0  0.77599  0.19792  0.31708  1.0000
  H   H559      1.0  0.81286  0.29778  0.37071  1.0000
  H   H560      1.0  0.78406  0.20479  0.38016  1.0000
  H   H561      1.0  0.80251  0.25429  0.40769  1.0000
  N   N30       1.0  0.71398  0.28522  0.39129  1.0000
  H   H562      1.0  0.95134  0.17581  0.38213  1.0000
  C   C464      1.0  0.68188  0.26157  0.39152  1.0000
  C   C465      1.0  0.72527  0.29819  0.35589  1.0000
  C   C466      1.0  0.75590  0.32005  0.35114  1.0000
  C   C467      1.0  0.70654  0.29019  0.32555  1.0000
  C   C468      1.0  0.76703  0.33309  0.31815  1.0000
  C   C469      1.0  0.71792  0.30341  0.29272  1.0000
  C   C470      1.0  0.74804  0.32482  0.28901  1.0000
  H   H563      1.0  0.70542  0.32067  0.40552  1.0000
  H   H564      1.0  0.70997  0.29827  0.00691  1.0000
  H   H565      1.0  0.66709  0.27052  0.38342  1.0000
  N   N31       1.0  0.70589  0.45023  0.07839  1.0000
  H   H566      1.0  0.67776  0.24264  0.37389  1.0000
  H   H567      1.0  0.77132  0.32762  0.37313  1.0000
  H   H568      1.0  0.68284  0.27427  0.32648  1.0000
  H   H569      1.0  0.79036  0.35018  0.31526  1.0000
  C   C471      1.0  0.69069  0.28899  0.02562  1.0000
  H   H570      1.0  0.87903  0.16757  0.01324  1.0000
  N   N32       1.0  0.70037  0.28685  0.06182  1.0000
  C   C472      1.0  0.77760  0.04281  0.06588  1.0000
  H   H571      1.0  0.83913  0.11210  0.06355  1.0000
  H   H572      1.0  0.90815  0.16218  0.40887  1.0000
  C   C473      1.0  0.77898  0.08974  0.06974  1.0000
  S   S130      1.0  0.66297  0.32213  0.25057  1.0000
  H   H573      1.0  0.83708  0.07649  0.06687  1.0000
  C   C474      1.0  0.82481  0.08861  0.07259  1.0000
  H   H574      1.0  0.67556  0.41236  0.11007  1.0000
  H   H575      1.0  0.68064  0.30376  0.02478  1.0000
  H   H576      1.0  0.78936  0.03033  0.05927  1.0000
  H   H577      1.0  0.74074  0.32967  0.05604  1.0000
  H   H578      1.0  0.77980  0.26720  0.07486  1.0000
  H   H579      1.0  0.71381  0.41306  0.07512  1.0000
  N   N33       1.0  0.79493  0.07468  0.05544  1.0000
  H   H580      1.0  0.67971  0.27021  0.11241  1.0000
  H   H581      1.0  0.77664  0.08768  0.09904  1.0000
  H   H582      1.0  0.74682  0.21333  0.06404  1.0000
  Fe  Fe62      1.0  0.90293  0.25851  0.48605  1.0000
  S   S131      1.0  0.95331  0.28869  0.47755  1.0000
  H   H583      1.0  0.70305  0.29761  0.27012  1.0000
  H   H584      1.0  0.70376  0.44340  0.13436  1.0000
  C   C475      1.0  0.72631  0.43787  0.07414  1.0000
  C   C476      1.0  0.68472  0.43966  0.04823  1.0000
  N   N34       1.0  0.92135  0.20702  0.39105  1.0000
  C   C477      1.0  0.90708  0.18226  0.41702  1.0000
  C   C478      1.0  0.91306  0.22972  0.40134  1.0000
  C   C479      1.0  0.90846  0.19539  0.35570  1.0000
  C   C480      1.0  0.65135  0.35344  0.00873  1.0000
  H   H585      1.0  0.75529  0.03138  0.05274  1.0000
  C   C481      1.0  0.74469  0.27802  0.06830  1.0000
  H   H586      1.0  0.74304  0.44534  0.09601  1.0000
  C   C482      1.0  0.76236  0.99202  0.16099  1.0000
  C   C483      1.0  0.97531  0.25005  0.39280  1.0000
  C   C484      1.0  0.67381  0.27432  0.08553  1.0000
  H   H587      1.0  0.91791  0.18945  0.44339  1.0000
  H   H588      1.0  0.88271  0.17440  0.42045  1.0000
  C   C485      1.0  0.68854  0.43724  0.11129  1.0000
  H   H589      1.0  0.88844  0.21965  0.40471  1.0000
  H   H590      1.0  0.66693  0.44574  0.05129  1.0000
  H   H591      1.0  0.91284  0.17743  0.34672  1.0000
  H   H592      1.0  0.88366  0.18573  0.35563  1.0000
  H   H593      1.0  0.91794  0.21340  0.33547  1.0000
  C   C486      1.0  0.70763  0.21718  0.05480  1.0000
  H   H594      1.0  0.71023  0.33129  0.07611  1.0000
  S   S132      1.0  0.66278  0.35004  0.07879  1.0000
  H   H595      1.0  0.70773  0.30001  0.44232  1.0000
  H   H596      1.0  0.71063  0.45939  0.19667  1.0000
  H   H597      1.0  0.67427  0.25205  0.41849  1.0000
  H   H598      1.0  0.69333  0.19348  0.05005  1.0000
  Fe  Fe63      1.0  0.84261  0.25706  0.49729  1.0000
  Fe  Fe64      1.0  0.65895  0.33089  0.45853  1.0000
  H   H599      1.0  0.66453  0.28967  0.08835  1.0000
  H   H600      1.0  0.65499  0.25294  0.07565  1.0000
  C   C487      1.0  0.81486  0.17080  0.01979  1.0000
  H   H601      1.0  0.73220  0.25585  0.38566  1.0000
  S   S133      1.0  0.81665  0.20688  0.50028  1.0000
  H   H602      1.0  0.67298  0.41484  0.04562  1.0000
  C   C488      1.0  0.71725  0.30910  0.41579  1.0000
  C   C489      1.0  0.85925  0.16821  0.00502  1.0000
  H   H603      1.0  0.77634  0.10307  0.00588  1.0000
  H   H604      1.0  0.74105  0.32645  0.41999  1.0000
  C   C490      1.0  0.65302  0.31154  0.32150  1.0000
  H   H605      1.0  0.92336  0.24035  0.42703  1.0000
  C   C491      1.0  0.95417  0.21903  0.38998  1.0000
  S   S134      1.0  0.88061  0.20878  0.48727  1.0000
  C   C492      1.0  0.72138  0.31763  0.07428  1.0000
  C   C493      1.0  0.73783  0.22833  0.06240  1.0000
  C   C494      1.0  0.79861  0.07695  0.01654  1.0000
  H   H606      1.0  0.95059  0.23119  0.48817  1.0000
  H   H607      1.0  0.91982  0.24748  0.38106  1.0000
  H   H608      1.0  0.82288  0.05239  0.01357  1.0000
  H   H609      1.0  0.76030  0.30111  0.07442  1.0000
  C   C495      1.0  0.72593  0.48183  0.18775  1.0000
  H   H610      1.0  0.67228  0.22663  0.04762  1.0000
  H   H611      1.0  0.67350  0.26689  0.01517  1.0000
  H   H612      1.0  0.96869  0.26674  0.39615  1.0000
  C   C496      1.0  0.73323  0.98621  0.15414  1.0000
  H   H613      1.0  0.72757  0.99293  0.27279  1.0000
  H   H614      1.0  0.73971  0.98660  0.23106  1.0000
  C   C497      1.0  0.78463  0.27853  0.49888  1.0000
  H   H615      1.0  0.74184  0.31228  0.49479  1.0000
  C   C498      1.0  0.77714  0.30118  0.49575  1.0000
  H   H616      1.0  0.79484  0.32404  0.49220  1.0000
  C   C499      1.0  0.74706  0.29455  0.49732  1.0000
  S   S135      1.0  0.82295  0.28829  0.49734  1.0000
  S   S136      1.0  0.69130  0.33508  0.50092  1.0000
  Fe  Fe65      1.0  0.85495  0.21146  0.53392  1.0000
  S   S137      1.0  0.87921  0.26168  0.53452  1.0000
  S   S138      1.0  0.85419  0.18108  0.57784  1.0000
  C   C500      1.0  0.93501  0.27176  0.62533  1.0000
  H   H617      1.0  0.70090  0.46472  0.93384  1.0000
  C   C501      1.0  0.72285  0.98861  0.80972  1.0000
  H   H618      1.0  0.71723  0.30869  0.55141  1.0000
  H   H619      1.0  0.70378  0.32640  0.58081  1.0000
  S   S139      1.0  0.67354  0.33878  0.74669  1.0000
  H   H620      1.0  0.70201  0.26184  0.62813  1.0000
  C   C502      1.0  0.94748  0.28834  0.65597  1.0000
  Fe  Fe66      1.0  0.67038  0.37634  0.86960  1.0000
  S   S140      1.0  0.69896  0.37841  0.91669  1.0000
  H   H621      1.0  0.93753  0.18779  0.73999  1.0000
  C   C503      1.0  0.76158  0.24907  0.50344  1.0000
  Fe  Fe67      1.0  0.67128  0.42273  0.81935  1.0000
  H   H622      1.0  0.73338  0.38444  0.97839  1.0000
  S   S141      1.0  0.70009  0.40171  0.82366  1.0000
  Fe  Fe68      1.0  0.84795  0.17071  0.78638  1.0000
  S   S142      1.0  0.87402  0.14695  0.78001  1.0000
  S   S143      1.0  0.83552  0.19184  0.74199  1.0000
  Fe  Fe69      1.0  0.84330  0.16209  0.86670  1.0000
  S   S144      1.0  0.86955  0.13796  0.86603  1.0000
  S   S145      1.0  0.81812  0.16751  0.91279  1.0000
  Fe  Fe70      1.0  0.90002  0.17376  0.82739  1.0000
  S   S146      1.0  0.95097  0.19436  0.82552  1.0000
  Fe  Fe71      1.0  0.84108  0.11353  0.81885  1.0000
  S   S147      1.0  0.82198  0.06352  0.80995  1.0000
  S   S148      1.0  0.87568  0.19957  0.83153  1.0000
  S   S149      1.0  0.81317  0.13559  0.82168  1.0000
  C   C504      1.0  0.71044  0.37599  0.98683  1.0000
  C   C505      1.0  0.74059  0.36641  0.67507  1.0000
  C   C506      1.0  0.77596  0.00558  0.80232  1.0000
  C   C507      1.0  0.78360  0.03517  0.81024  1.0000
  C   C508      1.0  0.76067  0.04130  0.81828  1.0000
  C   C509      1.0  0.73051  0.01813  0.81804  1.0000
  C   C510      1.0  0.75686  0.46250  0.88903  1.0000
  C   C511      1.0  0.70320  0.01600  0.73847  1.0000
  H   H623      1.0  0.76613  0.06387  0.82463  1.0000
  H   H624      1.0  0.71294  0.02318  0.82401  1.0000
  C   C512      1.0  0.97069  0.25528  0.82628  1.0000
  H   H625      1.0  0.74534  0.43766  0.88726  1.0000
  H   H626      1.0  0.76695  0.23140  0.50589  1.0000
  H   H627      1.0  0.94748  0.24931  0.82956  1.0000
  H   H628      1.0  0.92026  0.20377  0.65267  1.0000
  C   C513      1.0  0.68833  0.37073  0.96159  1.0000
  H   H629      1.0  0.94809  0.19411  0.69438  1.0000
  H   H630      1.0  0.74795  0.99729  0.69232  1.0000
  C   C514      1.0  0.74176  0.35255  0.70601  1.0000
  C   C515      1.0  0.66482  0.32380  0.67633  1.0000
  C   C516      1.0  0.67010  0.34573  0.70181  1.0000
  H   H631      1.0  0.74201  0.38804  0.67649  1.0000
  H   H632      1.0  0.70052  0.43584  0.90762  1.0000
  C   C517      1.0  0.92568  0.24143  0.62480  1.0000
  C   C518      1.0  0.66825  0.35725  0.62931  1.0000
  N   N35       1.0  0.72703  0.30649  0.60629  1.0000
  C   C519      1.0  0.82743  0.16857  0.95792  1.0000
  C   C520      1.0  0.85274  0.16734  0.96878  1.0000
  H   H633      1.0  0.78884  0.17106  0.97533  1.0000
  H   H634      1.0  0.86736  0.16592  0.94927  1.0000
  C   C521      1.0  0.85029  0.18555  0.62344  1.0000
  C   C522      1.0  0.85491  0.16760  0.64754  1.0000
  C   C523      1.0  0.85158  0.17006  0.68407  1.0000
  C   C524      1.0  0.84282  0.19000  0.69670  1.0000
  C   C525      1.0  0.83840  0.20808  0.67264  1.0000
  C   C526      1.0  0.84239  0.20610  0.63614  1.0000
  H   H635      1.0  0.86104  0.15167  0.63780  1.0000
  H   H636      1.0  0.85511  0.15605  0.70223  1.0000
  H   H637      1.0  0.83162  0.22357  0.68223  1.0000
  H   H638      1.0  0.83880  0.22004  0.61781  1.0000
  H   H639      1.0  0.75646  0.28904  0.61847  1.0000
  Fe  Fe72      1.0  0.66479  0.28515  0.50252  1.0000
  C   C527      1.0  0.92860  0.22744  0.65489  1.0000
  N   N36       1.0  0.74486  0.47256  0.91846  1.0000
  C   C528      1.0  0.69954  0.27674  0.60906  1.0000
  S   S150      1.0  0.66866  0.36608  0.58423  1.0000
  S   S151      1.0  0.68952  0.47314  0.81662  1.0000
  H   H640      1.0  0.70889  0.47058  0.88756  1.0000
  H   H641      1.0  0.73999  0.31376  0.72876  1.0000
  H   H642      1.0  0.74405  0.36339  0.73131  1.0000
  H   H643      1.0  0.74332  0.34378  0.57029  1.0000
  C   C529      1.0  0.73491  0.30986  0.67208  1.0000
  H   H644      1.0  0.79353  0.00060  0.79603  1.0000
  H   H645      1.0  0.74947  0.28998  0.57256  1.0000
  H   H646      1.0  0.67998  0.27891  0.61746  1.0000
  Fe  Fe73      1.0  0.66567  0.36492  0.78955  1.0000
  S   S152      1.0  0.68570  0.25530  0.50472  1.0000
  H   H647      1.0  0.77396  0.32403  0.59556  1.0000
  C   C530      1.0  0.73915  0.32444  0.70452  1.0000
  Fe  Fe74      1.0  0.65691  0.33326  0.53918  1.0000
  C   C531      1.0  0.75281  0.30221  0.59793  1.0000
  C   C532      1.0  0.74047  0.01130  0.70492  1.0000
  C   C533      1.0  0.66342  0.32936  0.64021  1.0000
  N   N37       1.0  0.77031  0.09397  0.72231  1.0000
  C   C534      1.0  0.79978  0.10100  0.73714  1.0000
  C   C535      1.0  0.77475  0.10562  0.68572  1.0000
  C   C536      1.0  0.75895  0.11035  0.74384  1.0000
  C   C537      1.0  0.74999  0.06121  0.72195  1.0000
  C   C538      1.0  0.72139  0.04708  0.73863  1.0000
  C   C539      1.0  0.75874  0.04235  0.70460  1.0000
  H   H648      1.0  0.68189  0.00548  0.75235  1.0000
  C   C540      1.0  0.93466  0.19752  0.71500  1.0000
  H   H649      1.0  0.95619  0.21120  0.91271  1.0000
  H   H650      1.0  0.81225  0.09348  0.71995  1.0000
  H   H651      1.0  0.81468  0.12542  0.74092  1.0000
  H   H652      1.0  0.79698  0.09009  0.76326  1.0000
  H   H653      1.0  0.78628  0.09688  0.66869  1.0000
  H   H654      1.0  0.78874  0.13043  0.68507  1.0000
  H   H655      1.0  0.75292  0.09948  0.67303  1.0000
  H   H656      1.0  0.75554  0.10289  0.77189  1.0000
  H   H657      1.0  0.77512  0.13487  0.74422  1.0000
  H   H658      1.0  0.73763  0.10762  0.73308  1.0000
  H   H659      1.0  0.71274  0.05939  0.75262  1.0000
  H   H660      1.0  0.78001  0.05149  0.69109  1.0000
  H   H661      1.0  0.74504  0.47427  0.79608  1.0000
  H   H662      1.0  0.91047  0.18406  0.70821  1.0000
  H   H663      1.0  0.91531  0.22845  0.60111  1.0000
  C   C541      1.0  0.67321  0.37900  0.65482  1.0000
  C   C542      1.0  0.81377  0.06397  0.99896  1.0000
  N   N38       1.0  0.94414  0.22963  0.71926  1.0000
  C   C543      1.0  0.65875  0.35966  0.97272  1.0000
  H   H664      1.0  0.93204  0.28225  0.60207  1.0000
  H   H665      1.0  0.93295  0.25531  0.75529  1.0000
  C   C544      1.0  0.94110  0.24367  0.68666  1.0000
  C   C545      1.0  0.73618  0.35199  0.64250  1.0000
  H   H666      1.0  0.81075  0.08338  0.91378  1.0000
  C   C546      1.0  0.80699  0.08111  0.94210  1.0000
  H   H667      1.0  0.73472  0.36384  0.61982  1.0000
  C   C547      1.0  0.81795  0.06616  0.96232  1.0000
  H   H668      1.0  0.78368  0.10586  0.94262  1.0000
  H   H669      1.0  0.73884  0.43463  0.94869  1.0000
  C   C548      1.0  0.73266  0.32292  0.64011  1.0000
  H   H670      1.0  0.69369  0.26457  0.58331  1.0000
  C   C549      1.0  0.67376  0.37316  0.69096  1.0000
  H   H671      1.0  0.78118  0.47052  0.89235  1.0000
  C   C550      1.0  0.71244  0.46046  0.91173  1.0000
  H   H672      1.0  0.77263  0.46893  0.95820  1.0000
  C   C551      1.0  0.73150  0.24245  0.50527  1.0000
  H   H673      1.0  0.76007  0.00123  0.92279  1.0000
  H   H674      1.0  0.73314  0.28814  0.67231  1.0000
  C   C552      1.0  0.72271  0.32216  0.57602  1.0000
  C   C553      1.0  0.80849  0.17016  0.98357  1.0000
  C   C554      1.0  0.79166  0.09372  0.95842  1.0000
  C   C555      1.0  0.78759  0.09192  0.99506  1.0000
  H   H675      1.0  0.90154  0.22164  0.73911  1.0000
  H   H676      1.0  0.92582  0.22017  0.77205  1.0000
  C   C556      1.0  0.92538  0.23185  0.74758  1.0000
  H   H677      1.0  0.75321  0.47016  0.86310  1.0000
  C   C557      1.0  0.74850  0.45920  0.95140  1.0000
  C   C558      1.0  0.95048  0.27458  0.68624  1.0000
  H   H678      1.0  0.83018  0.05669  0.94952  1.0000
  H   H679      1.0  0.95968  0.28818  0.70962  1.0000
  H   H680      1.0  0.95424  0.31186  0.65645  1.0000
  H   H681      1.0  0.75224  0.99127  0.87705  1.0000
  H   H682      1.0  0.66221  0.30261  0.68452  1.0000
  H   H683      1.0  0.67800  0.39025  0.71032  1.0000
  H   H684      1.0  0.67684  0.40058  0.64655  1.0000
  H   H685      1.0  0.65906  0.31233  0.62082  1.0000
  H   H686      1.0  0.73695  0.46248  0.97424  1.0000
  C   C559      1.0  0.71283  0.99815  0.72198  1.0000
  H   H687      1.0  0.70520  0.98454  0.92668  1.0000
  H   H688      1.0  0.71390  0.21956  0.50900  1.0000
  C   C560      1.0  0.72404  0.26509  0.50240  1.0000
  C   C561      1.0  0.97594  0.24529  0.73086  1.0000
  Fe  Fe75      1.0  0.83885  0.70469  0.44451  1.0000
  S   S153      1.0  0.86447  0.75470  0.44169  1.0000
  S   S154      1.0  0.81070  0.67448  0.39951  1.0000
  C   C562      1.0  0.75323  0.50133  0.07403  1.0000
  H   H689      1.0  0.71661  0.67332  0.06367  1.0000
  C   C563      1.0  0.66606  0.90616  0.29467  1.0000
  Fe  Fe76      1.0  0.79918  0.65177  0.11158  1.0000
  S   S155      1.0  0.74906  0.62943  0.11586  1.0000
  S   S156      1.0  0.81871  0.64182  0.06271  1.0000
  Fe  Fe77      1.0  0.80659  0.66887  0.19077  1.0000
  S   S157      1.0  0.75703  0.64696  0.19957  1.0000
  S   S158      1.0  0.84031  0.69162  0.23504  1.0000
  Fe  Fe78      1.0  0.75443  0.60947  0.16610  1.0000
  S   S159      1.0  0.72509  0.56019  0.18012  1.0000
  Fe  Fe79      1.0  0.75714  0.66948  0.14860  1.0000
  S   S160      1.0  0.72761  0.69064  0.14059  1.0000
  S   S161      1.0  0.80405  0.63013  0.16071  1.0000
  S   S162      1.0  0.80719  0.69327  0.14095  1.0000
  C   C564      1.0  0.74549  0.81039  0.33289  1.0000
  S   S163      1.0  0.68524  0.84969  0.39431  1.0000
  Fe  Fe80      1.0  0.73529  0.85138  0.14437  1.0000
  S   S164      1.0  0.68506  0.82742  0.14025  1.0000
  S   S165      1.0  0.76348  0.82836  0.14814  1.0000
  Fe  Fe81      1.0  0.73933  0.91311  0.15373  1.0000
  S   S166      1.0  0.68942  0.89252  0.15176  1.0000
  S   S167      1.0  0.77148  0.96307  0.16215  1.0000
  Fe  Fe82      1.0  0.68766  0.85631  0.18616  1.0000
  Fe  Fe83      1.0  0.69181  0.86594  0.10591  1.0000
  S   S168      1.0  0.73749  0.87879  0.19192  1.0000
  S   S169      1.0  0.74217  0.88812  0.10632  1.0000
  C   C565      1.0  0.69336  0.93369  0.29167  1.0000
  C   C566      1.0  0.76738  0.53254  0.07476  1.0000
  C   C567      1.0  0.69309  0.78926  0.34683  1.0000
  H   H690      1.0  0.70015  0.84535  0.02427  1.0000
  C   C568      1.0  0.67668  0.84321  0.34888  1.0000
  C   C569      1.0  0.69916  0.86003  0.32405  1.0000
  C   C570      1.0  0.69287  0.85681  0.28766  1.0000
  H   H691      1.0  0.76935  0.69391  0.07665  1.0000
  H   H692      1.0  0.72148  0.87592  0.33309  1.0000
  H   H693      1.0  0.71032  0.87005  0.26891  1.0000
  C   C571      1.0  0.72169  0.69412  0.04940  1.0000
  C   C572      1.0  0.73210  0.97699  0.25793  1.0000
  C   C573      1.0  0.71739  0.50387  0.18925  1.0000
  C   C574      1.0  0.73706  0.53330  0.17822  1.0000
  C   C575      1.0  0.76557  0.54053  0.16602  1.0000
  C   C576      1.0  0.77404  0.51846  0.16430  1.0000
  H   H694      1.0  0.75652  0.75280  0.04331  1.0000
  H   H695      1.0  0.76873  0.82217  0.34123  1.0000
  H   H696      1.0  0.78093  0.56297  0.15723  1.0000
  H   H697      1.0  0.79598  0.52424  0.15429  1.0000
  C   C577      1.0  0.73782  0.72896  0.14395  1.0000
  C   C578      1.0  0.71628  0.73739  0.13637  1.0000
  C   C579      1.0  0.72363  0.76761  0.13760  1.0000
  C   C580      1.0  0.75270  0.78985  0.14651  1.0000
  C   C581      1.0  0.77416  0.78137  0.15426  1.0000
  C   C582      1.0  0.76682  0.75116  0.15305  1.0000
  H   H698      1.0  0.69377  0.72043  0.12924  1.0000
  H   H699      1.0  0.70689  0.77373  0.13136  1.0000
  H   H700      1.0  0.79675  0.79836  0.16110  1.0000
  H   H701      1.0  0.78370  0.74515  0.15893  1.0000
  C   C583      1.0  0.82569  0.65856  0.02041  1.0000
  S   S170      1.0  0.81081  0.70268  0.49133  1.0000
  S   S171      1.0  0.94799  0.78307  0.47812  1.0000
  H   H702      1.0  0.82144  0.69619  0.03624  1.0000
  N   N39       1.0  0.70510  0.94675  0.25646  1.0000
  C   C584      1.0  0.73088  0.92851  0.01896  1.0000
  S   S172      1.0  0.66301  0.86540  0.06013  1.0000
  H   H703      1.0  0.65364  0.89398  0.27155  1.0000
  C   C585      1.0  0.75853  0.73926  0.02159  1.0000
  H   H704      1.0  0.79143  0.54590  0.07100  1.0000
  C   C586      1.0  0.73858  0.78392  0.48464  1.0000
  H   H705      1.0  0.70766  0.54095  0.09399  1.0000
  C   C587      1.0  0.81869  0.68176  0.35393  1.0000
  C   C588      1.0  0.79615  0.66478  0.32926  1.0000
  C   C589      1.0  0.80212  0.66828  0.29277  1.0000
  C   C590      1.0  0.83099  0.68830  0.28058  1.0000
  C   C591      1.0  0.85335  0.70581  0.30525  1.0000
  C   C592      1.0  0.84719  0.70281  0.34177  1.0000
  H   H706      1.0  0.77400  0.64858  0.33845  1.0000
  H   H707      1.0  0.78442  0.65529  0.27422  1.0000
  H   H708      1.0  0.87569  0.72151  0.29607  1.0000
  H   H709      1.0  0.86476  0.71596  0.36049  1.0000
  Fe  Fe84      1.0  0.89722  0.75211  0.47916  1.0000
  H   H710      1.0  0.73204  0.92061  0.04508  1.0000
  H   H711      1.0  0.74415  0.65308  0.04141  1.0000
  H   H712      1.0  0.76868  0.58869  0.26651  1.0000
  C   C593      1.0  0.68562  0.78155  0.31136  1.0000
  H   H713      1.0  0.71054  0.80375  0.19773  1.0000
  S   S173      1.0  0.81721  0.78296  0.49024  1.0000
  H   H714      1.0  0.70450  0.68806  0.02841  1.0000
  C   C594      1.0  0.80190  0.56137  0.26078  1.0000
  H   H715      1.0  0.82680  0.59440  0.20436  1.0000
  H   H716      1.0  0.65605  0.74381  0.25372  1.0000
  H   H717      1.0  0.72250  0.93606  0.21037  1.0000
  H   H718      1.0  0.78184  0.54950  0.27797  1.0000
  C   C595      1.0  0.75418  0.48889  0.17467  1.0000
  C   C596      1.0  0.71674  0.75444  0.49212  1.0000
  H   H719      1.0  0.77381  0.72982  0.08384  1.0000
  N   N40       1.0  0.76758  0.72735  0.38334  1.0000
  C   C597      1.0  0.75042  0.69772  0.40052  1.0000
  C   C598      1.0  0.79801  0.74263  0.39921  1.0000
  C   C599      1.0  0.75321  0.74534  0.39208  1.0000
  C   C600      1.0  0.76772  0.72347  0.34454  1.0000
  C   C601      1.0  0.74032  0.70931  0.32546  1.0000
  C   C602      1.0  0.79450  0.73307  0.32468  1.0000
  C   C603      1.0  0.73976  0.70485  0.28892  1.0000
  C   C604      1.0  0.79366  0.72866  0.28813  1.0000
  C   C605      1.0  0.76639  0.71448  0.27031  1.0000
  H   H720      1.0  0.75974  0.68306  0.39314  1.0000
  H   H721      1.0  0.75130  0.69964  0.42989  1.0000
  H   H722      1.0  0.72635  0.68588  0.39315  1.0000
  H   H723      1.0  0.80974  0.72973  0.39475  1.0000
  H   H724      1.0  0.79716  0.74497  0.42838  1.0000
  H   H725      1.0  0.81207  0.76560  0.38865  1.0000
  H   H726      1.0  0.72922  0.73412  0.38430  1.0000
  H   H727      1.0  0.75369  0.74952  0.42101  1.0000
  H   H728      1.0  0.76494  0.76746  0.37880  1.0000
  H   H729      1.0  0.71909  0.70115  0.33883  1.0000
  H   H730      1.0  0.81641  0.74345  0.33676  1.0000
  H   H731      1.0  0.71857  0.69341  0.27498  1.0000
  H   H732      1.0  0.81432  0.73553  0.27361  1.0000
  H   H733      1.0  0.76594  0.71058  0.24208  1.0000
  C   C606      1.0  0.82399  0.60828  0.29315  1.0000
  C   C607      1.0  0.85317  0.63330  0.29803  1.0000
  C   C608      1.0  0.80525  0.59768  0.32345  1.0000
  C   C609      1.0  0.86303  0.64618  0.33137  1.0000
  C   C610      1.0  0.81530  0.61090  0.35659  1.0000
  H   H734      1.0  0.71847  0.70828  0.06916  1.0000
  H   H735      1.0  0.86863  0.64384  0.27645  1.0000
  H   H736      1.0  0.78246  0.57946  0.32162  1.0000
  H   H737      1.0  0.94669  0.72659  0.46367  1.0000
  S   S174      1.0  0.68600  0.82298  0.48496  1.0000
  H   H738      1.0  0.69570  0.93723  0.03331  1.0000
  N   N41       1.0  0.70122  0.78058  0.24756  1.0000
  C   C611      1.0  0.66865  0.76536  0.23941  1.0000
  C   C612      1.0  0.71595  0.80831  0.22632  1.0000
  C   C613      1.0  0.71270  0.76067  0.23593  1.0000
  C   C614      1.0  0.70812  0.78803  0.28545  1.0000
  H   H739      1.0  0.73075  0.92443  0.25136  1.0000
  Fe  Fe85      1.0  0.65777  0.77330  0.48700  1.0000
  C   C615      1.0  0.70570  0.49859  0.08625  1.0000
  H   H740      1.0  0.80040  0.60309  0.37923  1.0000
  H   H741      1.0  0.73761  0.77204  0.23628  1.0000
  C   C616      1.0  0.72019  0.52978  0.08750  1.0000
  C   C617      1.0  0.75481  0.69068  0.00652  1.0000
  H   H742      1.0  0.65889  0.77978  0.24612  1.0000
  C   C618      1.0  0.82554  0.68515  0.01448  1.0000
  H   H743      1.0  0.81968  0.55723  0.27135  1.0000
  N   N42       1.0  0.81274  0.59387  0.25835  1.0000
  H   H744      1.0  0.85556  0.60388  0.23664  1.0000
  H   H745      1.0  0.79502  0.62216  0.24401  1.0000
  H   H746      1.0  0.69539  0.49808  0.19907  1.0000
  C   C619      1.0  0.78750  0.59806  0.24728  1.0000
  H   H747      1.0  0.70394  0.74055  0.25301  1.0000
  H   H748      1.0  0.70604  0.75289  0.20826  1.0000
  C   C620      1.0  0.83576  0.60618  0.22996  1.0000
  H   H749      1.0  0.72845  0.81068  0.38489  1.0000
  H   H750      1.0  0.84339  0.63019  0.22486  1.0000
  H   H751      1.0  0.66428  0.76030  0.21069  1.0000
  N   N43       1.0  0.75242  0.70957  0.03437  1.0000
  H   H752      1.0  0.75658  0.80840  0.27914  1.0000
  H   H753      1.0  0.88509  0.66563  0.33442  1.0000
  H   H754      1.0  0.78175  0.75259  0.01105  1.0000
  H   H755      1.0  0.79498  0.55016  0.23454  1.0000
  H   H756      1.0  0.77797  0.58692  0.22162  1.0000
  H   H757      1.0  0.76757  0.49195  0.06958  1.0000
  C   C621      1.0  0.68861  0.85100  0.00458  1.0000
  H   H758      1.0  0.79749  0.72527  0.05246  1.0000
  C   C622      1.0  0.66384  0.83708  0.27588  1.0000
  C   C623      1.0  0.66951  0.86153  0.01513  1.0000
  H   H759      1.0  0.78587  0.81509  0.47837  1.0000
  H   H760      1.0  0.85154  0.64568  0.38614  1.0000
  Fe  Fe86      1.0  0.65674  0.82019  0.43943  1.0000
  H   H761      1.0  0.76220  0.57092  0.08324  1.0000
  H   H762      1.0  0.74082  0.82003  0.22800  1.0000
  C   C624      1.0  0.65481  0.89305  0.32752  1.0000
  H   H763      1.0  0.73012  0.96751  0.32406  1.0000
  C   C625      1.0  0.74965  0.66171  0.01483  1.0000
  C   C626      1.0  0.84419  0.63495  0.36057  1.0000
  C   C627      1.0  0.77421  0.71483  0.06294  1.0000
  C   C628      1.0  0.73829  0.80252  0.29739  1.0000
  Fe  Fe87      1.0  0.83771  0.75260  0.48983  1.0000
  H   H764      1.0  0.69379  0.90420  0.23298  1.0000
  C   C629      1.0  0.76915  0.79215  0.48372  1.0000
  C   C630      1.0  0.72291  0.80386  0.35753  1.0000
  C   C631      1.0  0.75644  0.74150  0.49704  1.0000
  C   C632      1.0  0.71040  0.93802  0.01222  1.0000
  C   C633      1.0  0.75094  0.54673  0.08161  1.0000
  H   H765      1.0  0.71577  0.96368  0.14821  1.0000
  C   C634      1.0  0.71332  0.92698  0.23696  1.0000
  C   C635      1.0  0.77830  0.77109  0.49019  1.0000
  C   C636      1.0  0.70895  0.94692  0.32360  1.0000
  S   S175      1.0  0.67797  0.74307  0.49458  1.0000
  H   H766      1.0  0.70854  0.82417  0.23511  1.0000
  H   H767      1.0  0.66211  0.77126  0.30491  1.0000
  C   C637      1.0  0.96948  0.74349  0.46973  1.0000
  S   S176      1.0  0.65423  0.83404  0.23067  1.0000
  C   C638      1.0  0.64791  0.82267  0.33703  1.0000
  C   C639      1.0  0.69767  0.93331  0.35629  1.0000
  H   H768      1.0  0.96386  0.77450  0.39403  1.0000
  H   H769      1.0  0.67568  0.78493  0.36605  1.0000
  S   S177      1.0  0.87361  0.70207  0.47811  1.0000
  H   H770      1.0  0.73198  0.80044  0.47980  1.0000
  H   H771      1.0  0.66249  0.89553  0.38353  1.0000
  H   H772      1.0  0.69069  0.96100  0.21052  1.0000
  H   H773      1.0  0.75157  0.97649  0.26995  1.0000
  C   C640      1.0  0.67068  0.90646  0.35824  1.0000
  C   C641      1.0  0.97600  0.77251  0.47805  1.0000
  H   H774      1.0  0.71014  0.94330  0.38032  1.0000
  C   C642      1.0  0.68182  0.94927  0.23611  1.0000
  H   H775      1.0  0.66241  0.92717  0.22911  1.0000
  H   H776      1.0  0.68180  0.48659  0.09077  1.0000
  H   H777      1.0  0.67326  0.96198  0.25126  1.0000
  C   C643      1.0  0.72181  0.48331  0.07989  1.0000
  C   C644      1.0  0.72587  0.73329  0.49804  1.0000
  Fe  Fe88      1.0  0.84807  0.70507  0.52488  1.0000
  S   S178      1.0  0.87303  0.75509  0.52732  1.0000
  S   S179      1.0  0.84414  0.67526  0.57108  1.0000
  H   H778      1.0  0.78264  0.59734  0.63177  1.0000
  H   H779      1.0  0.69971  0.97222  0.88202  1.0000
  C   C645      1.0  0.72458  0.82838  0.62148  1.0000
  C   C646      1.0  0.92706  0.72889  0.96565  1.0000
  C   C647      1.0  0.77548  0.65010  0.69876  1.0000
  C   C648      1.0  0.92616  0.74801  0.64675  1.0000
  H   H780      1.0  0.77500  0.66613  0.71693  1.0000
  C   C649      1.0  0.65415  0.83254  0.68202  1.0000
  H   H781      1.0  0.74640  0.84356  0.63444  1.0000
  S   S180      1.0  0.68132  0.84755  0.89773  1.0000
  C   C650      1.0  0.79653  0.55638  0.90358  1.0000
  C   C651      1.0  0.83174  0.64475  0.99201  1.0000
  Fe  Fe89      1.0  0.66451  0.90988  0.80806  1.0000
  S   S181      1.0  0.68440  0.96051  0.80883  1.0000
  S   S182      1.0  0.69029  0.88528  0.80606  1.0000
  Fe  Fe90      1.0  0.85542  0.68562  0.77872  1.0000
  S   S183      1.0  0.87963  0.65972  0.77452  1.0000
  S   S184      1.0  0.84519  0.70778  0.73327  1.0000
  Fe  Fe91      1.0  0.85169  0.68044  0.85969  1.0000
  S   S185      1.0  0.87558  0.65406  0.86079  1.0000
  S   S186      1.0  0.83887  0.69753  0.90853  1.0000
  Fe  Fe92      1.0  0.90697  0.68744  0.82079  1.0000
  S   S187      1.0  0.95755  0.70586  0.82482  1.0000
  Fe  Fe93      1.0  0.84587  0.62887  0.81469  1.0000
  S   S188      1.0  0.82585  0.57847  0.80775  1.0000
  S   S189      1.0  0.88478  0.71524  0.82240  1.0000
  S   S190      1.0  0.81986  0.65321  0.81603  1.0000
  H   H782      1.0  0.76712  0.72194  0.96197  1.0000
  C   C652      1.0  0.72593  0.94696  0.94993  1.0000
  C   C653      1.0  0.78033  0.52032  0.80149  1.0000
  C   C654      1.0  0.78777  0.54968  0.81030  1.0000
  C   C655      1.0  0.76491  0.55520  0.82084  1.0000
  C   C656      1.0  0.73500  0.53155  0.82254  1.0000
  H   H783      1.0  0.68711  0.78036  0.58515  1.0000
  H   H784      1.0  0.79782  0.51581  0.79319  1.0000
  H   H785      1.0  0.77026  0.57763  0.82781  1.0000
  H   H786      1.0  0.71748  0.53604  0.83075  1.0000
  H   H787      1.0  0.92372  0.74842  0.96864  1.0000
  H   H788      1.0  0.69102  0.95360  0.97492  1.0000
  C   C657      1.0  0.75988  0.50544  0.92229  1.0000
  H   H789      1.0  0.95824  0.76318  0.82737  1.0000
  C   C658      1.0  0.69226  0.84718  0.96845  1.0000
  C   C659      1.0  0.67728  0.85429  0.94263  1.0000
  H   H790      1.0  0.91605  0.68031  0.93071  1.0000
  H   H791      1.0  0.70665  0.83849  0.96048  1.0000
  C   C660      1.0  0.74960  0.81043  0.58264  1.0000
  H   H792      1.0  0.72362  0.85922  0.56531  1.0000
  H   H793      1.0  0.73466  0.92582  0.88660  1.0000
  C   C661      1.0  0.66632  0.86896  0.63542  1.0000
  H   H794      1.0  0.97568  0.72518  0.70022  1.0000
  C   C662      1.0  0.75159  0.51840  0.95013  1.0000
  H   H795      1.0  0.83558  0.61228  0.70338  1.0000
  H   H796      1.0  0.82996  0.71769  0.97575  1.0000
  C   C663      1.0  0.83549  0.68293  0.95161  1.0000
  C   C664      1.0  0.83659  0.65684  0.95773  1.0000
  H   H797      1.0  0.73408  0.50466  0.96857  1.0000
  H   H798      1.0  0.84071  0.64576  0.93599  1.0000
  C   C665      1.0  0.84722  0.68653  0.61575  1.0000
  C   C666      1.0  0.85302  0.67066  0.64168  1.0000
  C   C667      1.0  0.85344  0.67758  0.67774  1.0000
  C   C668      1.0  0.84748  0.70007  0.68817  1.0000
  C   C669      1.0  0.84252  0.71649  0.66217  1.0000
  C   C670      1.0  0.84258  0.70990  0.62607  1.0000
  H   H799      1.0  0.85683  0.65268  0.63387  1.0000
  H   H800      1.0  0.85788  0.66529  0.69751  1.0000
  H   H801      1.0  0.83810  0.73406  0.67007  1.0000
  H   H802      1.0  0.83805  0.72224  0.60635  1.0000
  H   H803      1.0  0.77544  0.63744  0.61087  1.0000
  H   H804      1.0  0.79183  0.54533  0.68713  1.0000
  N   N44       1.0  0.72899  0.82265  0.58416  1.0000
  C   C671      1.0  0.71673  0.93177  0.88845  1.0000
  C   C672      1.0  0.69955  0.80077  0.56884  1.0000
  H   H805      1.0  0.79853  0.59230  0.93443  1.0000
  Fe  Fe94      1.0  0.66095  0.85924  0.85182  1.0000
  C   C673      1.0  0.78793  0.56831  0.93123  1.0000
  H   H806      1.0  0.95794  0.78800  0.93774  1.0000
  C   C674      1.0  0.76556  0.54937  0.95453  1.0000
  S   S191      1.0  0.65285  0.82301  0.72688  1.0000
  C   C675      1.0  0.95916  0.77931  0.58087  1.0000
  C   C676      1.0  0.65876  0.84680  0.60960  1.0000
  C   C677      1.0  0.75043  0.49668  0.80324  1.0000
  H   H807      1.0  0.74349  0.84812  0.53593  1.0000
  C   C678      1.0  0.94074  0.73626  0.70252  1.0000
  H   H808      1.0  0.93804  0.73341  0.73094  1.0000
  C   C679      1.0  0.77338  0.65341  0.66259  1.0000
  C   C680      1.0  0.72758  0.50212  0.81404  1.0000
  C   C681      1.0  0.77579  0.63396  0.63908  1.0000
  C   C682      1.0  0.78023  0.61102  0.65161  1.0000
  C   C683      1.0  0.74661  0.93717  0.95781  1.0000
  C   C684      1.0  0.78006  0.62736  0.71159  1.0000
  H   H809      1.0  0.77180  0.68988  0.91873  1.0000
  N   N45       1.0  0.94059  0.72859  0.93108  1.0000
  N   N46       1.0  0.72397  0.95649  0.91365  1.0000
  H   H810      1.0  0.94701  0.69657  0.90113  1.0000
  H   H811      1.0  0.81751  0.61094  0.74442  1.0000
  H   H812      1.0  0.70241  0.79348  0.54216  1.0000
  H   H813      1.0  0.80715  0.57541  0.65636  1.0000
  H   H814      1.0  0.68454  0.81036  0.56604  1.0000
  H   H815      1.0  0.71975  0.76940  0.61100  1.0000
  H   H816      1.0  0.91445  0.70388  0.57835  1.0000
  H   H817      1.0  0.71324  0.80754  0.63732  1.0000
  C   C685      1.0  0.77832  0.82579  0.56632  1.0000
  C   C686      1.0  0.75976  0.76978  0.59596  1.0000
  C   C687      1.0  0.79688  0.81322  0.56486  1.0000
  C   C688      1.0  0.78753  0.78520  0.57932  1.0000
  H   H818      1.0  0.78678  0.84724  0.55382  1.0000
  H   H819      1.0  0.75249  0.74788  0.60697  1.0000
  H   H820      1.0  0.81828  0.82473  0.55123  1.0000
  H   H821      1.0  0.80168  0.77524  0.57695  1.0000
  C   C689      1.0  0.70780  0.94713  0.97829  1.0000
  C   C690      1.0  0.83057  0.69734  0.98024  1.0000
  C   C691      1.0  0.74111  0.78223  0.59789  1.0000
  H   H822      1.0  0.78261  0.62646  0.73981  1.0000
  C   C692      1.0  0.96189  0.73157  0.68508  1.0000
  C   C693      1.0  0.74002  0.85105  0.56439  1.0000
  H   H823      1.0  0.79041  0.51790  0.87675  1.0000
  C   C694      1.0  0.78280  0.52545  0.89901  1.0000
  H   H824      1.0  0.76684  0.55162  0.66047  1.0000
  N   N47       1.0  0.95098  0.74813  0.58932  1.0000
  H   H825      1.0  0.74110  0.55520  0.71597  1.0000
  C   C695      1.0  0.76240  0.70022  0.97088  1.0000
  H   H826      1.0  0.82220  0.58035  0.73181  1.0000
  H   H827      1.0  0.81378  0.57122  0.88524  1.0000
  H   H828      1.0  0.71042  0.83904  0.62365  1.0000
  H   H829      1.0  0.76606  0.54579  0.73836  1.0000
  H   H830      1.0  0.89876  0.71078  0.90315  1.0000
  H   H831      1.0  0.76122  0.86925  0.57575  1.0000
  H   H832      1.0  0.75895  0.55880  0.97600  1.0000
  H   H833      1.0  0.74031  0.95987  0.79542  1.0000
  Fe  Fe95      1.0  0.65257  0.85213  0.77152  1.0000
  H   H834      1.0  0.76390  0.57750  0.75203  1.0000
  H   H835      1.0  0.90656  0.74820  0.69716  1.0000
  H   H836      1.0  0.69589  0.91118  0.89646  1.0000
  H   H837      1.0  0.96323  0.78400  0.55207  1.0000
  S   S192      1.0  0.66436  0.85719  0.56467  1.0000
  H   H838      1.0  0.77105  0.67180  0.65270  1.0000
  H   H839      1.0  0.94116  0.78430  0.58803  1.0000
  N   N48       1.0  0.78772  0.58337  0.70278  1.0000
  C   C696      1.0  0.81696  0.59735  0.72133  1.0000
  C   C697      1.0  0.76366  0.56472  0.72828  1.0000
  C   C698      1.0  0.78835  0.56310  0.67532  1.0000
  C   C699      1.0  0.78243  0.60699  0.68843  1.0000
  H   H840      1.0  0.67786  0.94619  0.91541  1.0000
  C   C700      1.0  0.97442  0.74273  0.57382  1.0000
  H   H841      1.0  0.64762  0.87175  0.93362  1.0000
  H   H842      1.0  0.93165  0.73060  0.87626  1.0000
  C   C701      1.0  0.92224  0.72760  0.57156  1.0000
  C   C702      1.0  0.97130  0.75455  0.92825  1.0000
  H   H843      1.0  0.83231  0.62438  0.99650  1.0000
  H   H844      1.0  0.71334  0.93753  0.86116  1.0000
  H   H845      1.0  0.67456  0.89184  0.62743  1.0000
  C   C703      1.0  0.70064  0.96521  0.90956  1.0000
  H   H846      1.0  0.94136  0.72929  0.98788  1.0000
  C   C704      1.0  0.65888  0.86568  0.95315  1.0000
  H   H847      1.0  0.67003  0.87916  0.69124  1.0000
  H   H848      1.0  0.91952  0.75045  0.90447  1.0000
  C   C705      1.0  0.96545  0.73519  0.64842  1.0000
  C   C706      1.0  0.94760  0.74359  0.62807  1.0000
  H   H849      1.0  0.76290  0.64002  0.93507  1.0000
  C   C707      1.0  0.92303  0.74460  0.68341  1.0000
  C   C708      1.0  0.65470  0.86886  0.98928  1.0000
  C   C709      1.0  0.93936  0.69933  0.92774  1.0000
  H   H850      1.0  0.90393  0.73199  0.57912  1.0000
  H   H851      1.0  0.69899  0.97404  0.72307  1.0000
  H   H852      1.0  0.91153  0.75409  0.63314  1.0000
  C   C710      1.0  0.66375  0.86184  0.67155  1.0000
  C   C711      1.0  0.64799  0.81726  0.62014  1.0000
  C   C712      1.0  0.92186  0.73025  0.90258  1.0000
  C   C713      1.0  0.75987  0.65364  0.95465  1.0000
  C   C714      1.0  0.76487  0.68183  0.94549  1.0000
  H   H853      1.0  0.92419  0.72977  0.54225  1.0000
  C   C715      1.0  0.75226  0.64358  0.98925  1.0000
  H   H854      1.0  0.96919  0.71932  0.57806  1.0000
  H   H855      1.0  0.70917  0.71044  0.50389  1.0000
  H   H856      1.0  0.90436  0.70888  0.96899  1.0000
  Fe  Fe96      1.0  0.65114  0.82389  0.51979  1.0000
  H   H857      1.0  0.77144  0.97704  0.90227  1.0000
  H   H858      1.0  0.76310  0.72506  0.50228  1.0000
  H   H859      1.0  0.76086  0.93608  0.93757  1.0000
  H   H860      1.0  0.74926  0.62200  0.99657  1.0000
  C   C716      1.0  0.64609  0.81026  0.65624  1.0000
  C   C717      1.0  0.74891  0.92802  0.99182  1.0000
  H   H861      1.0  0.97634  0.74630  0.54474  1.0000
  H   H862      1.0  0.95327  0.69665  0.94825  1.0000
  H   H863      1.0  0.76429  0.91988  0.99707  1.0000
  C   C718      1.0  0.97627  0.78400  0.93244  1.0000
  C   C719      1.0  0.74579  0.98240  0.80206  1.0000
  C   C720      1.0  0.75319  0.98258  0.90360  1.0000
  H   H864      1.0  0.74230  0.73708  0.00080  1.0000
