data_image0
_chemical_formula_structural       H2CHSNCHSCFeS2FeSFeS3FeS3NHFeSCHS2HC7H4C6H5CFeCH2CHC2HC6H4C3H3C2HC4H3CHCFeH2CSHCH2CH5CH3C2HC2HNH3CHCH2CH2FeCH2CHCSHC2HS2CHNHNCHC5H5C3H4CH5CH3CSH3CH2CHSHCNFeHC4SCH7CH2SHCHS2FeS2FeSFeS3FeS2FeC2FeCH2SH3C6H4C6H2C2H2SHSC2H4C6FeCH2C3H6CHC2H4C2H3C2N2HNC4HCH4FeHC2HCH2C2NC9H7CH6CHCHCHCHC2HC5HSH2SHC4SH4CH2SH4CHC2HC2HCH3CHCH3FeCHCHC3H2C2H3CHCHSH2FeS2FeS2FeSFeS3FeS2FeSHFeSFeHS2C2H3C7H3C6H4C3H2C8H7CHC7NH4NC4HSC3H10C2NH2C2H4CH6SH2CH6C3NHCNHC6HCH2C2H2SHCHC11H6CH2CHC2H2CHSH3CH2CHNHCH2C2H4C2H2CSHCH3CH3FeS2FeS2FeSFeS3FeS2FeS2FeSFeS3H2CH2CH2C3HCH2C6H4C2HC2H2C6H5C2HNCHC3H3CH3NC2HC3H4C3H3CHCHC2H7C3H2CHCHC2HNHNH3CHCH2C3H2CH2FeHCH4CH4C3HCNCSCNCH6C4HCH3C3H2CHCH2CSC3SHCH3CHCNHC2HCH4CH2CSH2NHC2FeS2FeSCHS2FeS2FeS2FeSFeS3HC5HCH2CHC2H3FeC6H3FeC6HCH2C6H6CHCH2C3HC6H4C2HCHSH9C2H2C2H3CH2CH7C2H2N2CHCH2C2H2CH2CHC2HCH6C3HSH5CH2C2HC5FeH4NH2CH3C2H2CH3CNHCHC2HCH4SCHCHSH5CFeS2FeSH2S2FeS2FeS2FeSFeS3HSC3H2CH2CHC2HCHFeC6H4C6H4C6H4FeCHC2H2FeCNC7H8C3H4CH2CHSCNCH7CH2SH2CH2SCHCFeSH2NHC2HC2HCH2CH2CH4CH2CH2CH2CH2C2HCH4NC6H2CH3C2SHCNHCH2C4HSHC2HCH2C2HSH4C3HCH2SCFeS2FeS2FeHFeS3FeSCFeH2FeSFeCSHCHC6H4C6H4C6H4C2H2C2H6CHC2H2S2FeHNC2SCHCH4NCNH2C3HCNC6HC2H9CSCH2NC2H2C2SH9C3HCH3C2SHSH3C6SH3CH2SH5C2H2C6H3CHC2SHFeS2FeS2FeSFeS3FeSHFeHSFeSFeCS2H2C6H4C7H3C6H4C3HC2SH5C3HC2HC2HCHNH4CH4CHC5H3SHC2FeC3HC2HCHCH6CH7C3H3CHCH2C2H2NH2NHCNCH4CHCH2C2HCHC4H5CH3CH3C3NCH2CHCH3NH4CH2CH3NC2SCH3CH6CFe2SHSH2SFeS2CSFeSHSFeS2FeSHFeSFeCS2H3C6H4C6H4C2HC6H4C2HC3HC2HCSH4CH3SC2H3C2SCFeC2H3CH3C3FeHCHNCH2CH2FeHCH3NCSHCHCH3CHC2H2NHCH2CH2CSFeC2HC3H2CH6CH2CHCH2CHSH3SHCHN2CSH2C4HCSFeSHSCHNFeS2C2FeSCSFeS2FeSHFeSFeS3CH2C6H4C6HCH2CSHC6H5CH3CHC4HCHFeH2C2H3FeH4CH2SH4CHC6HCHCHCH2CHCH3C2H3NFeCHC4HCH2CH3SH4CH2C4H3CH2CHCHSHSCHFeH2NHC3HCSH2S2H2CH2C2HC2H2NCH2CSC2HNHSCHFeSH2SFeS2FeSCFeSFeS3H3FeS2HSH3SHC4HCHC6H4C6H4FeSHSCH2C6H2N2C9HSH13CHSHCSH2CFe2HCHC2H2C4NC2H7C3H2C3H3CSHCH2CH2FeSH4CH3NHC3H2CH2CH3CHFeCH2C3H4S2HCH3C2HCHSH2CH4Fe2SH2SFeS2FeS2FeSFeS3HSCFeS2CSFeSHSC3HCH2C7H4C6H4C2HSHNSC6H2CNC5H2C2H13C3H2CHCHCHNCHFeSHC3HC3H3C3HC2H2C2H2CSHCHC2H3NCH2CHSHC2H2C2H3CH2NH3C2HCH5SH2CH2CH3FeHCH2FeHNC9H3CHFeCFeH4CFeSCHCHCHFeSHSFeHSFeS2FeS2FeSFeS4CHC2HC5H4C7H4NHSH2CH2CH2CFeH5CHCHCHSHCHC2HC2HCH2CH2CHCHCH2CH2C3HSH2C3HCHNC5HSHCH2SH3CH4SHCHC3H4C2H2C2HFeHCHC2NCHCHSC2H3C2SNC2HC2H4C2NH2CHCH2CH2C2H3FeHCHCHFeSHCSFe2CFeSHSFeHSFeSHFeS2FeSFeS3H3C2HC6H4C6H4SCHSC2HCH3C2HNC4HC3FeH2CH7CH2CNC5HFeSC3HCHCH2NH3C6H4CHC2H8CH2C2HCHSH3C2HCHC2HCSHSH2SCHNHSH2C2HSCH2FeHC2H7CNHCHCH3CHCSCHNC2H2CHCHSC3HFeS2FeS2FeSFeS3HSCFeS2FeSFeHCFeSCSH2C3H2SC6H4C6H4C6H4C3H3SCNC4NCH2CH9C2H3NC5HCH12C2H2CH2C2HCFeCNHFeSHSH2SCH2C2HCHFeC3SNCH5C2H2CHSH3C2H4CHC3HCH2NC6HCHCH2C4H4C3HFeHC2HC2H3CH4CH3CHCSCH2C2HFeS2FeS2FeSFeS3FeS2FeS2FeC2H2FeSCSHCNHCFeH2C6H3FeC6H4C6H4C3H3SHCH2C2H3C3H2CHCHCFeH6CH3CH4C4SH2C2H2C2HCH2C3H3C2H3CH6CHCHCNHCHCSNCH3SCSH2SH2CH4S2C2H2NCHC2HCH2CHCH3CH4C2HCH2CH2CHNC3HCHSCHFeHNFeS2FeH2S2H2CFeS2CFeHCSFeS2FeS2FeSFeS3C6H5CH3C3H7C3HCN2C2H2CHCH2CHC3H3C2FeHCH2C2HC2HCH3C4HC4HC2H3CH2NCH2CH3CSCHC5HC2HC2HCHC2H3CH2SC2SCH4CH2CH4CHCH5CHCNC3H6CHFeH3SH6CH2CH3CHC2HFeSHFeS2FeCFeHS2H2FeS2HFeCHSFeS2FeS2FeSFeS3C6H8C5H3CH4NH5NCHSCH4C3FeH3CH2CH5C2HC2H6C2HNH2C3H2CHC3H3NC9HCHC2H3C4H2CS2C2H2CHCH2CSHNHC3HCH2C2H2SCHCSCHC2H2C4HC5H2CHFeH4CH5C2H3CS2FeS2FeSCFeSFeS3FeS2HSHFeCFeS3H2FeCSFeCH2S2H3C2NCH2C4H2CHCH5C7H4C5H2SH3CHCNHC4HCHCH3C2HC2FeSH4C3HCHC2H6CHFeHCHCH2NC4SC3HC2H2NCH5NCHCSC3HFeH5C3H7NH2CHC2H3SFeSHFeS2FeSFeS3FeS2HSCFeSFeS3H2FeHCFeSH2SHCH3SNSH2CNHC2HC3H2C2H2C6H4C4H2CHSCNH2C3HCHC2H7C2SHCFeCSC2H3C3HCHC3NCHC3H4C3SCH3C2H3CH4C6SH4C3HCH6CH2CH3NH3CSH2CH5CHCHCH2CHCH7SC2H2C4HCFeC2H3FeS2FeSCFeSFeS3FeS2CHCFeSFe2SCFeS2HC2FeC2SHSCH2CHCH2CHNHCH2C7H4C4H3CHCH2C3HCH4C3H3SH2C3H2CH5CHCHCNC9H13CNC2HCH4CH2CH3SCHC2FeHC2SNCH2SH2S2CHCHCH2CHC2H8C2SHNCFeHC3HCHCHC2H2C2H2FeS2FeSHFeSFeHS2FeS2FeSHFeSFeS3FeS2CHCFeCHSH6C5H3C2H2C6H4CHCHCH2CH2C3H2C5HCH2CH3CHC3H5C2H3C3H3CH2CH3NHSH2CSCHCHCFeH2CH2CHC2HC2HNH2C4H2CHC2HC3HCH2C3SH2CH3CH2C3HNC2HC5SNHC2SHC2HCSCHC3HCSH8CFeSCFeSHFeSCHS2H2FeS2CHNHCFeSCFeS2FeHFeS3CH2C2H2C6H4C6H4CFeHCHCSC3HCH4SH2NCHCH2C7H8CH3CHCSHCH2SHCHSH2CHCH2C3HSCSCHFeH3N2H3FeSC2HC2HC2H2CH3C2NSH5CH2SCHSH2CSH3C2H2C2HCH2C3HCHFeHCFeS2FeSHCS2HCFeS2HCHC2FeS2FeS2FeCFeS3CH6C6H4C6H5CSC2NSH4CH4CHCHCFeH4NC2H3SHCFeH4CHC2SCHC2HCHC2H2C3H2C2HNHC3NHC2H2CHC4FeH4C2NC6H15C2HC2H3CFeC2HSNH3C
_chemical_formula_sum              "H2304 C1920 S512 N128 Fe256"
_cell_length_a       71.6463
_cell_length_b       69.9638
_cell_length_c       34.4275
_cell_angle_alpha    90.1776
_cell_angle_beta     90.9818
_cell_angle_gamma    88.4089

_space_group_name_H-M_alt    "P 1"
_space_group_IT_number       1

loop_
  _space_group_symop_operation_xyz
  'x, y, z'

loop_
  _atom_site_type_symbol
  _atom_site_label
  _atom_site_symmetry_multiplicity
  _atom_site_fract_x
  _atom_site_fract_y
  _atom_site_fract_z
  _atom_site_occupancy
  H   H1        1.0  0.17033  0.22274  0.02143  1.0000
  H   H2        1.0  0.26750  0.18665  0.15295  1.0000
  C   C1        1.0  0.20500  0.24576  0.25707  1.0000
  H   H3        1.0  0.24736  0.12319  0.38001  1.0000
  S   S1        1.0  0.26700  0.16769  0.31489  1.0000
  N   N1        1.0  0.08808  0.06302  0.12026  1.0000
  C   C2        1.0  0.22487  0.14215  0.36200  1.0000
  H   H4        1.0  0.23623  0.21608  0.13002  1.0000
  S   S2        1.0  0.15864  0.19263  0.07322  1.0000
  C   C3        1.0  0.03761  0.01651  0.27438  1.0000
  Fe  Fe1       1.0  0.20200  0.16946  0.12449  1.0000
  S   S3        1.0  0.17473  0.17413  0.15530  1.0000
  S   S4        1.0  0.22995  0.15783  0.14701  1.0000
  Fe  Fe2       1.0  0.16121  0.16332  0.09965  1.0000
  S   S5        1.0  0.13383  0.14752  0.09334  1.0000
  Fe  Fe3       1.0  0.17453  0.20270  0.12561  1.0000
  S   S6        1.0  0.16786  0.23135  0.15250  1.0000
  S   S7        1.0  0.18859  0.15620  0.07141  1.0000
  S   S8        1.0  0.20242  0.19871  0.09815  1.0000
  Fe  Fe4       1.0  0.06988  0.06280  0.41360  1.0000
  S   S9        1.0  0.06745  0.03252  0.43289  1.0000
  S   S10       1.0  0.05516  0.07406  0.35975  1.0000
  S   S11       1.0  0.30118  0.20251  0.28936  1.0000
  N   N2        1.0  0.98165  0.02452  0.48623  1.0000
  H   H5        1.0  0.17938  0.10267  0.43062  1.0000
  Fe  Fe5       1.0  0.09832  0.03316  0.44195  1.0000
  S   S12       1.0  0.98326  0.03936  0.21278  1.0000
  C   C4        1.0  0.25994  0.22199  0.35230  1.0000
  H   H6        1.0  0.10015  0.13073  0.06523  1.0000
  S   S13       1.0  0.10116  0.06274  0.41791  1.0000
  S   S14       1.0  0.06559  0.07495  0.47315  1.0000
  H   H7        1.0  0.04096  0.02034  0.11908  1.0000
  C   C5        1.0  0.23340  0.12859  0.38647  1.0000
  C   C6        1.0  0.03307  0.06461  0.35080  1.0000
  C   C7        1.0  0.02562  0.05145  0.37636  1.0000
  C   C8        1.0  0.00826  0.04351  0.36804  1.0000
  C   C9        1.0  0.99818  0.04886  0.33444  1.0000
  C   C10       1.0  0.00554  0.06211  0.30895  1.0000
  C   C11       1.0  0.02294  0.07004  0.31728  1.0000
  H   H8        1.0  0.03320  0.04744  0.40253  1.0000
  H   H9        1.0  0.00284  0.03292  0.38715  1.0000
  H   H10       1.0  0.99782  0.06629  0.28294  1.0000
  H   H11       1.0  0.02854  0.08047  0.29783  1.0000
  C   C12       1.0  0.01922  0.04663  0.06385  1.0000
  C   C13       1.0  0.00493  0.03945  0.08628  1.0000
  C   C14       1.0  0.99531  0.05135  0.11231  1.0000
  C   C15       1.0  0.99982  0.07059  0.11606  1.0000
  C   C16       1.0  0.01366  0.07802  0.09252  1.0000
  C   C17       1.0  0.02340  0.06603  0.06637  1.0000
  H   H12       1.0  0.00149  0.02451  0.08414  1.0000
  H   H13       1.0  0.29075  0.21121  0.39232  1.0000
  H   H14       1.0  0.01709  0.09295  0.09505  1.0000
  H   H15       1.0  0.03425  0.07172  0.04869  1.0000
  H   H16       1.0  0.09508  0.02925  0.36113  1.0000
  C   C18       1.0  0.10302  0.07698  0.12699  1.0000
  Fe  Fe6       1.0  0.09699  0.07259  0.47953  1.0000
  C   C19       1.0  0.15154  0.24107  0.28094  1.0000
  H   H17       1.0  0.23700  0.19866  0.16810  1.0000
  H   H18       1.0  0.10558  0.04337  0.08752  1.0000
  C   C20       1.0  0.20625  0.22753  0.24015  1.0000
  H   H19       1.0  0.26415  0.19863  0.21658  1.0000
  C   C21       1.0  0.09125  0.01037  0.31225  1.0000
  C   C22       1.0  0.02993  0.00445  0.20905  1.0000
  H   H20       1.0  0.21574  0.21675  0.25239  1.0000
  C   C23       1.0  0.25635  0.16526  0.26846  1.0000
  C   C24       1.0  0.26660  0.15761  0.23767  1.0000
  C   C25       1.0  0.25813  0.15523  0.20100  1.0000
  C   C26       1.0  0.23943  0.16085  0.19432  1.0000
  C   C27       1.0  0.22916  0.16893  0.22485  1.0000
  C   C28       1.0  0.23757  0.17094  0.26199  1.0000
  H   H21       1.0  0.08614  0.03270  0.11078  1.0000
  H   H22       1.0  0.26616  0.14894  0.17763  1.0000
  H   H23       1.0  0.21472  0.17338  0.21995  1.0000
  H   H24       1.0  0.22955  0.17700  0.28557  1.0000
  C   C29       1.0  0.01253  0.99870  0.22386  1.0000
  C   C30       1.0  0.17747  0.11483  0.45126  1.0000
  C   C31       1.0  0.19499  0.22304  0.20779  1.0000
  H   H25       1.0  0.06662  0.05839  0.07666  1.0000
  H   H26       1.0  0.03089  0.07339  0.18356  1.0000
  H   H27       1.0  0.19579  0.20884  0.19525  1.0000
  C   C32       1.0  0.07810  0.06836  0.08351  1.0000
  C   C33       1.0  0.11159  0.12105  0.05777  1.0000
  H   H28       1.0  0.28098  0.15300  0.24228  1.0000
  C   C34       1.0  0.09690  0.04380  0.11417  1.0000
  C   C35       1.0  0.19233  0.13951  0.48873  1.0000
  C   C36       1.0  0.20078  0.21981  0.45515  1.0000
  C   C37       1.0  0.19836  0.23966  0.45072  1.0000
  H   H29       1.0  0.05607  0.01752  0.22685  1.0000
  H   H30       1.0  0.23216  0.14712  0.33672  1.0000
  H   H31       1.0  0.19833  0.21043  0.43064  1.0000
  C   C38       1.0  0.04544  0.06861  0.18557  1.0000
  H   H32       1.0  0.07228  0.08327  0.08453  1.0000
  C   C39       1.0  0.02037  0.01094  0.28774  1.0000
  Fe  Fe7       1.0  0.18663  0.18616  0.04816  1.0000
  H   H33       1.0  0.20048  0.15993  0.35102  1.0000
  H   H34       1.0  0.27696  0.19071  0.38417  1.0000
  C   C40       1.0  0.05667  0.06897  0.15270  1.0000
  S   S15       1.0  0.09687  0.04281  0.50438  1.0000
  H   H35       1.0  0.00702  0.00198  0.14318  1.0000
  C   C41       1.0  0.14096  0.09606  0.03852  1.0000
  H   H36       1.0  0.18394  0.14912  0.40810  1.0000
  H   H37       1.0  0.21939  0.11341  0.49846  1.0000
  C   C42       1.0  0.24918  0.23923  0.44751  1.0000
  H   H38       1.0  0.23232  0.22313  0.17937  1.0000
  H   H39       1.0  0.00290  0.08656  0.47158  1.0000
  H   H40       1.0  0.02628  0.03120  0.15538  1.0000
  H   H41       1.0  0.99966  0.00048  0.47072  1.0000
  H   H42       1.0  0.15886  0.11665  0.06625  1.0000
  C   C43       1.0  0.20627  0.21210  0.49122  1.0000
  H   H43       1.0  0.24361  0.19236  0.38327  1.0000
  H   H44       1.0  0.00942  0.01663  0.50590  1.0000
  H   H45       1.0  0.99428  0.99826  0.27307  1.0000
  C   C44       1.0  0.24420  0.20533  0.40216  1.0000
  C   C45       1.0  0.00790  0.00202  0.26265  1.0000
  H   H46       1.0  0.08449  0.02130  0.29440  1.0000
  C   C46       1.0  0.10608  0.00090  0.37343  1.0000
  C   C47       1.0  0.14411  0.23144  0.24905  1.0000
  H   H47       1.0  0.13436  0.17146  0.01038  1.0000
  N   N3        1.0  0.26115  0.21641  0.16556  1.0000
  H   H48       1.0  0.23105  0.21379  0.39643  1.0000
  H   H49       1.0  0.27924  0.20052  0.43236  1.0000
  H   H50       1.0  0.11275  0.07737  0.10211  1.0000
  C   C48       1.0  0.12999  0.12588  0.06783  1.0000
  H   H51       1.0  0.04420  0.06217  0.24657  1.0000
  C   C49       1.0  0.24083  0.21350  0.16060  1.0000
  H   H52       1.0  0.16981  0.10946  0.47678  1.0000
  H   H53       1.0  0.26706  0.20175  0.11156  1.0000
  C   C50       1.0  0.27768  0.20429  0.40108  1.0000
  H   H54       1.0  0.04724  0.02362  0.29397  1.0000
  H   H55       1.0  0.00791  0.02300  0.45567  1.0000
  Fe  Fe8       1.0  0.29799  0.17287  0.31108  1.0000
  C   C51       1.0  0.03845  0.02122  0.15088  1.0000
  H   H56       1.0  0.04417  0.99784  0.35947  1.0000
  H   H57       1.0  0.98449  0.04549  0.12970  1.0000
  C   C52       1.0  0.14467  0.11328  0.05810  1.0000
  H   H58       1.0  0.23167  0.11166  0.43693  1.0000
  C   C53       1.0  0.27105  0.20123  0.14292  1.0000
  S   S16       1.0  0.98862  0.08500  0.15114  1.0000
  H   H59       1.0  0.23766  0.23034  0.45422  1.0000
  C   C54       1.0  0.27735  0.24003  0.12196  1.0000
  C   C55       1.0  0.26219  0.23429  0.41819  1.0000
  H   H60       1.0  0.20565  0.14661  0.49589  1.0000
  S   S17       1.0  0.11314  0.00640  0.42127  1.0000
  S   S18       1.0  0.03213  0.03050  0.03505  1.0000
  C   C56       1.0  0.09720  0.01488  0.35012  1.0000
  H   H61       1.0  0.15977  0.23321  0.30262  1.0000
  N   N4        1.0  0.26089  0.21676  0.39408  1.0000
  H   H62       1.0  0.25814  0.22290  0.22685  1.0000
  N   N5        1.0  0.19572  0.12281  0.46298  1.0000
  C   C57       1.0  0.99316  0.05785  0.47706  1.0000
  H   H63       1.0  0.28155  0.21639  0.21210  1.0000
  C   C58       1.0  0.20585  0.12902  0.42821  1.0000
  C   C59       1.0  0.22414  0.12206  0.41916  1.0000
  C   C60       1.0  0.19764  0.14293  0.40273  1.0000
  C   C61       1.0  0.20703  0.14932  0.37011  1.0000
  C   C62       1.0  0.26646  0.21358  0.20706  1.0000
  H   H64       1.0  0.24807  0.23224  0.34627  1.0000
  H   H65       1.0  0.05089  0.02787  0.16423  1.0000
  H   H66       1.0  0.24425  0.20010  0.43270  1.0000
  H   H67       1.0  0.14659  0.21616  0.24578  1.0000
  H   H68       1.0  0.20901  0.09484  0.46872  1.0000
  C   C63       1.0  0.08290  0.05666  0.19124  1.0000
  C   C64       1.0  0.07159  0.05646  0.22396  1.0000
  C   C65       1.0  0.05289  0.06233  0.22108  1.0000
  H   H69       1.0  0.09708  0.09173  0.13097  1.0000
  H   H70       1.0  0.11175  0.07351  0.15316  1.0000
  H   H71       1.0  0.09739  0.05222  0.19520  1.0000
  H   H72       1.0  0.07740  0.05195  0.25193  1.0000
  C   C66       1.0  0.07577  0.06280  0.15444  1.0000
  H   H73       1.0  0.25793  0.20922  0.33336  1.0000
  H   H74       1.0  0.10648  0.03943  0.13846  1.0000
  H   H75       1.0  0.22197  0.24575  0.05494  1.0000
  H   H76       1.0  0.08764  0.06781  0.05830  1.0000
  H   H77       1.0  0.05004  0.07428  0.12639  1.0000
  C   C67       1.0  0.98341  0.04454  0.49966  1.0000
  H   H78       1.0  0.18283  0.15053  0.47529  1.0000
  H   H79       1.0  0.97685  0.03265  0.42607  1.0000
  H   H80       1.0  0.16796  0.12560  0.43709  1.0000
  C   C68       1.0  0.26544  0.23609  0.15344  1.0000
  S   S19       1.0  0.97677  0.03826  0.32417  1.0000
  H   H81       1.0  0.28650  0.20216  0.14628  1.0000
  H   H82       1.0  0.28423  0.22882  0.10549  1.0000
  H   H83       1.0  0.28753  0.24406  0.39158  1.0000
  C   C69       1.0  0.04244  0.01315  0.23574  1.0000
  H   H84       1.0  0.09371  0.10051  0.02987  1.0000
  H   H85       1.0  0.99941  0.05373  0.44984  1.0000
  C   C70       1.0  0.20606  0.10795  0.48620  1.0000
  H   H86       1.0  0.12894  0.23404  0.19502  1.0000
  S   S20       1.0  0.10966  0.09941  0.50515  1.0000
  H   H87       1.0  0.01653  0.01375  0.31750  1.0000
  C   C71       1.0  0.18256  0.23684  0.19211  1.0000
  N   N6        1.0  0.03497  0.00218  0.16769  1.0000
  Fe  Fe9       1.0  0.06590  0.04448  0.49310  1.0000
  H   H88       1.0  0.27293  0.22862  0.34239  1.0000
  C   C72       1.0  0.13410  0.24158  0.22046  1.0000
  C   C73       1.0  0.12260  0.09129  0.02824  1.0000
  C   C74       1.0  0.00043  0.01581  0.47925  1.0000
  C   C75       1.0  0.99510  0.07679  0.48908  1.0000
  S   S21       1.0  0.20875  0.18727  0.49631  1.0000
  C   C76       1.0  0.10790  0.10391  0.03782  1.0000
  H   H89       1.0  0.15633  0.14458  0.01792  1.0000
  H   H90       1.0  0.15241  0.08630  0.03156  1.0000
  H   H91       1.0  0.20747  0.24326  0.01255  1.0000
  H   H92       1.0  0.19416  0.24559  0.42281  1.0000
  H   H93       1.0  0.06454  0.99670  0.17881  1.0000
  H   H94       1.0  0.97143  0.99712  0.50375  1.0000
  H   H95       1.0  0.12715  0.13266  0.53414  1.0000
  C   C77       1.0  0.20659  0.24404  0.51861  1.0000
  H   H96       1.0  0.07125  0.01765  0.64727  1.0000
  H   H97       1.0  0.02498  0.09198  0.58823  1.0000
  S   S22       1.0  0.28902  0.15225  0.82114  1.0000
  H   H98       1.0  0.99052  0.04384  0.88758  1.0000
  C   C78       1.0  0.03402  0.02262  0.70965  1.0000
  H   H99       1.0  0.13703  0.21872  0.62205  1.0000
  S   S23       1.0  0.18374  0.16843  0.58671  1.0000
  S   S24       1.0  0.08278  0.02879  0.00148  1.0000
  Fe  Fe10      1.0  0.23487  0.16225  0.62570  1.0000
  S   S25       1.0  0.21039  0.15228  0.65938  1.0000
  S   S26       1.0  0.26539  0.16257  0.64375  1.0000
  Fe  Fe11      1.0  0.19927  0.14118  0.60205  1.0000
  S   S27       1.0  0.18778  0.11164  0.59093  1.0000
  Fe  Fe12      1.0  0.19703  0.18035  0.64101  1.0000
  S   S28       1.0  0.18008  0.19813  0.68330  1.0000
  S   S29       1.0  0.22519  0.14857  0.57007  1.0000
  S   S30       1.0  0.22211  0.19094  0.61042  1.0000
  Fe  Fe13      1.0  0.06203  0.05852  0.91656  1.0000
  S   S31       1.0  0.05042  0.03050  0.93352  1.0000
  S   S32       1.0  0.05029  0.07370  0.86360  1.0000
  Fe  Fe14      1.0  0.09206  0.05720  0.97940  1.0000
  C   C79       1.0  0.27678  0.21433  0.72647  1.0000
  C   C80       1.0  0.23607  0.21843  0.79915  1.0000
  Fe  Fe15      1.0  0.08003  0.02014  0.93893  1.0000
  C   C81       1.0  0.04436  0.02854  0.77576  1.0000
  H   H100      1.0  0.19792  0.10333  0.51165  1.0000
  H   H101      1.0  0.22338  0.21892  0.78144  1.0000
  S   S33       1.0  0.09176  0.04737  0.91687  1.0000
  H   H102      1.0  0.04302  0.03639  0.80284  1.0000
  H   H103      1.0  0.16220  0.23404  0.64944  1.0000
  H   H104      1.0  0.01907  0.00471  0.89622  1.0000
  C   C82       1.0  0.02737  0.06731  0.85138  1.0000
  C   C83       1.0  0.01648  0.05776  0.87806  1.0000
  C   C84       1.0  0.99878  0.05139  0.86698  1.0000
  C   C85       1.0  0.99186  0.05463  0.82924  1.0000
  C   C86       1.0  0.00239  0.06483  0.80297  1.0000
  C   C87       1.0  0.02015  0.07118  0.81405  1.0000
  H   H105      1.0  0.02158  0.05551  0.90739  1.0000
  H   H106      1.0  0.29936  0.16991  0.68572  1.0000
  H   H107      1.0  0.99695  0.06770  0.77401  1.0000
  H   H108      1.0  0.02842  0.07879  0.79347  1.0000
  C   C88       1.0  0.03148  0.04538  0.56145  1.0000
  C   C89       1.0  0.01841  0.03718  0.58565  1.0000
  C   C90       1.0  0.00797  0.04864  0.61123  1.0000
  C   C91       1.0  0.01059  0.06837  0.61281  1.0000
  C   C92       1.0  0.02322  0.07667  0.58770  1.0000
  C   C93       1.0  0.03351  0.06519  0.56174  1.0000
  H   H109      1.0  0.01644  0.02192  0.58479  1.0000
  H   H110      1.0  0.99784  0.04218  0.62956  1.0000
  C   C94       1.0  0.18168  0.22842  0.73386  1.0000
  C   C95       1.0  0.03202  0.03232  0.74494  1.0000
  H   H111      1.0  0.16878  0.22515  0.51877  1.0000
  H   H112      1.0  0.02450  0.02670  0.68624  1.0000
  S   S34       1.0  0.04573  0.03035  0.53291  1.0000
  H   H113      1.0  0.09372  0.10363  0.93882  1.0000
  S   S35       1.0  0.06300  0.07043  0.97752  1.0000
  C   C96       1.0  0.16187  0.14766  0.98869  1.0000
  C   C97       1.0  0.16124  0.08987  0.55462  1.0000
  H   H114      1.0  0.21379  0.21845  0.55058  1.0000
  H   H115      1.0  0.29864  0.23720  0.59985  1.0000
  H   H116      1.0  0.25367  0.20644  0.68979  1.0000
  H   H117      1.0  0.17074  0.07788  0.56044  1.0000
  C   C98       1.0  0.28213  0.15618  0.77235  1.0000
  C   C99       1.0  0.29472  0.16312  0.74560  1.0000
  C   C100      1.0  0.28941  0.16497  0.70630  1.0000
  C   C101      1.0  0.27133  0.16047  0.69361  1.0000
  C   C102      1.0  0.25855  0.15410  0.72064  1.0000
  C   C103      1.0  0.26402  0.15175  0.75984  1.0000
  Fe  Fe16      1.0  0.05379  0.04112  0.99445  1.0000
  C   C104      1.0  0.26849  0.21704  0.84530  1.0000
  H   H118      1.0  0.24462  0.15050  0.71121  1.0000
  H   H119      1.0  0.25421  0.14636  0.78041  1.0000
  C   C105      1.0  0.16493  0.21604  0.54363  1.0000
  C   C106      1.0  0.19064  0.21832  0.70390  1.0000
  C   C107      1.0  0.20742  0.22495  0.68968  1.0000
  H   H120      1.0  0.10849  0.15882  0.97962  1.0000
  H   H121      1.0  0.12016  0.06525  0.62796  1.0000
  H   H122      1.0  0.21447  0.21735  0.66683  1.0000
  H   H123      1.0  0.16869  0.22336  0.74504  1.0000
  H   H124      1.0  0.29900  0.23971  0.85022  1.0000
  H   H125      1.0  0.18597  0.13534  0.51662  1.0000
  C   C108      1.0  0.18432  0.21494  0.96857  1.0000
  H   H126      1.0  0.28961  0.22812  0.99884  1.0000
  C   C109      1.0  0.18873  0.22087  0.93105  1.0000
  C   C110      1.0  0.01318  0.00317  0.86627  1.0000
  H   H127      1.0  0.28708  0.21660  0.58061  1.0000
  H   H128      1.0  0.15181  0.18420  0.98562  1.0000
  H   H129      1.0  0.19687  0.21147  0.91243  1.0000
  H   H130      1.0  0.15842  0.20312  0.53093  1.0000
  C   C111      1.0  0.97535  0.05154  0.53461  1.0000
  C   C112      1.0  0.16764  0.24518  0.97878  1.0000
  H   H131      1.0  0.02105  0.04313  0.74808  1.0000
  H   H132      1.0  0.99779  0.00493  0.86911  1.0000
  H   H133      1.0  0.08511  0.13511  0.96721  1.0000
  C   C113      1.0  0.25980  0.20015  0.83436  1.0000
  C   C114      1.0  0.16612  0.10832  0.56673  1.0000
  N   N7        1.0  0.14697  0.15589  0.96289  1.0000
  N   N8        1.0  0.05033  0.99854  0.66649  1.0000
  H   H134      1.0  0.09832  0.01051  0.85747  1.0000
  N   N9        1.0  0.15240  0.22625  0.57107  1.0000
  C   C115      1.0  0.13213  0.14179  0.95670  1.0000
  C   C116      1.0  0.13647  0.12359  0.94023  1.0000
  C   C117      1.0  0.11313  0.14559  0.96625  1.0000
  C   C118      1.0  0.12274  0.11005  0.93399  1.0000
  H   H135      1.0  0.13928  0.19992  0.58687  1.0000
  C   C119      1.0  0.10426  0.11429  0.94328  1.0000
  H   H136      1.0  0.04782  0.02505  0.63468  1.0000
  H   H137      1.0  0.05880  0.00581  0.60859  1.0000
  H   H138      1.0  0.26566  0.18641  0.84378  1.0000
  H   H139      1.0  0.97992  0.01157  0.54293  1.0000
  Fe  Fe17      1.0  0.21021  0.17646  0.55792  1.0000
  H   H140      1.0  0.12722  0.22083  0.53789  1.0000
  C   C120      1.0  0.14024  0.17404  0.98111  1.0000
  C   C121      1.0  0.23710  0.22972  0.97026  1.0000
  H   H141      1.0  0.28071  0.21576  0.86408  1.0000
  C   C122      1.0  0.97229  0.01212  0.51446  1.0000
  H   H142      1.0  0.15896  0.20573  0.61621  1.0000
  H   H143      1.0  0.01832  0.01529  0.84885  1.0000
  C   C123      1.0  0.26753  0.21395  0.96867  1.0000
  C   C124      1.0  0.20942  0.22427  0.52280  1.0000
  N   N10       1.0  0.09263  0.07777  0.61566  1.0000
  C   C125      1.0  0.07915  0.07700  0.58246  1.0000
  C   C126      1.0  0.09996  0.09738  0.61739  1.0000
  C   C127      1.0  0.10826  0.06412  0.60704  1.0000
  C   C128      1.0  0.08425  0.07318  0.65346  1.0000
  C   C129      1.0  0.06478  0.07045  0.65783  1.0000
  C   C130      1.0  0.09550  0.07229  0.68780  1.0000
  C   C131      1.0  0.05714  0.06738  0.69433  1.0000
  C   C132      1.0  0.08775  0.06898  0.72413  1.0000
  C   C133      1.0  0.06860  0.06667  0.72743  1.0000
  H   H144      1.0  0.06765  0.08791  0.58523  1.0000
  H   H145      1.0  0.08589  0.08012  0.55441  1.0000
  H   H146      1.0  0.07317  0.06253  0.57933  1.0000
  H   H147      1.0  0.08877  0.10804  0.62500  1.0000
  H   H148      1.0  0.10567  0.10176  0.58897  1.0000
  H   H149      1.0  0.11152  0.09870  0.63910  1.0000
  H   H150      1.0  0.11419  0.06683  0.57786  1.0000
  C   C134      1.0  0.16582  0.24478  0.62861  1.0000
  H   H151      1.0  0.10354  0.04910  0.60724  1.0000
  H   H152      1.0  0.05503  0.07096  0.63364  1.0000
  H   H153      1.0  0.11036  0.07453  0.68691  1.0000
  H   H154      1.0  0.04217  0.06590  0.69693  1.0000
  H   H155      1.0  0.09660  0.06852  0.75005  1.0000
  H   H156      1.0  0.06260  0.06458  0.75580  1.0000
  C   C135      1.0  0.26832  0.21000  0.69095  1.0000
  H   H157      1.0  0.12954  0.18160  0.96259  1.0000
  C   C136      1.0  0.27892  0.20905  0.65722  1.0000
  H   H158      1.0  0.99215  0.00714  0.80581  1.0000
  C   C137      1.0  0.24480  0.23541  0.80950  1.0000
  H   H159      1.0  0.98890  0.09776  0.53320  1.0000
  C   C138      1.0  0.05736  0.01234  0.63802  1.0000
  H   H160      1.0  0.98579  0.12133  0.68502  1.0000
  C   C139      1.0  0.15378  0.12371  0.55900  1.0000
  C   C140      1.0  0.13532  0.23298  0.54965  1.0000
  H   H161      1.0  0.18651  0.24359  0.88883  1.0000
  C   C141      1.0  0.26154  0.23520  0.83239  1.0000
  C   C142      1.0  0.05877  0.01502  0.77135  1.0000
  C   C143      1.0  0.14665  0.21213  0.60041  1.0000
  C   C144      1.0  0.27485  0.22860  0.99123  1.0000
  C   C145      1.0  0.24367  0.20083  0.81120  1.0000
  H   H162      1.0  0.16824  0.13420  0.97730  1.0000
  S   S36       1.0  0.19282  0.19261  0.98552  1.0000
  H   H163      1.0  0.27189  0.20460  0.63081  1.0000
  H   H164      1.0  0.12649  0.09600  0.92262  1.0000
  S   S37       1.0  0.99808  0.08278  0.64575  1.0000
  H   H165      1.0  0.23706  0.18767  0.80256  1.0000
  C   C146      1.0  0.26343  0.24400  0.00312  1.0000
  C   C147      1.0  0.09946  0.13202  0.95930  1.0000
  C   C148      1.0  0.29578  0.21792  0.72838  1.0000
  C   C149      1.0  0.04821  0.00830  0.70450  1.0000
  S   S38       1.0  0.98433  0.03927  0.70742  1.0000
  H   H166      1.0  0.15726  0.13792  0.56844  1.0000
  H   H167      1.0  0.10566  0.00035  0.78991  1.0000
  H   H168      1.0  0.15059  0.11958  0.93247  1.0000
  H   H169      1.0  0.04310  0.07167  0.54224  1.0000
  C   C150      1.0  0.24866  0.21448  0.95828  1.0000
  H   H170      1.0  0.26871  0.21440  0.75269  1.0000
  H   H171      1.0  0.14443  0.16635  0.90431  1.0000
  S   S39       1.0  0.11879  0.06894  0.00547  1.0000
  H   H172      1.0  0.06862  0.01248  0.79511  1.0000
  H   H173      1.0  0.16607  0.17188  0.92863  1.0000
  H   H174      1.0  0.24288  0.20298  0.94105  1.0000
  H   H175      1.0  0.02172  0.00317  0.64529  1.0000
  C   C151      1.0  0.13179  0.10226  0.52753  1.0000
  H   H176      1.0  0.97403  0.03877  0.95199  1.0000
  C   C152      1.0  0.15529  0.16075  0.92514  1.0000
  C   C153      1.0  0.17369  0.22710  0.99236  1.0000
  H   H177      1.0  0.16242  0.14821  0.91141  1.0000
  C   C154      1.0  0.98715  0.08315  0.52358  1.0000
  C   C155      1.0  0.14415  0.08684  0.53493  1.0000
  H   H178      1.0  0.98293  0.00821  0.99031  1.0000
  C   C156      1.0  0.13670  0.12067  0.53960  1.0000
  H   H179      1.0  0.17810  0.21117  0.55862  1.0000
  H   H180      1.0  0.17352  0.15769  0.99272  1.0000
  H   H181      1.0  0.22256  0.22939  0.96172  1.0000
  C   C157      1.0  0.18301  0.23910  0.91777  1.0000
  H   H182      1.0  0.29677  0.10279  0.85213  1.0000
  C   C158      1.0  0.06069  0.00488  0.73649  1.0000
  H   H183      1.0  0.13855  0.24207  0.52434  1.0000
  H   H184      1.0  0.29576  0.18444  0.60514  1.0000
  H   H185      1.0  0.14054  0.07259  0.52568  1.0000
  Fe  Fe18      1.0  0.97621  0.06600  0.67558  1.0000
  C   C159      1.0  0.21498  0.24177  0.70457  1.0000
  H   H186      1.0  0.27587  0.24351  0.90286  1.0000
  C   C160      1.0  0.24409  0.24499  0.99295  1.0000
  H   H187      1.0  0.12598  0.24157  0.56896  1.0000
  C   C161      1.0  0.16207  0.24285  0.58808  1.0000
  C   C162      1.0  0.29836  0.21251  0.65809  1.0000
  C   C163      1.0  0.97720  0.07060  0.54611  1.0000
  H   H188      1.0  0.27657  0.20224  0.95901  1.0000
  H   H189      1.0  0.98029  0.00107  0.74077  1.0000
  C   C164      1.0  0.18936  0.24518  0.74918  1.0000
  C   C165      1.0  0.30077  0.22208  0.59048  1.0000
  H   H190      1.0  0.30244  0.22092  0.75613  1.0000
  H   H191      1.0  0.97131  0.07556  0.57328  1.0000
  H   H192      1.0  0.97149  0.13047  0.74631  1.0000
  C   C166      1.0  0.26076  0.27083  0.16155  1.0000
  H   H193      1.0  0.00299  0.41441  0.27312  1.0000
  C   C167      1.0  0.03621  0.48415  0.42375  1.0000
  H   H194      1.0  0.17208  0.26585  0.19621  1.0000
  S   S40       1.0  0.27766  0.32651  0.06908  1.0000
  H   H195      1.0  0.06947  0.49430  0.24633  1.0000
  H   H196      1.0  0.17281  0.49235  0.10652  1.0000
  Fe  Fe19      1.0  0.09527  0.40611  0.22555  1.0000
  S   S41       1.0  0.09119  0.43561  0.25129  1.0000
  S   S42       1.0  0.12410  0.39125  0.22354  1.0000
  Fe  Fe20      1.0  0.05480  0.40528  0.19692  1.0000
  S   S43       1.0  0.04764  0.43407  0.22142  1.0000
  S   S44       1.0  0.03328  0.38836  0.16389  1.0000
  Fe  Fe21      1.0  0.07478  0.44292  0.19686  1.0000
  S   S45       1.0  0.07390  0.47295  0.17211  1.0000
  Fe  Fe22      1.0  0.06429  0.42455  0.27355  1.0000
  S   S46       1.0  0.05299  0.43511  0.33076  1.0000
  S   S47       1.0  0.08103  0.41458  0.16860  1.0000
  S   S48       1.0  0.06926  0.39452  0.25164  1.0000
  Fe  Fe23      1.0  0.22930  0.30999  0.37262  1.0000
  S   S49       1.0  0.20401  0.31841  0.40708  1.0000
  S   S50       1.0  0.25898  0.31965  0.37969  1.0000
  Fe  Fe24      1.0  0.21046  0.27678  0.33318  1.0000
  S   S51       1.0  0.18361  0.28183  0.36485  1.0000
  H   H197      1.0  0.97392  0.48142  0.17289  1.0000
  Fe  Fe25      1.0  0.18748  0.31314  0.35178  1.0000
  S   S52       1.0  0.15960  0.32936  0.34185  1.0000
  Fe  Fe26      1.0  0.20160  0.28701  0.41740  1.0000
  H   H198      1.0  0.24176  0.32942  0.02973  1.0000
  S   S53       1.0  0.21328  0.30748  0.31576  1.0000
  S   S54       1.0  0.22794  0.27908  0.38720  1.0000
  C   C168      1.0  0.98636  0.47956  0.19103  1.0000
  C   C169      1.0  0.01858  0.47597  0.23748  1.0000
  H   H199      1.0  0.12422  0.26837  0.19947  1.0000
  H   H200      1.0  0.19191  0.27374  0.25394  1.0000
  H   H201      1.0  0.07817  0.45020  0.47332  1.0000
  C   C170      1.0  0.98454  0.42004  0.10257  1.0000
  C   C171      1.0  0.98722  0.40030  0.09774  1.0000
  C   C172      1.0  0.00240  0.39076  0.11627  1.0000
  C   C173      1.0  0.01501  0.40091  0.13946  1.0000
  C   C174      1.0  0.01244  0.42070  0.14370  1.0000
  C   C175      1.0  0.99709  0.43016  0.12578  1.0000
  C   C176      1.0  0.26528  0.30515  0.27056  1.0000
  H   H202      1.0  0.00427  0.37544  0.11287  1.0000
  H   H203      1.0  0.02216  0.42873  0.16094  1.0000
  H   H204      1.0  0.99509  0.44542  0.12929  1.0000
  C   C177      1.0  0.03312  0.42344  0.34637  1.0000
  C   C178      1.0  0.02985  0.40453  0.33572  1.0000
  C   C179      1.0  0.01420  0.39531  0.34993  1.0000
  C   C180      1.0  0.00146  0.40515  0.37380  1.0000
  C   C181      1.0  0.00460  0.42420  0.38367  1.0000
  C   C182      1.0  0.02054  0.43319  0.37055  1.0000
  H   H205      1.0  0.03964  0.39683  0.31742  1.0000
  H   H206      1.0  0.01197  0.38050  0.34245  1.0000
  H   H207      1.0  0.99480  0.43204  0.40138  1.0000
  H   H208      1.0  0.02314  0.44773  0.37918  1.0000
  C   C183      1.0  0.07286  0.47725  0.12163  1.0000
  C   C184      1.0  0.07721  0.46288  0.09468  1.0000
  C   C185      1.0  0.07806  0.46733  0.05491  1.0000
  H   H209      1.0  0.25890  0.30268  0.29825  1.0000
  H   H210      1.0  0.08061  0.44852  0.10461  1.0000
  C   C186      1.0  0.01723  0.47866  0.32004  1.0000
  C   C187      1.0  0.28092  0.25885  0.11114  1.0000
  C   C188      1.0  0.13403  0.37467  0.25771  1.0000
  C   C189      1.0  0.15261  0.36802  0.25317  1.0000
  C   C190      1.0  0.16091  0.35459  0.27919  1.0000
  C   C191      1.0  0.15062  0.34751  0.30992  1.0000
  C   C192      1.0  0.13208  0.35421  0.31450  1.0000
  C   C193      1.0  0.12383  0.36772  0.28866  1.0000
  H   H211      1.0  0.16063  0.37333  0.22936  1.0000
  H   H212      1.0  0.17518  0.34961  0.27524  1.0000
  H   H213      1.0  0.12398  0.34888  0.33819  1.0000
  H   H214      1.0  0.10955  0.37269  0.29258  1.0000
  H   H215      1.0  0.06074  0.42257  0.05017  1.0000
  H   H216      1.0  0.06204  0.46924  0.43089  1.0000
  H   H217      1.0  0.01039  0.39511  0.24193  1.0000
  C   C194      1.0  0.25061  0.25620  0.46888  1.0000
  H   H218      1.0  0.29891  0.26236  0.23366  1.0000
  C   C195      1.0  0.26123  0.32297  0.49739  1.0000
  C   C196      1.0  0.29267  0.31606  0.47587  1.0000
  C   C197      1.0  0.28611  0.31614  0.43705  1.0000
  C   C198      1.0  0.26704  0.31925  0.42842  1.0000
  C   C199      1.0  0.25459  0.32236  0.45880  1.0000
  C   C200      1.0  0.14911  0.26090  0.28416  1.0000
  C   C201      1.0  0.00914  0.47051  0.45222  1.0000
  N   N11       1.0  0.29142  0.28024  0.28273  1.0000
  H   H219      1.0  0.23991  0.32494  0.45246  1.0000
  H   H220      1.0  0.98888  0.37346  0.27309  1.0000
  H   H221      1.0  0.30116  0.29281  0.21035  1.0000
  H   H222      1.0  0.28239  0.29061  0.33872  1.0000
  N   N12       1.0  0.13777  0.29284  0.25850  1.0000
  C   C202      1.0  0.12650  0.30210  0.22678  1.0000
  C   C203      1.0  0.12899  0.29832  0.29581  1.0000
  C   C204      1.0  0.15675  0.30075  0.25746  1.0000
  C   C205      1.0  0.13922  0.27174  0.25528  1.0000
  H   H223      1.0  0.29580  0.31372  0.41367  1.0000
  S   S55       1.0  0.19747  0.27647  0.47828  1.0000
  C   C206      1.0  0.01984  0.47614  0.19700  1.0000
  C   C207      1.0  0.04319  0.41903  0.46123  1.0000
  C   C208      1.0  0.21625  0.25346  0.02891  1.0000
  H   H224      1.0  0.11194  0.29695  0.22610  1.0000
  H   H225      1.0  0.12551  0.31795  0.23059  1.0000
  H   H226      1.0  0.13291  0.29954  0.19792  1.0000
  H   H227      1.0  0.11528  0.29147  0.29902  1.0000
  H   H228      1.0  0.12662  0.31408  0.29816  1.0000
  H   H229      1.0  0.13791  0.29436  0.32146  1.0000
  H   H230      1.0  0.16422  0.29608  0.23086  1.0000
  H   H231      1.0  0.15626  0.31664  0.25773  1.0000
  H   H232      1.0  0.16551  0.29634  0.28303  1.0000
  H   H233      1.0  0.04045  0.41727  0.07774  1.0000
  C   C209      1.0  0.00380  0.47818  0.17390  1.0000
  C   C210      1.0  0.00099  0.47780  0.25598  1.0000
  N   N13       1.0  0.03539  0.42120  0.01576  1.0000
  H   H234      1.0  0.01344  0.44452  0.48347  1.0000
  H   H235      1.0  0.03162  0.47440  0.25351  1.0000
  C   C211      1.0  0.06855  0.49585  0.10840  1.0000
  C   C212      1.0  0.20105  0.25175  0.48261  1.0000
  H   H236      1.0  0.97278  0.49385  0.30091  1.0000
  H   H237      1.0  0.04326  0.41789  0.42898  1.0000
  H   H238      1.0  0.25424  0.28281  0.17672  1.0000
  H   H239      1.0  0.29031  0.26160  0.08752  1.0000
  C   C213      1.0  0.02793  0.48272  0.01735  1.0000
  H   H240      1.0  0.99427  0.47113  0.45758  1.0000
  H   H241      1.0  0.29046  0.26625  0.33843  1.0000
  H   H242      1.0  0.07895  0.42471  0.47346  1.0000
  H   H243      1.0  0.24429  0.32689  0.25712  1.0000
  H   H244      1.0  0.14759  0.47141  0.12736  1.0000
  H   H245      1.0  0.07185  0.43696  0.42982  1.0000
  S   S56       1.0  0.98161  0.39345  0.39002  1.0000
  H   H246      1.0  0.27548  0.28877  0.12226  1.0000
  H   H247      1.0  0.97288  0.47313  0.06866  1.0000
  C   C214      1.0  0.25171  0.32314  0.00978  1.0000
  H   H248      1.0  0.05067  0.39925  0.04842  1.0000
  H   H249      1.0  0.27714  0.25698  0.25551  1.0000
  H   H250      1.0  0.23123  0.28792  0.03604  1.0000
  H   H251      1.0  0.99795  0.44722  0.30201  1.0000
  H   H252      1.0  0.25748  0.33474  0.19317  1.0000
  H   H253      1.0  0.24019  0.26001  0.49016  1.0000
  C   C215      1.0  0.26511  0.26854  0.46221  1.0000
  C   C216      1.0  0.04737  0.46883  0.43750  1.0000
  C   C217      1.0  0.98490  0.47923  0.23142  1.0000
  N   N14       1.0  0.99907  0.47783  0.29874  1.0000
  H   H254      1.0  0.00221  0.41722  0.22137  1.0000
  C   C218      1.0  0.02021  0.45521  0.46649  1.0000
  N   N15       1.0  0.05108  0.43738  0.47452  1.0000
  H   H255      1.0  0.01533  0.47917  0.35191  1.0000
  C   C219      1.0  0.19273  0.25962  0.24118  1.0000
  C   C220      1.0  0.26407  0.32368  0.21113  1.0000
  C   C221      1.0  0.03967  0.45375  0.45914  1.0000
  C   C222      1.0  0.14433  0.48371  0.10912  1.0000
  C   C223      1.0  0.27832  0.26393  0.43432  1.0000
  C   C224      1.0  0.28010  0.31403  0.19843  1.0000
  H   H256      1.0  0.15552  0.26778  0.30890  1.0000
  C   C225      1.0  0.25667  0.31922  0.24706  1.0000
  H   H257      1.0  0.20657  0.26510  0.03904  1.0000
  H   H258      1.0  0.02064  0.47916  0.07708  1.0000
  C   C226      1.0  0.29160  0.26165  0.26182  1.0000
  C   C227      1.0  0.01717  0.48504  0.43121  1.0000
  H   H259      1.0  0.02623  0.46575  0.31450  1.0000
  H   H260      1.0  0.00485  0.47892  0.14262  1.0000
  S   S57       1.0  0.08265  0.49016  0.50788  1.0000
  H   H261      1.0  0.26801  0.27232  0.31757  1.0000
  C   C228      1.0  0.99982  0.40699  0.24525  1.0000
  H   H262      1.0  0.28963  0.27355  0.42931  1.0000
  C   C229      1.0  0.13165  0.26144  0.22327  1.0000
  C   C230      1.0  0.28260  0.27725  0.32094  1.0000
  C   C231      1.0  0.27266  0.27421  0.13086  1.0000
  C   C232      1.0  0.04733  0.41488  0.04935  1.0000
  C   C233      1.0  0.27047  0.32049  0.02157  1.0000
  C   C234      1.0  0.12596  0.48766  0.09729  1.0000
  C   C235      1.0  0.98972  0.46021  0.31072  1.0000
  C   C236      1.0  0.02462  0.47202  0.05043  1.0000
  C   C237      1.0  0.07429  0.48606  0.04187  1.0000
  C   C238      1.0  0.28171  0.29505  0.25852  1.0000
  C   C239      1.0  0.02690  0.45212  0.04962  1.0000
  H   H263      1.0  0.98794  0.45966  0.34279  1.0000
  H   H264      1.0  0.03338  0.47482  0.18343  1.0000
  H   H265      1.0  0.02861  0.41718  0.47063  1.0000
  H   H266      1.0  0.29903  0.25020  0.27904  1.0000
  H   H267      1.0  0.24775  0.25023  0.19664  1.0000
  H   H268      1.0  0.11493  0.47840  0.10639  1.0000
  C   C240      1.0  0.07086  0.43739  0.46213  1.0000
  H   H269      1.0  0.24682  0.27002  0.05604  1.0000
  H   H270      1.0  0.08207  0.45633  0.03428  1.0000
  C   C241      1.0  0.25720  0.25210  0.17280  1.0000
  H   H271      1.0  0.05139  0.40650  0.47295  1.0000
  C   C242      1.0  0.28875  0.29986  0.22156  1.0000
  C   C243      1.0  0.24095  0.27585  0.02825  1.0000
  H   H272      1.0  0.00960  0.41750  0.04556  1.0000
  H   H273      1.0  0.02403  0.44446  0.07591  1.0000
  C   C244      1.0  0.03299  0.44231  0.01574  1.0000
  H   H274      1.0  0.28594  0.31765  0.17055  1.0000
  S   S58       1.0  0.97173  0.43515  0.46444  1.0000
  H   H275      1.0  0.98200  0.47822  0.02174  1.0000
  H   H276      1.0  0.97750  0.39234  0.08011  1.0000
  H   H277      1.0  0.98383  0.49507  0.06149  1.0000
  C   C245      1.0  0.01684  0.41261  0.01906  1.0000
  H   H278      1.0  0.02500  0.49162  0.31219  1.0000
  H   H279      1.0  0.01781  0.39669  0.02008  1.0000
  C   C246      1.0  0.97456  0.48470  0.04689  1.0000
  H   H280      1.0  0.25242  0.28227  0.01170  1.0000
  N   N16       1.0  0.98051  0.39990  0.24444  1.0000
  H   H281      1.0  0.98020  0.39808  0.18152  1.0000
  C   C247      1.0  0.18160  0.25518  0.20857  1.0000
  H   H282      1.0  0.27016  0.25499  0.01989  1.0000
  H   H283      1.0  0.98688  0.37652  0.20507  1.0000
  C   C248      1.0  0.28024  0.31976  0.50609  1.0000
  C   C249      1.0  0.97739  0.38936  0.20747  1.0000
  H   H284      1.0  0.97552  0.45920  0.29746  1.0000
  H   H285      1.0  0.97335  0.42835  0.19056  1.0000
  H   H286      1.0  0.98230  0.39226  0.30512  1.0000
  H   H287      1.0  0.26604  0.28177  0.47847  1.0000
  C   C250      1.0  0.97893  0.38586  0.27641  1.0000
  C   C251      1.0  0.98750  0.49462  0.31118  1.0000
  H   H288      1.0  0.98688  0.49587  0.34337  1.0000
  H   H289      1.0  0.04247  0.49541  0.40717  1.0000
  C   C252      1.0  0.15850  0.49554  0.09733  1.0000
  S   S59       1.0  0.21914  0.25096  0.29764  1.0000
  H   H290      1.0  0.21237  0.31237  0.50774  1.0000
  C   C253      1.0  0.27694  0.24707  0.41271  1.0000
  H   H291      1.0  0.98033  0.41759  0.74725  1.0000
  H   H292      1.0  0.16594  0.25732  0.53264  1.0000
  H   H293      1.0  0.98001  0.41970  0.87055  1.0000
  C   C254      1.0  0.03992  0.48842  0.69207  1.0000
  H   H294      1.0  0.04327  0.46966  0.75833  1.0000
  H   H295      1.0  0.23808  0.26440  0.57967  1.0000
  H   H296      1.0  0.24323  0.30355  0.67490  1.0000
  Fe  Fe27      1.0  0.08317  0.40010  0.72833  1.0000
  S   S60       1.0  0.07739  0.42859  0.75786  1.0000
  S   S61       1.0  0.09598  0.37231  0.75203  1.0000
  Fe  Fe28      1.0  0.06013  0.41096  0.65624  1.0000
  S   S62       1.0  0.05271  0.43982  0.67942  1.0000
  S   S63       1.0  0.04885  0.40264  0.59743  1.0000
  Fe  Fe29      1.0  0.08247  0.44104  0.69862  1.0000
  S   S64       1.0  0.09301  0.47050  0.68662  1.0000
  Fe  Fe30      1.0  0.04797  0.42536  0.73590  1.0000
  S   S65       1.0  0.02127  0.43520  0.76440  1.0000
  S   S66       1.0  0.09064  0.41294  0.67075  1.0000
  S   S67       1.0  0.05296  0.39614  0.71114  1.0000
  Fe  Fe31      1.0  0.22257  0.30363  0.87636  1.0000
  S   S68       1.0  0.19564  0.31520  0.90007  1.0000
  S   S69       1.0  0.25226  0.30247  0.89915  1.0000
  Fe  Fe32      1.0  0.20388  0.28715  0.80447  1.0000
  S   S70       1.0  0.17486  0.29681  0.82149  1.0000
  S   S71       1.0  0.21523  0.27360  0.74996  1.0000
  Fe  Fe33      1.0  0.18817  0.32432  0.83887  1.0000
  S   S72       1.0  0.17553  0.35414  0.82982  1.0000
  Fe  Fe34      1.0  0.18396  0.28712  0.88148  1.0000
  S   S73       1.0  0.16540  0.27432  0.92599  1.0000
  S   S74       1.0  0.21650  0.31549  0.81699  1.0000
  S   S75       1.0  0.21149  0.27472  0.86272  1.0000
  H   H297      1.0  0.21557  0.31624  0.65150  1.0000
  H   H298      1.0  0.97954  0.47025  0.90141  1.0000
  C   C255      1.0  0.99739  0.41145  0.54998  1.0000
  H   H299      1.0  0.99145  0.48328  0.80175  1.0000
  H   H300      1.0  0.02482  0.36223  0.62669  1.0000
  C   C256      1.0  0.98747  0.41999  0.58039  1.0000
  H   H301      1.0  0.24496  0.25708  0.62741  1.0000
  H   H302      1.0  0.13069  0.30683  0.87802  1.0000
  C   C257      1.0  0.02523  0.40936  0.59120  1.0000
  C   C258      1.0  0.01528  0.41793  0.62154  1.0000
  C   C259      1.0  0.99644  0.42332  0.61606  1.0000
  H   H303      1.0  0.25504  0.25781  0.89463  1.0000
  C   C260      1.0  0.26987  0.25579  0.88604  1.0000
  H   H304      1.0  0.02193  0.41999  0.64950  1.0000
  H   H305      1.0  0.98874  0.42985  0.63958  1.0000
  C   C261      1.0  0.01596  0.42347  0.80758  1.0000
  C   C262      1.0  0.02915  0.41149  0.82638  1.0000
  C   C263      1.0  0.02467  0.40263  0.86144  1.0000
  C   C264      1.0  0.00700  0.40569  0.87762  1.0000
  C   C265      1.0  0.99370  0.41737  0.85834  1.0000
  C   C266      1.0  0.99816  0.42616  0.82326  1.0000
  H   H306      1.0  0.04285  0.40919  0.81413  1.0000
  H   H307      1.0  0.03493  0.39347  0.87613  1.0000
  H   H308      1.0  0.06272  0.46745  0.87739  1.0000
  H   H309      1.0  0.98782  0.43511  0.80835  1.0000
  C   C267      1.0  0.08956  0.47631  0.63721  1.0000
  C   C268      1.0  0.04409  0.41340  0.97994  1.0000
  H   H310      1.0  0.13193  0.32794  0.97814  1.0000
  C   C269      1.0  0.09051  0.46190  0.60908  1.0000
  C   C270      1.0  0.08211  0.34216  0.92039  1.0000
  H   H311      1.0  0.12730  0.30645  0.95010  1.0000
  H   H312      1.0  0.09305  0.44720  0.61771  1.0000
  C   C271      1.0  0.11914  0.36805  0.76923  1.0000
  C   C272      1.0  0.12985  0.38263  0.78514  1.0000
  C   C273      1.0  0.14736  0.37821  0.80263  1.0000
  C   C274      1.0  0.15443  0.35926  0.80387  1.0000
  C   C275      1.0  0.14403  0.34480  0.78659  1.0000
  C   C276      1.0  0.12634  0.34915  0.76992  1.0000
  H   H313      1.0  0.12440  0.39720  0.78504  1.0000
  H   H314      1.0  0.15535  0.38949  0.81582  1.0000
  H   H315      1.0  0.14939  0.33021  0.78679  1.0000
  H   H316      1.0  0.11812  0.33779  0.75772  1.0000
  H   H317      1.0  0.99042  0.40846  0.52262  1.0000
  C   C277      1.0  0.03395  0.45928  0.87600  1.0000
  C   C278      1.0  0.08884  0.46651  0.56958  1.0000
  H   H318      1.0  0.01584  0.49024  0.75059  1.0000
  N   N17       1.0  0.27132  0.25284  0.84353  1.0000
  C   C279      1.0  0.21536  0.31464  0.62027  1.0000
  H   H319      1.0  0.98104  0.46594  0.83240  1.0000
  C   C280      1.0  0.24585  0.31784  0.97208  1.0000
  C   C281      1.0  0.25878  0.30984  0.94624  1.0000
  C   C282      1.0  0.27747  0.30715  0.95819  1.0000
  H   H320      1.0  0.99678  0.39068  0.77953  1.0000
  H   H321      1.0  0.24876  0.27868  0.67937  1.0000
  H   H322      1.0  0.23144  0.32007  0.96296  1.0000
  C   C283      1.0  0.03349  0.47355  0.98335  1.0000
  H   H323      1.0  0.19252  0.33567  0.54330  1.0000
  H   H324      1.0  0.29890  0.26444  0.84007  1.0000
  H   H325      1.0  0.30061  0.25892  0.96933  1.0000
  N   N18       1.0  0.98560  0.39002  0.72071  1.0000
  C   C284      1.0  0.23585  0.26749  0.61094  1.0000
  C   C285      1.0  0.21317  0.31293  0.53926  1.0000
  H   H326      1.0  0.17710  0.26216  0.67471  1.0000
  C   C286      1.0  0.14796  0.34675  0.92035  1.0000
  C   C287      1.0  0.14079  0.31837  0.88370  1.0000
  C   C288      1.0  0.98309  0.41109  0.71830  1.0000
  H   H327      1.0  0.01374  0.39316  0.74305  1.0000
  H   H328      1.0  0.09006  0.45526  0.54808  1.0000
  H   H329      1.0  0.21392  0.26074  0.95298  1.0000
  H   H330      1.0  0.12358  0.35387  0.85495  1.0000
  C   C289      1.0  0.98259  0.48149  0.82765  1.0000
  C   C290      1.0  0.11568  0.33877  0.90730  1.0000
  C   C291      1.0  0.22682  0.30085  0.60072  1.0000
  H   H331      1.0  0.27162  0.28323  0.83206  1.0000
  H   H332      1.0  0.26401  0.26892  0.79170  1.0000
  H   H333      1.0  0.29779  0.31065  0.00437  1.0000
  C   C292      1.0  0.25936  0.29159  0.61003  1.0000
  H   H334      1.0  0.18229  0.25303  0.77202  1.0000
  C   C293      1.0  0.13602  0.31935  0.95225  1.0000
  H   H335      1.0  0.14925  0.35510  0.89314  1.0000
  C   C294      1.0  0.05109  0.43797  0.51755  1.0000
  C   C295      1.0  0.00065  0.38571  0.74990  1.0000
  H   H336      1.0  0.14355  0.35693  0.94355  1.0000
  H   H337      1.0  0.13297  0.47167  0.62436  1.0000
  H   H338      1.0  0.00378  0.37008  0.75202  1.0000
  H   H339      1.0  0.15057  0.31380  0.95789  1.0000
  H   H340      1.0  0.06575  0.47755  0.74513  1.0000
  H   H341      1.0  0.05806  0.41952  0.97536  1.0000
  H   H342      1.0  0.02380  0.39903  0.53230  1.0000
  C   C296      1.0  0.97958  0.37676  0.61390  1.0000
  C   C297      1.0  0.11237  0.35038  0.87401  1.0000
  C   C298      1.0  0.97594  0.38359  0.65131  1.0000
  H   H343      1.0  0.04079  0.44758  0.95537  1.0000
  H   H344      1.0  0.15458  0.31132  0.89012  1.0000
  C   C299      1.0  0.09451  0.35751  0.86418  1.0000
  H   H345      1.0  0.21405  0.28307  0.97771  1.0000
  C   C300      1.0  0.03359  0.48003  0.56722  1.0000
  H   H346      1.0  0.05342  0.48447  0.67818  1.0000
  C   C301      1.0  0.20199  0.32608  0.55925  1.0000
  C   C302      1.0  0.09995  0.33486  0.93039  1.0000
  H   H347      1.0  0.20876  0.25339  0.54322  1.0000
  N   N19       1.0  0.23144  0.26096  0.00499  1.0000
  H   H348      1.0  0.99754  0.46543  0.61992  1.0000
  N   N20       1.0  0.97348  0.48671  0.56937  1.0000
  H   H349      1.0  0.29305  0.24783  0.80202  1.0000
  H   H350      1.0  0.03684  0.43702  0.52946  1.0000
  H   H351      1.0  0.00760  0.41661  0.99394  1.0000
  C   C303      1.0  0.17670  0.27390  0.57919  1.0000
  H   H352      1.0  0.05391  0.48795  0.78651  1.0000
  C   C304      1.0  0.17985  0.27548  0.61907  1.0000
  H   H353      1.0  0.23403  0.27542  0.95035  1.0000
  H   H354      1.0  0.22108  0.26423  0.61743  1.0000
  C   C305      1.0  0.20589  0.25199  0.73408  1.0000
  C   C306      1.0  0.00465  0.49308  0.53991  1.0000
  C   C307      1.0  0.23912  0.28917  0.66442  1.0000
  H   H355      1.0  0.09240  0.36610  0.83813  1.0000
  H   H356      1.0  0.03505  0.41615  0.95376  1.0000
  C   C308      1.0  0.26364  0.27032  0.82389  1.0000
  H   H357      1.0  0.03730  0.44414  0.87905  1.0000
  H   H358      1.0  0.97128  0.41551  0.69866  1.0000
  Fe  Fe35      1.0  0.97384  0.40389  0.94614  1.0000
  H   H359      1.0  0.18109  0.28510  0.55986  1.0000
  C   C309      1.0  0.97980  0.48598  0.89689  1.0000
  H   H360      1.0  0.18640  0.28800  0.63104  1.0000
  H   H361      1.0  0.07026  0.33892  0.93818  1.0000
  H   H362      1.0  0.16238  0.34136  0.92754  1.0000
  H   H363      1.0  0.23381  0.29065  0.54244  1.0000
  C   C310      1.0  0.05197  0.48256  0.75633  1.0000
  H   H364      1.0  0.03158  0.47530  0.69437  1.0000
  H   H365      1.0  0.03113  0.46192  0.61688  1.0000
  H   H366      1.0  0.15946  0.25454  0.99736  1.0000
  H   H367      1.0  0.10102  0.32608  0.95610  1.0000
  C   C311      1.0  0.07940  0.35341  0.88732  1.0000
  C   C312      1.0  0.04825  0.47234  0.87477  1.0000
  C   C313      1.0  0.28330  0.31253  0.99563  1.0000
  H   H368      1.0  0.00008  0.36419  0.57590  1.0000
  C   C314      1.0  0.17247  0.25130  0.94166  1.0000
  N   N21       1.0  0.13469  0.33091  0.91610  1.0000
  C   C315      1.0  0.04392  0.49174  0.87030  1.0000
  S   S76       1.0  0.00193  0.39508  0.92220  1.0000
  C   C316      1.0  0.17452  0.26093  0.64366  1.0000
  N   N22       1.0  0.24000  0.28756  0.62143  1.0000
  C   C317      1.0  0.98968  0.38234  0.68151  1.0000
  H   H369      1.0  0.98570  0.49255  0.92373  1.0000
  H   H370      1.0  0.26987  0.28240  0.62590  1.0000
  H   H371      1.0  0.22486  0.28629  0.67496  1.0000
  H   H372      1.0  0.04601  0.39756  0.98125  1.0000
  H   H373      1.0  0.25160  0.32611  0.52056  1.0000
  H   H374      1.0  0.19446  0.33734  0.61510  1.0000
  C   C318      1.0  0.99412  0.48441  0.56931  1.0000
  C   C319      1.0  0.20310  0.32695  0.59965  1.0000
  C   C320      1.0  0.29138  0.25106  0.83345  1.0000
  C   C321      1.0  0.00425  0.47289  0.59689  1.0000
  H   H375      1.0  0.04865  0.47879  0.56707  1.0000
  C   C322      1.0  0.01531  0.46561  0.87305  1.0000
  H   H376      1.0  0.26276  0.30677  0.61623  1.0000
  H   H377      1.0  0.03660  0.48201  0.95804  1.0000
  H   H378      1.0  0.06554  0.35888  0.87937  1.0000
  C   C323      1.0  0.16793  0.25787  0.56384  1.0000
  C   C324      1.0  0.01624  0.40606  0.55548  1.0000
  C   C325      1.0  0.01039  0.48519  0.86757  1.0000
  H   H379      1.0  0.27746  0.26867  0.89589  1.0000
  H   H380      1.0  0.05705  0.45148  0.52849  1.0000
  C   C326      1.0  0.99707  0.36885  0.60526  1.0000
  H   H381      1.0  0.99590  0.41771  0.70710  1.0000
  C   C327      1.0  0.01098  0.36770  0.63397  1.0000
  H   H382      1.0  0.00469  0.45502  0.87459  1.0000
  H   H383      1.0  0.14240  0.32640  0.85630  1.0000
  C   C328      1.0  0.08562  0.48548  0.55784  1.0000
  S   S77       1.0  0.07728  0.49163  0.99246  1.0000
  C   C329      1.0  0.22538  0.30047  0.55953  1.0000
  C   C330      1.0  0.03606  0.45366  0.98237  1.0000
  C   C331      1.0  0.00742  0.37426  0.67160  1.0000
  S   S78       1.0  0.28791  0.32127  0.55493  1.0000
  H   H384      1.0  0.05956  0.42592  0.53055  1.0000
  C   C332      1.0  0.02368  0.47076  0.59562  1.0000
  H   H385      1.0  0.28756  0.30104  0.93831  1.0000
  H   H386      1.0  0.01897  0.37320  0.69208  1.0000
  H   H387      1.0  0.26167  0.28929  0.57846  1.0000
  C   C333      1.0  0.22302  0.27039  0.97004  1.0000
  H   H388      1.0  0.24905  0.27371  0.83250  1.0000
  C   C334      1.0  0.13642  0.49351  0.58109  1.0000
  N   N23       1.0  0.99054  0.49126  0.86222  1.0000
  H   H389      1.0  0.13790  0.48291  0.55838  1.0000
  C   C335      1.0  0.02411  0.49097  0.53914  1.0000
  C   C336      1.0  0.08637  0.49537  0.62561  1.0000
  H   H390      1.0  0.23814  0.24850  0.79917  1.0000
  C   C337      1.0  0.13366  0.48689  0.61876  1.0000
  H   H391      1.0  0.12835  0.49451  0.67812  1.0000
  H   H392      1.0  0.15819  0.49599  0.51656  1.0000
  H   H393      1.0  0.22787  0.24688  0.69313  1.0000
  H   H394      1.0  0.08584  0.50094  0.28279  1.0000
  C   C338      1.0  0.25563  0.69705  0.28049  1.0000
  H   H395      1.0  0.09743  0.53168  0.28855  1.0000
  H   H396      1.0  0.99539  0.57110  0.43540  1.0000
  C   C339      1.0  0.05799  0.53177  0.22938  1.0000
  S   S79       1.0  0.27004  0.68115  0.11884  1.0000
  H   H397      1.0  0.97614  0.52303  0.43143  1.0000
  H   H398      1.0  0.09184  0.53461  0.19880  1.0000
  N   N24       1.0  0.13451  0.66350  0.43845  1.0000
  H   H399      1.0  0.26214  0.68750  0.45687  1.0000
  C   C340      1.0  0.13412  0.67894  0.46801  1.0000
  C   C341      1.0  0.06906  0.50020  0.06865  1.0000
  Fe  Fe36      1.0  0.06154  0.53821  0.41161  1.0000
  S   S80       1.0  0.06494  0.56835  0.43274  1.0000
  S   S81       1.0  0.04970  0.52814  0.35451  1.0000
  Fe  Fe37      1.0  0.09281  0.55769  0.45639  1.0000
  S   S82       1.0  0.12076  0.57244  0.45547  1.0000
  C   C342      1.0  0.15415  0.65878  0.42834  1.0000
  H   H400      1.0  0.28336  0.69773  0.35292  1.0000
  S   S83       1.0  0.09028  0.52834  0.43039  1.0000
  S   S84       1.0  0.04798  0.52792  0.46517  1.0000
  Fe  Fe38      1.0  0.20703  0.65848  0.29209  1.0000
  S   S85       1.0  0.17928  0.65776  0.26091  1.0000
  S   S86       1.0  0.23373  0.64548  0.26811  1.0000
  Fe  Fe39      1.0  0.19111  0.67974  0.36138  1.0000
  S   S87       1.0  0.16229  0.68157  0.33523  1.0000
  S   S88       1.0  0.19847  0.68865  0.42266  1.0000
  Fe  Fe40      1.0  0.16716  0.65071  0.31904  1.0000
  S   S89       1.0  0.14199  0.63169  0.32390  1.0000
  Fe  Fe41      1.0  0.17661  0.68838  0.27970  1.0000
  S   S90       1.0  0.16350  0.70972  0.23791  1.0000
  S   S91       1.0  0.19527  0.64842  0.34861  1.0000
  S   S92       1.0  0.20514  0.68965  0.30752  1.0000
  H   H401      1.0  0.25078  0.69230  0.37224  1.0000
  C   C343      1.0  0.25155  0.71663  0.28045  1.0000
  C   C344      1.0  0.19024  0.71090  0.44008  1.0000
  C   C345      1.0  0.19294  0.71525  0.47947  1.0000
  C   C346      1.0  0.03074  0.52663  0.18670  1.0000
  C   C347      1.0  0.08434  0.53780  0.27515  1.0000
  H   H402      1.0  0.29908  0.72728  0.37352  1.0000
  C   C348      1.0  0.18155  0.72441  0.41545  1.0000
  H   H403      1.0  0.02667  0.49818  0.01824  1.0000
  H   H404      1.0  0.27819  0.72103  0.08897  1.0000
  C   C349      1.0  0.98535  0.56843  0.45900  1.0000
  H   H405      1.0  0.17936  0.72111  0.38502  1.0000
  C   C350      1.0  0.17828  0.72365  0.21013  1.0000
  C   C351      1.0  0.19762  0.72316  0.21640  1.0000
  H   H406      1.0  0.12630  0.51882  0.47647  1.0000
  H   H407      1.0  0.10727  0.50578  0.06494  1.0000
  H   H408      1.0  0.20383  0.71387  0.23832  1.0000
  Fe  Fe42      1.0  0.29915  0.67332  0.09786  1.0000
  C   C352      1.0  0.01228  0.55717  0.04469  1.0000
  C   C353      1.0  0.99752  0.56455  0.06676  1.0000
  C   C354      1.0  0.98958  0.55337  0.09549  1.0000
  C   C355      1.0  0.99656  0.53486  0.10256  1.0000
  C   C356      1.0  0.01177  0.52767  0.08144  1.0000
  C   C357      1.0  0.01960  0.53880  0.05238  1.0000
  H   H409      1.0  0.99217  0.57893  0.06152  1.0000
  H   H410      1.0  0.12379  0.55036  0.08530  1.0000
  H   H411      1.0  0.01742  0.51349  0.08736  1.0000
  Fe  Fe43      1.0  0.07691  0.52024  0.48620  1.0000
  C   C358      1.0  0.02947  0.54087  0.33941  1.0000
  C   C359      1.0  0.02073  0.53596  0.30428  1.0000
  C   C360      1.0  0.00439  0.54576  0.29185  1.0000
  C   C361      1.0  0.99660  0.56037  0.31465  1.0000
  C   C362      1.0  0.00565  0.56564  0.34931  1.0000
  C   C363      1.0  0.02197  0.55578  0.36192  1.0000
  H   H412      1.0  0.02666  0.52472  0.28634  1.0000
  C   C364      1.0  0.12590  0.64557  0.45146  1.0000
  H   H413      1.0  0.00004  0.57742  0.36629  1.0000
  H   H414      1.0  0.02879  0.55981  0.38886  1.0000
  C   C365      1.0  0.12672  0.58842  0.41801  1.0000
  C   C366      1.0  0.14480  0.59577  0.41749  1.0000
  C   C367      1.0  0.14990  0.60874  0.38848  1.0000
  C   C368      1.0  0.13684  0.61465  0.35994  1.0000
  C   C369      1.0  0.11882  0.60720  0.36039  1.0000
  C   C370      1.0  0.11377  0.59415  0.38921  1.0000
  H   H415      1.0  0.15495  0.59133  0.43951  1.0000
  H   H416      1.0  0.16391  0.61411  0.38814  1.0000
  H   H417      1.0  0.10865  0.61164  0.33840  1.0000
  H   H418      1.0  0.09982  0.58863  0.38924  1.0000
  H   H419      1.0  0.19938  0.70475  0.49865  1.0000
  H   H420      1.0  0.26176  0.74457  0.26820  1.0000
  C   C371      1.0  0.17246  0.68875  0.13091  1.0000
  H   H421      1.0  0.99306  0.50812  0.29975  1.0000
  C   C372      1.0  0.27545  0.73839  0.40511  1.0000
  H   H422      1.0  0.16229  0.65331  0.45397  1.0000
  H   H423      1.0  0.17364  0.69392  0.05547  1.0000
  C   C373      1.0  0.03359  0.55682  0.21977  1.0000
  C   C374      1.0  0.13573  0.51582  0.06107  1.0000
  C   C375      1.0  0.07305  0.50605  0.26670  1.0000
  H   H424      1.0  0.13063  0.68235  0.38890  1.0000
  C   C376      1.0  0.26051  0.67137  0.16103  1.0000
  C   C377      1.0  0.24446  0.68009  0.17685  1.0000
  C   C378      1.0  0.23603  0.67224  0.20953  1.0000
  C   C379      1.0  0.24372  0.65566  0.22676  1.0000
  C   C380      1.0  0.25990  0.64708  0.21116  1.0000
  C   C381      1.0  0.26825  0.65487  0.17831  1.0000
  H   H425      1.0  0.23839  0.69284  0.16356  1.0000
  H   H426      1.0  0.22355  0.67894  0.22126  1.0000
  H   H427      1.0  0.26585  0.63421  0.22429  1.0000
  H   H428      1.0  0.28048  0.64792  0.16600  1.0000
  C   C382      1.0  0.11753  0.54545  0.05734  1.0000
  C   C383      1.0  0.14689  0.54396  0.02505  1.0000
  H   H429      1.0  0.13366  0.63902  0.47657  1.0000
  C   C384      1.0  0.04759  0.52012  0.20359  1.0000
  H   H430      1.0  0.16435  0.70161  0.12050  1.0000
  S   S93       1.0  0.98569  0.52007  0.13579  1.0000
  H   H431      1.0  0.08479  0.51037  0.19374  1.0000
  H   H432      1.0  0.05246  0.50586  0.19620  1.0000
  H   H433      1.0  0.17620  0.74269  0.31506  1.0000
  H   H434      1.0  0.08806  0.55153  0.26145  1.0000
  H   H435      1.0  0.05716  0.56030  0.25656  1.0000
  H   H436      1.0  0.23005  0.73097  0.47301  1.0000
  H   H437      1.0  0.16156  0.67137  0.41753  1.0000
  H   H438      1.0  0.98139  0.52245  0.03099  1.0000
  H   H439      1.0  0.15502  0.64779  0.40495  1.0000
  C   C385      1.0  0.98448  0.53539  0.44104  1.0000
  C   C386      1.0  0.05049  0.55044  0.23694  1.0000
  H   H440      1.0  0.01054  0.54985  0.18185  1.0000
  H   H441      1.0  0.23803  0.72197  0.28999  1.0000
  C   C387      1.0  0.17590  0.74238  0.43026  1.0000
  C   C388      1.0  0.28484  0.72482  0.38223  1.0000
  H   H442      1.0  0.19269  0.71506  0.09978  1.0000
  H   H443      1.0  0.10947  0.67409  0.40939  1.0000
  H   H444      1.0  0.29754  0.66697  0.22383  1.0000
  C   C389      1.0  0.28222  0.72239  0.25533  1.0000
  H   H445      1.0  0.26818  0.72211  0.13573  1.0000
  H   H446      1.0  0.25166  0.73773  0.05686  1.0000
  C   C390      1.0  0.27602  0.70821  0.37064  1.0000
  H   H447      1.0  0.23407  0.71526  0.41225  1.0000
  H   H448      1.0  0.03120  0.53317  0.03577  1.0000
  H   H449      1.0  0.06589  0.51461  0.05890  1.0000
  H   H450      1.0  0.06163  0.50750  0.28809  1.0000
  H   H451      1.0  0.29053  0.73216  0.12914  1.0000
  H   H452      1.0  0.97785  0.55899  0.11160  1.0000
  H   H453      1.0  0.02304  0.51741  0.16725  1.0000
  C   C391      1.0  0.20045  0.66779  0.12014  1.0000
  C   C392      1.0  0.22780  0.64624  0.11201  1.0000
  H   H454      1.0  0.97751  0.58216  0.46392  1.0000
  H   H455      1.0  0.12595  0.63452  0.42813  1.0000
  N   N25       1.0  0.13067  0.53251  0.03630  1.0000
  N   N26       1.0  0.18916  0.68469  0.10690  1.0000
  C   C393      1.0  0.12169  0.50342  0.07359  1.0000
  H   H456      1.0  0.14709  0.70014  0.43128  1.0000
  C   C394      1.0  0.18736  0.73318  0.49423  1.0000
  H   H457      1.0  0.11366  0.55842  0.03993  1.0000
  H   H458      1.0  0.15411  0.55011  0.05089  1.0000
  C   C395      1.0  0.12419  0.66992  0.40284  1.0000
  C   C396      1.0  0.21670  0.66190  0.09975  1.0000
  H   H459      1.0  0.29201  0.73283  0.24571  1.0000
  H   H460      1.0  0.99272  0.53101  0.46742  1.0000
  C   C397      1.0  0.18253  0.68167  0.06630  1.0000
  H   H461      1.0  0.23205  0.62424  0.15503  1.0000
  H   H462      1.0  0.20164  0.71142  0.01531  1.0000
  C   C398      1.0  0.22310  0.63601  0.14489  1.0000
  H   H463      1.0  0.99803  0.54221  0.26428  1.0000
  C   C399      1.0  0.12491  0.51339  0.50664  1.0000
  C   C400      1.0  0.24820  0.71860  0.40473  1.0000
  H   H464      1.0  0.24525  0.68713  0.28982  1.0000
  C   C401      1.0  0.12706  0.67644  0.50600  1.0000
  H   H465      1.0  0.17418  0.66852  0.06374  1.0000
  H   H466      1.0  0.21290  0.70071  0.08862  1.0000
  H   H467      1.0  0.27493  0.67462  0.26823  1.0000
  H   H468      1.0  0.17643  0.69173  0.16170  1.0000
  H   H469      1.0  0.99406  0.56505  0.48532  1.0000
  H   H470      1.0  0.24045  0.64238  0.09662  1.0000
  C   C402      1.0  0.17041  0.73547  0.18105  1.0000
  C   C403      1.0  0.26487  0.72929  0.26806  1.0000
  C   C404      1.0  0.20082  0.70189  0.10837  1.0000
  H   H471      1.0  0.26328  0.74113  0.49274  1.0000
  S   S94       1.0  0.97535  0.57180  0.30102  1.0000
  H   H472      1.0  0.07470  0.54097  0.29949  1.0000
  H   H473      1.0  0.22119  0.66956  0.07451  1.0000
  H   H474      1.0  0.30155  0.74025  0.06768  1.0000
  H   H475      1.0  0.20400  0.63368  0.19187  1.0000
  H   H476      1.0  0.16274  0.67661  0.13029  1.0000
  C   C405      1.0  0.20893  0.73516  0.19488  1.0000
  H   H477      1.0  0.06505  0.50704  0.12892  1.0000
  H   H478      1.0  0.20646  0.70422  0.13830  1.0000
  C   C406      1.0  0.08956  0.52120  0.21514  1.0000
  C   C407      1.0  0.25770  0.70518  0.38160  1.0000
  H   H479      1.0  0.12390  0.65846  0.38020  1.0000
  C   C408      1.0  0.28679  0.70247  0.25481  1.0000
  C   C409      1.0  0.27293  0.68998  0.26791  1.0000
  C   C410      1.0  0.02373  0.54493  0.19477  1.0000
  C   C411      1.0  0.20726  0.64136  0.16559  1.0000
  C   C412      1.0  0.19601  0.65698  0.15355  1.0000
  Fe  Fe44      1.0  0.05363  0.55704  0.48853  1.0000
  H   H480      1.0  0.14365  0.54553  0.49867  1.0000
  H   H481      1.0  0.18412  0.66043  0.17133  1.0000
  H   H482      1.0  0.23109  0.67377  0.46645  1.0000
  H   H483      1.0  0.02788  0.57095  0.22654  1.0000
  N   N27       1.0  0.07591  0.52447  0.24653  1.0000
  H   H484      1.0  0.15547  0.73567  0.17580  1.0000
  H   H485      1.0  0.19417  0.68004  0.04553  1.0000
  C   C413      1.0  0.14082  0.71207  0.48647  1.0000
  H   H486      1.0  0.11100  0.64801  0.45921  1.0000
  H   H487      1.0  0.99460  0.53809  0.41754  1.0000
  H   H488      1.0  0.16602  0.51992  0.06560  1.0000
  C   C414      1.0  0.27664  0.73034  0.11504  1.0000
  C   C415      1.0  0.25695  0.73558  0.41761  1.0000
  H   H489      1.0  0.24074  0.73562  0.10341  1.0000
  H   H490      1.0  0.22383  0.73512  0.20053  1.0000
  C   C416      1.0  0.25547  0.68879  0.48478  1.0000
  H   H491      1.0  0.10329  0.51578  0.22681  1.0000
  H   H492      1.0  0.16141  0.51715  0.48921  1.0000
  H   H493      1.0  0.29553  0.69533  0.18098  1.0000
  C   C417      1.0  0.14115  0.69721  0.45925  1.0000
  N   N28       1.0  0.97264  0.55264  0.44904  1.0000
  H   H494      1.0  0.10421  0.53847  0.06402  1.0000
  C   C418      1.0  0.15437  0.51141  0.07368  1.0000
  H   H495      1.0  0.14611  0.72594  0.47899  1.0000
  C   C419      1.0  0.23810  0.68092  0.49039  1.0000
  C   C420      1.0  0.22887  0.74435  0.45559  1.0000
  H   H496      1.0  0.21886  0.74224  0.43097  1.0000
  C   C421      1.0  0.24948  0.74494  0.08537  1.0000
  H   H497      1.0  0.12444  0.49754  0.50462  1.0000
  H   H498      1.0  0.97166  0.56216  0.38919  1.0000
  H   H499      1.0  0.00864  0.49697  0.42045  1.0000
  H   H500      1.0  0.19560  0.74654  0.01634  1.0000
  S   S95       1.0  0.30149  0.69676  0.64712  1.0000
  C   C422      1.0  0.19798  0.73249  0.69238  1.0000
  H   H501      1.0  0.16535  0.74258  0.90800  1.0000
  C   C423      1.0  0.07160  0.51721  0.74686  1.0000
  H   H502      1.0  0.03201  0.49796  0.67167  1.0000
  S   S96       1.0  0.27051  0.65227  0.64254  1.0000
  H   H503      1.0  0.02668  0.50952  0.77655  1.0000
  H   H504      1.0  0.12145  0.68925  0.56189  1.0000
  H   H505      1.0  0.99795  0.50159  0.51734  1.0000
  H   H506      1.0  0.19455  0.72749  0.81418  1.0000
  H   H507      1.0  0.18927  0.73630  0.52477  1.0000
  C   C424      1.0  0.23674  0.73153  0.94082  1.0000
  Fe  Fe45      1.0  0.05905  0.54398  0.89949  1.0000
  S   S97       1.0  0.05966  0.57235  0.92976  1.0000
  S   S98       1.0  0.05116  0.54189  0.83624  1.0000
  Fe  Fe46      1.0  0.08650  0.56116  0.95671  1.0000
  S   S99       1.0  0.11150  0.57965  0.96840  1.0000
  H   H508      1.0  0.08371  0.62917  0.75588  1.0000
  H   H509      1.0  0.21251  0.66698  0.59088  1.0000
  S   S100      1.0  0.08703  0.53378  0.92255  1.0000
  S   S101      1.0  0.04282  0.52940  0.94534  1.0000
  Fe  Fe47      1.0  0.21201  0.66252  0.82796  1.0000
  S   S102      1.0  0.18724  0.65599  0.78975  1.0000
  S   S103      1.0  0.24222  0.66729  0.81383  1.0000
  Fe  Fe48      1.0  0.18787  0.67194  0.89791  1.0000
  S   S104      1.0  0.16091  0.66684  0.86570  1.0000
  S   S105      1.0  0.19167  0.68250  0.95939  1.0000
  Fe  Fe49      1.0  0.17620  0.64089  0.84233  1.0000
  S   S106      1.0  0.16116  0.61297  0.83417  1.0000
  Fe  Fe50      1.0  0.17396  0.68221  0.81610  1.0000
  S   S107      1.0  0.15961  0.70545  0.78050  1.0000
  S   S108      1.0  0.20243  0.64495  0.87815  1.0000
  S   S109      1.0  0.19927  0.68970  0.85066  1.0000
  H   H510      1.0  0.17613  0.73971  0.83795  1.0000
  S   S110      1.0  0.99922  0.51968  0.65286  1.0000
  C   C425      1.0  0.18685  0.70716  0.96104  1.0000
  C   C426      1.0  0.21237  0.70459  0.59397  1.0000
  C   C427      1.0  0.29990  0.61953  0.58792  1.0000
  H   H511      1.0  0.20511  0.70577  0.62231  1.0000
  H   H512      1.0  0.99485  0.51698  0.82960  1.0000
  C   C428      1.0  0.17670  0.71599  0.93075  1.0000
  H   H513      1.0  0.28503  0.70103  0.90808  1.0000
  H   H514      1.0  0.28759  0.67053  0.70959  1.0000
  C   C429      1.0  0.25430  0.72156  0.93850  1.0000
  H   H515      1.0  0.17122  0.70754  0.90702  1.0000
  C   C430      1.0  0.17426  0.71545  0.74586  1.0000
  C   C431      1.0  0.19271  0.70871  0.74221  1.0000
  H   H516      1.0  0.16987  0.51573  0.53872  1.0000
  C   C432      1.0  0.26433  0.69826  0.51519  1.0000
  H   H517      1.0  0.19793  0.69696  0.76003  1.0000
  Fe  Fe51      1.0  0.07083  0.52177  0.97187  1.0000
  C   C433      1.0  0.02150  0.55742  0.55718  1.0000
  C   C434      1.0  0.00479  0.56267  0.57550  1.0000
  C   C435      1.0  0.99778  0.55117  0.60498  1.0000
  C   C436      1.0  0.00764  0.53455  0.61651  1.0000
  C   C437      1.0  0.02442  0.52944  0.59845  1.0000
  C   C438      1.0  0.03126  0.54074  0.56862  1.0000
  H   H518      1.0  0.99731  0.57568  0.56701  1.0000
  H   H519      1.0  0.98484  0.55524  0.61891  1.0000
  H   H520      1.0  0.03217  0.51669  0.60748  1.0000
  H   H521      1.0  0.04422  0.53664  0.55482  1.0000
  C   C439      1.0  0.02786  0.54953  0.82874  1.0000
  C   C440      1.0  0.01990  0.54900  0.79139  1.0000
  C   C441      1.0  0.00072  0.55286  0.78580  1.0000
  C   C442      1.0  0.98951  0.55752  0.81755  1.0000
  C   C443      1.0  0.99768  0.55891  0.85465  1.0000
  C   C444      1.0  0.01681  0.55489  0.86027  1.0000
  H   H522      1.0  0.02849  0.54531  0.76684  1.0000
  H   H523      1.0  0.99460  0.55211  0.75692  1.0000
  H   H524      1.0  0.98914  0.56235  0.87933  1.0000
  H   H525      1.0  0.02290  0.55558  0.88916  1.0000
  C   C445      1.0  0.12525  0.58861  0.93067  1.0000
  C   C446      1.0  0.12426  0.58124  0.89289  1.0000
  C   C447      1.0  0.13568  0.58852  0.86381  1.0000
  C   C448      1.0  0.14793  0.60342  0.87207  1.0000
  C   C449      1.0  0.14882  0.61086  0.90979  1.0000
  C   C450      1.0  0.13765  0.60335  0.93901  1.0000
  H   H526      1.0  0.11484  0.56983  0.88614  1.0000
  H   H527      1.0  0.13491  0.58269  0.83470  1.0000
  H   H528      1.0  0.15819  0.62234  0.91648  1.0000
  H   H529      1.0  0.13853  0.60910  0.96818  1.0000
  Fe  Fe52      1.0  0.97274  0.52940  0.68187  1.0000
  C   C451      1.0  0.23015  0.74037  0.80666  1.0000
  H   H530      1.0  0.08555  0.50658  0.64731  1.0000
  C   C452      1.0  0.04823  0.52970  0.70134  1.0000
  C   C453      1.0  0.05446  0.51463  0.72632  1.0000
  H   H531      1.0  0.25479  0.69128  0.63168  1.0000
  H   H532      1.0  0.24480  0.71509  0.62325  1.0000
  Fe  Fe53      1.0  0.04558  0.55701  0.97775  1.0000
  C   C454      1.0  0.23856  0.69124  0.55873  1.0000
  N   N29       1.0  0.04313  0.49738  0.73063  1.0000
  C   C455      1.0  0.06970  0.60324  0.76544  1.0000
  C   C456      1.0  0.26250  0.65699  0.68983  1.0000
  C   C457      1.0  0.27373  0.66626  0.71719  1.0000
  C   C458      1.0  0.26728  0.66948  0.75503  1.0000
  C   C459      1.0  0.24950  0.66365  0.76563  1.0000
  C   C460      1.0  0.23810  0.65473  0.73803  1.0000
  C   C461      1.0  0.24466  0.65127  0.70030  1.0000
  H   H533      1.0  0.11108  0.51844  0.51738  1.0000
  H   H534      1.0  0.27620  0.67629  0.77630  1.0000
  H   H535      1.0  0.22444  0.65005  0.74605  1.0000
  H   H536      1.0  0.23598  0.64391  0.67941  1.0000
  H   H537      1.0  0.13042  0.51527  0.98438  1.0000
  H   H538      1.0  0.08948  0.60361  0.87083  1.0000
  H   H539      1.0  0.12857  0.52930  0.66574  1.0000
  H   H540      1.0  0.21885  0.71211  0.71364  1.0000
  C   C462      1.0  0.16769  0.73073  0.72261  1.0000
  C   C463      1.0  0.28742  0.74430  0.67195  1.0000
  C   C464      1.0  0.24154  0.69989  0.62844  1.0000
  H   H541      1.0  0.06400  0.60276  0.73608  1.0000
  H   H542      1.0  0.27508  0.69373  0.97364  1.0000
  H   H543      1.0  0.22734  0.69321  0.93099  1.0000
  H   H544      1.0  0.15344  0.73603  0.72541  1.0000
  C   C465      1.0  0.26156  0.68939  0.96039  1.0000
  H   H545      1.0  0.99295  0.52047  0.88159  1.0000
  H   H546      1.0  0.10789  0.51912  0.00520  1.0000
  C   C466      1.0  0.13375  0.70918  0.52332  1.0000
  H   H547      1.0  0.09918  0.66645  0.82907  1.0000
  S   S111      1.0  0.02992  0.57166  0.51976  1.0000
  C   C467      1.0  0.20454  0.71727  0.71573  1.0000
  N   N30       1.0  0.25615  0.70126  0.92623  1.0000
  C   C468      1.0  0.07332  0.58911  0.82890  1.0000
  H   H548      1.0  0.11516  0.63687  0.77289  1.0000
  H   H549      1.0  0.11403  0.62249  0.87696  1.0000
  H   H550      1.0  0.12819  0.64481  0.81440  1.0000
  H   H551      1.0  0.97433  0.58478  0.00206  1.0000
  H   H552      1.0  0.13361  0.72078  0.54432  1.0000
  H   H553      1.0  0.98579  0.54528  0.97891  1.0000
  H   H554      1.0  0.29418  0.73790  0.64586  1.0000
  C   C469      1.0  0.14077  0.54110  0.52902  1.0000
  H   H555      1.0  0.03521  0.52893  0.68523  1.0000
  H   H556      1.0  0.24057  0.67864  0.89881  1.0000
  S   S112      1.0  0.08168  0.54871  0.51447  1.0000
  H   H557      1.0  0.09320  0.63637  0.88786  1.0000
  H   H558      1.0  0.15709  0.53529  0.00789  1.0000
  C   C470      1.0  0.19026  0.73803  0.99258  1.0000
  H   H559      1.0  0.12448  0.61983  0.80711  1.0000
  H   H560      1.0  0.07700  0.65524  0.83388  1.0000
  S   S113      1.0  0.02061  0.57069  0.00629  1.0000
  C   C471      1.0  0.05850  0.54623  0.69702  1.0000
  H   H561      1.0  0.97447  0.51571  0.59001  1.0000
  C   C472      1.0  0.98774  0.51216  0.85622  1.0000
  Fe  Fe54      1.0  0.29696  0.66691  0.62674  1.0000
  S   S114      1.0  0.21344  0.74283  0.65989  1.0000
  H   H562      1.0  0.08305  0.56124  0.71462  1.0000
  H   H563      1.0  0.11837  0.53803  0.97965  1.0000
  N   N31       1.0  0.22941  0.69215  0.59700  1.0000
  H   H564      1.0  0.98684  0.58763  0.93720  1.0000
  C   C473      1.0  0.13388  0.52617  0.60446  1.0000
  C   C474      1.0  0.24956  0.73755  0.80742  1.0000
  H   H565      1.0  0.22220  0.73176  0.78655  1.0000
  C   C475      1.0  0.25609  0.69957  0.55170  1.0000
  C   C476      1.0  0.12692  0.69141  0.53310  1.0000
  H   H566      1.0  0.07057  0.57752  0.84862  1.0000
  C   C477      1.0  0.27073  0.69887  0.89625  1.0000
  H   H567      1.0  0.09459  0.53563  0.75901  1.0000
  H   H568      1.0  0.05335  0.55746  0.67763  1.0000
  C   C478      1.0  0.22397  0.67274  0.60913  1.0000
  H   H569      1.0  0.23463  0.69963  0.65715  1.0000
  H   H570      1.0  0.08161  0.51463  0.57715  1.0000
  C   C479      1.0  0.08170  0.53389  0.74260  1.0000
  H   H571      1.0  0.08801  0.65664  0.78750  1.0000
  H   H572      1.0  0.01678  0.51328  0.72887  1.0000
  H   H573      1.0  0.05737  0.57678  0.78226  1.0000
  H   H574      1.0  0.21582  0.71936  0.58509  1.0000
  C   C480      1.0  0.07519  0.54834  0.71771  1.0000
  H   H575      1.0  0.22370  0.72491  0.93341  1.0000
  H   H576      1.0  0.23380  0.70229  0.88383  1.0000
  C   C481      1.0  0.19357  0.71816  0.99209  1.0000
  H   H577      1.0  0.23606  0.66244  0.60763  1.0000
  H   H578      1.0  0.97270  0.51635  0.85206  1.0000
  C   C482      1.0  0.19165  0.73821  0.83721  1.0000
  H   H579      1.0  0.20208  0.69915  0.57240  1.0000
  H   H580      1.0  0.02303  0.51335  0.86296  1.0000
  C   C483      1.0  0.23865  0.69366  0.90933  1.0000
  H   H581      1.0  0.27109  0.68413  0.88369  1.0000
  H   H582      1.0  0.11467  0.64774  0.87693  1.0000
  C   C484      1.0  0.06595  0.58862  0.79128  1.0000
  C   C485      1.0  0.30383  0.61227  0.62485  1.0000
  H   H583      1.0  0.26329  0.67400  0.95238  1.0000
  C   C486      1.0  0.13686  0.51337  0.57280  1.0000
  H   H584      1.0  0.21891  0.67260  0.63957  1.0000
  H   H585      1.0  0.28406  0.72497  0.95048  1.0000
  H   H586      1.0  0.26390  0.70695  0.57397  1.0000
  H   H587      1.0  0.12156  0.66307  0.51554  1.0000
  N   N32       1.0  0.10034  0.63557  0.82713  1.0000
  C   C487      1.0  0.09068  0.65422  0.81899  1.0000
  C   C488      1.0  0.10568  0.63552  0.86904  1.0000
  C   C489      1.0  0.11772  0.63429  0.80438  1.0000
  C   C490      1.0  0.08825  0.61957  0.81569  1.0000
  C   C491      1.0  0.08425  0.60431  0.84123  1.0000
  C   C492      1.0  0.08081  0.61842  0.77724  1.0000
  H   H588      1.0  0.25602  0.72696  0.78842  1.0000
  H   H589      1.0  0.28701  0.62763  0.58238  1.0000
  C   C493      1.0  0.22971  0.68215  0.52670  1.0000
  H   H590      1.0  0.13352  0.54150  0.60097  1.0000
  H   H591      1.0  0.27763  0.73374  0.68359  1.0000
  H   H592      1.0  0.26814  0.70895  0.87171  1.0000
  C   C494      1.0  0.17338  0.73581  0.93129  1.0000
  C   C495      1.0  0.02481  0.50285  0.74739  1.0000
  S   S115      1.0  0.29900  0.73054  0.55844  1.0000
  H   H593      1.0  0.12714  0.54818  0.53632  1.0000
  C   C496      1.0  0.97493  0.53479  0.97604  1.0000
  N   N33       1.0  0.14012  0.51996  0.53269  1.0000
  H   H594      1.0  0.15201  0.54713  0.54766  1.0000
  C   C497      1.0  0.15817  0.51184  0.51876  1.0000
  H   H595      1.0  0.21614  0.67596  0.52939  1.0000
  H   H596      1.0  0.19658  0.73199  0.86538  1.0000
  C   C498      1.0  0.17951  0.73922  0.69578  1.0000
  C   C499      1.0  0.13102  0.51936  0.64202  1.0000
  C   C500      1.0  0.27032  0.73177  0.95014  1.0000
  C   C501      1.0  0.97184  0.58673  0.94073  1.0000
  H   H597      1.0  0.14248  0.55636  0.00635  1.0000
  S   S116      1.0  0.30186  0.67380  0.56420  1.0000
  H   H598      1.0  0.05507  0.50194  0.86953  1.0000
  C   C502      1.0  0.13100  0.49978  0.64917  1.0000
  C   C503      1.0  0.08426  0.49996  0.58591  1.0000
  H   H599      1.0  0.29394  0.61494  0.64794  1.0000
  C   C504      1.0  0.97249  0.52143  0.00557  1.0000
  H   H600      1.0  0.03199  0.49798  0.51694  1.0000
  H   H601      1.0  0.07750  0.50662  0.76657  1.0000
  C   C505      1.0  0.12144  0.52593  0.99993  1.0000
  C   C506      1.0  0.02531  0.49816  0.86659  1.0000
  H   H602      1.0  0.25083  0.69052  0.98335  1.0000
  S   S117      1.0  0.07240  0.54834  0.00823  1.0000
  H   H603      1.0  0.27786  0.70437  0.51062  1.0000
  H   H604      1.0  0.29876  0.74596  0.69399  1.0000
  H   H605      1.0  0.97121  0.51376  0.53849  1.0000
  H   H606      1.0  0.27570  0.74632  0.83257  1.0000
  C   C507      1.0  0.25901  0.75444  0.47689  1.0000
  C   C508      1.0  0.05410  0.98587  0.35249  1.0000
  C   C509      1.0  0.09250  0.89567  0.46717  1.0000
  H   H607      1.0  0.12451  0.93054  0.10763  1.0000
  C   C510      1.0  0.08316  0.96866  0.02142  1.0000
  H   H608      1.0  0.19444  0.78017  0.22721  1.0000
  H   H609      1.0  0.28281  0.75119  0.41283  1.0000
  S   S118      1.0  0.27995  0.81588  0.38349  1.0000
  C   C511      1.0  0.97821  0.93179  0.16003  1.0000
  Fe  Fe55      1.0  0.06567  0.91734  0.25349  1.0000
  S   S119      1.0  0.05340  0.94519  0.23264  1.0000
  S   S120      1.0  0.05280  0.90335  0.30502  1.0000
  Fe  Fe56      1.0  0.09835  0.91819  0.19910  1.0000
  S   S121      1.0  0.08861  0.94640  0.17359  1.0000
  S   S122      1.0  0.12673  0.90709  0.17913  1.0000
  Fe  Fe57      1.0  0.08260  0.95547  0.23453  1.0000
  H   H610      1.0  0.23643  0.76527  0.39173  1.0000
  Fe  Fe58      1.0  0.06007  0.93426  0.17319  1.0000
  S   S123      1.0  0.04070  0.94511  0.12545  1.0000
  S   S124      1.0  0.09467  0.92847  0.26069  1.0000
  S   S125      1.0  0.07002  0.90504  0.19343  1.0000
  Fe  Fe59      1.0  0.20249  0.78286  0.09624  1.0000
  S   S126      1.0  0.17321  0.78310  0.07265  1.0000
  C   C512      1.0  0.17293  0.75380  0.29395  1.0000
  Fe  Fe60      1.0  0.21373  0.81525  0.04377  1.0000
  H   H611      1.0  0.23668  0.77916  0.43563  1.0000
  H   H612      1.0  0.24103  0.75820  0.07976  1.0000
  Fe  Fe61      1.0  0.17429  0.81521  0.07722  1.0000
  S   S127      1.0  0.14670  0.82699  0.10058  1.0000
  Fe  Fe62      1.0  0.97733  0.90757  0.47416  1.0000
  C   C513      1.0  0.06737  0.90164  0.42033  1.0000
  S   S128      1.0  0.20304  0.81463  0.10501  1.0000
  H   H613      1.0  0.14352  0.75384  0.30467  1.0000
  C   C514      1.0  0.15450  0.76006  0.28792  1.0000
  H   H614      1.0  0.25150  0.76401  0.49768  1.0000
  C   C515      1.0  0.02915  0.90942  0.31219  1.0000
  C   C516      1.0  0.02142  0.90634  0.34863  1.0000
  C   C517      1.0  0.00276  0.91164  0.35562  1.0000
  C   C518      1.0  0.99153  0.91947  0.32577  1.0000
  C   C519      1.0  0.99914  0.92230  0.28908  1.0000
  C   C520      1.0  0.01798  0.91742  0.28236  1.0000
  H   H615      1.0  0.02985  0.89982  0.37158  1.0000
  H   H616      1.0  0.99701  0.90928  0.38396  1.0000
  H   H617      1.0  0.99045  0.92800  0.26571  1.0000
  H   H618      1.0  0.02369  0.91938  0.25384  1.0000
  C   C521      1.0  0.02642  0.92905  0.10064  1.0000
  C   C522      1.0  0.03053  0.90941  0.10051  1.0000
  C   C523      1.0  0.01933  0.89709  0.07851  1.0000
  C   C524      1.0  0.00386  0.90436  0.05721  1.0000
  C   C525      1.0  0.99951  0.92393  0.05837  1.0000
  C   C526      1.0  0.01091  0.93628  0.07958  1.0000
  H   H619      1.0  0.04247  0.90374  0.11683  1.0000
  H   H620      1.0  0.02268  0.88191  0.07782  1.0000
  H   H621      1.0  0.06277  0.90431  0.39062  1.0000
  H   H622      1.0  0.00763  0.95147  0.07985  1.0000
  C   C527      1.0  0.13246  0.88407  0.16075  1.0000
  C   C528      1.0  0.15060  0.88038  0.14711  1.0000
  C   C529      1.0  0.15534  0.86284  0.12914  1.0000
  C   C530      1.0  0.14191  0.84888  0.12463  1.0000
  C   C531      1.0  0.12389  0.85239  0.13908  1.0000
  C   C532      1.0  0.11919  0.86987  0.15725  1.0000
  H   H623      1.0  0.16097  0.89128  0.14990  1.0000
  H   H624      1.0  0.16927  0.86027  0.11825  1.0000
  H   H625      1.0  0.11345  0.84159  0.13579  1.0000
  H   H626      1.0  0.10521  0.87251  0.16781  1.0000
  C   C533      1.0  0.27344  0.81111  0.43159  1.0000
  C   C534      1.0  0.28630  0.80366  0.45898  1.0000
  H   H627      1.0  0.06760  0.98836  0.36794  1.0000
  H   H628      1.0  0.97701  0.96573  0.11148  1.0000
  C   C535      1.0  0.24907  0.81049  0.48031  1.0000
  C   C536      1.0  0.25489  0.81478  0.44258  1.0000
  H   H629      1.0  0.04435  0.98889  0.49194  1.0000
  H   H630      1.0  0.20135  0.75640  0.27652  1.0000
  H   H631      1.0  0.23467  0.81306  0.48824  1.0000
  H   H632      1.0  0.24492  0.82068  0.42158  1.0000
  H   H633      1.0  0.02132  0.93416  0.46659  1.0000
  H   H634      1.0  0.25794  0.77433  0.41058  1.0000
  C   C537      1.0  0.10246  0.97770  0.32107  1.0000
  H   H635      1.0  0.22217  0.75549  0.47436  1.0000
  C   C538      1.0  0.10880  0.94546  0.01958  1.0000
  C   C539      1.0  0.02973  0.96421  0.33752  1.0000
  H   H636      1.0  0.11567  0.97148  0.37670  1.0000
  H   H637      1.0  0.10454  0.96334  0.30999  1.0000
  S   S129      1.0  0.21537  0.78349  0.03738  1.0000
  S   S130      1.0  0.21523  0.76313  0.14191  1.0000
  Fe  Fe63      1.0  0.18611  0.78677  0.01453  1.0000
  H   H638      1.0  0.01726  0.97854  0.15375  1.0000
  N   N34       1.0  0.26751  0.74901  0.10498  1.0000
  C   C540      1.0  0.10879  0.98232  0.35877  1.0000
  C   C541      1.0  0.05437  0.90005  0.44970  1.0000
  S   S131      1.0  0.18507  0.81881  0.01655  1.0000
  C   C542      1.0  0.26195  0.80306  0.50760  1.0000
  H   H639      1.0  0.27707  0.80551  0.03778  1.0000
  C   C543      1.0  0.09855  0.90485  0.08859  1.0000
  H   H640      1.0  0.07360  0.95356  0.37165  1.0000
  H   H641      1.0  0.01366  0.85976  0.34797  1.0000
  H   H642      1.0  0.25914  0.78557  0.07974  1.0000
  H   H643      1.0  0.17561  0.75617  0.13659  1.0000
  N   N35       1.0  0.24739  0.75021  0.44191  1.0000
  C   C544      1.0  0.98797  0.84909  0.36990  1.0000
  N   N36       1.0  0.04651  0.96702  0.36262  1.0000
  H   H644      1.0  0.30067  0.80100  0.45094  1.0000
  H   H645      1.0  0.98743  0.92957  0.04268  1.0000
  C   C545      1.0  0.28063  0.80004  0.49710  1.0000
  C   C546      1.0  0.29567  0.75435  0.06230  1.0000
  C   C547      1.0  0.10027  0.93381  0.04755  1.0000
  H   H646      1.0  0.99487  0.84102  0.39313  1.0000
  C   C548      1.0  0.06085  0.95214  0.35299  1.0000
  N   N37       1.0  0.15894  0.79599  0.20596  1.0000
  C   C549      1.0  0.15057  0.81343  0.22401  1.0000
  C   C550      1.0  0.17505  0.80200  0.18280  1.0000
  C   C551      1.0  0.14503  0.78780  0.17858  1.0000
  C   C552      1.0  0.16409  0.78181  0.23646  1.0000
  C   C553      1.0  0.18282  0.77527  0.24371  1.0000
  C   C554      1.0  0.15010  0.77396  0.25986  1.0000
  H   H647      1.0  0.02433  0.94953  0.33963  1.0000
  C   C555      1.0  0.26389  0.75930  0.14204  1.0000
  C   C556      1.0  0.27218  0.77966  0.06894  1.0000
  H   H648      1.0  0.16046  0.81986  0.24532  1.0000
  H   H649      1.0  0.14687  0.82455  0.20176  1.0000
  H   H650      1.0  0.13750  0.81048  0.23954  1.0000
  H   H651      1.0  0.18577  0.80910  0.20116  1.0000
  H   H652      1.0  0.17070  0.81259  0.16011  1.0000
  H   H653      1.0  0.18175  0.78966  0.16741  1.0000
  H   H654      1.0  0.15034  0.77411  0.16596  1.0000
  H   H655      1.0  0.13153  0.78499  0.19252  1.0000
  H   H656      1.0  0.14163  0.79763  0.15393  1.0000
  C   C557      1.0  0.99858  0.85964  0.34460  1.0000
  S   S132      1.0  0.97490  0.93611  0.44483  1.0000
  C   C558      1.0  0.03285  0.94884  0.41787  1.0000
  H   H657      1.0  0.99806  0.87889  0.29618  1.0000
  H   H658      1.0  0.05570  0.93743  0.35681  1.0000
  N   N38       1.0  0.10988  0.91606  0.06151  1.0000
  C   C559      1.0  0.12741  0.92106  0.08221  1.0000
  C   C560      1.0  0.07958  0.89370  0.49776  1.0000
  H   H659      1.0  0.06095  0.96235  0.06013  1.0000
  H   H660      1.0  0.13725  0.92854  0.06331  1.0000
  C   C561      1.0  0.04577  0.97976  0.43215  1.0000
  C   C562      1.0  0.08637  0.89957  0.42909  1.0000
  S   S133      1.0  0.99086  0.88897  0.02756  1.0000
  H   H661      1.0  0.01820  0.97441  0.34540  1.0000
  H   H662      1.0  0.13560  0.77830  0.25624  1.0000
  H   H663      1.0  0.05044  0.97607  0.17880  1.0000
  H   H664      1.0  0.13505  0.90812  0.09358  1.0000
  H   H665      1.0  0.99312  0.92938  0.15651  1.0000
  H   H666      1.0  0.08493  0.90093  0.07526  1.0000
  H   H667      1.0  0.12112  0.88950  0.03821  1.0000
  H   H668      1.0  0.10193  0.90003  0.01067  1.0000
  H   H669      1.0  0.07525  0.93281  0.08373  1.0000
  C   C563      1.0  0.07432  0.95756  0.04870  1.0000
  C   C564      1.0  0.18176  0.74715  0.15900  1.0000
  C   C565      1.0  0.08271  0.94042  0.06188  1.0000
  H   H670      1.0  0.25597  0.75047  0.16261  1.0000
  C   C566      1.0  0.18706  0.76152  0.27218  1.0000
  H   H671      1.0  0.27716  0.76340  0.15680  1.0000
  H   H672      1.0  0.98200  0.94928  0.20950  1.0000
  H   H673      1.0  0.02447  0.99159  0.11258  1.0000
  C   C567      1.0  0.02810  0.94695  0.45689  1.0000
  C   C568      1.0  0.98976  0.87042  0.31538  1.0000
  S   S134      1.0  0.24008  0.83001  0.02741  1.0000
  H   H674      1.0  0.25521  0.77257  0.13785  1.0000
  S   S135      1.0  0.17222  0.76954  0.48747  1.0000
  H   H675      1.0  0.02968  0.93715  0.39854  1.0000
  H   H676      1.0  0.10741  0.89414  0.47176  1.0000
  H   H677      1.0  0.03954  0.90153  0.44300  1.0000
  C   C569      1.0  0.03213  0.96139  0.48344  1.0000
  C   C570      1.0  0.06034  0.89625  0.48784  1.0000
  C   C571      1.0  0.27865  0.76094  0.07911  1.0000
  C   C572      1.0  0.24451  0.76798  0.41899  1.0000
  C   C573      1.0  0.04164  0.96540  0.40413  1.0000
  C   C574      1.0  0.28231  0.79120  0.04443  1.0000
  S   S136      1.0  0.00377  0.89582  0.50241  1.0000
  H   H678      1.0  0.06528  0.95317  0.32219  1.0000
  H   H679      1.0  0.10585  0.89124  0.09717  1.0000
  H   H680      1.0  0.03280  0.96629  0.30620  1.0000
  C   C575      1.0  0.04097  0.97774  0.47112  1.0000
  H   H681      1.0  0.09602  0.91274  0.11624  1.0000
  H   H682      1.0  0.09642  0.90083  0.40605  1.0000
  S   S137      1.0  0.08495  0.98647  0.25107  1.0000
  H   H683      1.0  0.27193  0.76198  0.46965  1.0000
  H   H684      1.0  0.05592  0.98720  0.13388  1.0000
  H   H685      1.0  0.00206  0.99207  0.20586  1.0000
  H   H686      1.0  0.07681  0.98208  0.01164  1.0000
  H   H687      1.0  0.05291  0.99262  0.42489  1.0000
  C   C576      1.0  0.02023  0.99320  0.14343  1.0000
  C   C577      1.0  0.05222  0.99011  0.16465  1.0000
  H   H688      1.0  0.05710  0.98684  0.32092  1.0000
  H   H689      1.0  0.16927  0.75291  0.41119  1.0000
  C   C578      1.0  0.09376  0.99177  0.29773  1.0000
  C   C579      1.0  0.11461  0.90335  0.02823  1.0000
  C   C580      1.0  0.97157  0.94321  0.19056  1.0000
  C   C581      1.0  0.17903  0.74689  0.46957  1.0000
  C   C582      1.0  0.29900  0.78440  0.02865  1.0000
  C   C583      1.0  0.20095  0.74738  0.16656  1.0000
  H   H690      1.0  0.03347  0.89498  0.94929  1.0000
  H   H691      1.0  0.00743  0.93600  0.98505  1.0000
  H   H692      1.0  0.17777  0.77179  0.85829  1.0000
  C   C584      1.0  0.28049  0.86694  0.79717  1.0000
  H   H693      1.0  0.05988  0.95852  0.94663  1.0000
  C   C585      1.0  0.24897  0.82423  0.98127  1.0000
  C   C586      1.0  0.26064  0.74835  0.83232  1.0000
  S   S138      1.0  0.27224  0.81172  0.86042  1.0000
  H   H694      1.0  0.02443  0.90780  0.98987  1.0000
  Fe  Fe64      1.0  0.06211  0.90676  0.76211  1.0000
  S   S139      1.0  0.05765  0.93740  0.74571  1.0000
  S   S140      1.0  0.04881  0.89578  0.81653  1.0000
  Fe  Fe65      1.0  0.08687  0.89797  0.69224  1.0000
  S   S141      1.0  0.08426  0.92835  0.67062  1.0000
  S   S142      1.0  0.09864  0.87443  0.65265  1.0000
  Fe  Fe66      1.0  0.08806  0.93684  0.73319  1.0000
  S   S143      1.0  0.10156  0.96448  0.74961  1.0000
  Fe  Fe67      1.0  0.05407  0.92666  0.68500  1.0000
  S   S144      1.0  0.03225  0.94201  0.64817  1.0000
  S   S145      1.0  0.09331  0.90664  0.75427  1.0000
  S   S146      1.0  0.05586  0.89582  0.70208  1.0000
  Fe  Fe68      1.0  0.20352  0.76696  0.62047  1.0000
  S   S147      1.0  0.17528  0.77935  0.60295  1.0000
  H   H695      1.0  0.01453  0.95465  0.86073  1.0000
  Fe  Fe69      1.0  0.22468  0.79367  0.56766  1.0000
  H   H696      1.0  0.99266  0.97402  0.70190  1.0000
  S   S148      1.0  0.25521  0.79729  0.55504  1.0000
  Fe  Fe70      1.0  0.18870  0.80816  0.60772  1.0000
  S   S149      1.0  0.17988  0.83454  0.64278  1.0000
  Fe  Fe71      1.0  0.18701  0.77903  0.54241  1.0000
  C   C587      1.0  0.08625  0.96393  0.86232  1.0000
  S   S150      1.0  0.21611  0.79551  0.62974  1.0000
  S   S151      1.0  0.21396  0.76428  0.55972  1.0000
  H   H697      1.0  0.05939  0.97130  0.69033  1.0000
  H   H698      1.0  0.03350  0.98308  0.62480  1.0000
  C   C588      1.0  0.02574  0.90373  0.82535  1.0000
  C   C589      1.0  0.01662  0.89712  0.85822  1.0000
  C   C590      1.0  0.99886  0.90454  0.86783  1.0000
  C   C591      1.0  0.99010  0.91852  0.84446  1.0000
  C   C592      1.0  0.99896  0.92472  0.81098  1.0000
  C   C593      1.0  0.01670  0.91728  0.80133  1.0000
  H   H699      1.0  0.02339  0.88634  0.87647  1.0000
  H   H700      1.0  0.26356  0.86850  0.90648  1.0000
  H   H701      1.0  0.99216  0.93541  0.79260  1.0000
  H   H702      1.0  0.02340  0.92205  0.77539  1.0000
  C   C594      1.0  0.02510  0.92933  0.60688  1.0000
  C   C595      1.0  0.01332  0.93837  0.57931  1.0000
  C   C596      1.0  0.00648  0.92810  0.54730  1.0000
  C   C597      1.0  0.01174  0.90887  0.54251  1.0000
  C   C598      1.0  0.02376  0.89992  0.56977  1.0000
  C   C599      1.0  0.03040  0.91013  0.60201  1.0000
  C   C600      1.0  0.19454  0.76361  0.79085  1.0000
  H   H703      1.0  0.99228  0.89540  0.62387  1.0000
  H   H704      1.0  0.02766  0.88497  0.56628  1.0000
  H   H705      1.0  0.03944  0.90305  0.62328  1.0000
  C   C601      1.0  0.12126  0.86330  0.65138  1.0000
  C   C602      1.0  0.12436  0.84795  0.62552  1.0000
  C   C603      1.0  0.14213  0.83888  0.62275  1.0000
  C   C604      1.0  0.15708  0.84516  0.64568  1.0000
  C   C605      1.0  0.15398  0.86056  0.67144  1.0000
  C   C606      1.0  0.13617  0.86955  0.67439  1.0000
  H   H706      1.0  0.11293  0.84295  0.60764  1.0000
  H   H707      1.0  0.14429  0.82707  0.60282  1.0000
  H   H708      1.0  0.16542  0.86555  0.68930  1.0000
  H   H709      1.0  0.13402  0.88136  0.69434  1.0000
  C   C607      1.0  0.26374  0.81579  0.90759  1.0000
  C   C608      1.0  0.27525  0.82286  0.93718  1.0000
  C   C609      1.0  0.26775  0.82759  0.97350  1.0000
  H   H710      1.0  0.08639  0.91865  0.55571  1.0000
  C   C610      1.0  0.23758  0.81654  0.95208  1.0000
  C   C611      1.0  0.24487  0.81274  0.91508  1.0000
  S   S152      1.0  0.17710  0.77174  0.96006  1.0000
  H   H711      1.0  0.24341  0.83621  0.65744  1.0000
  H   H712      1.0  0.22302  0.81408  0.95770  1.0000
  H   H713      1.0  0.23580  0.80760  0.89216  1.0000
  H   H714      1.0  0.28984  0.82500  0.93201  1.0000
  H   H715      1.0  0.22743  0.78606  0.73672  1.0000
  C   C612      1.0  0.26375  0.75873  0.63094  1.0000
  C   C613      1.0  0.09685  0.97143  0.79772  1.0000
  C   C614      1.0  0.08978  0.95835  0.82391  1.0000
  H   H716      1.0  0.11112  0.87364  0.52554  1.0000
  C   C615      1.0  0.19333  0.77058  0.85906  1.0000
  C   C616      1.0  0.18030  0.74686  0.96191  1.0000
  H   H717      1.0  0.08751  0.94376  0.81482  1.0000
  C   C617      1.0  0.99821  0.99502  0.79055  1.0000
  C   C618      1.0  0.99127  0.99180  0.75293  1.0000
  H   H718      1.0  0.06084  0.87341  0.55291  1.0000
  C   C619      1.0  0.25160  0.76032  0.96348  1.0000
  H   H719      1.0  0.99796  0.91410  0.65766  1.0000
  N   N39       1.0  0.20058  0.75668  0.82987  1.0000
  H   H720      1.0  0.99459  0.96984  0.86873  1.0000
  H   H721      1.0  0.07220  0.99459  0.73527  1.0000
  H   H722      1.0  0.25060  0.77516  0.97275  1.0000
  H   H723      1.0  0.19854  0.75338  0.76744  1.0000
  C   C620      1.0  0.25404  0.78778  0.76620  1.0000
  H   H724      1.0  0.03499  0.92869  0.89239  1.0000
  H   H725      1.0  0.07818  0.98595  0.67443  1.0000
  H   H726      1.0  0.10976  0.88230  0.57419  1.0000
  H   H727      1.0  0.99725  0.93508  0.52621  1.0000
  C   C621      1.0  0.06356  0.98178  0.66800  1.0000
  H   H728      1.0  0.25272  0.81787  0.62538  1.0000
  C   C622      1.0  0.26721  0.86819  0.87512  1.0000
  C   C623      1.0  0.29127  0.77598  0.64646  1.0000
  C   C624      1.0  0.01889  0.96727  0.78416  1.0000
  C   C625      1.0  0.23551  0.75061  0.95324  1.0000
  C   C626      1.0  0.25233  0.76192  0.85668  1.0000
  H   H729      1.0  0.08386  0.90212  0.59508  1.0000
  H   H730      1.0  0.26861  0.82077  0.68544  1.0000
  H   H731      1.0  0.28341  0.89442  0.91606  1.0000
  S   S153      1.0  0.19854  0.80871  0.54578  1.0000
  H   H732      1.0  0.23986  0.77143  0.67870  1.0000
  C   C627      1.0  0.29724  0.82319  0.69977  1.0000
  C   C628      1.0  0.99816  0.97654  0.73094  1.0000
  Fe  Fe72      1.0  0.30352  0.81000  0.85228  1.0000
  C   C629      1.0  0.07976  0.90513  0.56425  1.0000
  C   C630      1.0  0.05858  0.91952  0.97706  1.0000
  C   C631      1.0  0.04699  0.92407  0.91135  1.0000
  H   H733      1.0  0.02582  0.98200  0.67387  1.0000
  C   C632      1.0  0.10005  0.99022  0.81001  1.0000
  C   C633      1.0  0.30383  0.87338  0.74913  1.0000
  H   H734      1.0  0.06443  0.90785  0.56383  1.0000
  C   C634      1.0  0.04005  0.97832  0.97026  1.0000
  H   H735      1.0  0.08144  0.95358  0.88272  1.0000
  C   C635      1.0  0.01012  0.96912  0.87124  1.0000
  H   H736      1.0  0.06404  0.90482  0.97051  1.0000
  H   H737      1.0  0.26102  0.77044  0.87580  1.0000
  H   H738      1.0  0.04621  0.99226  0.83188  1.0000
  H   H739      1.0  0.27989  0.85322  0.56753  1.0000
  H   H740      1.0  0.06396  0.97389  0.63985  1.0000
  H   H741      1.0  0.05882  0.93337  0.90504  1.0000
  C   C636      1.0  0.01105  0.96569  0.99172  1.0000
  H   H742      1.0  0.17906  0.76557  0.78857  1.0000
  H   H743      1.0  0.10714  0.97132  0.98549  1.0000
  H   H744      1.0  0.30252  0.76319  0.50895  1.0000
  H   H745      1.0  0.99198  0.89943  0.89331  1.0000
  H   H746      1.0  0.97883  0.93475  0.61224  1.0000
  H   H747      1.0  0.27659  0.83368  0.99585  1.0000
  H   H748      1.0  0.27057  0.75270  0.60454  1.0000
  C   C637      1.0  0.01695  0.94734  0.98014  1.0000
  C   C638      1.0  0.22118  0.75400  0.83127  1.0000
  C   C639      1.0  0.04608  0.96001  0.95871  1.0000
  H   H749      1.0  0.22747  0.77538  0.87624  1.0000
  H   H750      1.0  0.98085  0.96774  0.60181  1.0000
  H   H751      1.0  0.29072  0.79465  0.51836  1.0000
  C   C640      1.0  0.10591  0.88587  0.54347  1.0000
  H   H752      1.0  0.02856  0.95983  0.51370  1.0000
  C   C641      1.0  0.02804  0.90930  0.95873  1.0000
  H   H753      1.0  0.08113  0.86696  0.58057  1.0000
  H   H754      1.0  0.25802  0.84249  0.55888  1.0000
  C   C642      1.0  0.23291  0.76473  0.85640  1.0000
  C   C643      1.0  0.07623  0.87150  0.55103  1.0000
  H   H755      1.0  0.23734  0.83634  0.60715  1.0000
  H   H756      1.0  0.98853  0.89226  0.67455  1.0000
  N   N40       1.0  0.26555  0.84521  0.62004  1.0000
  H   H757      1.0  0.05145  0.90944  0.90162  1.0000
  H   H758      1.0  0.28217  0.78734  0.78850  1.0000
  N   N41       1.0  0.04181  0.92450  0.95291  1.0000
  H   H759      1.0  0.29583  0.86033  0.92206  1.0000
  C   C644      1.0  0.01202  0.96437  0.74640  1.0000
  N   N42       1.0  0.08542  0.88913  0.53826  1.0000
  C   C645      1.0  0.26921  0.77097  0.69795  1.0000
  H   H760      1.0  0.28013  0.90441  0.86821  1.0000
  H   H761      1.0  0.26519  0.85314  0.86562  1.0000
  H   H762      1.0  0.02902  0.95691  0.79534  1.0000
  H   H763      1.0  0.29800  0.77000  0.61989  1.0000
  C   C646      1.0  0.24913  0.83338  0.62806  1.0000
  H   H764      1.0  0.00938  0.95329  0.58289  1.0000
  C   C647      1.0  0.28125  0.82771  0.67737  1.0000
  H   H765      1.0  0.27101  0.87543  0.61797  1.0000
  H   H766      1.0  0.20084  0.77754  0.78411  1.0000
  C   C648      1.0  0.27314  0.78387  0.76403  1.0000
  C   C649      1.0  0.01225  0.98271  0.80745  1.0000
  H   H767      1.0  0.28148  0.75847  0.96985  1.0000
  C   C650      1.0  0.08911  0.98277  0.87447  1.0000
  H   H768      1.0  0.04911  0.99035  0.96691  1.0000
  C   C651      1.0  0.24235  0.78320  0.73500  1.0000
  C   C652      1.0  0.27052  0.84218  0.57865  1.0000
  C   C653      1.0  0.29929  0.86085  0.89067  1.0000
  C   C654      1.0  0.26896  0.75091  0.96190  1.0000
  H   H769      1.0  0.25613  0.77202  0.62141  1.0000
  H   H770      1.0  0.11378  0.89886  0.53639  1.0000
  H   H771      1.0  0.29554  0.77266  0.73049  1.0000
  H   H772      1.0  0.19728  0.76608  0.88916  1.0000
  H   H773      1.0  0.17435  0.75099  0.67795  1.0000
  C   C655      1.0  0.29209  0.87414  0.82751  1.0000
  H   H774      1.0  0.01493  0.91215  0.94173  1.0000
  H   H775      1.0  0.24835  0.79423  0.79231  1.0000
  H   H776      1.0  0.19843  0.78523  0.85411  1.0000
  C   C656      1.0  0.28195  0.84056  0.64545  1.0000
  H   H777      1.0  0.01717  0.95235  0.72925  1.0000
  H   H778      1.0  0.29812  0.84616  0.87868  1.0000
  H   H779      1.0  0.27774  0.82803  0.57448  1.0000
  C   C657      1.0  0.03476  0.94388  0.96363  1.0000
  C   C658      1.0  0.24974  0.77486  0.70142  1.0000
  C   C659      1.0  0.09588  0.99599  0.84818  1.0000
  N   N43       1.0  0.27760  0.76266  0.66241  1.0000
  C   C660      1.0  0.28065  0.77552  0.73059  1.0000
  H   H780      1.0  0.07923  0.85939  0.53084  1.0000
  H   H781      1.0  0.04458  0.96766  0.84545  1.0000
  C   C661      1.0  0.02264  0.98114  0.98703  1.0000
  H   H782      1.0  0.97210  0.91471  0.58388  1.0000
  C   C662      1.0  0.98760  0.90293  0.65072  1.0000
  H   H783      1.0  0.07020  0.92941  0.97219  1.0000
  H   H784      1.0  0.25600  0.86844  0.65633  1.0000
  H   H785      1.0  0.22198  0.75793  0.95491  1.0000
  N   N44       1.0  0.28667  0.87422  0.86886  1.0000
  H   H786      1.0  0.28438  0.78986  0.63818  1.0000
  H   H787      1.0  0.24736  0.86948  0.60701  1.0000
  H   H788      1.0  0.26696  0.86117  0.80254  1.0000
  H   H789      1.0  0.30092  0.85914  0.61524  1.0000
  C   C663      1.0  0.28636  0.86667  0.75858  1.0000
  H   H790      1.0  0.01828  0.99530  0.99681  1.0000
  H   H791      1.0  0.01398  0.97001  0.90258  1.0000
  C   C664      1.0  0.25977  0.86552  0.62559  1.0000
  H   H792      1.0  0.27739  0.86098  0.73595  1.0000
  H   H793      1.0  0.04967  0.89512  0.50944  1.0000
  H   H794      1.0  0.25688  0.87767  0.85950  1.0000
  N   N45       1.0  0.01860  0.98448  0.84847  1.0000
  C   C665      1.0  0.03207  0.99152  0.65214  1.0000
  C   C666      1.0  0.28841  0.89369  0.88560  1.0000
  S   S154      1.0  0.08418  0.98904  0.92283  1.0000
  C   C667      1.0  0.03929  0.98238  0.85191  1.0000
  H   H795      1.0  0.04456  0.98557  0.88181  1.0000
  H   H796      1.0  0.25337  0.74823  0.64025  1.0000
  H   H797      1.0  0.30312  0.89835  0.88685  1.0000
  C   C668      1.0  0.29939  0.84899  0.63850  1.0000
  H   H798      1.0  0.99755  0.96780  0.00515  1.0000
  H   H799      1.0  0.30278  0.77904  0.66746  1.0000
  H   H800      1.0  0.29661  0.81316  0.72365  1.0000
  H   H801      1.0  0.05522  0.92015  0.00857  1.0000
  H   H802      1.0  0.12491  0.90967  0.00859  1.0000
  H   H803      1.0  0.12230  0.94163  0.00789  1.0000
  C   C669      1.0  0.10031  0.96258  0.00675  1.0000
  Fe  Fe73      1.0  0.46485  0.05714  0.01053  1.0000
  Fe  Fe74      1.0  0.34026  0.16555  0.31803  1.0000
  S   S155      1.0  0.36809  0.14896  0.32571  1.0000
  H   H804      1.0  0.42749  0.11397  0.06965  1.0000
  S   S156      1.0  0.34611  0.19511  0.29609  1.0000
  H   H805      1.0  0.57236  0.99726  0.17640  1.0000
  H   H806      1.0  0.33636  0.22683  0.25055  1.0000
  S   S157      1.0  0.47799  0.07326  0.06041  1.0000
  Fe  Fe75      1.0  0.43280  0.06971  0.44068  1.0000
  S   S158      1.0  0.43572  0.04090  0.41161  1.0000
  S   S159      1.0  0.40483  0.08643  0.44070  1.0000
  C   C670      1.0  0.56826  0.00804  0.30927  1.0000
  S   S160      1.0  0.47718  0.03643  0.45336  1.0000
  Fe  Fe76      1.0  0.46505  0.04928  0.39882  1.0000
  S   S161      1.0  0.47992  0.03846  0.34546  1.0000
  H   H807      1.0  0.61282  0.10239  0.12932  1.0000
  S   S162      1.0  0.46144  0.07899  0.42324  1.0000
  Fe  Fe77      1.0  0.57185  0.05241  0.15788  1.0000
  S   S163      1.0  0.57478  0.08251  0.17974  1.0000
  S   S164      1.0  0.55968  0.04183  0.10138  1.0000
  Fe  Fe78      1.0  0.58830  0.03436  0.23100  1.0000
  S   S165      1.0  0.59285  0.06271  0.25968  1.0000
  H   H808      1.0  0.42360  0.14642  0.06229  1.0000
  Fe  Fe79      1.0  0.56433  0.07055  0.23581  1.0000
  S   S166      1.0  0.54306  0.08692  0.27132  1.0000
  Fe  Fe80      1.0  0.60320  0.07246  0.20155  1.0000
  C   C671      1.0  0.33608  0.22215  0.47304  1.0000
  S   S167      1.0  0.55895  0.04137  0.21172  1.0000
  S   S168      1.0  0.60107  0.04319  0.17501  1.0000
  H   H809      1.0  0.50149  0.04357  0.02660  1.0000
  H   H810      1.0  0.50926  0.04202  0.50520  1.0000
  H   H811      1.0  0.56290  0.02017  0.29278  1.0000
  C   C672      1.0  0.49816  0.05215  0.32843  1.0000
  C   C673      1.0  0.51375  0.04284  0.31219  1.0000
  C   C674      1.0  0.52791  0.05347  0.29582  1.0000
  C   C675      1.0  0.52614  0.07338  0.29410  1.0000
  C   C676      1.0  0.51057  0.08267  0.31049  1.0000
  C   C677      1.0  0.49672  0.07209  0.32822  1.0000
  H   H812      1.0  0.51492  0.02737  0.31243  1.0000
  H   H813      1.0  0.54002  0.04625  0.28391  1.0000
  H   H814      1.0  0.50918  0.09810  0.30935  1.0000
  H   H815      1.0  0.48465  0.07934  0.34052  1.0000
  C   C678      1.0  0.50086  0.06490  0.07165  1.0000
  C   C679      1.0  0.50891  0.04974  0.05071  1.0000
  C   C680      1.0  0.52675  0.04254  0.06075  1.0000
  C   C681      1.0  0.53708  0.05095  0.09073  1.0000
  C   C682      1.0  0.52927  0.06638  0.11141  1.0000
  C   C683      1.0  0.51110  0.07325  0.10203  1.0000
  H   H816      1.0  0.62383  0.12456  0.07884  1.0000
  H   H817      1.0  0.53259  0.03044  0.04510  1.0000
  H   H818      1.0  0.53720  0.07301  0.13459  1.0000
  H   H819      1.0  0.50506  0.08513  0.11813  1.0000
  C   C684      1.0  0.36953  0.23909  0.11128  1.0000
  C   C685      1.0  0.44683  0.00504  0.33785  1.0000
  H   H820      1.0  0.44407  0.01688  0.07274  1.0000
  C   C686      1.0  0.37743  0.13042  0.35617  1.0000
  C   C687      1.0  0.39619  0.12444  0.35160  1.0000
  C   C688      1.0  0.40472  0.11071  0.37663  1.0000
  C   C689      1.0  0.39458  0.10290  0.40678  1.0000
  C   C690      1.0  0.37578  0.10882  0.41121  1.0000
  C   C691      1.0  0.36718  0.12236  0.38587  1.0000
  H   H821      1.0  0.40426  0.13057  0.32871  1.0000
  H   H822      1.0  0.41918  0.10635  0.37289  1.0000
  H   H823      1.0  0.36779  0.10279  0.43435  1.0000
  H   H824      1.0  0.35270  0.12666  0.38953  1.0000
  C   C692      1.0  0.52416  0.07774  0.43230  1.0000
  C   C693      1.0  0.42170  0.14833  0.03134  1.0000
  H   H825      1.0  0.46649  0.02514  0.23540  1.0000
  C   C694      1.0  0.62624  0.10895  0.13275  1.0000
  C   C695      1.0  0.38015  0.19567  0.42835  1.0000
  C   C696      1.0  0.39650  0.16548  0.41569  1.0000
  H   H826      1.0  0.36529  0.20302  0.11524  1.0000
  C   C697      1.0  0.32281  0.23682  0.15770  1.0000
  C   C698      1.0  0.36233  0.18186  0.07177  1.0000
  H   H827      1.0  0.56821  0.03152  0.39332  1.0000
  C   C699      1.0  0.36402  0.21616  0.05719  1.0000
  S   S169      1.0  0.32228  0.20149  0.19100  1.0000
  H   H828      1.0  0.52080  0.03721  0.16094  1.0000
  H   H829      1.0  0.55683  0.07977  0.36095  1.0000
  H   H830      1.0  0.35852  0.23336  0.13000  1.0000
  H   H831      1.0  0.35992  0.16546  0.40162  1.0000
  C   C700      1.0  0.63254  0.12150  0.10416  1.0000
  H   H832      1.0  0.38916  0.15681  0.48820  1.0000
  H   H833      1.0  0.50438  0.06256  0.18200  1.0000
  H   H834      1.0  0.39286  0.16567  0.38419  1.0000
  S   S170      1.0  0.59614  0.00526  0.25541  1.0000
  C   C701      1.0  0.49596  0.02291  0.18146  1.0000
  C   C702      1.0  0.48697  0.00508  0.17936  1.0000
  H   H835      1.0  0.40235  0.17212  0.03971  1.0000
  H   H836      1.0  0.50435  0.10059  0.44452  1.0000
  H   H837      1.0  0.39837  0.15007  0.42354  1.0000
  C   C703      1.0  0.50018  0.05527  0.20902  1.0000
  C   C704      1.0  0.38754  0.17232  0.48104  1.0000
  S   S171      1.0  0.31868  0.17635  0.36097  1.0000
  C   C705      1.0  0.36415  0.20080  0.08423  1.0000
  Fe  Fe81      1.0  0.44769  0.03010  0.46836  1.0000
  C   C706      1.0  0.38243  0.21094  0.45527  1.0000
  C   C707      1.0  0.53333  0.03697  0.41535  1.0000
  H   H838      1.0  0.45308  0.01193  0.31223  1.0000
  H   H839      1.0  0.33952  0.20957  0.49018  1.0000
  H   H840      1.0  0.46088  0.03649  0.16988  1.0000
  C   C708      1.0  0.54574  0.08364  0.38062  1.0000
  H   H841      1.0  0.44167  0.09450  0.05261  1.0000
  H   H842      1.0  0.52511  0.03765  0.38769  1.0000
  H   H843      1.0  0.51611  0.12192  0.39361  1.0000
  C   C709      1.0  0.56218  0.04611  0.38753  1.0000
  C   C710      1.0  0.33136  0.22023  0.43349  1.0000
  C   C711      1.0  0.33368  0.23493  0.22440  1.0000
  Fe  Fe82      1.0  0.32347  0.19018  0.25205  1.0000
  H   H844      1.0  0.52326  0.03856  0.43935  1.0000
  C   C712      1.0  0.45896  0.12812  0.04270  1.0000
  H   H845      1.0  0.56819  0.06225  0.45707  1.0000
  N   N46       1.0  0.48701  0.03960  0.20106  1.0000
  C   C713      1.0  0.37266  0.21983  0.37839  1.0000
  H   H846      1.0  0.49398  0.06676  0.22768  1.0000
  H   H847      1.0  0.57418  0.05587  0.38819  1.0000
  C   C714      1.0  0.52265  0.10794  0.39829  1.0000
  H   H848      1.0  0.47369  0.00296  0.19287  1.0000
  H   H849      1.0  0.37302  0.18988  0.36753  1.0000
  Fe  Fe83      1.0  0.47146  0.06525  0.47920  1.0000
  H   H850      1.0  0.36443  0.15083  0.44309  1.0000
  C   C715      1.0  0.53920  0.07094  0.40924  1.0000
  H   H851      1.0  0.36220  0.17040  0.09293  1.0000
  H   H852      1.0  0.53954  0.02222  0.41801  1.0000
  H   H853      1.0  0.35873  0.16296  0.02271  1.0000
  N   N47       1.0  0.38206  0.17528  0.43961  1.0000
  C   C716      1.0  0.51599  0.09591  0.42672  1.0000
  S   S172      1.0  0.32238  0.23477  0.36114  1.0000
  H   H854      1.0  0.55779  0.05191  0.01989  1.0000
  C   C717      1.0  0.62568  0.06600  0.49759  1.0000
  H   H855      1.0  0.38314  0.23207  0.11951  1.0000
  C   C718      1.0  0.36395  0.16594  0.43295  1.0000
  H   H856      1.0  0.41026  0.17233  0.41922  1.0000
  H   H857      1.0  0.45244  0.01225  0.36409  1.0000
  H   H858      1.0  0.54241  0.11102  0.35253  1.0000
  C   C719      1.0  0.53755  0.10186  0.37545  1.0000
  H   H859      1.0  0.58320  0.01003  0.13821  1.0000
  C   C720      1.0  0.37523  0.20072  0.38951  1.0000
  C   C721      1.0  0.44027  0.00274  0.08179  1.0000
  H   H860      1.0  0.35248  0.17367  0.44839  1.0000
  H   H861      1.0  0.46699  0.13860  0.02590  1.0000
  N   N48       1.0  0.54783  0.05175  0.41639  1.0000
  H   H862      1.0  0.48956  0.02576  0.25682  1.0000
  C   C722      1.0  0.51304  0.02424  0.16141  1.0000
  H   H863      1.0  0.47710  0.05162  0.14675  1.0000
  H   H864      1.0  0.46466  0.06006  0.18873  1.0000
  C   C723      1.0  0.36027  0.17763  0.03236  1.0000
  H   H865      1.0  0.56336  0.03722  0.46219  1.0000
  H   H866      1.0  0.31713  0.22997  0.13213  1.0000
  C   C724      1.0  0.47906  0.03395  0.23885  1.0000
  S   S173      1.0  0.31905  0.15990  0.27006  1.0000
  Fe  Fe84      1.0  0.32326  0.20526  0.33507  1.0000
  C   C725      1.0  0.40952  0.16310  0.01875  1.0000
  C   C726      1.0  0.32646  0.22605  0.19121  1.0000
  H   H867      1.0  0.54697  0.05506  0.47872  1.0000
  C   C727      1.0  0.43287  0.10704  0.04287  1.0000
  C   C728      1.0  0.55700  0.05155  0.45531  1.0000
  C   C729      1.0  0.32750  0.23652  0.41102  1.0000
  H   H868      1.0  0.54634  0.00957  0.35130  1.0000
  H   H869      1.0  0.51850  0.06908  0.45490  1.0000
  C   C730      1.0  0.47173  0.04728  0.17559  1.0000
  H   H870      1.0  0.51303  0.04980  0.22423  1.0000
  H   H871      1.0  0.47440  0.04656  0.25642  1.0000
  H   H872      1.0  0.33119  0.20622  0.42020  1.0000
  H   H873      1.0  0.55613  0.04596  0.35749  1.0000
  H   H874      1.0  0.39354  0.23858  0.05061  1.0000
  H   H875      1.0  0.42068  0.10146  0.02637  1.0000
  C   C731      1.0  0.55897  0.00206  0.34252  1.0000
  H   H876      1.0  0.45388  0.13544  0.06933  1.0000
  H   H877      1.0  0.46898  0.11659  0.05279  1.0000
  C   C732      1.0  0.52053  0.00877  0.14056  1.0000
  H   H878      1.0  0.53336  0.01046  0.12486  1.0000
  C   C733      1.0  0.37493  0.23444  0.40547  1.0000
  H   H879      1.0  0.38582  0.20863  0.48559  1.0000
  H   H880      1.0  0.43153  0.00833  0.33715  1.0000
  C   C734      1.0  0.37984  0.23001  0.44377  1.0000
  H   H881      1.0  0.36842  0.22335  0.34880  1.0000
  S   S174      1.0  0.63065  0.08817  0.20110  1.0000
  H   H882      1.0  0.38107  0.24142  0.46501  1.0000
  H   H883      1.0  0.37679  0.17840  0.50089  1.0000
  H   H884      1.0  0.40122  0.17881  0.48796  1.0000
  S   S175      1.0  0.44275  0.05810  0.49900  1.0000
  H   H885      1.0  0.45156  0.00592  0.13958  1.0000
  C   C735      1.0  0.33685  0.24033  0.49017  1.0000
  H   H886      1.0  0.56484  0.99744  0.09135  1.0000
  N   N49       1.0  0.36511  0.23646  0.06927  1.0000
  N   N50       1.0  0.44354  0.12029  0.01868  1.0000
  C   C736      1.0  0.36168  0.21131  0.01730  1.0000
  S   S176      1.0  0.44247  0.99955  0.48644  1.0000
  H   H887      1.0  0.62310  0.03719  0.47647  1.0000
  H   H888      1.0  0.34280  0.24515  0.02979  1.0000
  C   C737      1.0  0.63741  0.10479  0.16549  1.0000
  C   C738      1.0  0.58442  0.99822  0.29728  1.0000
  C   C739      1.0  0.37977  0.24618  0.04728  1.0000
  C   C740      1.0  0.61681  0.04861  0.49364  1.0000
  H   H889      1.0  0.33556  0.23981  0.07769  1.0000
  C   C741      1.0  0.34690  0.24622  0.06093  1.0000
  S   S177      1.0  0.36314  0.20329  0.77082  1.0000
  Fe  Fe85      1.0  0.34955  0.16578  0.89236  1.0000
  S   S178      1.0  0.36407  0.14684  0.93783  1.0000
  H   H890      1.0  0.36724  0.22333  0.69920  1.0000
  S   S179      1.0  0.35582  0.19684  0.88375  1.0000
  C   C742      1.0  0.57325  0.09907  0.54787  1.0000
  H   H891      1.0  0.33849  0.23155  0.80663  1.0000
  N   N51       1.0  0.32674  0.10373  0.85882  1.0000
  Fe  Fe86      1.0  0.43911  0.06133  0.93986  1.0000
  S   S180      1.0  0.44274  0.03019  0.92405  1.0000
  S   S181      1.0  0.42389  0.08119  0.89712  1.0000
  C   C743      1.0  0.37268  0.07434  0.85953  1.0000
  C   C744      1.0  0.32788  0.11034  0.81794  1.0000
  Fe  Fe87      1.0  0.47307  0.03404  0.93778  1.0000
  S   S182      1.0  0.49667  0.02062  0.90378  1.0000
  C   C745      1.0  0.35770  0.08600  0.84640  1.0000
  S   S183      1.0  0.46994  0.06544  0.94883  1.0000
  Fe  Fe88      1.0  0.56814  0.04762  0.66215  1.0000
  S   S184      1.0  0.56142  0.07715  0.68386  1.0000
  S   S185      1.0  0.55903  0.03521  0.60427  1.0000
  Fe  Fe89      1.0  0.58988  0.03725  0.73581  1.0000
  S   S186      1.0  0.58514  0.06624  0.76285  1.0000
  H   H892      1.0  0.32769  0.09816  0.79711  1.0000
  Fe  Fe90      1.0  0.55570  0.06310  0.74067  1.0000
  S   S187      1.0  0.52938  0.07228  0.77158  1.0000
  Fe  Fe91      1.0  0.59151  0.07767  0.70340  1.0000
  S   S188      1.0  0.60573  0.10595  0.69293  1.0000
  S   S189      1.0  0.56006  0.03342  0.71742  1.0000
  S   S190      1.0  0.59864  0.04878  0.67805  1.0000
  C   C746      1.0  0.60308  0.11102  0.56738  1.0000
  H   H893      1.0  0.58000  0.07385  0.60482  1.0000
  H   H894      1.0  0.55833  0.08946  0.82827  1.0000
  C   C747      1.0  0.50573  0.03517  0.86734  1.0000
  C   C748      1.0  0.52261  0.02981  0.84993  1.0000
  C   C749      1.0  0.53005  0.04111  0.82057  1.0000
  C   C750      1.0  0.52042  0.05766  0.80802  1.0000
  C   C751      1.0  0.50350  0.06302  0.82545  1.0000
  C   C752      1.0  0.49625  0.05189  0.85524  1.0000
  H   H895      1.0  0.53005  0.01705  0.85965  1.0000
  H   H896      1.0  0.54328  0.03716  0.80781  1.0000
  H   H897      1.0  0.49604  0.07589  0.81601  1.0000
  H   H898      1.0  0.48325  0.05619  0.86855  1.0000
  C   C753      1.0  0.51097  0.06727  0.54079  1.0000
  C   C754      1.0  0.60061  0.07838  0.53942  1.0000
  C   C755      1.0  0.53163  0.03925  0.54784  1.0000
  C   C756      1.0  0.54076  0.04776  0.57956  1.0000
  C   C757      1.0  0.53526  0.06620  0.59105  1.0000
  C   C758      1.0  0.52058  0.07597  0.57154  1.0000
  H   H899      1.0  0.38437  0.07115  0.84071  1.0000
  C   C759      1.0  0.35856  0.07188  0.92226  1.0000
  H   H900      1.0  0.54222  0.07304  0.61501  1.0000
  H   H901      1.0  0.51633  0.09020  0.58091  1.0000
  C   C760      1.0  0.35344  0.22516  0.75422  1.0000
  S   S191      1.0  0.34431  0.15977  0.82889  1.0000
  H   H902      1.0  0.43905  0.02356  0.55544  1.0000
  C   C761      1.0  0.37999  0.12808  0.92564  1.0000
  C   C762      1.0  0.38645  0.11534  0.95474  1.0000
  C   C763      1.0  0.39981  0.10082  0.94644  1.0000
  C   C764      1.0  0.40697  0.09907  0.90903  1.0000
  C   C765      1.0  0.40038  0.11169  0.87990  1.0000
  C   C766      1.0  0.38688  0.12608  0.88807  1.0000
  H   H903      1.0  0.38114  0.11679  0.98386  1.0000
  H   H904      1.0  0.40444  0.09088  0.96877  1.0000
  H   H905      1.0  0.40578  0.11036  0.85083  1.0000
  H   H906      1.0  0.38210  0.13584  0.86547  1.0000
  H   H907      1.0  0.49021  0.05194  0.62299  1.0000
  C   C767      1.0  0.55860  0.08092  0.85456  1.0000
  H   H908      1.0  0.34961  0.23454  0.91618  1.0000
  H   H909      1.0  0.57674  0.03009  0.81216  1.0000
  H   H910      1.0  0.57559  0.02632  0.99240  1.0000
  C   C768      1.0  0.49212  0.03791  0.60994  1.0000
  H   H911      1.0  0.57960  0.02530  0.94155  1.0000
  C   C769      1.0  0.45217  0.10884  0.98698  1.0000
  C   C770      1.0  0.58112  0.01672  0.82561  1.0000
  C   C771      1.0  0.41544  0.15459  0.95213  1.0000
  C   C772      1.0  0.59186  0.06054  0.53437  1.0000
  H   H912      1.0  0.31783  0.18790  0.58278  1.0000
  C   C773      1.0  0.37312  0.06732  0.89733  1.0000
  H   H913      1.0  0.30969  0.22218  0.56423  1.0000
  Fe  Fe92      1.0  0.32506  0.20233  0.89065  1.0000
  H   H914      1.0  0.38504  0.05873  0.90755  1.0000
  H   H915      1.0  0.44368  0.01456  0.72623  1.0000
  C   C774      1.0  0.61781  0.08071  0.52016  1.0000
  C   C775      1.0  0.32906  0.21657  0.62727  1.0000
  H   H916      1.0  0.56342  0.08704  0.54781  1.0000
  H   H917      1.0  0.58840  0.04485  0.97046  1.0000
  H   H918      1.0  0.33694  0.21529  0.59972  1.0000
  Fe  Fe93      1.0  0.34784  0.19141  0.82131  1.0000
  H   H919      1.0  0.56275  0.02038  0.87375  1.0000
  H   H920      1.0  0.56588  0.07128  0.99172  1.0000
  H   H921      1.0  0.61723  0.10784  0.58009  1.0000
  H   H922      1.0  0.60328  0.08101  0.61667  1.0000
  C   C776      1.0  0.62931  0.12939  0.65490  1.0000
  H   H923      1.0  0.45909  0.02828  0.84586  1.0000
  H   H924      1.0  0.54424  0.02355  0.92973  1.0000
  S   S192      1.0  0.31926  0.17191  0.90456  1.0000
  H   H925      1.0  0.44143  0.10164  0.96873  1.0000
  H   H926      1.0  0.39654  0.17727  0.96940  1.0000
  H   H927      1.0  0.32959  0.23183  0.63638  1.0000
  H   H928      1.0  0.36076  0.22221  0.99512  1.0000
  C   C777      1.0  0.54274  0.08021  0.87725  1.0000
  H   H929      1.0  0.54146  0.06608  0.99181  1.0000
  C   C778      1.0  0.34129  0.23606  0.77738  1.0000
  C   C779      1.0  0.48467  0.01536  0.55884  1.0000
  C   C780      1.0  0.54278  0.06881  0.91052  1.0000
  C   C781      1.0  0.55577  0.05947  0.99175  1.0000
  C   C782      1.0  0.55885  0.05782  0.92217  1.0000
  C   C783      1.0  0.34261  0.09098  0.87116  1.0000
  H   H930      1.0  0.52924  0.03970  0.95577  1.0000
  C   C784      1.0  0.51914  0.00737  0.74757  1.0000
  H   H931      1.0  0.30872  0.16661  0.75497  1.0000
  C   C785      1.0  0.57639  0.03530  0.96583  1.0000
  H   H932      1.0  0.51376  0.02899  0.65028  1.0000
  C   C786      1.0  0.35990  0.19234  0.00521  1.0000
  H   H933      1.0  0.35913  0.06664  0.95188  1.0000
  H   H934      1.0  0.43786  0.01538  0.62541  1.0000
  C   C787      1.0  0.51662  0.04889  0.52875  1.0000
  H   H935      1.0  0.33270  0.08689  0.93013  1.0000
  C   C788      1.0  0.40634  0.16615  0.97921  1.0000
  H   H936      1.0  0.54368  0.02270  0.98149  1.0000
  H   H937      1.0  0.30903  0.08024  0.84506  1.0000
  H   H938      1.0  0.58697  0.07100  0.84758  1.0000
  C   C789      1.0  0.34350  0.08350  0.90949  1.0000
  C   C790      1.0  0.45444  0.03205  0.81681  1.0000
  H   H939      1.0  0.47164  0.04337  0.56485  1.0000
  H   H940      1.0  0.53007  0.06860  0.92696  1.0000
  H   H941      1.0  0.53584  0.02501  0.53868  1.0000
  N   N52       1.0  0.59193  0.09345  0.56405  1.0000
  Fe  Fe94      1.0  0.31445  0.16814  0.84062  1.0000
  C   C791      1.0  0.32616  0.12092  0.88408  1.0000
  H   H942      1.0  0.32115  0.21958  0.69877  1.0000
  C   C792      1.0  0.45202  0.01783  0.78780  1.0000
  C   C793      1.0  0.57464  0.07039  0.86526  1.0000
  C   C794      1.0  0.50534  0.02492  0.62529  1.0000
  C   C795      1.0  0.32394  0.24466  0.94166  1.0000
  H   H943      1.0  0.49807  0.00831  0.70230  1.0000
  C   C796      1.0  0.44604  0.02425  0.75026  1.0000
  H   H944      1.0  0.59150  0.00739  0.64277  1.0000
  H   H945      1.0  0.52102  0.02273  0.74735  1.0000
  C   C797      1.0  0.35772  0.23164  0.71706  1.0000
  H   H946      1.0  0.31584  0.12006  0.80970  1.0000
  H   H947      1.0  0.35850  0.09117  0.81700  1.0000
  H   H948      1.0  0.34067  0.11864  0.81331  1.0000
  S   S193      1.0  0.34401  0.24245  0.53900  1.0000
  H   H949      1.0  0.56649  0.11072  0.56528  1.0000
  H   H950      1.0  0.46077  0.11777  0.96793  1.0000
  H   H951      1.0  0.44242  0.07229  0.76606  1.0000
  H   H952      1.0  0.32344  0.11753  0.91493  1.0000
  C   C798      1.0  0.54331  0.03261  0.95628  1.0000
  H   H953      1.0  0.41257  0.15676  0.92138  1.0000
  H   H954      1.0  0.58772  0.05109  0.90473  1.0000
  C   C799      1.0  0.31000  0.19007  0.61016  1.0000
  C   C800      1.0  0.44276  0.04370  0.74265  1.0000
  C   C801      1.0  0.45085  0.05142  0.80902  1.0000
  C   C802      1.0  0.44510  0.05724  0.77197  1.0000
  H   H955      1.0  0.33702  0.20760  0.64887  1.0000
  H   H956      1.0  0.53954  0.00268  0.79243  1.0000
  H   H957      1.0  0.63514  0.08107  0.65973  1.0000
  C   C803      1.0  0.57487  0.05897  0.89850  1.0000
  H   H958      1.0  0.31496  0.13134  0.87465  1.0000
  H   H959      1.0  0.47625  0.01273  0.53320  1.0000
  C   C804      1.0  0.48173  0.03308  0.57701  1.0000
  H   H960      1.0  0.61985  0.14081  0.66403  1.0000
  C   C805      1.0  0.34303  0.24531  0.93423  1.0000
  H   H961      1.0  0.45247  0.06200  0.83190  1.0000
  S   S194      1.0  0.31749  0.19910  0.82767  1.0000
  H   H962      1.0  0.33971  0.12829  0.88368  1.0000
  S   S195      1.0  0.49224  0.08002  0.51823  1.0000
  C   C806      1.0  0.42756  0.13970  0.96433  1.0000
  H   H963      1.0  0.60463  0.11808  0.53873  1.0000
  Fe  Fe95      1.0  0.43988  0.02468  0.98795  1.0000
  H   H964      1.0  0.43822  0.04828  0.71384  1.0000
  H   H965      1.0  0.35794  0.18898  0.97462  1.0000
  N   N53       1.0  0.55871  0.04640  0.95827  1.0000
  H   H966      1.0  0.58377  0.09718  0.62370  1.0000
  C   C807      1.0  0.58963  0.08600  0.60388  1.0000
  C   C808      1.0  0.62557  0.11040  0.66464  1.0000
  C   C809      1.0  0.43916  0.00874  0.56428  1.0000
  H   H967      1.0  0.53021  0.08820  0.86835  1.0000
  C   C810      1.0  0.57321  0.01118  0.86061  1.0000
  S   S196      1.0  0.31052  0.22565  0.92471  1.0000
  H   H968      1.0  0.59645  0.12183  0.58705  1.0000
  H   H969      1.0  0.57878  0.05770  0.54816  1.0000
  S   S197      1.0  0.60489  0.01215  0.76457  1.0000
  S   S198      1.0  0.47048  0.02591  0.00029  1.0000
  H   H970      1.0  0.43361  0.13097  0.94160  1.0000
  H   H971      1.0  0.62561  0.09369  0.52230  1.0000
  C   C811      1.0  0.43850  0.00407  0.60393  1.0000
  H   H972      1.0  0.48499  0.99982  0.79272  1.0000
  H   H973      1.0  0.31686  0.18089  0.63289  1.0000
  C   C812      1.0  0.30889  0.09368  0.86248  1.0000
  C   C813      1.0  0.59498  0.00524  0.80859  1.0000
  H   H974      1.0  0.47682  0.00127  0.84144  1.0000
  C   C814      1.0  0.50626  0.99929  0.72211  1.0000
  C   C815      1.0  0.59995  0.04587  0.51209  1.0000
  H   H975      1.0  0.51830  0.99734  0.62122  1.0000
  H   H976      1.0  0.58839  0.00205  0.69288  1.0000
  N   N54       1.0  0.30946  0.21042  0.62231  1.0000
  C   C816      1.0  0.43103  0.13608  0.00451  1.0000
  H   H977      1.0  0.57425  0.10423  0.51744  1.0000
  H   H978      1.0  0.46171  0.09738  0.99876  1.0000
  C   C817      1.0  0.50809  0.00699  0.60788  1.0000
  S   S199      1.0  0.43364  0.05557  0.00290  1.0000
  C   C818      1.0  0.49805  0.00176  0.57366  1.0000
  C   C819      1.0  0.30648  0.21703  0.69485  1.0000
  H   H979      1.0  0.44385  0.99960  0.85512  1.0000
  N   N55       1.0  0.45526  0.99737  0.79739  1.0000
  H   H980      1.0  0.30595  0.08988  0.89304  1.0000
  S   S200      1.0  0.42524  0.99846  0.00825  1.0000
  C   C820      1.0  0.63779  0.09575  0.65230  1.0000
  H   H981      1.0  0.59320  0.03222  0.50953  1.0000
  Fe  Fe96      1.0  0.34626  0.34341  0.09543  1.0000
  S   S201      1.0  0.35971  0.37254  0.09846  1.0000
  H   H982      1.0  0.34727  0.26175  0.06804  1.0000
  H   H983      1.0  0.37655  0.35286  0.16575  1.0000
  S   S202      1.0  0.36180  0.31521  0.10093  1.0000
  Fe  Fe97      1.0  0.46741  0.45094  0.20162  1.0000
  S   S203      1.0  0.46893  0.42315  0.23468  1.0000
  S   S204      1.0  0.48708  0.46325  0.15837  1.0000
  Fe  Fe98      1.0  0.43534  0.46715  0.24877  1.0000
  S   S205      1.0  0.43356  0.44078  0.28458  1.0000
  C   C821      1.0  0.61351  0.42820  0.29721  1.0000
  Fe  Fe99      1.0  0.46470  0.44146  0.28775  1.0000
  S   S206      1.0  0.47751  0.44094  0.34782  1.0000
  Fe  Fe100     1.0  0.43739  0.42456  0.22866  1.0000
  S   S207      1.0  0.42044  0.39759  0.22476  1.0000
  S   S208      1.0  0.46617  0.46897  0.25542  1.0000
  S   S209      1.0  0.43625  0.45123  0.19194  1.0000
  H   H984      1.0  0.40008  0.36326  0.21474  1.0000
  H   H985      1.0  0.50276  0.47578  0.03152  1.0000
  H   H986      1.0  0.34424  0.34344  0.48489  1.0000
  Fe  Fe101     1.0  0.57384  0.42112  0.42891  1.0000
  S   S210      1.0  0.32257  0.33470  0.13311  1.0000
  S   S211      1.0  0.56266  0.41770  0.36768  1.0000
  H   H987      1.0  0.30736  0.31359  0.48226  1.0000
  S   S212      1.0  0.53320  0.40639  0.05057  1.0000
  H   H988      1.0  0.60185  0.49296  0.43136  1.0000
  H   H989      1.0  0.45452  0.48864  0.17260  1.0000
  H   H990      1.0  0.35418  0.44316  0.17629  1.0000
  S   S213      1.0  0.60184  0.43374  0.43994  1.0000
  H   H991      1.0  0.52534  0.36730  0.47124  1.0000
  C   C822      1.0  0.63031  0.35848  0.38052  1.0000
  C   C823      1.0  0.58993  0.48079  0.06473  1.0000
  C   C824      1.0  0.57599  0.47093  0.08347  1.0000
  C   C825      1.0  0.57012  0.47685  0.12038  1.0000
  H   H992      1.0  0.31917  0.28691  0.26362  1.0000
  C   C826      1.0  0.62614  0.37094  0.41149  1.0000
  H   H993      1.0  0.56974  0.45873  0.06956  1.0000
  C   C827      1.0  0.50144  0.43550  0.35087  1.0000
  C   C828      1.0  0.50971  0.42215  0.32577  1.0000
  C   C829      1.0  0.52864  0.41686  0.33081  1.0000
  C   C830      1.0  0.53930  0.42507  0.36069  1.0000
  C   C831      1.0  0.53113  0.43885  0.38494  1.0000
  C   C832      1.0  0.51215  0.44383  0.38044  1.0000
  H   H994      1.0  0.50134  0.41539  0.30345  1.0000
  H   H995      1.0  0.53492  0.40610  0.31211  1.0000
  H   H996      1.0  0.53940  0.44556  0.40736  1.0000
  H   H997      1.0  0.50573  0.45418  0.39983  1.0000
  C   C833      1.0  0.49958  0.44740  0.12796  1.0000
  C   C834      1.0  0.51416  0.45431  0.10571  1.0000
  C   C835      1.0  0.52472  0.44183  0.08215  1.0000
  C   C836      1.0  0.52050  0.42245  0.08019  1.0000
  C   C837      1.0  0.50595  0.41556  0.10252  1.0000
  C   C838      1.0  0.49555  0.42798  0.12650  1.0000
  H   H998      1.0  0.51745  0.46930  0.10701  1.0000
  H   H999      1.0  0.53611  0.44719  0.06552  1.0000
  H   H1000     1.0  0.50268  0.40056  0.10116  1.0000
  H   H1001     1.0  0.48432  0.42254  0.14353  1.0000
  Fe  Fe102     1.0  0.58849  0.44717  0.49255  1.0000
  S   S214      1.0  0.58041  0.39450  0.46311  1.0000
  H   H1002     1.0  0.60842  0.38351  0.33386  1.0000
  S   S215      1.0  0.32164  0.29474  0.08183  1.0000
  C   C839      1.0  0.35328  0.35342  0.50144  1.0000
  H   H1003     1.0  0.62030  0.39414  0.25817  1.0000
  H   H1004     1.0  0.32384  0.26454  0.13130  1.0000
  C   C840      1.0  0.37770  0.37858  0.13195  1.0000
  C   C841      1.0  0.38621  0.39637  0.12859  1.0000
  C   C842      1.0  0.39975  0.40221  0.15601  1.0000
  C   C843      1.0  0.40466  0.39041  0.18751  1.0000
  C   C844      1.0  0.39632  0.37253  0.19059  1.0000
  C   C845      1.0  0.38300  0.36656  0.16283  1.0000
  H   H1005     1.0  0.38223  0.40570  0.10468  1.0000
  H   H1006     1.0  0.40629  0.41583  0.15275  1.0000
  N   N56       1.0  0.62041  0.40949  0.31263  1.0000
  N   N57       1.0  0.53697  0.44576  0.22570  1.0000
  C   C846      1.0  0.53216  0.46535  0.21180  1.0000
  C   C847      1.0  0.51922  0.43576  0.23151  1.0000
  C   C848      1.0  0.54660  0.44712  0.26413  1.0000
  C   C849      1.0  0.54941  0.43610  0.19736  1.0000
  C   C850      1.0  0.54380  0.42027  0.17433  1.0000
  C   C851      1.0  0.56752  0.44305  0.19088  1.0000
  C   C852      1.0  0.55565  0.41208  0.14661  1.0000
  C   C853      1.0  0.57921  0.43479  0.16296  1.0000
  C   C854      1.0  0.57325  0.41939  0.14076  1.0000
  H   H1007     1.0  0.44224  0.42651  0.49022  1.0000
  S   S216      1.0  0.58560  0.41853  0.02734  1.0000
  H   H1008     1.0  0.33298  0.27060  0.48088  1.0000
  H   H1009     1.0  0.51055  0.43554  0.20441  1.0000
  H   H1010     1.0  0.51034  0.44310  0.25357  1.0000
  H   H1011     1.0  0.52184  0.42081  0.24149  1.0000
  H   H1012     1.0  0.53707  0.45274  0.28700  1.0000
  H   H1013     1.0  0.55146  0.48586  0.50692  1.0000
  H   H1014     1.0  0.55218  0.43287  0.27381  1.0000
  H   H1015     1.0  0.53016  0.41422  0.17625  1.0000
  H   H1016     1.0  0.57238  0.45559  0.20590  1.0000
  H   H1017     1.0  0.55089  0.40038  0.12853  1.0000
  H   H1018     1.0  0.59263  0.44092  0.15728  1.0000
  H   H1019     1.0  0.58207  0.41336  0.11829  1.0000
  H   H1020     1.0  0.33461  0.38676  0.48402  1.0000
  C   C855      1.0  0.33791  0.25435  0.22362  1.0000
  H   H1021     1.0  0.48075  0.40769  0.40452  1.0000
  S   S217      1.0  0.59729  0.47378  0.01823  1.0000
  H   H1022     1.0  0.47171  0.46142  0.48318  1.0000
  C   C856      1.0  0.62984  0.39719  0.28316  1.0000
  S   S218      1.0  0.33989  0.28945  0.19026  1.0000
  H   H1023     1.0  0.32492  0.26728  0.41100  1.0000
  H   H1024     1.0  0.61927  0.35409  0.36089  1.0000
  C   C857      1.0  0.32673  0.25636  0.15714  1.0000
  Fe  Fe103     1.0  0.30898  0.32424  0.07799  1.0000
  Fe  Fe104     1.0  0.60755  0.40809  0.47785  1.0000
  H   H1025     1.0  0.39412  0.41975  0.27463  1.0000
  C   C858      1.0  0.61742  0.43466  0.25909  1.0000
  H   H1026     1.0  0.44164  0.47894  0.32490  1.0000
  C   C859      1.0  0.45551  0.41966  0.48310  1.0000
  C   C860      1.0  0.34258  0.39680  0.18155  1.0000
  H   H1027     1.0  0.37325  0.42611  0.30131  1.0000
  H   H1028     1.0  0.59947  0.40456  0.35593  1.0000
  C   C861      1.0  0.50553  0.47939  0.48532  1.0000
  C   C862      1.0  0.60455  0.39870  0.32788  1.0000
  C   C863      1.0  0.49015  0.40142  0.46449  1.0000
  C   C864      1.0  0.35376  0.42896  0.18842  1.0000
  N   N58       1.0  0.37458  0.43870  0.24431  1.0000
  C   C865      1.0  0.38951  0.44565  0.21912  1.0000
  C   C866      1.0  0.36214  0.45515  0.25485  1.0000
  H   H1029     1.0  0.39793  0.45675  0.23401  1.0000
  H   H1030     1.0  0.35021  0.45037  0.27236  1.0000
  H   H1031     1.0  0.35626  0.46274  0.22890  1.0000
  H   H1032     1.0  0.36975  0.46608  0.27213  1.0000
  H   H1033     1.0  0.61199  0.37629  0.41536  1.0000
  H   H1034     1.0  0.62780  0.28994  0.43466  1.0000
  H   H1035     1.0  0.49709  0.47490  0.46082  1.0000
  C   C867      1.0  0.34343  0.41545  0.16794  1.0000
  C   C868      1.0  0.43522  0.49649  0.37469  1.0000
  C   C869      1.0  0.31098  0.28577  0.29059  1.0000
  H   H1036     1.0  0.38397  0.45213  0.19173  1.0000
  H   H1037     1.0  0.54451  0.47454  0.21116  1.0000
  C   C870      1.0  0.59988  0.46431  0.26956  1.0000
  C   C871      1.0  0.36282  0.40481  0.23591  1.0000
  C   C872      1.0  0.48483  0.40456  0.50359  1.0000
  H   H1038     1.0  0.59913  0.43681  0.35012  1.0000
  H   H1039     1.0  0.34397  0.26098  0.24916  1.0000
  H   H1040     1.0  0.59464  0.47807  0.25883  1.0000
  C   C873      1.0  0.38368  0.43146  0.28072  1.0000
  S   S219      1.0  0.55989  0.43660  0.47815  1.0000
  H   H1041     1.0  0.33509  0.38619  0.16483  1.0000
  C   C874      1.0  0.36373  0.42409  0.22319  1.0000
  H   H1042     1.0  0.37059  0.39943  0.26088  1.0000
  H   H1043     1.0  0.31958  0.36654  0.48563  1.0000
  C   C875      1.0  0.51231  0.37514  0.47988  1.0000
  H   H1044     1.0  0.53731  0.40064  0.45632  1.0000
  H   H1045     1.0  0.62764  0.42059  0.36958  1.0000
  Fe  Fe105     1.0  0.34517  0.30653  0.04811  1.0000
  S   S220      1.0  0.33128  0.33539  0.03963  1.0000
  H   H1046     1.0  0.55914  0.46932  0.13439  1.0000
  H   H1047     1.0  0.52369  0.37873  0.40865  1.0000
  H   H1048     1.0  0.52630  0.46506  0.18170  1.0000
  H   H1049     1.0  0.45143  0.42299  0.42134  1.0000
  C   C876      1.0  0.61065  0.45247  0.24569  1.0000
  H   H1050     1.0  0.55849  0.45696  0.26376  1.0000
  H   H1051     1.0  0.63451  0.38307  0.29553  1.0000
  H   H1052     1.0  0.59250  0.39885  0.30700  1.0000
  N   N59       1.0  0.50854  0.39240  0.45554  1.0000
  H   H1053     1.0  0.58739  0.46760  0.32561  1.0000
  C   C877      1.0  0.33453  0.26511  0.18994  1.0000
  C   C878      1.0  0.51017  0.38642  0.41423  1.0000
  C   C879      1.0  0.32789  0.25465  0.42833  1.0000
  H   H1054     1.0  0.35220  0.37671  0.22478  1.0000
  H   H1055     1.0  0.50056  0.36509  0.47771  1.0000
  C   C880      1.0  0.35225  0.39149  0.21540  1.0000
  H   H1056     1.0  0.39148  0.44285  0.29617  1.0000
  H   H1057     1.0  0.39920  0.43366  0.21093  1.0000
  C   C881      1.0  0.33246  0.25655  0.46789  1.0000
  H   H1058     1.0  0.52047  0.41985  0.44774  1.0000
  H   H1059     1.0  0.50997  0.39892  0.39438  1.0000
  H   H1060     1.0  0.31867  0.27508  0.30927  1.0000
  C   C882      1.0  0.60260  0.44072  0.32080  1.0000
  H   H1061     1.0  0.37039  0.25453  0.11922  1.0000
  Fe  Fe106     1.0  0.33696  0.30578  0.13404  1.0000
  C   C883      1.0  0.32796  0.37649  0.50380  1.0000
  H   H1062     1.0  0.61376  0.45718  0.21654  1.0000
  H   H1063     1.0  0.52166  0.47272  0.23046  1.0000
  C   C884      1.0  0.52318  0.40635  0.46395  1.0000
  C   C885      1.0  0.59583  0.45843  0.30704  1.0000
  C   C886      1.0  0.63403  0.41271  0.34479  1.0000
  H   H1064     1.0  0.53091  0.47535  0.45307  1.0000
  H   H1065     1.0  0.31142  0.29991  0.30546  1.0000
  H   H1066     1.0  0.33645  0.41922  0.14070  1.0000
  H   H1067     1.0  0.49872  0.37680  0.40543  1.0000
  S   S221      1.0  0.41817  0.49375  0.26161  1.0000
  S   S222      1.0  0.63532  0.39157  0.47723  1.0000
  H   H1068     1.0  0.37240  0.24920  0.39694  1.0000
  C   C887      1.0  0.47766  0.40859  0.43508  1.0000
  H   H1069     1.0  0.46237  0.48903  0.10471  1.0000
  H   H1070     1.0  0.36091  0.36187  0.47979  1.0000
  H   H1071     1.0  0.38142  0.26127  0.05711  1.0000
  C   C888      1.0  0.52486  0.47972  0.48046  1.0000
  C   C889      1.0  0.46062  0.41754  0.44443  1.0000
  H   H1072     1.0  0.63000  0.31786  0.48102  1.0000
  C   C890      1.0  0.57842  0.49237  0.13910  1.0000
  H   H1073     1.0  0.62566  0.42625  0.23900  1.0000
  S   S223      1.0  0.59201  0.47867  0.50491  1.0000
  H   H1074     1.0  0.52370  0.41024  0.49515  1.0000
  H   H1075     1.0  0.44464  0.48851  0.39391  1.0000
  C   C891      1.0  0.43339  0.49095  0.33556  1.0000
  H   H1076     1.0  0.47018  0.49575  0.46931  1.0000
  H   H1077     1.0  0.43158  0.49663  0.15875  1.0000
  H   H1078     1.0  0.55174  0.49647  0.04222  1.0000
  H   H1079     1.0  0.37638  0.24733  0.01579  1.0000
  Fe  Fe107     1.0  0.55512  0.41780  0.01130  1.0000
  Fe  Fe108     1.0  0.35619  0.31009  0.59178  1.0000
  S   S224      1.0  0.38178  0.32825  0.58741  1.0000
  H   H1080     1.0  0.57687  0.36711  0.91002  1.0000
  H   H1081     1.0  0.35930  0.34993  0.64317  1.0000
  S   S225      1.0  0.35899  0.28032  0.61573  1.0000
  Fe  Fe109     1.0  0.46225  0.42884  0.66371  1.0000
  S   S226      1.0  0.45638  0.39992  0.68868  1.0000
  S   S227      1.0  0.47664  0.43812  0.60944  1.0000
  Fe  Fe110     1.0  0.44495  0.45083  0.73122  1.0000
  S   S228      1.0  0.43734  0.42403  0.76221  1.0000
  S   S229      1.0  0.44409  0.48190  0.74970  1.0000
  Fe  Fe111     1.0  0.46579  0.41285  0.74565  1.0000
  S   S230      1.0  0.48347  0.39674  0.79051  1.0000
  Fe  Fe112     1.0  0.42827  0.41302  0.70320  1.0000
  S   S231      1.0  0.40009  0.39877  0.69748  1.0000
  S   S232      1.0  0.47403  0.44041  0.71904  1.0000
  S   S233      1.0  0.43346  0.44106  0.67371  1.0000
  H   H1082     1.0  0.36696  0.37742  0.68589  1.0000
  S   S234      1.0  0.59671  0.42264  0.53187  1.0000
  C   C892      1.0  0.37072  0.27352  0.81025  1.0000
  Fe  Fe113     1.0  0.56133  0.43169  0.92921  1.0000
  S   S235      1.0  0.56012  0.40249  0.95493  1.0000
  S   S236      1.0  0.54945  0.44097  0.87117  1.0000
  C   C893      1.0  0.34941  0.24863  0.70262  1.0000
  S   S237      1.0  0.55041  0.39554  0.55492  1.0000
  Fe  Fe114     1.0  0.59070  0.40572  0.96805  1.0000
  S   S238      1.0  0.60939  0.37941  0.95815  1.0000
  H   H1083     1.0  0.36356  0.34417  0.51793  1.0000
  S   S239      1.0  0.59223  0.43410  0.93840  1.0000
  C   C894      1.0  0.57749  0.48091  0.61844  1.0000
  C   C895      1.0  0.58062  0.47431  0.58043  1.0000
  C   C896      1.0  0.58770  0.48660  0.55268  1.0000
  H   H1084     1.0  0.52061  0.37978  0.73873  1.0000
  C   C897      1.0  0.49596  0.47021  0.00566  1.0000
  H   H1085     1.0  0.57231  0.47122  0.63992  1.0000
  H   H1086     1.0  0.57775  0.45966  0.57275  1.0000
  C   C898      1.0  0.36672  0.31328  0.81348  1.0000
  C   C899      1.0  0.50143  0.40920  0.81404  1.0000
  C   C900      1.0  0.50622  0.42736  0.80152  1.0000
  C   C901      1.0  0.52084  0.43694  0.81979  1.0000
  C   C902      1.0  0.53057  0.42867  0.85121  1.0000
  C   C903      1.0  0.52556  0.41072  0.86473  1.0000
  C   C904      1.0  0.51113  0.40088  0.84579  1.0000
  H   H1087     1.0  0.49896  0.43392  0.77730  1.0000
  H   H1088     1.0  0.52473  0.45076  0.80941  1.0000
  H   H1089     1.0  0.53296  0.40425  0.88910  1.0000
  H   H1090     1.0  0.50747  0.38683  0.85570  1.0000
  C   C905      1.0  0.49831  0.42701  0.59939  1.0000
  C   C906      1.0  0.51112  0.43673  0.57693  1.0000
  C   C907      1.0  0.52771  0.42754  0.56507  1.0000
  C   C908      1.0  0.53134  0.40838  0.57475  1.0000
  C   C909      1.0  0.51882  0.39884  0.59829  1.0000
  C   C910      1.0  0.50239  0.40819  0.61091  1.0000
  H   H1091     1.0  0.50818  0.45136  0.56846  1.0000
  H   H1092     1.0  0.49399  0.40057  0.52763  1.0000
  H   H1093     1.0  0.52162  0.38404  0.60603  1.0000
  H   H1094     1.0  0.49255  0.40061  0.62823  1.0000
  C   C911      1.0  0.46764  0.41326  0.51263  1.0000
  C   C912      1.0  0.42744  0.47449  0.81975  1.0000
  H   H1095     1.0  0.52752  0.47586  0.88747  1.0000
  S   S240      1.0  0.32632  0.28058  0.70799  1.0000
  H   H1096     1.0  0.42397  0.46069  0.80788  1.0000
  N   N60       1.0  0.47677  0.48367  0.52591  1.0000
  S   S241      1.0  0.31385  0.27687  0.59768  1.0000
  C   C913      1.0  0.38693  0.34706  0.62001  1.0000
  C   C914      1.0  0.40496  0.35448  0.62070  1.0000
  C   C915      1.0  0.40935  0.37004  0.64493  1.0000
  C   C916      1.0  0.39565  0.37843  0.66843  1.0000
  C   C917      1.0  0.37766  0.37088  0.66802  1.0000
  C   C918      1.0  0.37330  0.35525  0.64396  1.0000
  H   H1097     1.0  0.41557  0.34825  0.60217  1.0000
  H   H1098     1.0  0.42324  0.37574  0.64496  1.0000
  C   C919      1.0  0.47528  0.42903  0.89035  1.0000
  N   N61       1.0  0.37135  0.31648  0.74146  1.0000
  C   C920      1.0  0.38640  0.33051  0.74646  1.0000
  C   C921      1.0  0.37538  0.30525  0.70571  1.0000
  C   C922      1.0  0.35332  0.32701  0.73490  1.0000
  C   C923      1.0  0.37019  0.30458  0.77686  1.0000
  C   C924      1.0  0.37216  0.28427  0.77627  1.0000
  H   H1099     1.0  0.31968  0.28413  0.99944  1.0000
  H   H1100     1.0  0.31772  0.38467  0.52166  1.0000
  C   C925      1.0  0.37503  0.40522  0.59616  1.0000
  C   C926      1.0  0.55262  0.47803  0.75305  1.0000
  H   H1101     1.0  0.40000  0.32318  0.75376  1.0000
  H   H1102     1.0  0.38839  0.33899  0.71955  1.0000
  H   H1103     1.0  0.38343  0.34110  0.76982  1.0000
  H   H1104     1.0  0.38899  0.29724  0.70822  1.0000
  H   H1105     1.0  0.37624  0.31457  0.67961  1.0000
  H   H1106     1.0  0.36417  0.29494  0.69927  1.0000
  H   H1107     1.0  0.34157  0.31692  0.73249  1.0000
  H   H1108     1.0  0.37456  0.27625  0.74989  1.0000
  H   H1109     1.0  0.56109  0.47633  0.90588  1.0000
  H   H1110     1.0  0.56776  0.47720  0.74589  1.0000
  H   H1111     1.0  0.33014  0.39359  0.57944  1.0000
  H   H1112     1.0  0.45544  0.46246  0.52149  1.0000
  H   H1113     1.0  0.35334  0.33558  0.70774  1.0000
  C   C927      1.0  0.52866  0.49478  0.79316  1.0000
  C   C928      1.0  0.33701  0.25935  0.72550  1.0000
  C   C929      1.0  0.37355  0.37976  0.54843  1.0000
  H   H1114     1.0  0.53823  0.40859  0.75505  1.0000
  H   H1115     1.0  0.54527  0.48106  0.72494  1.0000
  C   C930      1.0  0.34510  0.39305  0.57589  1.0000
  H   H1116     1.0  0.53743  0.43514  0.54762  1.0000
  C   C931      1.0  0.44787  0.44574  0.91261  1.0000
  H   H1117     1.0  0.46280  0.47565  0.87736  1.0000
  C   C932      1.0  0.47784  0.45539  0.93845  1.0000
  H   H1118     1.0  0.48524  0.47723  0.77194  1.0000
  N   N62       1.0  0.34225  0.36602  0.52786  1.0000
  C   C933      1.0  0.51444  0.48417  0.77431  1.0000
  H   H1119     1.0  0.48441  0.46378  0.86434  1.0000
  Fe  Fe115     1.0  0.33221  0.28741  0.64578  1.0000
  S   S242      1.0  0.55359  0.44689  0.98426  1.0000
  H   H1120     1.0  0.63272  0.34724  0.93819  1.0000
  C   C934      1.0  0.63556  0.35852  0.91786  1.0000
  C   C935      1.0  0.49297  0.44528  0.95713  1.0000
  C   C936      1.0  0.42258  0.47931  0.85807  1.0000
  H   H1121     1.0  0.47387  0.41779  0.91286  1.0000
  C   C937      1.0  0.46950  0.46148  0.87106  1.0000
  C   C938      1.0  0.50946  0.49153  0.55084  1.0000
  C   C939      1.0  0.32621  0.27336  0.98130  1.0000
  H   H1122     1.0  0.51470  0.37867  0.51109  1.0000
  H   H1123     1.0  0.39907  0.39185  0.57024  1.0000
  H   H1124     1.0  0.36499  0.32862  0.81627  1.0000
  C   C940      1.0  0.55117  0.48578  0.92039  1.0000
  C   C941      1.0  0.49724  0.48485  0.52102  1.0000
  C   C942      1.0  0.35565  0.40554  0.59856  1.0000
  H   H1125     1.0  0.32418  0.34261  0.53997  1.0000
  C   C943      1.0  0.35376  0.25977  0.95097  1.0000
  C   C944      1.0  0.36719  0.28254  0.84560  1.0000
  H   H1126     1.0  0.34308  0.34592  0.57443  1.0000
  H   H1127     1.0  0.38324  0.41445  0.61478  1.0000
  C   C945      1.0  0.43661  0.48767  0.79687  1.0000
  C   C946      1.0  0.51456  0.48261  0.65698  1.0000
  H   H1128     1.0  0.36246  0.30932  0.87490  1.0000
  H   H1129     1.0  0.57531  0.48631  0.80981  1.0000
  C   C947      1.0  0.49589  0.48560  0.78632  1.0000
  S   S243      1.0  0.34024  0.30093  0.53805  1.0000
  H   H1130     1.0  0.50472  0.49628  0.92278  1.0000
  C   C948      1.0  0.36523  0.30238  0.84724  1.0000
  H   H1131     1.0  0.54879  0.46367  0.76365  1.0000
  C   C949      1.0  0.33265  0.35352  0.55533  1.0000
  C   C950      1.0  0.38393  0.39245  0.57100  1.0000
  H   H1132     1.0  0.49823  0.43155  0.94707  1.0000
  H   H1133     1.0  0.55564  0.47562  0.83189  1.0000
  H   H1134     1.0  0.38149  0.36972  0.53094  1.0000
  N   N63       1.0  0.46789  0.44792  0.90377  1.0000
  C   C951      1.0  0.50175  0.45263  0.99029  1.0000
  H   H1135     1.0  0.58937  0.40220  0.83956  1.0000
  H   H1136     1.0  0.55385  0.34690  0.81965  1.0000
  C   C952      1.0  0.63010  0.39085  0.89494  1.0000
  H   H1137     1.0  0.37215  0.25805  0.80903  1.0000
  S   S244      1.0  0.35963  0.28935  0.00119  1.0000
  H   H1138     1.0  0.47860  0.45305  0.53074  1.0000
  C   C953      1.0  0.62624  0.37635  0.92137  1.0000
  C   C954      1.0  0.47074  0.48734  0.56644  1.0000
  H   H1139     1.0  0.52881  0.34902  0.77066  1.0000
  H   H1140     1.0  0.46773  0.42390  0.86384  1.0000
  C   C955      1.0  0.31546  0.25900  0.96434  1.0000
  C   C956      1.0  0.47042  0.46435  0.51475  1.0000
  H   H1141     1.0  0.46090  0.48181  0.94233  1.0000
  H   H1142     1.0  0.41524  0.46922  0.87552  1.0000
  H   H1143     1.0  0.36863  0.25996  0.94599  1.0000
  C   C957      1.0  0.34545  0.27351  0.97536  1.0000
  H   H1144     1.0  0.51730  0.47443  0.75062  1.0000
  H   H1145     1.0  0.44615  0.43581  0.93744  1.0000
  N   N64       1.0  0.54858  0.49315  0.78242  1.0000
  H   H1146     1.0  0.32286  0.36159  0.57444  1.0000
  H   H1147     1.0  0.35001  0.33717  0.75884  1.0000
  H   H1148     1.0  0.45548  0.48540  0.56980  1.0000
  C   C958      1.0  0.49601  0.48243  0.66840  1.0000
  C   C959      1.0  0.33314  0.25315  0.76306  1.0000
  H   H1149     1.0  0.32397  0.26169  0.78120  1.0000
  C   C960      1.0  0.48129  0.48054  0.98791  1.0000
  H   H1150     1.0  0.59093  0.39391  0.88824  1.0000
  H   H1151     1.0  0.36589  0.27413  0.87179  1.0000
  H   H1152     1.0  0.56470  0.35109  0.87968  1.0000
  H   H1153     1.0  0.46385  0.41527  0.54281  1.0000
  H   H1154     1.0  0.43991  0.44005  0.88721  1.0000
  S   S245      1.0  0.33070  0.31785  0.62589  1.0000
  H   H1155     1.0  0.56278  0.40771  0.80424  1.0000
  H   H1156     1.0  0.52110  0.46980  0.64483  1.0000
  C   C961      1.0  0.47234  0.47330  0.95481  1.0000
  H   H1157     1.0  0.35256  0.25329  0.67374  1.0000
  H   H1158     1.0  0.62880  0.36304  0.71688  1.0000
  C   C962      1.0  0.35372  0.37970  0.55016  1.0000
  H   H1159     1.0  0.46256  0.45612  0.84406  1.0000
  H   H1160     1.0  0.55364  0.37347  0.89293  1.0000
  H   H1161     1.0  0.34885  0.41526  0.61882  1.0000
  Fe  Fe116     1.0  0.31486  0.30658  0.57408  1.0000
  H   H1162     1.0  0.56950  0.40456  0.87110  1.0000
  C   C963      1.0  0.56036  0.48875  0.81731  1.0000
  H   H1163     1.0  0.49021  0.42980  0.88250  1.0000
  H   H1164     1.0  0.44086  0.45955  0.92061  1.0000
  Fe  Fe117     1.0  0.34048  0.27180  0.56566  1.0000
  H   H1165     1.0  0.48819  0.46944  0.66508  1.0000
  N   N65       1.0  0.57484  0.37599  0.84978  1.0000
  C   C964      1.0  0.59128  0.36460  0.83652  1.0000
  C   C965      1.0  0.58139  0.39502  0.86249  1.0000
  C   C966      1.0  0.56713  0.36652  0.88440  1.0000
  C   C967      1.0  0.56059  0.37715  0.81809  1.0000
  C   C968      1.0  0.55080  0.36065  0.80647  1.0000
  C   C969      1.0  0.55607  0.39441  0.79778  1.0000
  C   C970      1.0  0.53658  0.36163  0.77811  1.0000
  C   C971      1.0  0.54196  0.39516  0.76917  1.0000
  C   C972      1.0  0.53204  0.37890  0.75982  1.0000
  H   H1166     1.0  0.59771  0.37133  0.81093  1.0000
  H   H1167     1.0  0.60226  0.36334  0.85981  1.0000
  H   H1168     1.0  0.58758  0.34980  0.82817  1.0000
  C   C973      1.0  0.53228  0.48539  0.91022  1.0000
  H   H1169     1.0  0.62327  0.40475  0.89766  1.0000
  Fe  Fe118     1.0  0.56893  0.41106  0.51380  1.0000
  C   C974      1.0  0.52879  0.49175  0.54569  1.0000
  Fe  Fe119     1.0  0.58442  0.44675  0.99624  1.0000
  H   H1170     1.0  0.47800  0.47735  0.58716  1.0000
  H   H1171     1.0  0.47672  0.49418  0.00001  1.0000
  H   H1172     1.0  0.51300  0.44445  0.00439  1.0000
  H   H1173     1.0  0.57206  0.49647  0.95783  1.0000
  C   C975      1.0  0.53647  0.48573  0.51070  1.0000
  Fe  Fe120     1.0  0.43863  0.54379  0.46071  1.0000
  S   S246      1.0  0.43369  0.57462  0.44361  1.0000
  C   C976      1.0  0.59959  0.51174  0.38211  1.0000
  H   H1174     1.0  0.41307  0.57866  0.10478  1.0000
  C   C977      1.0  0.41003  0.51613  0.32527  1.0000
  H   H1175     1.0  0.40136  0.55566  0.15253  1.0000
  C   C978      1.0  0.48891  0.55120  0.24346  1.0000
  H   H1176     1.0  0.47297  0.52710  0.17692  1.0000
  Fe  Fe121     1.0  0.46521  0.57529  0.44329  1.0000
  S   S247      1.0  0.48150  0.58926  0.39598  1.0000
  H   H1177     1.0  0.44014  0.49952  0.08967  1.0000
  S   S248      1.0  0.46965  0.54419  0.45595  1.0000
  Fe  Fe122     1.0  0.33282  0.64844  0.07106  1.0000
  H   H1178     1.0  0.32193  0.66976  0.23150  1.0000
  S   S249      1.0  0.34871  0.67365  0.05078  1.0000
  Fe  Fe123     1.0  0.59555  0.56510  0.22400  1.0000
  S   S250      1.0  0.59065  0.53828  0.25755  1.0000
  S   S251      1.0  0.62485  0.57675  0.22421  1.0000
  Fe  Fe124     1.0  0.55542  0.56734  0.19416  1.0000
  S   S252      1.0  0.54717  0.54133  0.22677  1.0000
  S   S253      1.0  0.53454  0.58275  0.15482  1.0000
  Fe  Fe125     1.0  0.56411  0.55317  0.27584  1.0000
  S   S254      1.0  0.55629  0.54894  0.33827  1.0000
  Fe  Fe126     1.0  0.57420  0.52862  0.20560  1.0000
  S   S255      1.0  0.57269  0.49770  0.18750  1.0000
  S   S256      1.0  0.56997  0.58075  0.24578  1.0000
  S   S257      1.0  0.58148  0.55391  0.16959  1.0000
  S   S258      1.0  0.35650  0.70512  0.14672  1.0000
  C   C979      1.0  0.34524  0.72536  0.16691  1.0000
  H   H1179     1.0  0.60471  0.60003  0.28062  1.0000
  C   C980      1.0  0.48088  0.56829  0.18422  1.0000
  C   C981      1.0  0.34978  0.73087  0.20496  1.0000
  H   H1180     1.0  0.36058  0.72302  0.22110  1.0000
  C   C982      1.0  0.36969  0.59339  0.02977  1.0000
  C   C983      1.0  0.51503  0.53603  0.09925  1.0000
  C   C984      1.0  0.52514  0.54788  0.12433  1.0000
  C   C985      1.0  0.52275  0.56775  0.12203  1.0000
  C   C986      1.0  0.51033  0.57567  0.09412  1.0000
  H   H1181     1.0  0.62649  0.54719  0.44739  1.0000
  H   H1182     1.0  0.51669  0.52067  0.10191  1.0000
  H   H1183     1.0  0.53469  0.54161  0.14562  1.0000
  H   H1184     1.0  0.49088  0.54804  0.32290  1.0000
  C   C987      1.0  0.39161  0.61536  0.50698  1.0000
  C   C988      1.0  0.50203  0.57761  0.37945  1.0000
  C   C989      1.0  0.51126  0.58500  0.34741  1.0000
  C   C990      1.0  0.52758  0.57589  0.33354  1.0000
  C   C991      1.0  0.53489  0.55952  0.35210  1.0000
  C   C992      1.0  0.52551  0.55196  0.38366  1.0000
  C   C993      1.0  0.50910  0.56090  0.39713  1.0000
  H   H1185     1.0  0.50578  0.59782  0.33327  1.0000
  H   H1186     1.0  0.53473  0.58181  0.30907  1.0000
  H   H1187     1.0  0.53102  0.53920  0.39795  1.0000
  H   H1188     1.0  0.50215  0.55492  0.42153  1.0000
  N   N66       1.0  0.46474  0.54281  0.29235  1.0000
  H   H1189     1.0  0.62349  0.55121  0.31402  1.0000
  S   S259      1.0  0.42505  0.51686  0.43951  1.0000
  H   H1190     1.0  0.49093  0.57004  0.04703  1.0000
  H   H1191     1.0  0.48515  0.57518  0.15777  1.0000
  C   C994      1.0  0.60075  0.57187  0.35867  1.0000
  H   H1192     1.0  0.44155  0.54013  0.33091  1.0000
  H   H1193     1.0  0.48144  0.50508  0.15563  1.0000
  C   C995      1.0  0.41479  0.55293  0.13926  1.0000
  H   H1194     1.0  0.55462  0.60223  0.44579  1.0000
  H   H1195     1.0  0.37732  0.63873  0.06070  1.0000
  C   C996      1.0  0.60508  0.50686  0.41983  1.0000
  Fe  Fe127     1.0  0.33880  0.68754  0.10612  1.0000
  H   H1196     1.0  0.31937  0.70018  0.29519  1.0000
  H   H1197     1.0  0.63550  0.57232  0.32648  1.0000
  H   H1198     1.0  0.36721  0.62608  0.47552  1.0000
  H   H1199     1.0  0.46062  0.51469  0.26882  1.0000
  H   H1200     1.0  0.40927  0.62970  0.03914  1.0000
  C   C997      1.0  0.44898  0.54584  0.10368  1.0000
  H   H1201     1.0  0.36655  0.73007  0.47002  1.0000
  C   C998      1.0  0.42135  0.56595  0.11250  1.0000
  H   H1202     1.0  0.33440  0.69929  0.25370  1.0000
  C   C999      1.0  0.56659  0.53139  0.47778  1.0000
  H   H1203     1.0  0.32002  0.71992  0.26251  1.0000
  S   S260      1.0  0.30563  0.65789  0.04222  1.0000
  H   H1204     1.0  0.44070  0.56133  0.30230  1.0000
  C   C1000     1.0  0.61899  0.53784  0.42803  1.0000
  H   H1205     1.0  0.40393  0.68915  0.47232  1.0000
  C   C1001     1.0  0.42520  0.53622  0.14822  1.0000
  C   C1002     1.0  0.55744  0.56189  0.44896  1.0000
  H   H1206     1.0  0.46522  0.51522  0.32017  1.0000
  C   C1003     1.0  0.32586  0.71952  0.45806  1.0000
  C   C1004     1.0  0.46207  0.56803  0.19373  1.0000
  H   H1207     1.0  0.51095  0.59770  0.49935  1.0000
  C   C1005     1.0  0.38009  0.62472  0.04839  1.0000
  H   H1208     1.0  0.55733  0.57055  0.42305  1.0000
  H   H1209     1.0  0.46189  0.54362  0.08839  1.0000
  C   C1006     1.0  0.39822  0.61953  0.03628  1.0000
  H   H1210     1.0  0.31777  0.70346  0.50805  1.0000
  H   H1211     1.0  0.44341  0.57255  0.07375  1.0000
  C   C1007     1.0  0.49424  0.55979  0.20893  1.0000
  H   H1212     1.0  0.53317  0.59229  0.42701  1.0000
  C   C1008     1.0  0.62791  0.57487  0.39968  1.0000
  H   H1213     1.0  0.57325  0.51731  0.47546  1.0000
  C   C1009     1.0  0.42458  0.51194  0.38924  1.0000
  H   H1214     1.0  0.40009  0.52363  0.30640  1.0000
  H   H1215     1.0  0.53238  0.61308  0.45676  1.0000
  C   C1010     1.0  0.36713  0.73197  0.50122  1.0000
  H   H1216     1.0  0.39667  0.60666  0.48312  1.0000
  H   H1217     1.0  0.40336  0.53339  0.37566  1.0000
  C   C1011     1.0  0.37493  0.62634  0.50281  1.0000
  C   C1012     1.0  0.40219  0.60130  0.02070  1.0000
  C   C1013     1.0  0.31762  0.71735  0.49438  1.0000
  H   H1218     1.0  0.62460  0.71403  0.16140  1.0000
  S   S261      1.0  0.46791  0.58437  0.50561  1.0000
  H   H1219     1.0  0.62438  0.68381  0.19560  1.0000
  H   H1220     1.0  0.47127  0.54691  0.35350  1.0000
  C   C1014     1.0  0.33149  0.73573  0.14600  1.0000
  C   C1015     1.0  0.46991  0.55115  0.25465  1.0000
  C   C1016     1.0  0.54873  0.56805  0.48384  1.0000
  H   H1221     1.0  0.49988  0.54490  0.26164  1.0000
  C   C1017     1.0  0.60385  0.52958  0.36707  1.0000
  H   H1222     1.0  0.45174  0.57472  0.17436  1.0000
  N   N67       1.0  0.30514  0.69551  0.24052  1.0000
  C   C1018     1.0  0.50039  0.56379  0.06857  1.0000
  C   C1019     1.0  0.62571  0.61596  0.31160  1.0000
  C   C1020     1.0  0.44263  0.53208  0.13031  1.0000
  C   C1021     1.0  0.41199  0.52178  0.36438  1.0000
  C   C1022     1.0  0.47571  0.55165  0.32427  1.0000
  H   H1223     1.0  0.50838  0.59104  0.09231  1.0000
  S   S262      1.0  0.34267  0.61780  0.05957  1.0000
  H   H1224     1.0  0.39432  0.71224  0.46001  1.0000
  C   C1023     1.0  0.61940  0.60305  0.28323  1.0000
  H   H1225     1.0  0.59920  0.53274  0.33778  1.0000
  H   H1226     1.0  0.41912  0.52664  0.16871  1.0000
  S   S263      1.0  0.32485  0.66154  0.12891  1.0000
  H   H1227     1.0  0.61578  0.62287  0.33079  1.0000
  H   H1228     1.0  0.37089  0.67552  0.47598  1.0000
  H   H1229     1.0  0.47404  0.56754  0.32355  1.0000
  C   C1024     1.0  0.44562  0.50173  0.16749  1.0000
  H   H1230     1.0  0.44175  0.55994  0.23382  1.0000
  H   H1231     1.0  0.32861  0.73221  0.11602  1.0000
  H   H1232     1.0  0.35373  0.68938  0.50181  1.0000
  H   H1233     1.0  0.30703  0.66903  0.27267  1.0000
  S   S264      1.0  0.33812  0.74006  0.39675  1.0000
  H   H1234     1.0  0.54957  0.51885  0.06765  1.0000
  C   C1025     1.0  0.45439  0.50283  0.10069  1.0000
  H   H1235     1.0  0.59015  0.57248  0.38192  1.0000
  C   C1026     1.0  0.46884  0.52193  0.29205  1.0000
  C   C1027     1.0  0.36571  0.61169  0.04508  1.0000
  C   C1028     1.0  0.45654  0.55951  0.22825  1.0000
  H   H1236     1.0  0.52981  0.50931  0.04185  1.0000
  H   H1237     1.0  0.43545  0.53829  0.28068  1.0000
  H   H1238     1.0  0.50888  0.56016  0.20150  1.0000
  H   H1239     1.0  0.33214  0.70726  0.44368  1.0000
  C   C1029     1.0  0.50280  0.54393  0.07102  1.0000
  C   C1030     1.0  0.43848  0.56249  0.09502  1.0000
  H   H1240     1.0  0.60324  0.58677  0.34935  1.0000
  H   H1241     1.0  0.40938  0.70960  0.50192  1.0000
  C   C1031     1.0  0.61372  0.54319  0.38941  1.0000
  C   C1032     1.0  0.32611  0.73751  0.44042  1.0000
  H   H1242     1.0  0.51204  0.57624  0.47088  1.0000
  Fe  Fe128     1.0  0.32109  0.68389  0.02588  1.0000
  H   H1243     1.0  0.59844  0.51458  0.13414  1.0000
  C   C1033     1.0  0.44471  0.54583  0.30166  1.0000
  H   H1244     1.0  0.57215  0.53916  0.41887  1.0000
  C   C1034     1.0  0.63212  0.59397  0.25846  1.0000
  C   C1035     1.0  0.30794  0.67440  0.24238  1.0000
  N   N68       1.0  0.53888  0.58686  0.48785  1.0000
  C   C1036     1.0  0.56612  0.54377  0.44613  1.0000
  H   H1245     1.0  0.46142  0.51059  0.07720  1.0000
  C   C1037     1.0  0.61465  0.51989  0.44282  1.0000
  H   H1246     1.0  0.48387  0.51850  0.28723  1.0000
  S   S265      1.0  0.49113  0.52847  0.03892  1.0000
  C   C1038     1.0  0.42070  0.50068  0.31076  1.0000
  C   C1039     1.0  0.63772  0.70661  0.16834  1.0000
  H   H1247     1.0  0.59421  0.56475  0.33313  1.0000
  H   H1248     1.0  0.61871  0.51596  0.47235  1.0000
  H   H1249     1.0  0.48053  0.52624  0.12759  1.0000
  C   C1040     1.0  0.63699  0.65318  0.22707  1.0000
  C   C1041     1.0  0.54518  0.51108  0.04085  1.0000
  S   S266      1.0  0.31281  0.70007  0.07892  1.0000
  N   N69       1.0  0.45357  0.51408  0.13726  1.0000
  C   C1042     1.0  0.59195  0.50260  0.11988  1.0000
  C   C1043     1.0  0.38784  0.58821  0.01749  1.0000
  H   H1250     1.0  0.57507  0.53353  0.03186  1.0000
  C   C1044     1.0  0.32035  0.70408  0.26398  1.0000
  C   C1045     1.0  0.30699  0.70119  0.19935  1.0000
  H   H1251     1.0  0.35866  0.58318  0.02724  1.0000
  H   H1252     1.0  0.60846  0.50452  0.06826  1.0000
  H   H1253     1.0  0.32047  0.69588  0.18708  1.0000
  H   H1254     1.0  0.54644  0.54959  0.02908  1.0000
  C   C1046     1.0  0.53992  0.59909  0.45278  1.0000
  C   C1047     1.0  0.51885  0.58392  0.49532  1.0000
  N   N70       1.0  0.61822  0.56187  0.37221  1.0000
  H   H1255     1.0  0.44455  0.50926  0.19591  1.0000
  H   H1256     1.0  0.36377  0.69852  0.45837  1.0000
  C   C1048     1.0  0.47291  0.51837  0.14994  1.0000
  H   H1257     1.0  0.61921  0.57823  0.42543  1.0000
  C   C1049     1.0  0.39806  0.70268  0.48488  1.0000
  H   H1258     1.0  0.59188  0.50171  0.36445  1.0000
  H   H1259     1.0  0.62799  0.66268  0.24533  1.0000
  C   C1050     1.0  0.63059  0.55864  0.33853  1.0000
  H   H1260     1.0  0.62967  0.65030  0.19895  1.0000
  H   H1261     1.0  0.30659  0.71694  0.19572  1.0000
  C   C1051     1.0  0.36695  0.69033  0.48538  1.0000
  C   C1052     1.0  0.46709  0.49799  0.50056  1.0000
  H   H1262     1.0  0.45161  0.49768  0.50325  1.0000
  H   H1263     1.0  0.63099  0.58883  0.38583  1.0000
  H   H1264     1.0  0.57900  0.51037  0.01293  1.0000
  Fe  Fe129     1.0  0.43674  0.58105  0.50781  1.0000
  H   H1265     1.0  0.34019  0.71914  0.01093  1.0000
  C   C1053     1.0  0.33986  0.74597  0.22283  1.0000
  H   H1266     1.0  0.37355  0.74611  0.12005  1.0000
  C   C1054     1.0  0.59771  0.49680  0.08274  1.0000
  H   H1267     1.0  0.47141  0.51265  0.50840  1.0000
  Fe  Fe130     1.0  0.43824  0.52852  0.94333  1.0000
  S   S267      1.0  0.43349  0.55769  0.91735  1.0000
  H   H1268     1.0  0.30998  0.62312  0.53009  1.0000
  C   C1055     1.0  0.51608  0.51593  0.67591  1.0000
  S   S268      1.0  0.46930  0.57097  0.97104  1.0000
  Fe  Fe131     1.0  0.33137  0.68712  0.65411  1.0000
  Fe  Fe132     1.0  0.43808  0.56892  0.97809  1.0000
  C   C1056     1.0  0.58134  0.49982  0.62890  1.0000
  Fe  Fe133     1.0  0.46474  0.55722  0.91271  1.0000
  S   S269      1.0  0.47615  0.56454  0.85412  1.0000
  H   H1269     1.0  0.33882  0.56119  0.61063  1.0000
  S   S270      1.0  0.46915  0.52753  0.93542  1.0000
  Fe  Fe134     1.0  0.33197  0.66584  0.57711  1.0000
  H   H1270     1.0  0.53901  0.49947  0.65174  1.0000
  S   S271      1.0  0.33943  0.69572  0.59410  1.0000
  Fe  Fe135     1.0  0.60479  0.57334  0.71812  1.0000
  S   S272      1.0  0.59779  0.54616  0.74886  1.0000
  H   H1271     1.0  0.50841  0.60054  0.61301  1.0000
  Fe  Fe136     1.0  0.56572  0.57808  0.68463  1.0000
  S   S273      1.0  0.55538  0.55222  0.71426  1.0000
  S   S274      1.0  0.54495  0.59417  0.64673  1.0000
  Fe  Fe137     1.0  0.57169  0.56200  0.76601  1.0000
  S   S275      1.0  0.56317  0.55780  0.82810  1.0000
  Fe  Fe138     1.0  0.58202  0.53816  0.69453  1.0000
  S   S276      1.0  0.34603  0.69680  0.70858  1.0000
  S   S277      1.0  0.57944  0.58970  0.73872  1.0000
  S   S278      1.0  0.59159  0.56365  0.66135  1.0000
  H   H1272     1.0  0.57758  0.59651  0.82427  1.0000
  H   H1273     1.0  0.59099  0.52684  0.60869  1.0000
  H   H1274     1.0  0.61039  0.61792  0.74139  1.0000
  C   C1057     1.0  0.37471  0.71746  0.52607  1.0000
  C   C1058     1.0  0.34428  0.72992  0.75160  1.0000
  H   H1275     1.0  0.34750  0.72099  0.77655  1.0000
  C   C1059     1.0  0.50468  0.55388  0.58617  1.0000
  C   C1060     1.0  0.52175  0.54677  0.60124  1.0000
  C   C1061     1.0  0.53412  0.55907  0.62018  1.0000
  C   C1062     1.0  0.52938  0.57851  0.62424  1.0000
  C   C1063     1.0  0.51218  0.58554  0.60965  1.0000
  C   C1064     1.0  0.62834  0.63887  0.76741  1.0000
  H   H1276     1.0  0.52568  0.53186  0.59722  1.0000
  H   H1277     1.0  0.54756  0.55359  0.63051  1.0000
  H   H1278     1.0  0.54463  0.59059  0.54955  1.0000
  H   H1279     1.0  0.34431  0.70117  0.86211  1.0000
  C   C1065     1.0  0.50036  0.56247  0.84777  1.0000
  C   C1066     1.0  0.50759  0.56662  0.81129  1.0000
  C   C1067     1.0  0.52686  0.56520  0.80511  1.0000
  C   C1068     1.0  0.53899  0.55959  0.83543  1.0000
  C   C1069     1.0  0.53179  0.55526  0.87191  1.0000
  C   C1070     1.0  0.51246  0.55670  0.87812  1.0000
  H   H1280     1.0  0.49825  0.57132  0.78800  1.0000
  H   H1281     1.0  0.53233  0.56889  0.77715  1.0000
  H   H1282     1.0  0.54115  0.55086  0.89541  1.0000
  H   H1283     1.0  0.50691  0.55349  0.90633  1.0000
  S   S279      1.0  0.32648  0.65636  0.63830  1.0000
  C   C1071     1.0  0.52547  0.50869  0.96036  1.0000
  H   H1284     1.0  0.50022  0.51903  0.85723  1.0000
  S   S280      1.0  0.63419  0.58425  0.72723  1.0000
  C   C1072     1.0  0.32586  0.71700  0.95560  1.0000
  C   C1073     1.0  0.58799  0.51224  0.60090  1.0000
  H   H1285     1.0  0.37600  0.68124  0.55865  1.0000
  C   C1074     1.0  0.59122  0.50561  0.56292  1.0000
  H   H1286     1.0  0.37295  0.64619  0.59301  1.0000
  H   H1287     1.0  0.37702  0.59336  0.64548  1.0000
  H   H1288     1.0  0.59274  0.61502  0.80863  1.0000
  C   C1075     1.0  0.43643  0.51020  0.85090  1.0000
  C   C1076     1.0  0.34290  0.72166  0.71453  1.0000
  H   H1289     1.0  0.44014  0.52394  0.86275  1.0000
  N   N71       1.0  0.48735  0.53385  0.70186  1.0000
  C   C1077     1.0  0.47102  0.53852  0.67616  1.0000
  C   C1078     1.0  0.48072  0.53065  0.74184  1.0000
  C   C1079     1.0  0.49926  0.55092  0.70319  1.0000
  C   C1080     1.0  0.33397  0.59891  0.60287  1.0000
  H   H1290     1.0  0.33626  0.63840  0.93778  1.0000
  C   C1081     1.0  0.38779  0.68484  0.53954  1.0000
  C   C1082     1.0  0.61645  0.61366  0.86940  1.0000
  C   C1083     1.0  0.58754  0.60746  0.83458  1.0000
  Fe  Fe139     1.0  0.30901  0.70289  0.58581  1.0000
  H   H1291     1.0  0.60156  0.57237  0.82461  1.0000
  H   H1292     1.0  0.46386  0.55219  0.68477  1.0000
  C   C1084     1.0  0.36801  0.63731  0.53393  1.0000
  H   H1293     1.0  0.47320  0.54351  0.75368  1.0000
  H   H1294     1.0  0.36746  0.74132  0.61227  1.0000
  H   H1295     1.0  0.38069  0.71154  0.58788  1.0000
  H   H1296     1.0  0.47296  0.49799  0.69211  1.0000
  H   H1297     1.0  0.49152  0.56380  0.71424  1.0000
  H   H1298     1.0  0.36135  0.56113  0.63464  1.0000
  H   H1299     1.0  0.52462  0.52837  0.67759  1.0000
  C   C1085     1.0  0.61186  0.58331  0.83324  1.0000
  H   H1300     1.0  0.33900  0.60559  0.54149  1.0000
  H   H1301     1.0  0.40247  0.62691  0.60047  1.0000
  C   C1086     1.0  0.33881  0.73332  0.68236  1.0000
  N   N72       1.0  0.36430  0.64870  0.93717  1.0000
  C   C1087     1.0  0.34610  0.64655  0.95643  1.0000
  C   C1088     1.0  0.37322  0.62932  0.93400  1.0000
  C   C1089     1.0  0.37653  0.66034  0.96254  1.0000
  C   C1090     1.0  0.36128  0.65841  0.89927  1.0000
  C   C1091     1.0  0.36606  0.64975  0.86318  1.0000
  H   H1302     1.0  0.62341  0.57552  0.84902  1.0000
  Fe  Fe140     1.0  0.47070  0.54110  0.99448  1.0000
  S   S281      1.0  0.43994  0.53953  0.00481  1.0000
  C   C1092     1.0  0.54959  0.55509  0.51545  1.0000
  C   C1093     1.0  0.35330  0.67722  0.89770  1.0000
  C   C1094     1.0  0.62438  0.62086  0.75155  1.0000
  H   H1303     1.0  0.36772  0.59822  0.56345  1.0000
  C   C1095     1.0  0.35034  0.68677  0.86241  1.0000
  H   H1304     1.0  0.38733  0.62985  0.92103  1.0000
  C   C1096     1.0  0.52291  0.50762  0.82298  1.0000
  H   H1305     1.0  0.54624  0.51499  0.73914  1.0000
  H   H1306     1.0  0.61734  0.58906  0.80572  1.0000
  N   N73       1.0  0.55060  0.52114  0.00520  1.0000
  H   H1307     1.0  0.37222  0.63553  0.86129  1.0000
  H   H1308     1.0  0.54334  0.55881  0.54275  1.0000
  H   H1309     1.0  0.51159  0.54871  0.72293  1.0000
  C   C1097     1.0  0.35513  0.67789  0.82758  1.0000
  C   C1098     1.0  0.33749  0.72576  0.98296  1.0000
  C   C1099     1.0  0.59573  0.58956  0.89251  1.0000
  C   C1100     1.0  0.54467  0.50963  0.97122  1.0000
  C   C1101     1.0  0.55436  0.51155  0.76614  1.0000
  C   C1102     1.0  0.55836  0.53707  0.51243  1.0000
  H   H1310     1.0  0.31391  0.71865  0.89778  1.0000
  H   H1311     1.0  0.37530  0.62248  0.96301  1.0000
  H   H1312     1.0  0.35598  0.60184  0.66804  1.0000
  H   H1313     1.0  0.56234  0.59898  0.51812  1.0000
  C   C1103     1.0  0.42757  0.49696  0.87409  1.0000
  H   H1314     1.0  0.36442  0.61945  0.91669  1.0000
  C   C1104     1.0  0.36752  0.73873  0.58116  1.0000
  C   C1105     1.0  0.36341  0.58474  0.57707  1.0000
  H   H1315     1.0  0.59670  0.51519  0.54159  1.0000
  H   H1316     1.0  0.33781  0.72710  0.65367  1.0000
  H   H1317     1.0  0.39963  0.68993  0.55775  1.0000
  H   H1318     1.0  0.44722  0.51617  0.79446  1.0000
  H   H1319     1.0  0.36507  0.61461  0.62800  1.0000
  H   H1320     1.0  0.57911  0.61794  0.85162  1.0000
  H   H1321     1.0  0.58621  0.57777  0.88464  1.0000
  H   H1322     1.0  0.55865  0.52743  0.53707  1.0000
  C   C1106     1.0  0.48739  0.49894  0.68361  1.0000
  H   H1323     1.0  0.32326  0.59744  0.66186  1.0000
  H   H1324     1.0  0.47536  0.54003  0.64536  1.0000
  C   C1107     1.0  0.32957  0.60669  0.56557  1.0000
  C   C1108     1.0  0.44050  0.50573  0.81216  1.0000
  H   H1325     1.0  0.47339  0.50228  0.57573  1.0000
  C   C1109     1.0  0.32261  0.72554  0.91931  1.0000
  H   H1326     1.0  0.58744  0.59979  0.91050  1.0000
  S   S282      1.0  0.43906  0.55001  0.52476  1.0000
  H   H1327     1.0  0.50414  0.55472  0.67381  1.0000
  H   H1328     1.0  0.48640  0.57870  0.58029  1.0000
  H   H1329     1.0  0.37000  0.67445  0.96998  1.0000
  C   C1110     1.0  0.49709  0.51632  0.68739  1.0000
  C   C1111     1.0  0.40152  0.61541  0.54232  1.0000
  H   H1330     1.0  0.56943  0.51117  0.75862  1.0000
  C   C1112     1.0  0.39481  0.62678  0.57309  1.0000
  H   H1331     1.0  0.46026  0.52738  0.67695  1.0000
  C   C1113     1.0  0.37510  0.72156  0.56660  1.0000
  C   C1114     1.0  0.49975  0.57321  0.59101  1.0000
  H   H1332     1.0  0.63528  0.67602  0.66540  1.0000
  C   C1115     1.0  0.54149  0.54050  0.00453  1.0000
  S   S283      1.0  0.57779  0.50728  0.67726  1.0000
  H   H1333     1.0  0.59577  0.63105  0.90060  1.0000
  S   S284      1.0  0.31535  0.69528  0.96580  1.0000
  H   H1334     1.0  0.55233  0.52366  0.78673  1.0000
  H   H1335     1.0  0.37670  0.57677  0.58443  1.0000
  S   S285      1.0  0.34663  0.65014  0.52798  1.0000
  C   C1116     1.0  0.54699  0.59758  0.52112  1.0000
  H   H1336     1.0  0.36669  0.65264  0.80073  1.0000
  N   N74       1.0  0.60327  0.59870  0.85748  1.0000
  H   H1337     1.0  0.37974  0.65311  0.99072  1.0000
  S   S286      1.0  0.49004  0.53848  0.56044  1.0000
  H   H1338     1.0  0.47090  0.51865  0.74341  1.0000
  H   H1339     1.0  0.53277  0.51670  0.83768  1.0000
  C   C1117     1.0  0.37810  0.63767  0.56897  1.0000
  C   C1118     1.0  0.61014  0.62957  0.89184  1.0000
  H   H1340     1.0  0.34926  0.68472  0.92387  1.0000
  S   S287      1.0  0.42165  0.60076  0.55047  1.0000
  C   C1119     1.0  0.36297  0.65944  0.82799  1.0000
  H   H1341     1.0  0.33916  0.66054  0.96311  1.0000
  H   H1342     1.0  0.34156  0.57111  0.65851  1.0000
  Fe  Fe141     1.0  0.46979  0.55307  0.51854  1.0000
  H   H1343     1.0  0.39269  0.67109  0.52622  1.0000
  C   C1120     1.0  0.32065  0.60223  0.63243  1.0000
  C   C1121     1.0  0.63567  0.61296  0.85961  1.0000
  H   H1344     1.0  0.61728  0.64966  0.76959  1.0000
  H   H1345     1.0  0.60721  0.58340  0.91119  1.0000
  H   H1346     1.0  0.51479  0.51657  0.97590  1.0000
  H   H1347     1.0  0.35279  0.68530  0.80017  1.0000
  H   H1348     1.0  0.39006  0.66299  0.94833  1.0000
  H   H1349     1.0  0.35583  0.57620  0.55484  1.0000
  H   H1350     1.0  0.34772  0.63880  0.98461  1.0000
  C   C1122     1.0  0.50432  0.50905  0.83449  1.0000
  N   N75       1.0  0.35183  0.58852  0.61183  1.0000
  H   H1351     1.0  0.49267  0.52740  0.76200  1.0000
  C   C1123     1.0  0.36295  0.60001  0.63960  1.0000
  H   H1352     1.0  0.54062  0.61222  0.52375  1.0000
  C   C1124     1.0  0.34819  0.56972  0.62968  1.0000
  H   H1353     1.0  0.51674  0.57530  0.52175  1.0000
  H   H1354     1.0  0.54422  0.54800  0.97683  1.0000
  H   H1355     1.0  0.61705  0.65622  0.91966  1.0000
  C   C1125     1.0  0.30922  0.73312  0.51280  1.0000
  H   H1356     1.0  0.57621  0.53029  0.98000  1.0000
  C   C1126     1.0  0.62221  0.64402  0.90313  1.0000
  S   S288      1.0  0.42382  0.50184  0.92361  1.0000
  C   C1127     1.0  0.31278  0.61685  0.55846  1.0000
  H   H1357     1.0  0.56017  0.50058  0.83893  1.0000
  N   N76       1.0  0.38178  0.69910  0.50961  1.0000
  C   C1128     1.0  0.34586  0.74308  0.97385  1.0000
  C   C1129     1.0  0.52458  0.49931  0.66085  1.0000
  H   H1358     1.0  0.39071  0.57411  0.00563  1.0000
  H   H1359     1.0  0.50441  0.49681  0.57832  1.0000
  C   C1130     1.0  0.33082  0.74291  0.91041  1.0000
  H   H1360     1.0  0.47659  0.49900  0.82579  1.0000
  C   C1131     1.0  0.49092  0.49786  0.81659  1.0000
  H   H1361     1.0  0.52617  0.54017  0.00792  1.0000
  S   S289      1.0  0.42529  0.59583  0.00576  1.0000
  C   C1132     1.0  0.57108  0.52397  0.00731  1.0000
  C   C1133     1.0  0.55735  0.49757  0.95051  1.0000
  C   C1134     1.0  0.51947  0.49687  0.93011  1.0000
  H   H1362     1.0  0.53790  0.49667  0.56892  1.0000
  Fe  Fe142     1.0  0.44381  0.94003  0.19846  1.0000
  S   S290      1.0  0.44149  0.91253  0.16486  1.0000
  S   S291      1.0  0.44558  0.97098  0.17985  1.0000
  Fe  Fe143     1.0  0.45163  0.91899  0.27495  1.0000
  S   S292      1.0  0.45080  0.88983  0.24821  1.0000
  S   S293      1.0  0.45581  0.92618  0.33782  1.0000
  Fe  Fe144     1.0  0.46688  0.90298  0.19971  1.0000
  S   S294      1.0  0.49279  0.88980  0.17307  1.0000
  Fe  Fe145     1.0  0.42544  0.90165  0.21626  1.0000
  S   S295      1.0  0.39777  0.88635  0.21334  1.0000
  S   S296      1.0  0.47010  0.93094  0.23023  1.0000
  S   S297      1.0  0.42541  0.93028  0.24625  1.0000
  H   H1363     1.0  0.60354  0.97453  0.30909  1.0000
  S   S298      1.0  0.37460  0.82156  0.33181  1.0000
  C   C1135     1.0  0.48316  0.90221  0.04712  1.0000
  Fe  Fe146     1.0  0.54858  0.91263  0.44407  1.0000
  S   S299      1.0  0.53926  0.94077  0.46913  1.0000
  S   S300      1.0  0.52990  0.89148  0.41425  1.0000
  Fe  Fe147     1.0  0.58945  0.91914  0.46271  1.0000
  S   S301      1.0  0.58361  0.94845  0.48818  1.0000
  Fe  Fe148     1.0  0.30651  0.80254  0.35947  1.0000
  H   H1364     1.0  0.56537  0.97305  0.07813  1.0000
  C   C1136     1.0  0.59109  0.98224  0.31839  1.0000
  Fe  Fe149     1.0  0.56344  0.95280  0.43781  1.0000
  S   S302      1.0  0.55505  0.98071  0.40806  1.0000
  C   C1137     1.0  0.57966  0.92583  0.19076  1.0000
  S   S303      1.0  0.57142  0.92494  0.40931  1.0000
  H   H1365     1.0  0.41492  0.93400  0.37442  1.0000
  H   H1366     1.0  0.48444  0.88766  0.05784  1.0000
  C   C1138     1.0  0.62294  0.89143  0.03172  1.0000
  C   C1139     1.0  0.54844  0.96012  0.26564  1.0000
  C   C1140     1.0  0.36881  0.76079  0.12503  1.0000
  H   H1367     1.0  0.59853  0.96600  0.08407  1.0000
  H   H1368     1.0  0.58753  0.96448  0.36887  1.0000
  S   S304      1.0  0.31152  0.77336  0.22541  1.0000
  C   C1141     1.0  0.50369  0.90566  0.14163  1.0000
  C   C1142     1.0  0.49660  0.92434  0.13722  1.0000
  C   C1143     1.0  0.50580  0.93730  0.11389  1.0000
  C   C1144     1.0  0.52195  0.93167  0.09402  1.0000
  C   C1145     1.0  0.58093  0.96129  0.15106  1.0000
  C   C1146     1.0  0.51992  0.89994  0.12196  1.0000
  H   H1369     1.0  0.48394  0.92883  0.15161  1.0000
  H   H1370     1.0  0.50008  0.95160  0.11077  1.0000
  H   H1371     1.0  0.46736  0.97038  0.06421  1.0000
  H   H1372     1.0  0.49526  0.99158  0.49650  1.0000
  C   C1147     1.0  0.47645  0.91648  0.35831  1.0000
  C   C1148     1.0  0.48747  0.92791  0.38228  1.0000
  C   C1149     1.0  0.50396  0.92036  0.39925  1.0000
  C   C1150     1.0  0.50921  0.90120  0.39336  1.0000
  C   C1151     1.0  0.49809  0.88971  0.36949  1.0000
  C   C1152     1.0  0.48182  0.89740  0.35156  1.0000
  H   H1373     1.0  0.48336  0.94269  0.38747  1.0000
  H   H1374     1.0  0.51246  0.92938  0.41713  1.0000
  H   H1375     1.0  0.50212  0.87488  0.36472  1.0000
  H   H1376     1.0  0.47330  0.88850  0.33309  1.0000
  C   C1153     1.0  0.38058  0.83949  0.29833  1.0000
  C   C1154     1.0  0.36715  0.84935  0.27553  1.0000
  C   C1155     1.0  0.37263  0.86358  0.24947  1.0000
  C   C1156     1.0  0.39151  0.86826  0.24624  1.0000
  C   C1157     1.0  0.40491  0.85833  0.26890  1.0000
  C   C1158     1.0  0.39947  0.84405  0.29483  1.0000
  H   H1377     1.0  0.35254  0.84618  0.27824  1.0000
  H   H1378     1.0  0.36215  0.87119  0.23203  1.0000
  H   H1379     1.0  0.41951  0.86148  0.26606  1.0000
  H   H1380     1.0  0.40997  0.83642  0.31215  1.0000
  C   C1159     1.0  0.42567  0.97262  0.06830  1.0000
  C   C1160     1.0  0.43043  0.96615  0.10598  1.0000
  C   C1161     1.0  0.43980  0.97814  0.13190  1.0000
  H   H1381     1.0  0.50844  0.90017  0.01453  1.0000
  H   H1382     1.0  0.41812  0.96343  0.04857  1.0000
  H   H1383     1.0  0.42651  0.95207  0.11522  1.0000
  S   S305      1.0  0.34831  0.77558  0.31284  1.0000
  C   C1162     1.0  0.58200  0.97648  0.35212  1.0000
  N   N77       1.0  0.37136  0.79923  0.20433  1.0000
  C   C1163     1.0  0.35386  0.80570  0.22339  1.0000
  C   C1164     1.0  0.38223  0.78736  0.23295  1.0000
  C   C1165     1.0  0.38250  0.81619  0.19546  1.0000
  C   C1166     1.0  0.36683  0.78897  0.16778  1.0000
  N   N78       1.0  0.45109  0.98421  0.33838  1.0000
  C   C1167     1.0  0.35598  0.79823  0.13810  1.0000
  H   H1384     1.0  0.56985  0.91430  0.13640  1.0000
  H   H1385     1.0  0.42786  0.97755  0.37475  1.0000
  C   C1168     1.0  0.51135  0.99150  0.13907  1.0000
  H   H1386     1.0  0.34458  0.79349  0.22794  1.0000
  H   H1387     1.0  0.35664  0.81220  0.25238  1.0000
  H   H1388     1.0  0.34581  0.81664  0.20627  1.0000
  H   H1389     1.0  0.37445  0.77448  0.24134  1.0000
  H   H1390     1.0  0.38505  0.79540  0.26042  1.0000
  H   H1391     1.0  0.39608  0.78278  0.22148  1.0000
  H   H1392     1.0  0.39524  0.81205  0.17900  1.0000
  H   H1393     1.0  0.37447  0.82704  0.17797  1.0000
  H   H1394     1.0  0.38716  0.82366  0.22237  1.0000
  C   C1169     1.0  0.48055  0.94077  0.02155  1.0000
  C   C1170     1.0  0.35163  0.78896  0.10317  1.0000
  H   H1395     1.0  0.45501  0.94149  0.05546  1.0000
  H   H1396     1.0  0.57142  0.94429  0.10144  1.0000
  H   H1397     1.0  0.37992  0.89147  0.37959  1.0000
  N   N79       1.0  0.53178  0.90881  0.27500  1.0000
  C   C1171     1.0  0.53948  0.90549  0.31486  1.0000
  C   C1172     1.0  0.51128  0.90659  0.27635  1.0000
  C   C1173     1.0  0.53975  0.89366  0.24940  1.0000
  C   C1174     1.0  0.53582  0.92793  0.25935  1.0000
  C   C1175     1.0  0.52983  0.93303  0.22117  1.0000
  H   H1398     1.0  0.49479  0.96624  0.50402  1.0000
  C   C1176     1.0  0.53313  0.95107  0.20578  1.0000
  H   H1399     1.0  0.53619  0.89102  0.32594  1.0000
  H   H1400     1.0  0.55496  0.90646  0.31597  1.0000
  H   H1401     1.0  0.53339  0.91582  0.33616  1.0000
  H   H1402     1.0  0.50457  0.91793  0.29460  1.0000
  H   H1403     1.0  0.50763  0.89248  0.28851  1.0000
  H   H1404     1.0  0.50458  0.90726  0.24702  1.0000
  H   H1405     1.0  0.55502  0.89536  0.24585  1.0000
  H   H1406     1.0  0.53763  0.87911  0.26136  1.0000
  H   H1407     1.0  0.53306  0.89365  0.21995  1.0000
  H   H1408     1.0  0.52246  0.92307  0.20292  1.0000
  H   H1409     1.0  0.52856  0.95443  0.17635  1.0000
  H   H1410     1.0  0.35466  0.76308  0.06959  1.0000
  C   C1177     1.0  0.55669  0.85781  0.47666  1.0000
  C   C1178     1.0  0.60934  0.88278  0.05380  1.0000
  H   H1411     1.0  0.45785  0.90847  0.07771  1.0000
  H   H1412     1.0  0.54143  0.90840  0.08263  1.0000
  C   C1179     1.0  0.48075  0.97015  0.30824  1.0000
  H   H1413     1.0  0.60745  0.83016  0.50160  1.0000
  H   H1414     1.0  0.38121  0.76147  0.18103  1.0000
  C   C1180     1.0  0.47875  0.97364  0.04404  1.0000
  C   C1181     1.0  0.57384  0.85171  0.49300  1.0000
  H   H1415     1.0  0.43856  0.89002  0.35904  1.0000
  C   C1182     1.0  0.54233  0.96465  0.22808  1.0000
  Fe  Fe150     1.0  0.33258  0.76814  0.36623  1.0000
  C   C1183     1.0  0.46823  0.91398  0.05842  1.0000
  N   N80       1.0  0.47894  0.96105  0.00929  1.0000
  H   H1416     1.0  0.52546  0.88548  0.12524  1.0000
  Fe  Fe151     1.0  0.34713  0.80586  0.33488  1.0000
  S   S306      1.0  0.31977  0.81310  0.30471  1.0000
  H   H1417     1.0  0.39435  0.87107  0.39353  1.0000
  S   S307      1.0  0.33386  0.79771  0.39153  1.0000
  H   H1418     1.0  0.35077  0.81276  0.14176  1.0000
  H   H1419     1.0  0.55549  0.86079  0.44578  1.0000
  S   S308      1.0  0.56700  0.90478  0.49545  1.0000
  C   C1184     1.0  0.41795  0.93664  0.43541  1.0000
  H   H1420     1.0  0.57940  0.91226  0.20573  1.0000
  H   H1421     1.0  0.55049  0.93963  0.31058  1.0000
  C   C1185     1.0  0.47160  0.98073  0.33807  1.0000
  C   C1186     1.0  0.57512  0.94437  0.13199  1.0000
  H   H1422     1.0  0.51711  0.97967  0.12232  1.0000
  C   C1187     1.0  0.57432  0.92700  0.15174  1.0000
  H   H1423     1.0  0.62278  0.82801  0.04694  1.0000
  Fe  Fe152     1.0  0.32015  0.78222  0.28628  1.0000
  C   C1188     1.0  0.56554  0.98273  0.10374  1.0000
  C   C1189     1.0  0.51094  0.97416  0.33954  1.0000
  C   C1190     1.0  0.31736  0.75323  0.45843  1.0000
  S   S309      1.0  0.53311  0.94869  0.06561  1.0000
  N   N81       1.0  0.58226  0.97943  0.12929  1.0000
  C   C1191     1.0  0.54534  0.94207  0.28125  1.0000
  H   H1424     1.0  0.48727  0.97626  0.15723  1.0000
  H   H1425     1.0  0.60391  0.86163  0.09743  1.0000
  H   H1426     1.0  0.39401  0.91610  0.33391  1.0000
  H   H1427     1.0  0.59484  0.88726  0.05032  1.0000
  H   H1428     1.0  0.38862  0.87492  0.34393  1.0000
  C   C1192     1.0  0.44106  0.97576  0.30456  1.0000
  C   C1193     1.0  0.61453  0.86826  0.08047  1.0000
  H   H1429     1.0  0.34325  0.79630  0.08100  1.0000
  H   H1430     1.0  0.40326  0.89680  0.30527  1.0000
  C   C1194     1.0  0.50246  0.98468  0.36909  1.0000
  H   H1431     1.0  0.49218  0.97228  0.06061  1.0000
  S   S310      1.0  0.61745  0.90376  0.45451  1.0000
  H   H1432     1.0  0.58533  0.85020  0.47321  1.0000
  H   H1433     1.0  0.41874  0.91396  0.32412  1.0000
  H   H1434     1.0  0.55571  0.97068  0.28279  1.0000
  C   C1195     1.0  0.52897  0.91289  0.09787  1.0000
  C   C1196     1.0  0.63330  0.86218  0.08521  1.0000
  H   H1435     1.0  0.44729  0.96067  0.37723  1.0000
  H   H1436     1.0  0.42432  0.87292  0.33437  1.0000
  H   H1437     1.0  0.55249  0.98050  0.11989  1.0000
  H   H1438     1.0  0.52809  0.86605  0.48713  1.0000
  C   C1197     1.0  0.49667  0.90929  0.02281  1.0000
  H   H1439     1.0  0.47664  0.98893  0.03605  1.0000
  C   C1198     1.0  0.32178  0.75105  0.16369  1.0000
  C   C1199     1.0  0.44336  0.97610  0.37433  1.0000
  C   C1200     1.0  0.58576  0.94205  0.21021  1.0000
  H   H1440     1.0  0.44305  0.95998  0.30367  1.0000
  C   C1201     1.0  0.62895  0.89096  0.49266  1.0000
  H   H1441     1.0  0.44851  0.98341  0.40106  1.0000
  H   H1442     1.0  0.41189  0.88198  0.44271  1.0000
  N   N82       1.0  0.40906  0.89435  0.36709  1.0000
  C   C1202     1.0  0.42565  0.88159  0.36135  1.0000
  C   C1203     1.0  0.39232  0.88249  0.37141  1.0000
  C   C1204     1.0  0.40612  0.90590  0.33123  1.0000
  C   C1205     1.0  0.41212  0.90605  0.40249  1.0000
  C   C1206     1.0  0.41322  0.89724  0.43961  1.0000
  C   C1207     1.0  0.41485  0.92613  0.40132  1.0000
  H   H1443     1.0  0.41998  0.95193  0.43406  1.0000
  C   C1208     1.0  0.32557  0.75584  0.20250  1.0000
  H   H1444     1.0  0.42793  0.87138  0.38576  1.0000
  C   C1209     1.0  0.37311  0.76986  0.16020  1.0000
  H   H1445     1.0  0.41713  0.90085  0.50150  1.0000
  H   H1446     1.0  0.31744  0.76715  0.44491  1.0000
  C   C1210     1.0  0.54119  0.86082  0.49999  1.0000
  C   C1211     1.0  0.41634  0.90789  0.47345  1.0000
  C   C1212     1.0  0.49548  0.92828  0.01018  1.0000
  C   C1213     1.0  0.56608  0.98659  0.36456  1.0000
  H   H1447     1.0  0.59169  0.97142  0.20748  1.0000
  H   H1448     1.0  0.52595  0.97161  0.34039  1.0000
  H   H1449     1.0  0.50672  0.95880  0.28611  1.0000
  H   H1450     1.0  0.51099  0.99031  0.39258  1.0000
  C   C1214     1.0  0.43067  0.99089  0.05605  1.0000
  C   C1215     1.0  0.41862  0.92756  0.47136  1.0000
  C   C1216     1.0  0.58651  0.95954  0.19078  1.0000
  H   H1451     1.0  0.59015  0.94111  0.24049  1.0000
  Fe  Fe153     1.0  0.55151  0.93848  0.01642  1.0000
  H   H1452     1.0  0.44580  0.98171  0.27651  1.0000
  C   C1217     1.0  0.48310  0.98795  0.36848  1.0000
  C   C1218     1.0  0.50012  0.96696  0.30913  1.0000
  H   H1453     1.0  0.31127  0.75915  0.14736  1.0000
  C   C1219     1.0  0.49464  0.98962  0.15863  1.0000
  C   C1220     1.0  0.35806  0.77027  0.09664  1.0000
  H   H1454     1.0  0.42572  0.97866  0.30564  1.0000
  H   H1455     1.0  0.54487  0.97865  0.21622  1.0000
  H   H1456     1.0  0.30672  0.79336  0.00929  1.0000
  C   C1221     1.0  0.46683  0.93294  0.04573  1.0000
  H   H1457     1.0  0.47322  0.96403  0.28405  1.0000
  H   H1458     1.0  0.34286  0.74944  0.25274  1.0000
  H   H1459     1.0  0.63070  0.80387  0.04681  1.0000
  H   H1460     1.0  0.42106  0.93577  0.49766  1.0000
  C   C1222     1.0  0.59906  0.97822  0.10483  1.0000
  H   H1461     1.0  0.61197  0.97605  0.12296  1.0000
  H   H1462     1.0  0.60062  0.99149  0.08749  1.0000
  H   H1463     1.0  0.61128  0.81119  0.01594  1.0000
  C   C1223     1.0  0.62516  0.81546  0.02751  1.0000
  H   H1464     1.0  0.31856  0.76069  0.02488  1.0000
  C   C1224     1.0  0.30564  0.76600  0.03753  1.0000
  S   S311      1.0  0.30448  0.77241  0.33788  1.0000
  C   C1225     1.0  0.30892  0.75100  0.49462  1.0000
  H   H1465     1.0  0.35361  0.75977  0.49642  1.0000
  H   H1466     1.0  0.59742  0.99655  0.17121  1.0000
  C   C1226     1.0  0.58383  0.99644  0.15500  1.0000
  C   C1227     1.0  0.44459  0.99646  0.11967  1.0000
  H   H1467     1.0  0.47719  0.99633  0.39193  1.0000
  Fe  Fe154     1.0  0.44087  0.94901  0.68669  1.0000
  S   S312      1.0  0.43715  0.92120  0.65521  1.0000
  S   S313      1.0  0.43824  0.97969  0.66602  1.0000
  Fe  Fe155     1.0  0.45383  0.92936  0.76120  1.0000
  S   S314      1.0  0.45175  0.89981  0.73631  1.0000
  S   S315      1.0  0.46214  0.93809  0.82194  1.0000
  Fe  Fe156     1.0  0.46453  0.91240  0.68328  1.0000
  S   S316      1.0  0.48569  0.89627  0.64724  1.0000
  Fe  Fe157     1.0  0.42441  0.91059  0.71045  1.0000
  S   S317      1.0  0.40012  0.89033  0.70535  1.0000
  S   S318      1.0  0.46922  0.94089  0.71080  1.0000
  S   S319      1.0  0.42553  0.93941  0.73944  1.0000
  Fe  Fe158     1.0  0.34037  0.83053  0.84195  1.0000
  S   S320      1.0  0.35311  0.85979  0.84629  1.0000
  S   S321      1.0  0.35640  0.80334  0.82871  1.0000
  Fe  Fe159     1.0  0.55236  0.91917  0.93708  1.0000
  S   S322      1.0  0.54128  0.94753  0.95735  1.0000
  S   S323      1.0  0.53748  0.90204  0.89083  1.0000
  Fe  Fe160     1.0  0.58803  0.92217  0.98524  1.0000
  C   C1228     1.0  0.50375  0.97963  0.72246  1.0000
  C   C1229     1.0  0.47369  0.86055  0.86311  1.0000
  H   H1468     1.0  0.40600  0.86302  0.82776  1.0000
  H   H1469     1.0  0.56108  0.96036  0.76493  1.0000
  Fe  Fe161     1.0  0.56996  0.95809  0.94795  1.0000
  S   S324      1.0  0.56844  0.98793  0.92281  1.0000
  C   C1230     1.0  0.63582  0.80515  0.92768  1.0000
  S   S325      1.0  0.58057  0.93029  0.92326  1.0000
  H   H1470     1.0  0.56325  0.98001  0.79793  1.0000
  C   C1231     1.0  0.33627  0.75314  0.68719  1.0000
  N   N83       1.0  0.53808  0.96398  0.80375  1.0000
  H   H1471     1.0  0.53059  0.85999  0.55788  1.0000
  C   C1232     1.0  0.59252  0.98227  0.86141  1.0000
  Fe  Fe162     1.0  0.33132  0.79632  0.79177  1.0000
  H   H1472     1.0  0.44843  0.82576  0.78125  1.0000
  H   H1473     1.0  0.59708  0.96906  0.87533  1.0000
  C   C1233     1.0  0.50375  0.90962  0.62786  1.0000
  C   C1234     1.0  0.51057  0.92561  0.64744  1.0000
  C   C1235     1.0  0.52554  0.93554  0.63222  1.0000
  C   C1236     1.0  0.53346  0.92978  0.59695  1.0000
  C   C1237     1.0  0.41171  0.84826  0.82413  1.0000
  C   C1238     1.0  0.51184  0.90376  0.59283  1.0000
  H   H1474     1.0  0.50465  0.92994  0.67482  1.0000
  H   H1475     1.0  0.53091  0.94770  0.64780  1.0000
  H   H1476     1.0  0.60553  0.81768  0.58313  1.0000
  Fe  Fe163     1.0  0.55975  0.93429  0.51712  1.0000
  C   C1239     1.0  0.48286  0.92760  0.84078  1.0000
  C   C1240     1.0  0.48975  0.93392  0.87672  1.0000
  C   C1241     1.0  0.50636  0.92594  0.89246  1.0000
  C   C1242     1.0  0.51617  0.91159  0.87241  1.0000
  C   C1243     1.0  0.50907  0.90498  0.83674  1.0000
  C   C1244     1.0  0.49249  0.91309  0.82073  1.0000
  H   H1477     1.0  0.48218  0.94497  0.89246  1.0000
  H   H1478     1.0  0.51136  0.93062  0.92044  1.0000
  H   H1479     1.0  0.51652  0.89375  0.82122  1.0000
  H   H1480     1.0  0.48713  0.90801  0.79311  1.0000
  C   C1245     1.0  0.36557  0.86855  0.80654  1.0000
  C   C1246     1.0  0.36605  0.85874  0.77111  1.0000
  C   C1247     1.0  0.37638  0.86585  0.74018  1.0000
  C   C1248     1.0  0.38661  0.88259  0.74457  1.0000
  C   C1249     1.0  0.38614  0.89242  0.78001  1.0000
  C   C1250     1.0  0.37542  0.88556  0.81068  1.0000
  H   H1481     1.0  0.35846  0.84567  0.76755  1.0000
  H   H1482     1.0  0.37668  0.85818  0.71284  1.0000
  H   H1483     1.0  0.39389  0.90538  0.78363  1.0000
  H   H1484     1.0  0.37506  0.89326  0.83797  1.0000
  C   C1251     1.0  0.44008  0.97507  0.54818  1.0000
  C   C1252     1.0  0.43945  0.97039  0.58787  1.0000
  C   C1253     1.0  0.58634  0.96289  0.68403  1.0000
  H   H1485     1.0  0.43689  0.81946  0.82580  1.0000
  H   H1486     1.0  0.50249  0.96790  0.61050  1.0000
  H   H1487     1.0  0.43956  0.95557  0.59676  1.0000
  S   S326      1.0  0.33235  0.78597  0.72981  1.0000
  H   H1488     1.0  0.40083  0.84037  0.80760  1.0000
  C   C1254     1.0  0.63106  0.83788  0.97707  1.0000
  H   H1489     1.0  0.53256  0.90942  0.54992  1.0000
  H   H1490     1.0  0.56213  0.99528  0.62710  1.0000
  C   C1255     1.0  0.52702  0.97578  0.77549  1.0000
  C   C1256     1.0  0.31529  0.84425  0.66097  1.0000
  H   H1491     1.0  0.49698  0.95314  0.56967  1.0000
  H   H1492     1.0  0.58799  0.81223  0.54698  1.0000
  H   H1493     1.0  0.45556  0.96924  0.77137  1.0000
  C   C1257     1.0  0.57880  0.99395  0.87861  1.0000
  C   C1258     1.0  0.51382  0.96795  0.74884  1.0000
  C   C1259     1.0  0.55820  0.96519  0.79509  1.0000
  H   H1494     1.0  0.54226  0.96193  0.86607  1.0000
  H   H1495     1.0  0.54151  0.93503  0.82533  1.0000
  C   C1260     1.0  0.46131  0.96424  0.98673  1.0000
  H   H1496     1.0  0.32662  0.82750  0.70863  1.0000
  C   C1261     1.0  0.59998  0.94957  0.74452  1.0000
  H   H1497     1.0  0.56702  0.95627  0.81541  1.0000
  C   C1262     1.0  0.53333  0.94347  0.80308  1.0000
  Fe  Fe164     1.0  0.34012  0.79056  0.87723  1.0000
  H   H1498     1.0  0.51981  0.97163  0.85081  1.0000
  H   H1499     1.0  0.44083  0.85666  0.74935  1.0000
  H   H1500     1.0  0.56825  0.94286  0.65379  1.0000
  H   H1501     1.0  0.45045  0.90344  0.86439  1.0000
  H   H1502     1.0  0.51095  0.95287  0.74782  1.0000
  H   H1503     1.0  0.46483  0.83519  0.83581  1.0000
  C   C1263     1.0  0.46091  0.84993  0.84137  1.0000
  H   H1504     1.0  0.50671  0.93290  0.99238  1.0000
  H   H1505     1.0  0.42791  0.88556  0.82626  1.0000
  H   H1506     1.0  0.62312  0.83692  0.53975  1.0000
  C   C1264     1.0  0.49490  0.96777  0.58212  1.0000
  H   H1507     1.0  0.44355  0.97615  0.83456  1.0000
  H   H1508     1.0  0.53633  0.93666  0.77453  1.0000
  H   H1509     1.0  0.54041  0.98564  0.84863  1.0000
  H   H1510     1.0  0.47975  0.96984  0.58828  1.0000
  C   C1265     1.0  0.52156  0.97946  0.54840  1.0000
  C   C1266     1.0  0.44380  0.85839  0.82738  1.0000
  C   C1267     1.0  0.59213  0.97126  0.61725  1.0000
  C   C1268     1.0  0.59804  0.96449  0.71763  1.0000
  S   S327      1.0  0.61715  0.90954  0.99735  1.0000
  H   H1511     1.0  0.61448  0.90555  0.53877  1.0000
  H   H1512     1.0  0.59060  0.98224  0.59397  1.0000
  C   C1269     1.0  0.54267  0.85745  0.53978  1.0000
  C   C1270     1.0  0.53494  0.97113  0.84385  1.0000
  H   H1513     1.0  0.56011  0.84869  0.58738  1.0000
  H   H1514     1.0  0.59213  0.92111  0.75965  1.0000
  C   C1271     1.0  0.44008  0.99426  0.53627  1.0000
  C   C1272     1.0  0.49450  0.96717  0.98459  1.0000
  H   H1515     1.0  0.63095  0.88711  0.59130  1.0000
  C   C1273     1.0  0.45327  0.88843  0.85823  1.0000
  H   H1516     1.0  0.33342  0.76207  0.66209  1.0000
  H   H1517     1.0  0.63480  0.79093  0.87196  1.0000
  C   C1274     1.0  0.45279  0.98445  0.76350  1.0000
  C   C1275     1.0  0.43525  0.82729  0.79778  1.0000
  C   C1276     1.0  0.30986  0.88068  0.81677  1.0000
  H   H1518     1.0  0.58142  0.82273  0.59254  1.0000
  H   H1519     1.0  0.41299  0.84187  0.85367  1.0000
  H   H1520     1.0  0.50662  0.89138  0.57767  1.0000
  C   C1277     1.0  0.44045  0.87801  0.83637  1.0000
  C   C1278     1.0  0.52651  0.91396  0.57713  1.0000
  H   H1521     1.0  0.46068  0.95459  0.96100  1.0000
  H   H1522     1.0  0.47985  0.88792  0.88826  1.0000
  H   H1523     1.0  0.52715  0.99097  0.53003  1.0000
  C   C1279     1.0  0.35970  0.74912  0.51606  1.0000
  H   H1524     1.0  0.61166  0.97924  0.81380  1.0000
  H   H1525     1.0  0.42257  0.87189  0.76740  1.0000
  H   H1526     1.0  0.55754  0.98788  0.67589  1.0000
  H   H1527     1.0  0.31423  0.86471  0.88892  1.0000
  H   H1528     1.0  0.41690  0.84940  0.74698  1.0000
  H   H1529     1.0  0.62986  0.84977  0.99862  1.0000
  C   C1280     1.0  0.60074  0.98803  0.82660  1.0000
  H   H1530     1.0  0.61688  0.83630  0.96391  1.0000
  C   C1281     1.0  0.46985  0.87971  0.87164  1.0000
  H   H1531     1.0  0.60603  0.97704  0.72369  1.0000
  C   C1282     1.0  0.31423  0.83130  0.69141  1.0000
  N   N84       1.0  0.50135  0.98275  0.55553  1.0000
  H   H1532     1.0  0.49376  0.97344  0.70235  1.0000
  C   C1283     1.0  0.56413  0.98332  0.64819  1.0000
  H   H1533     1.0  0.60725  0.96739  0.62072  1.0000
  C   C1284     1.0  0.33713  0.76132  0.72436  1.0000
  S   S328      1.0  0.31636  0.78125  0.83888  1.0000
  N   N85       1.0  0.58421  0.97818  0.65442  1.0000
  C   C1285     1.0  0.59042  0.93269  0.73889  1.0000
  H   H1534     1.0  0.49284  0.98250  0.97604  1.0000
  H   H1535     1.0  0.52432  0.96560  0.53330  1.0000
  H   H1536     1.0  0.42721  0.99430  0.81729  1.0000
  S   S329      1.0  0.55200  0.94258  0.57818  1.0000
  C   C1286     1.0  0.59888  0.85580  0.58342  1.0000
  S   S330      1.0  0.32624  0.81839  0.89397  1.0000
  H   H1537     1.0  0.48675  0.85395  0.87327  1.0000
  H   H1538     1.0  0.32858  0.85057  0.65469  1.0000
  S   S331      1.0  0.56043  0.90884  0.99724  1.0000
  H   H1539     1.0  0.60917  0.99375  0.66830  1.0000
  H   H1540     1.0  0.57165  0.91737  0.70149  1.0000
  C   C1287     1.0  0.52952  0.99580  0.77359  1.0000
  H   H1541     1.0  0.53007  0.97864  0.57557  1.0000
  H   H1542     1.0  0.35501  0.74978  0.99483  1.0000
  H   H1543     1.0  0.51836  0.94165  0.80977  1.0000
  H   H1544     1.0  0.47788  0.97868  0.81772  1.0000
  S   S332      1.0  0.31635  0.82449  0.80160  1.0000
  S   S333      1.0  0.35281  0.77358  0.92715  1.0000
  C   C1288     1.0  0.59209  0.82286  0.56948  1.0000
  C   C1289     1.0  0.43870  0.98490  0.61588  1.0000
  H   H1545     1.0  0.42437  0.81978  0.78046  1.0000
  H   H1546     1.0  0.58515  0.95831  0.60612  1.0000
  N   N86       1.0  0.42992  0.84772  0.80415  1.0000
  C   C1290     1.0  0.42747  0.85674  0.76541  1.0000
  H   H1547     1.0  0.55613  0.97132  0.63593  1.0000
  C   C1291     1.0  0.62477  0.89456  0.53157  1.0000
  C   C1292     1.0  0.34239  0.75178  0.93768  1.0000
  H   H1548     1.0  0.34204  0.75594  0.78532  1.0000
  C   C1293     1.0  0.60966  0.84102  0.52477  1.0000
  H   H1549     1.0  0.49518  0.95878  0.95713  1.0000
  H   H1550     1.0  0.45972  0.97926  0.97619  1.0000
  C   C1294     1.0  0.57693  0.94541  0.67913  1.0000
  H   H1551     1.0  0.58932  0.85539  0.60841  1.0000
  C   C1295     1.0  0.63414  0.88411  0.56126  1.0000
  H   H1552     1.0  0.44083  0.96378  0.52669  1.0000
  H   H1553     1.0  0.59848  0.87071  0.57216  1.0000
  H   H1554     1.0  0.60912  0.95108  0.76973  1.0000
  C   C1296     1.0  0.57889  0.93063  0.70625  1.0000
  H   H1555     1.0  0.43820  0.98520  0.75173  1.0000
  H   H1556     1.0  0.50819  0.96568  0.00028  1.0000
  H   H1557     1.0  0.31977  0.88569  0.83828  1.0000
  H   H1558     1.0  0.46246  0.98781  0.73969  1.0000
  C   C1297     1.0  0.49145  0.98037  0.51760  1.0000
  C   C1298     1.0  0.44190  0.99165  0.82740  1.0000
  H   H1559     1.0  0.32943  0.88502  0.77104  1.0000
  C   C1299     1.0  0.35971  0.75241  0.55597  1.0000
  H   H1560     1.0  0.35360  0.76556  0.56739  1.0000
  H   H1561     1.0  0.61321  0.85279  0.59554  1.0000
  C   C1300     1.0  0.47456  0.99416  0.81290  1.0000
  H   H1562     1.0  0.63202  0.81864  0.91422  1.0000
  H   H1563     1.0  0.32857  0.74915  0.88209  1.0000
  C   C1301     1.0  0.55968  0.85110  0.55639  1.0000
  H   H1564     1.0  0.47607  0.98092  0.52092  1.0000
  N   N87       1.0  0.59386  0.84209  0.55218  1.0000
  C   C1302     1.0  0.31560  0.88027  0.77819  1.0000
  C   C1303     1.0  0.34118  0.74970  0.75658  1.0000
  C   C1304     1.0  0.57588  0.84824  0.53359  1.0000
  H   H1565     1.0  0.44877  0.96169  0.00428  1.0000
  C   C1305     1.0  0.59378  0.99605  0.66518  1.0000
  H   H1566     1.0  0.30842  0.87304  0.71934  1.0000
  S   S334      1.0  0.57963  0.95122  0.00885  1.0000
  C   C1306     1.0  0.63735  0.78928  0.90293  1.0000
  H   H1567     1.0  0.61183  0.85512  0.51092  1.0000
  Fe  Fe165     1.0  0.72488  0.15742  0.04161  1.0000
  H   H1568     1.0  0.92690  0.10207  0.20089  1.0000
  N   N88       1.0  0.94086  0.12499  0.17237  1.0000
  Fe  Fe166     1.0  0.71116  0.19343  0.08175  1.0000
  S   S335      1.0  0.68325  0.19374  0.05049  1.0000
  S   S336      1.0  0.72515  0.21585  0.11838  1.0000
  Fe  Fe167     1.0  0.68391  0.16193  0.06299  1.0000
  H   H1569     1.0  0.82165  0.11461  0.35034  1.0000
  H   H1570     1.0  0.66042  0.23150  0.43929  1.0000
  S   S337      1.0  0.72731  0.18822  0.02757  1.0000
  S   S338      1.0  0.71071  0.16240  0.09854  1.0000
  H   H1571     1.0  0.75598  0.18376  0.09119  1.0000
  H   H1572     1.0  0.96198  0.13939  0.20563  1.0000
  C   C1307     1.0  0.79972  0.08325  0.43496  1.0000
  Fe  Fe168     1.0  0.93216  0.05848  0.21598  1.0000
  S   S339      1.0  0.94104  0.02988  0.24154  1.0000
  S   S340      1.0  0.90260  0.07133  0.21488  1.0000
  C   C1308     1.0  0.68135  0.23244  0.18436  1.0000
  Fe  Fe169     1.0  0.95800  0.02544  0.18766  1.0000
  H   H1573     1.0  0.83176  0.09348  0.32856  1.0000
  C   C1309     1.0  0.95569  0.12506  0.20302  1.0000
  S   S341      1.0  0.94654  0.05219  0.15922  1.0000
  Fe  Fe170     1.0  0.82139  0.18419  0.29273  1.0000
  S   S342      1.0  0.85155  0.18914  0.30673  1.0000
  S   S343      1.0  0.80600  0.19691  0.24095  1.0000
  Fe  Fe171     1.0  0.81475  0.16472  0.36972  1.0000
  S   S344      1.0  0.84429  0.16852  0.39030  1.0000
  S   S345      1.0  0.79399  0.14796  0.40351  1.0000
  Fe  Fe172     1.0  0.84098  0.19796  0.36519  1.0000
  S   S346      1.0  0.85240  0.22498  0.39070  1.0000
  Fe  Fe173     1.0  0.85232  0.15909  0.32999  1.0000
  S   S347      1.0  0.87818  0.13941  0.32851  1.0000
  S   S348      1.0  0.81075  0.19500  0.34978  1.0000
  S   S349      1.0  0.82282  0.15331  0.31092  1.0000
  C   C1310     1.0  0.89576  0.09011  0.24682  1.0000
  C   C1311     1.0  0.90716  0.09549  0.27812  1.0000
  C   C1312     1.0  0.90148  0.11058  0.30274  1.0000
  C   C1313     1.0  0.88440  0.12053  0.29634  1.0000
  C   C1314     1.0  0.87293  0.11516  0.26511  1.0000
  C   C1315     1.0  0.87859  0.09997  0.24053  1.0000
  H   H1574     1.0  0.92031  0.08793  0.28359  1.0000
  H   H1575     1.0  0.91042  0.11459  0.32690  1.0000
  H   H1576     1.0  0.85977  0.12272  0.25974  1.0000
  H   H1577     1.0  0.86969  0.09591  0.21634  1.0000
  H   H1578     1.0  0.81095  0.21712  0.08250  1.0000
  C   C1316     1.0  0.71939  0.23970  0.18027  1.0000
  H   H1579     1.0  0.93986  0.12641  0.10973  1.0000
  H   H1580     1.0  0.74761  0.18033  0.43185  1.0000
  H   H1581     1.0  0.87123  0.10092  0.36260  1.0000
  C   C1317     1.0  0.78640  0.17684  0.45645  1.0000
  C   C1318     1.0  0.78220  0.15853  0.44308  1.0000
  C   C1319     1.0  0.76849  0.14820  0.46193  1.0000
  H   H1582     1.0  0.82241  0.22212  0.01704  1.0000
  H   H1583     1.0  0.95723  0.14129  0.13295  1.0000
  H   H1584     1.0  0.79692  0.18494  0.44212  1.0000
  H   H1585     1.0  0.76512  0.13405  0.45165  1.0000
  H   H1586     1.0  0.66354  0.11035  0.19478  1.0000
  H   H1587     1.0  0.79748  0.23032  0.19546  1.0000
  H   H1588     1.0  0.76035  0.22079  0.02867  1.0000
  C   C1320     1.0  0.79041  0.19587  0.06594  1.0000
  C   C1321     1.0  0.70506  0.11408  0.07854  1.0000
  C   C1322     1.0  0.71421  0.08484  0.04597  1.0000
  H   H1589     1.0  0.70296  0.20636  0.43107  1.0000
  C   C1323     1.0  0.82301  0.23754  0.16732  1.0000
  N   N89       1.0  0.69801  0.09702  0.05802  1.0000
  N   N90       1.0  0.78381  0.19276  0.10595  1.0000
  C   C1324     1.0  0.64998  0.13014  0.10806  1.0000
  C   C1325     1.0  0.85039  0.23993  0.27958  1.0000
  H   H1590     1.0  0.72309  0.09236  0.02486  1.0000
  H   H1591     1.0  0.80335  0.23903  0.27736  1.0000
  C   C1326     1.0  0.82095  0.23022  0.43484  1.0000
  H   H1592     1.0  0.93343  0.00895  0.11863  1.0000
  C   C1327     1.0  0.81206  0.22645  0.19151  1.0000
  H   H1593     1.0  0.81599  0.21714  0.42208  1.0000
  H   H1594     1.0  0.73281  0.23839  0.37054  1.0000
  C   C1328     1.0  0.76295  0.19813  0.32330  1.0000
  H   H1595     1.0  0.71338  0.11036  0.10510  1.0000
  C   C1329     1.0  0.81999  0.21060  0.21104  1.0000
  C   C1330     1.0  0.83889  0.20579  0.20625  1.0000
  C   C1331     1.0  0.80465  0.20913  0.05897  1.0000
  H   H1596     1.0  0.72364  0.08090  0.07077  1.0000
  H   H1597     1.0  0.76501  0.21724  0.10443  1.0000
  H   H1598     1.0  0.84501  0.19338  0.22074  1.0000
  C   C1332     1.0  0.65483  0.11349  0.16951  1.0000
  C   C1333     1.0  0.93219  0.10600  0.17195  1.0000
  Fe  Fe174     1.0  0.97091  0.06628  0.18760  1.0000
  H   H1599     1.0  0.77121  0.20920  0.15238  1.0000
  C   C1334     1.0  0.89814  0.16782  0.19815  1.0000
  H   H1600     1.0  0.66658  0.22969  0.18572  1.0000
  H   H1601     1.0  0.83367  0.12667  0.41193  1.0000
  C   C1335     1.0  0.68604  0.08624  0.08442  1.0000
  C   C1336     1.0  0.83026  0.08765  0.40524  1.0000
  H   H1602     1.0  0.77259  0.17534  0.03534  1.0000
  C   C1337     1.0  0.71140  0.22649  0.15467  1.0000
  C   C1338     1.0  0.69241  0.22272  0.15699  1.0000
  H   H1603     1.0  0.74927  0.24450  0.31053  1.0000
  C   C1339     1.0  0.69368  0.07816  0.11922  1.0000
  H   H1604     1.0  0.70555  0.20099  0.38023  1.0000
  H   H1605     1.0  0.68615  0.21252  0.13736  1.0000
  H   H1606     1.0  0.70818  0.07983  0.12724  1.0000
  C   C1340     1.0  0.67335  0.23673  0.45142  1.0000
  C   C1341     1.0  0.75917  0.15599  0.49424  1.0000
  C   C1342     1.0  0.75051  0.23049  0.32383  1.0000
  C   C1343     1.0  0.66372  0.06595  0.13682  1.0000
  H   H1607     1.0  0.82911  0.16600  0.47637  1.0000
  C   C1344     1.0  0.83492  0.06837  0.41529  1.0000
  C   C1345     1.0  0.77668  0.21111  0.12254  1.0000
  C   C1346     1.0  0.81222  0.09468  0.41552  1.0000
  C   C1347     1.0  0.81136  0.21208  0.02160  1.0000
  H   H1608     1.0  0.75390  0.21418  0.44855  1.0000
  C   C1348     1.0  0.84652  0.11754  0.40880  1.0000
  C   C1349     1.0  0.68262  0.06823  0.14499  1.0000
  H   H1609     1.0  0.73155  0.21422  0.47131  1.0000
  H   H1610     1.0  0.94234  0.09444  0.16361  1.0000
  H   H1611     1.0  0.96884  0.00945  0.43824  1.0000
  C   C1350     1.0  0.68812  0.10376  0.02208  1.0000
  H   H1612     1.0  0.78124  0.19830  0.50045  1.0000
  H   H1613     1.0  0.81113  0.19563  0.13293  1.0000
  N   N91       1.0  0.84324  0.10019  0.38497  1.0000
  C   C1351     1.0  0.75352  0.19422  0.35750  1.0000
  H   H1614     1.0  0.76382  0.17698  0.13861  1.0000
  H   H1615     1.0  0.75553  0.17994  0.36903  1.0000
  C   C1352     1.0  0.80474  0.06447  0.44460  1.0000
  H   H1616     1.0  0.86906  0.08647  0.40471  1.0000
  H   H1617     1.0  0.79501  0.05565  0.45972  1.0000
  H   H1618     1.0  0.91961  0.12877  0.23779  1.0000
  C   C1353     1.0  0.77745  0.18441  0.48940  1.0000
  S   S350      1.0  0.95597  0.07458  0.24232  1.0000
  C   C1354     1.0  0.66108  0.12616  0.14104  1.0000
  H   H1619     1.0  0.86136  0.22836  0.27880  1.0000
  C   C1355     1.0  0.65579  0.07363  0.10293  1.0000
  C   C1356     1.0  0.92131  0.15480  0.15411  1.0000
  C   C1357     1.0  0.91669  0.13973  0.21633  1.0000
  C   C1358     1.0  0.80985  0.24039  0.46153  1.0000
  C   C1359     1.0  0.74102  0.22677  0.35805  1.0000
  H   H1620     1.0  0.90359  0.17963  0.14213  1.0000
  C   C1360     1.0  0.84194  0.23280  0.16263  1.0000
  C   C1361     1.0  0.76854  0.17885  0.10822  1.0000
  H   H1621     1.0  0.81429  0.23815  0.34607  1.0000
  C   C1362     1.0  0.92641  0.13995  0.18074  1.0000
  C   C1363     1.0  0.69702  0.23619  0.50231  1.0000
  H   H1622     1.0  0.80552  0.17176  0.11878  1.0000
  C   C1364     1.0  0.90736  0.16848  0.16289  1.0000
  H   H1623     1.0  0.67653  0.11416  0.02882  1.0000
  C   C1365     1.0  0.79957  0.18540  0.13064  1.0000
  C   C1366     1.0  0.78331  0.18581  0.03311  1.0000
  H   H1624     1.0  0.70864  0.22474  0.39816  1.0000
  H   H1625     1.0  0.84823  0.06167  0.40852  1.0000
  H   H1626     1.0  0.96718  0.11446  0.19673  1.0000
  C   C1367     1.0  0.76141  0.21617  0.30643  1.0000
  H   H1627     1.0  0.92010  0.10559  0.15122  1.0000
  H   H1628     1.0  0.76871  0.21900  0.27979  1.0000
  S   S351      1.0  0.65729  0.14532  0.07034  1.0000
  C   C1368     1.0  0.83838  0.23707  0.42477  1.0000
  C   C1369     1.0  0.90283  0.15350  0.22485  1.0000
  S   S352      1.0  0.96745  0.99735  0.16063  1.0000
  C   C1370     1.0  0.66664  0.08380  0.07716  1.0000
  H   H1629     1.0  0.67440  0.13286  0.14474  1.0000
  H   H1630     1.0  0.96097  0.11602  0.12937  1.0000
  H   H1631     1.0  0.65932  0.09011  0.05250  1.0000
  H   H1632     1.0  0.85711  0.12678  0.39555  1.0000
  C   C1371     1.0  0.84985  0.21692  0.18215  1.0000
  H   H1633     1.0  0.80760  0.10913  0.40859  1.0000
  H   H1634     1.0  0.85168  0.11366  0.43850  1.0000
  C   C1372     1.0  0.73294  0.18460  0.42475  1.0000
  H   H1635     1.0  0.72744  0.17460  0.40239  1.0000
  H   H1636     1.0  0.86448  0.21320  0.17849  1.0000
  H   H1637     1.0  0.86052  0.07839  0.35759  1.0000
  H   H1638     1.0  0.95622  0.03055  0.45389  1.0000
  C   C1373     1.0  0.73868  0.21696  0.44340  1.0000
  H   H1639     1.0  0.69326  0.12369  0.08760  1.0000
  C   C1374     1.0  0.86176  0.09096  0.37729  1.0000
  H   H1640     1.0  0.92778  0.15613  0.12621  1.0000
  H   H1641     1.0  0.72494  0.18232  0.45180  1.0000
  H   H1642     1.0  0.77302  0.16440  0.09759  1.0000
  H   H1643     1.0  0.77158  0.18709  0.30972  1.0000
  H   H1644     1.0  0.72746  0.23026  0.04117  1.0000
  C   C1375     1.0  0.95005  0.12742  0.13439  1.0000
  H   H1645     1.0  0.73658  0.23246  0.43712  1.0000
  C   C1376     1.0  0.97049  0.02427  0.44953  1.0000
  N   N92       1.0  0.73148  0.20477  0.41149  1.0000
  C   C1377     1.0  0.74198  0.20841  0.37566  1.0000
  C   C1378     1.0  0.71134  0.20942  0.40491  1.0000
  C   C1379     1.0  0.68035  0.22934  0.48679  1.0000
  H   H1646     1.0  0.88727  0.17836  0.20476  1.0000
  H   H1647     1.0  0.79514  0.18265  0.16097  1.0000
  H   H1648     1.0  0.89560  0.15298  0.25227  1.0000
  H   H1649     1.0  0.84448  0.11524  0.33052  1.0000
  H   H1650     1.0  0.63889  0.06804  0.48337  1.0000
  H   H1651     1.0  0.78758  0.22203  0.12494  1.0000
  C   C1380     1.0  0.83489  0.10612  0.34702  1.0000
  H   H1652     1.0  0.71433  0.12245  0.05975  1.0000
  Fe  Fe175     1.0  0.96573  0.04571  0.26440  1.0000
  H   H1653     1.0  0.95041  0.12118  0.23205  1.0000
  H   H1654     1.0  0.65501  0.05884  0.15749  1.0000
  H   H1655     1.0  0.68858  0.06262  0.17192  1.0000
  S   S353      1.0  0.75106  0.13965  0.03333  1.0000
  H   H1656     1.0  0.79633  0.23511  0.46908  1.0000
  H   H1657     1.0  0.64090  0.07245  0.09761  1.0000
  H   H1658     1.0  0.84111  0.23788  0.25390  1.0000
  H   H1659     1.0  0.78605  0.08906  0.44257  1.0000
  H   H1660     1.0  0.96874  0.01882  0.02761  1.0000
  H   H1661     1.0  0.82612  0.04238  0.44226  1.0000
  C   C1381     1.0  0.82228  0.05704  0.43474  1.0000
  H   H1662     1.0  0.70950  0.07138  0.03205  1.0000
  H   H1663     1.0  0.84267  0.19615  0.49448  1.0000
  C   C1382     1.0  0.68925  0.24587  0.20959  1.0000
  H   H1664     1.0  0.84195  0.23758  0.30587  1.0000
  H   H1665     1.0  0.73411  0.24260  0.17859  1.0000
  H   H1666     1.0  0.84245  0.22800  0.50828  1.0000
  C   C1383     1.0  0.72863  0.23958  0.01526  1.0000
  H   H1667     1.0  0.93449  0.02488  0.01316  1.0000
  C   C1384     1.0  0.76381  0.17403  0.50840  1.0000
  C   C1385     1.0  0.82645  0.17199  0.50489  1.0000
  H   H1668     1.0  0.74877  0.14783  0.50883  1.0000
  Fe  Fe176     1.0  0.72418  0.17747  0.56940  1.0000
  S   S354      1.0  0.69978  0.16703  0.53410  1.0000
  H   H1669     1.0  0.83408  0.24419  0.77681  1.0000
  Fe  Fe177     1.0  0.69930  0.18917  0.63754  1.0000
  S   S355      1.0  0.67290  0.18045  0.60735  1.0000
  S   S356      1.0  0.70008  0.19993  0.69921  1.0000
  Fe  Fe178     1.0  0.68961  0.15431  0.59011  1.0000
  C   C1386     1.0  0.93189  0.12190  0.69304  1.0000
  Fe  Fe179     1.0  0.68508  0.19392  0.55445  1.0000
  H   H1670     1.0  0.65010  0.16992  0.74292  1.0000
  S   S357      1.0  0.71562  0.16232  0.62361  1.0000
  S   S358      1.0  0.70989  0.20505  0.58681  1.0000
  H   H1671     1.0  0.86515  0.22673  0.95096  1.0000
  H   H1672     1.0  0.85537  0.23923  0.54610  1.0000
  Fe  Fe180     1.0  0.93503  0.06163  0.69087  1.0000
  S   S359      1.0  0.93970  0.03381  0.72302  1.0000
  S   S360      1.0  0.90742  0.07712  0.67818  1.0000
  H   H1673     1.0  0.80840  0.14933  0.52090  1.0000
  Fe  Fe181     1.0  0.96009  0.02643  0.67584  1.0000
  C   C1387     1.0  0.84088  0.24157  0.68714  1.0000
  H   H1674     1.0  0.69760  0.11140  0.00247  1.0000
  S   S361      1.0  0.95331  0.05273  0.64080  1.0000
  Fe  Fe182     1.0  0.82384  0.17259  0.77048  1.0000
  S   S362      1.0  0.85318  0.17063  0.79473  1.0000
  S   S363      1.0  0.81285  0.18567  0.71448  1.0000
  Fe  Fe183     1.0  0.80687  0.15609  0.84258  1.0000
  S   S364      1.0  0.83452  0.15259  0.87358  1.0000
  S   S365      1.0  0.77723  0.15147  0.86057  1.0000
  Fe  Fe184     1.0  0.84049  0.18158  0.84996  1.0000
  S   S366      1.0  0.85589  0.20320  0.88597  1.0000
  Fe  Fe185     1.0  0.84533  0.14167  0.81618  1.0000
  S   S367      1.0  0.86660  0.11706  0.82034  1.0000
  S   S368      1.0  0.81197  0.18612  0.82388  1.0000
  S   S369      1.0  0.81691  0.14265  0.78709  1.0000
  C   C1388     1.0  0.89493  0.08689  0.71768  1.0000
  C   C1389     1.0  0.90007  0.08230  0.75593  1.0000
  C   C1390     1.0  0.89074  0.09119  0.78705  1.0000
  C   C1391     1.0  0.87630  0.10482  0.78022  1.0000
  C   C1392     1.0  0.87085  0.10912  0.74193  1.0000
  C   C1393     1.0  0.88011  0.10010  0.71075  1.0000
  H   H1675     1.0  0.91131  0.07198  0.76155  1.0000
  H   H1676     1.0  0.89494  0.08772  0.81659  1.0000
  H   H1677     1.0  0.85970  0.11955  0.73638  1.0000
  H   H1678     1.0  0.87599  0.10360  0.68119  1.0000
  H   H1679     1.0  0.69120  0.19554  0.83103  1.0000
  H   H1680     1.0  0.80971  0.20393  0.96135  1.0000
  H   H1681     1.0  0.93496  0.15410  0.80865  1.0000
  H   H1682     1.0  0.93103  0.10261  0.77671  1.0000
  C   C1394     1.0  0.74695  0.15174  0.95804  1.0000
  C   C1395     1.0  0.75289  0.15431  0.91994  1.0000
  C   C1396     1.0  0.77113  0.14913  0.90953  1.0000
  C   C1397     1.0  0.78354  0.14141  0.93758  1.0000
  C   C1398     1.0  0.82266  0.23844  0.67382  1.0000
  H   H1683     1.0  0.73282  0.15583  0.96546  1.0000
  H   H1684     1.0  0.74322  0.16025  0.89841  1.0000
  H   H1685     1.0  0.79762  0.13724  0.92960  1.0000
  C   C1399     1.0  0.70615  0.14927  0.82528  1.0000
  H   H1686     1.0  0.67991  0.14165  0.67742  1.0000
  H   H1687     1.0  0.74227  0.15608  0.72404  1.0000
  H   H1688     1.0  0.77675  0.16506  0.73581  1.0000
  H   H1689     1.0  0.94245  0.16160  0.76160  1.0000
  N   N93       1.0  0.95533  0.01715  0.97083  1.0000
  H   H1690     1.0  0.77088  0.16492  0.78548  1.0000
  H   H1691     1.0  0.67479  0.18707  0.77178  1.0000
  H   H1692     1.0  0.73932  0.19569  0.69847  1.0000
  H   H1693     1.0  0.65344  0.13622  0.76965  1.0000
  H   H1694     1.0  0.76302  0.20277  0.70971  1.0000
  N   N94       1.0  0.67386  0.15062  0.73607  1.0000
  C   C1400     1.0  0.65379  0.10017  0.63110  1.0000
  H   H1695     1.0  0.93198  0.11128  0.63428  1.0000
  S   S370      1.0  0.69839  0.15432  0.00731  1.0000
  C   C1401     1.0  0.91357  0.13662  0.76059  1.0000
  H   H1696     1.0  0.72420  0.17222  0.74142  1.0000
  H   H1697     1.0  0.73064  0.23233  0.86112  1.0000
  H   H1698     1.0  0.75853  0.18006  0.68823  1.0000
  H   H1699     1.0  0.71111  0.17192  0.86647  1.0000
  C   C1402     1.0  0.84272  0.22078  0.91062  1.0000
  C   C1403     1.0  0.82372  0.20706  0.70391  1.0000
  C   C1404     1.0  0.84185  0.21022  0.71737  1.0000
  Fe  Fe186     1.0  0.96363  0.04886  0.75152  1.0000
  H   H1700     1.0  0.75032  0.17663  0.82808  1.0000
  H   H1701     1.0  0.95803  0.02869  0.89236  1.0000
  H   H1702     1.0  0.84940  0.19930  0.73384  1.0000
  C   C1405     1.0  0.68735  0.23235  0.96416  1.0000
  H   H1703     1.0  0.69773  0.22185  0.87048  1.0000
  H   H1704     1.0  0.73760  0.22002  0.74091  1.0000
  C   C1406     1.0  0.84190  0.24657  0.95818  1.0000
  H   H1705     1.0  0.68582  0.22555  0.99203  1.0000
  H   H1706     1.0  0.69674  0.13353  0.71282  1.0000
  H   H1707     1.0  0.74100  0.19934  0.87841  1.0000
  H   H1708     1.0  0.78088  0.18576  0.76521  1.0000
  H   H1709     1.0  0.67201  0.12077  0.75239  1.0000
  C   C1407     1.0  0.69364  0.23248  0.74142  1.0000
  C   C1408     1.0  0.69358  0.22417  0.70437  1.0000
  H   H1710     1.0  0.86821  0.24481  0.85997  1.0000
  C   C1409     1.0  0.69656  0.14386  0.79139  1.0000
  C   C1410     1.0  0.68904  0.23543  0.67188  1.0000
  H   H1711     1.0  0.69672  0.22373  0.76670  1.0000
  H   H1712     1.0  0.68871  0.22907  0.64324  1.0000
  H   H1713     1.0  0.66333  0.08879  0.62218  1.0000
  H   H1714     1.0  0.73840  0.15845  0.77507  1.0000
  H   H1715     1.0  0.87657  0.24339  0.79454  1.0000
  H   H1716     1.0  0.65426  0.12892  0.71963  1.0000
  C   C1411     1.0  0.94044  0.11638  0.65842  1.0000
  C   C1412     1.0  0.68435  0.15688  0.77114  1.0000
  H   H1717     1.0  0.64785  0.14844  0.62615  1.0000
  N   N95       1.0  0.93398  0.13237  0.76387  1.0000
  H   H1718     1.0  0.80138  0.16320  0.58529  1.0000
  H   H1719     1.0  0.93180  0.00177  0.99177  1.0000
  C   C1413     1.0  0.95642  0.00538  0.93500  1.0000
  C   C1414     1.0  0.78155  0.23846  0.75149  1.0000
  C   C1415     1.0  0.68310  0.17590  0.78586  1.0000
  H   H1720     1.0  0.78685  0.13200  0.99716  1.0000
  H   H1721     1.0  0.80025  0.21847  0.67072  1.0000
  C   C1416     1.0  0.77106  0.24589  0.72003  1.0000
  H   H1722     1.0  0.77331  0.23951  0.69182  1.0000
  C   C1417     1.0  0.93604  0.01663  0.98562  1.0000
  C   C1418     1.0  0.93693  0.11572  0.78994  1.0000
  C   C1419     1.0  0.81081  0.17039  0.56619  1.0000
  H   H1723     1.0  0.72532  0.23030  0.98983  1.0000
  H   H1724     1.0  0.65230  0.16010  0.69518  1.0000
  H   H1725     1.0  0.72845  0.24203  0.79222  1.0000
  N   N96       1.0  0.75204  0.18230  0.74929  1.0000
  C   C1420     1.0  0.73865  0.16655  0.74734  1.0000
  C   C1421     1.0  0.75323  0.19072  0.70983  1.0000
  C   C1422     1.0  0.77086  0.17420  0.75944  1.0000
  C   C1423     1.0  0.74594  0.19622  0.77938  1.0000
  C   C1424     1.0  0.74613  0.19092  0.81916  1.0000
  C   C1425     1.0  0.73913  0.21500  0.77038  1.0000
  C   C1426     1.0  0.74074  0.20382  0.84822  1.0000
  C   C1427     1.0  0.73373  0.22781  0.79969  1.0000
  C   C1428     1.0  0.73479  0.22233  0.83852  1.0000
  H   H1726     1.0  0.74448  0.24130  0.66191  1.0000
  C   C1429     1.0  0.77740  0.13835  0.97570  1.0000
  H   H1727     1.0  0.81804  0.21844  0.87458  1.0000
  C   C1430     1.0  0.97069  0.12203  0.68715  1.0000
  C   C1431     1.0  0.66041  0.16542  0.72064  1.0000
  H   H1728     1.0  0.69596  0.15818  0.69829  1.0000
  H   H1729     1.0  0.81298  0.23171  0.54603  1.0000
  H   H1730     1.0  0.95202  0.11246  0.79566  1.0000
  C   C1432     1.0  0.85013  0.22516  0.53601  1.0000
  C   C1433     1.0  0.66299  0.13343  0.74496  1.0000
  C   C1434     1.0  0.94281  0.99737  0.59203  1.0000
  C   C1435     1.0  0.75903  0.14344  0.98589  1.0000
  H   H1731     1.0  0.92572  0.02256  0.96395  1.0000
  H   H1732     1.0  0.84081  0.20855  0.62576  1.0000
  C   C1436     1.0  0.69247  0.22143  0.93180  1.0000
  S   S371      1.0  0.69772  0.19689  0.93611  1.0000
  S   S372      1.0  0.67845  0.12428  0.59698  1.0000
  C   C1437     1.0  0.95709  0.00196  0.86387  1.0000
  C   C1438     1.0  0.81855  0.18768  0.57758  1.0000
  H   H1733     1.0  0.66764  0.17826  0.71020  1.0000
  H   H1734     1.0  0.79138  0.22658  0.74725  1.0000
  C   C1439     1.0  0.65773  0.11923  0.62208  1.0000
  H   H1735     1.0  0.77575  0.23700  0.00581  1.0000
  C   C1440     1.0  0.94257  0.12779  0.72597  1.0000
  H   H1736     1.0  0.69870  0.12934  0.78129  1.0000
  H   H1737     1.0  0.81493  0.19318  0.60596  1.0000
  C   C1441     1.0  0.80420  0.20190  0.99015  1.0000
  S   S373      1.0  0.75368  0.18362  0.55081  1.0000
  H   H1738     1.0  0.86260  0.21587  0.52991  1.0000
  N   N97       1.0  0.83791  0.21642  0.56510  1.0000
  H   H1739     1.0  0.90736  0.14079  0.78899  1.0000
  C   C1442     1.0  0.69407  0.23029  0.89563  1.0000
  C   C1443     1.0  0.76114  0.23194  0.00583  1.0000
  C   C1444     1.0  0.70403  0.16781  0.83971  1.0000
  H   H1740     1.0  0.86098  0.20356  0.59728  1.0000
  C   C1445     1.0  0.96844  0.00948  0.00130  1.0000
  H   H1741     1.0  0.82752  0.24455  0.82674  1.0000
  H   H1742     1.0  0.91035  0.14831  0.73949  1.0000
  C   C1446     1.0  0.85119  0.23085  0.94110  1.0000
  C   C1447     1.0  0.95991  0.03750  0.96460  1.0000
  H   H1743     1.0  0.91690  0.12074  0.69349  1.0000
  H   H1744     1.0  0.86485  0.22929  0.71761  1.0000
  S   S374      1.0  0.95763  0.07711  0.72291  1.0000
  C   C1448     1.0  0.83040  0.19781  0.55268  1.0000
  H   H1745     1.0  0.81323  0.22554  0.59632  1.0000
  C   C1449     1.0  0.95978  0.11654  0.65540  1.0000
  S   S375      1.0  0.96859  0.99731  0.65263  1.0000
  C   C1450     1.0  0.82467  0.22616  0.89798  1.0000
  H   H1746     1.0  0.90585  0.12387  0.75142  1.0000
  C   C1451     1.0  0.77950  0.24631  0.78845  1.0000
  C   C1452     1.0  0.84913  0.21395  0.60145  1.0000
  H   H1747     1.0  0.78474  0.18080  0.97135  1.0000
  H   H1748     1.0  0.85500  0.22774  0.61163  1.0000
  C   C1453     1.0  0.64524  0.13378  0.63362  1.0000
  C   C1454     1.0  0.69272  0.18111  0.81979  1.0000
  C   C1455     1.0  0.81479  0.16253  0.52998  1.0000
  C   C1456     1.0  0.81421  0.22104  0.68158  1.0000
  H   H1749     1.0  0.71517  0.13903  0.84073  1.0000
  C   C1457     1.0  0.85054  0.22728  0.70835  1.0000
  C   C1458     1.0  0.82217  0.23013  0.57229  1.0000
  C   C1459     1.0  0.94257  0.14935  0.78219  1.0000
  C   C1460     1.0  0.68721  0.14575  0.70492  1.0000
  C   C1461     1.0  0.79017  0.18886  0.99587  1.0000
  H   H1750     1.0  0.82713  0.24461  0.58015  1.0000
  H   H1751     1.0  0.68235  0.09164  0.00517  1.0000
  C   C1462     1.0  0.83411  0.18944  0.51576  1.0000
  H   H1752     1.0  0.70228  0.23106  0.52986  1.0000
  Fe  Fe187     1.0  0.69968  0.18583  0.99751  1.0000
  H   H1753     1.0  0.95739  0.00845  0.83531  1.0000
  H   H1754     1.0  0.95718  0.14646  0.79221  1.0000
  H   H1755     1.0  0.95988  0.04578  0.99232  1.0000
  H   H1756     1.0  0.96640  0.11175  0.62887  1.0000
  C   C1463     1.0  0.95743  0.01347  0.89722  1.0000
  H   H1757     1.0  0.94946  0.04493  0.94518  1.0000
  H   H1758     1.0  0.75851  0.22489  0.97728  1.0000
  H   H1759     1.0  0.96773  0.04259  0.55391  1.0000
  H   H1760     1.0  0.93583  0.00928  0.60639  1.0000
  H   H1761     1.0  0.78765  0.24055  0.81275  1.0000
  C   C1464     1.0  0.83968  0.24382  0.80720  1.0000
  C   C1465     1.0  0.81559  0.24224  0.91429  1.0000
  H   H1762     1.0  0.84678  0.22959  0.81196  1.0000
  H   H1763     1.0  0.93004  0.11799  0.81842  1.0000
  H   H1764     1.0  0.95761  0.01705  0.51945  1.0000
  C   C1466     1.0  0.96230  0.12740  0.72208  1.0000
  S   S376      1.0  0.97029  0.04530  0.81526  1.0000
  S   S377      1.0  0.66807  0.21171  0.51126  1.0000
  Fe  Fe188     1.0  0.67814  0.31620  0.32749  1.0000
  S   S378      1.0  0.70632  0.31665  0.35695  1.0000
  S   S379      1.0  0.65281  0.33602  0.33524  1.0000
  Fe  Fe189     1.0  0.68777  0.27959  0.28298  1.0000
  S   S380      1.0  0.71656  0.27657  0.30911  1.0000
  C   C1467     1.0  0.64022  0.37620  0.43767  1.0000
  Fe  Fe190     1.0  0.70298  0.28512  0.36488  1.0000
  S   S381      1.0  0.71403  0.27281  0.42120  1.0000
  Fe  Fe191     1.0  0.71782  0.30811  0.29888  1.0000
  S   S382      1.0  0.74495  0.32020  0.27942  1.0000
  S   S383      1.0  0.67391  0.28515  0.34010  1.0000
  S   S384      1.0  0.68996  0.31062  0.26808  1.0000
  Fe  Fe192     1.0  0.80259  0.29040  0.09811  1.0000
  S   S385      1.0  0.82940  0.29624  0.13016  1.0000
  S   S386      1.0  0.77333  0.28654  0.11940  1.0000
  H   H1765     1.0  0.83888  0.27684  0.48246  1.0000
  S   S387      1.0  0.85104  0.28530  0.04777  1.0000
  H   H1766     1.0  0.77428  0.29699  0.44184  1.0000
  Fe  Fe193     1.0  0.84029  0.26986  0.09999  1.0000
  C   C1468     1.0  0.84344  0.27393  0.27804  1.0000
  Fe  Fe194     1.0  0.83803  0.31140  0.07550  1.0000
  S   S388      1.0  0.85117  0.34066  0.07598  1.0000
  S   S389      1.0  0.81305  0.26302  0.07138  1.0000
  S   S390      1.0  0.80983  0.30810  0.04661  1.0000
  H   H1767     1.0  0.91625  0.37006  0.49043  1.0000
  H   H1768     1.0  0.88182  0.24908  0.31640  1.0000
  Fe  Fe195     1.0  0.92258  0.41334  0.45951  1.0000
  C   C1469     1.0  0.89101  0.37234  0.02554  1.0000
  S   S391      1.0  0.89308  0.40225  0.46219  1.0000
  Fe  Fe196     1.0  0.94511  0.44930  0.44317  1.0000
  C   C1470     1.0  0.75178  0.25677  0.05073  1.0000
  H   H1769     1.0  0.83376  0.26607  0.21975  1.0000
  H   H1770     1.0  0.82309  0.31115  0.32878  1.0000
  S   S392      1.0  0.93647  0.42450  0.40589  1.0000
  S   S393      1.0  0.94786  0.39661  0.48083  1.0000
  H   H1771     1.0  0.65140  0.33073  0.48305  1.0000
  H   H1772     1.0  0.91230  0.47055  0.30701  1.0000
  H   H1773     1.0  0.68790  0.28719  0.02911  1.0000
  C   C1471     1.0  0.87053  0.26037  0.31581  1.0000
  C   C1472     1.0  0.83384  0.26386  0.46924  1.0000
  N   N98       1.0  0.85861  0.25912  0.28016  1.0000
  C   C1473     1.0  0.81632  0.25718  0.47887  1.0000
  H   H1774     1.0  0.70153  0.25795  0.10499  1.0000
  H   H1775     1.0  0.71758  0.25100  0.01773  1.0000
  C   C1474     1.0  0.87662  0.36615  0.04961  1.0000
  C   C1475     1.0  0.96504  0.42967  0.21636  1.0000
  C   C1476     1.0  0.84478  0.25390  0.44199  1.0000
  C   C1477     1.0  0.90193  0.36765  0.49791  1.0000
  H   H1776     1.0  0.87018  0.37611  0.06977  1.0000
  H   H1777     1.0  0.80341  0.31319  0.26909  1.0000
  C   C1478     1.0  0.79703  0.26223  0.36345  1.0000
  H   H1778     1.0  0.87738  0.27443  0.31797  1.0000
  C   C1479     1.0  0.92857  0.47456  0.35954  1.0000
  H   H1779     1.0  0.67814  0.25571  0.40346  1.0000
  H   H1780     1.0  0.92405  0.46152  0.37270  1.0000
  H   H1781     1.0  0.96461  0.38010  0.27758  1.0000
  H   H1782     1.0  0.67950  0.31801  0.45408  1.0000
  H   H1783     1.0  0.93472  0.43771  0.30742  1.0000
  C   C1480     1.0  0.65710  0.29169  0.48937  1.0000
  C   C1481     1.0  0.75318  0.31055  0.23544  1.0000
  C   C1482     1.0  0.76940  0.31758  0.21901  1.0000
  C   C1483     1.0  0.77608  0.31002  0.18380  1.0000
  C   C1484     1.0  0.76647  0.29545  0.16495  1.0000
  C   C1485     1.0  0.75043  0.28824  0.18172  1.0000
  C   C1486     1.0  0.74377  0.29578  0.21682  1.0000
  H   H1784     1.0  0.77657  0.32919  0.23307  1.0000
  H   H1785     1.0  0.78834  0.31581  0.17077  1.0000
  H   H1786     1.0  0.74310  0.27685  0.16733  1.0000
  H   H1787     1.0  0.73126  0.29030  0.22930  1.0000
  C   C1487     1.0  0.64857  0.35136  0.37510  1.0000
  C   C1488     1.0  0.66270  0.35656  0.40129  1.0000
  C   C1489     1.0  0.65849  0.36886  0.43263  1.0000
  C   C1490     1.0  0.94321  0.43538  0.28193  1.0000
  C   C1491     1.0  0.70686  0.24999  0.48242  1.0000
  H   H1788     1.0  0.74756  0.29780  0.40201  1.0000
  H   H1789     1.0  0.67688  0.35130  0.39718  1.0000
  S   S394      1.0  0.92874  0.43982  0.49436  1.0000
  H   H1790     1.0  0.74988  0.27405  0.38259  1.0000
  H   H1791     1.0  0.69810  0.30457  0.15814  1.0000
  H   H1792     1.0  0.67826  0.26001  0.12335  1.0000
  C   C1492     1.0  0.78485  0.26341  0.28597  1.0000
  H   H1793     1.0  0.63984  0.39896  0.35681  1.0000
  C   C1493     1.0  0.94104  0.44768  0.25030  1.0000
  N   N99       1.0  0.65322  0.30323  0.45400  1.0000
  H   H1794     1.0  0.93085  0.45945  0.25095  1.0000
  C   C1494     1.0  0.87890  0.33454  0.02133  1.0000
  C   C1495     1.0  0.71343  0.29961  0.01372  1.0000
  C   C1496     1.0  0.95197  0.44485  0.21767  1.0000
  C   C1497     1.0  0.94068  0.48647  0.37986  1.0000
  H   H1795     1.0  0.71985  0.25507  0.49461  1.0000
  C   C1498     1.0  0.80408  0.24896  0.33661  1.0000
  H   H1796     1.0  0.96272  0.38458  0.20478  1.0000
  C   C1499     1.0  0.87040  0.34727  0.04748  1.0000
  H   H1797     1.0  0.94636  0.49388  0.09338  1.0000
  H   H1798     1.0  0.64905  0.27971  0.41437  1.0000
  H   H1799     1.0  0.64097  0.26641  0.47346  1.0000
  C   C1500     1.0  0.92189  0.47972  0.32232  1.0000
  C   C1501     1.0  0.83183  0.27555  0.24428  1.0000
  H   H1800     1.0  0.67983  0.29524  0.43008  1.0000
  C   C1502     1.0  0.81441  0.30228  0.27169  1.0000
  C   C1503     1.0  0.70835  0.24932  0.20786  1.0000
  Fe  Fe197     1.0  0.82235  0.28104  0.02244  1.0000
  S   S395      1.0  0.67466  0.25896  0.24110  1.0000
  H   H1801     1.0  0.79555  0.31134  0.37100  1.0000
  H   H1802     1.0  0.84757  0.28682  0.33582  1.0000
  H   H1803     1.0  0.64270  0.40380  0.27227  1.0000
  H   H1804     1.0  0.78022  0.26398  0.25579  1.0000
  C   C1504     1.0  0.72149  0.30217  0.09322  1.0000
  C   C1505     1.0  0.64284  0.32106  0.46477  1.0000
  C   C1506     1.0  0.94387  0.47747  0.02373  1.0000
  H   H1805     1.0  0.82775  0.35462  0.01344  1.0000
  C   C1507     1.0  0.70071  0.29299  0.04058  1.0000
  H   H1806     1.0  0.74719  0.31473  0.07602  1.0000
  C   C1508     1.0  0.69633  0.28925  0.15042  1.0000
  C   C1509     1.0  0.82543  0.30103  0.30536  1.0000
  H   H1807     1.0  0.77753  0.27216  0.43132  1.0000
  H   H1808     1.0  0.76661  0.26080  0.05390  1.0000
  H   H1809     1.0  0.88332  0.25083  0.24817  1.0000
  H   H1810     1.0  0.68572  0.28369  0.17059  1.0000
  H   H1811     1.0  0.66197  0.29260  0.12494  1.0000
  H   H1812     1.0  0.87615  0.27560  0.24351  1.0000
  C   C1510     1.0  0.96711  0.41637  0.24735  1.0000
  H   H1813     1.0  0.66602  0.29446  0.07420  1.0000
  Fe  Fe198     1.0  0.95761  0.41969  0.02111  1.0000
  H   H1814     1.0  0.77515  0.31383  0.34008  1.0000
  C   C1511     1.0  0.95607  0.41995  0.28074  1.0000
  H   H1815     1.0  0.94321  0.46660  0.04728  1.0000
  C   C1512     1.0  0.86920  0.37692  0.49506  1.0000
  H   H1816     1.0  0.68207  0.26309  0.07277  1.0000
  H   H1817     1.0  0.97002  0.48264  0.50738  1.0000
  N   N100      1.0  0.77499  0.29014  0.38038  1.0000
  C   C1513     1.0  0.75434  0.28904  0.37884  1.0000
  C   C1514     1.0  0.78112  0.28673  0.42136  1.0000
  C   C1515     1.0  0.78016  0.30981  0.36985  1.0000
  C   C1516     1.0  0.78331  0.27632  0.35242  1.0000
  S   S396      1.0  0.96617  0.43254  0.07867  1.0000
  C   C1517     1.0  0.77765  0.27667  0.31267  1.0000
  C   C1518     1.0  0.73010  0.30747  0.02643  1.0000
  C   C1519     1.0  0.87097  0.26080  0.24616  1.0000
  H   H1818     1.0  0.95019  0.45443  0.19308  1.0000
  C   C1520     1.0  0.81756  0.28952  0.24125  1.0000
  C   C1521     1.0  0.88783  0.38066  0.48603  1.0000
  H   H1819     1.0  0.79642  0.28850  0.42560  1.0000
  H   H1820     1.0  0.89552  0.38696  0.02724  1.0000
  N   N101      1.0  0.95625  0.49343  0.03453  1.0000
  C   C1522     1.0  0.67105  0.30828  0.43581  1.0000
  H   H1821     1.0  0.85816  0.38681  0.48570  1.0000
  H   H1822     1.0  0.77390  0.32063  0.38995  1.0000
  H   H1823     1.0  0.86382  0.25724  0.21823  1.0000
  H   H1824     1.0  0.66947  0.37293  0.45273  1.0000
  H   H1825     1.0  0.76756  0.28721  0.30192  1.0000
  N   N102      1.0  0.69062  0.28683  0.10901  1.0000
  C   C1523     1.0  0.83965  0.28700  0.30885  1.0000
  H   H1826     1.0  0.71452  0.25962  0.22726  1.0000
  C   C1524     1.0  0.70019  0.25698  0.44667  1.0000
  S   S397      1.0  0.94950  0.48013  0.42633  1.0000
  C   C1525     1.0  0.68329  0.25052  0.43127  1.0000
  C   C1526     1.0  0.64965  0.27329  0.49499  1.0000
  C   C1527     1.0  0.70432  0.29405  0.08123  1.0000
  H   H1827     1.0  0.80898  0.29049  0.21502  1.0000
  Fe  Fe199     1.0  0.96234  0.40984  0.43023  1.0000
  H   H1828     1.0  0.67394  0.31285  0.10647  1.0000
  H   H1829     1.0  0.95692  0.41099  0.30628  1.0000
  H   H1830     1.0  0.72558  0.30361  0.12339  1.0000
  H   H1831     1.0  0.74824  0.29450  0.35101  1.0000
  H   H1832     1.0  0.85829  0.25920  0.43444  1.0000
  C   C1528     1.0  0.67238  0.29712  0.10333  1.0000
  C   C1529     1.0  0.73411  0.30876  0.06608  1.0000
  C   C1530     1.0  0.64192  0.29323  0.42398  1.0000
  H   H1833     1.0  0.66866  0.31574  0.40757  1.0000
  H   H1834     1.0  0.64597  0.42116  0.33483  1.0000
  H   H1835     1.0  0.86237  0.25806  0.34260  1.0000
  H   H1836     1.0  0.70955  0.28118  0.15729  1.0000
  H   H1837     1.0  0.87453  0.31989  0.01976  1.0000
  H   H1838     1.0  0.92918  0.48244  0.01824  1.0000
  H   H1839     1.0  0.81686  0.24996  0.15293  1.0000
  N   N103      1.0  0.74746  0.24782  0.01254  1.0000
  H   H1840     1.0  0.74299  0.26987  0.05536  1.0000
  H   H1841     1.0  0.80250  0.26105  0.39274  1.0000
  C   C1531     1.0  0.68801  0.26612  0.10210  1.0000
  H   H1842     1.0  0.63968  0.30213  0.39734  1.0000
  C   C1532     1.0  0.79796  0.24947  0.29798  1.0000
  C   C1533     1.0  0.92750  0.49666  0.30490  1.0000
  H   H1843     1.0  0.74924  0.24702  0.07550  1.0000
  H   H1844     1.0  0.97102  0.48037  0.24321  1.0000
  H   H1845     1.0  0.63838  0.32946  0.43870  1.0000
  S   S398      1.0  0.85610  0.24689  0.13371  1.0000
  Fe  Fe200     1.0  0.68458  0.33711  0.82376  1.0000
  S   S399      1.0  0.70609  0.32734  0.86825  1.0000
  H   H1846     1.0  0.89564  0.37865  0.61669  1.0000
  Fe  Fe201     1.0  0.68893  0.30050  0.77641  1.0000
  S   S400      1.0  0.71000  0.28733  0.81788  1.0000
  S   S401      1.0  0.68117  0.28820  0.71800  1.0000
  Fe  Fe202     1.0  0.69146  0.29942  0.86443  1.0000
  S   S402      1.0  0.68491  0.28608  0.92191  1.0000
  Fe  Fe203     1.0  0.72281  0.31619  0.81788  1.0000
  S   S403      1.0  0.75432  0.31488  0.81366  1.0000
  S   S404      1.0  0.66895  0.30984  0.82278  1.0000
  S   S405      1.0  0.70285  0.32871  0.77348  1.0000
  Fe  Fe204     1.0  0.81032  0.31598  0.62150  1.0000
  S   S406      1.0  0.84016  0.31482  0.64268  1.0000
  S   S407      1.0  0.78672  0.33350  0.64784  1.0000
  H   H1847     1.0  0.67006  0.32882  0.71074  1.0000
  S   S408      1.0  0.84771  0.28340  0.57287  1.0000
  C   C1534     1.0  0.78645  0.33667  0.88731  1.0000
  Fe  Fe205     1.0  0.83811  0.28314  0.63438  1.0000
  S   S409      1.0  0.85203  0.26300  0.67763  1.0000
  Fe  Fe206     1.0  0.84769  0.31549  0.57936  1.0000
  S   S410      1.0  0.87494  0.32888  0.56196  1.0000
  S   S411      1.0  0.80771  0.28425  0.61819  1.0000
  S   S412      1.0  0.81782  0.31943  0.55844  1.0000
  H   H1848     1.0  0.81032  0.36458  0.82626  1.0000
  H   H1849     1.0  0.86430  0.25638  0.75753  1.0000
  Fe  Fe207     1.0  0.93464  0.39313  0.97015  1.0000
  H   H1850     1.0  0.68955  0.25838  0.77467  1.0000
  C   C1535     1.0  0.73353  0.28458  0.70133  1.0000
  Fe  Fe208     1.0  0.94226  0.43381  0.94318  1.0000
  S   S413      1.0  0.93372  0.46277  0.91882  1.0000
  H   H1851     1.0  0.72513  0.28966  0.67568  1.0000
  H   H1852     1.0  0.64632  0.38765  0.58485  1.0000
  S   S414      1.0  0.94615  0.40508  0.91457  1.0000
  H   H1853     1.0  0.89621  0.41485  0.73048  1.0000
  C   C1536     1.0  0.65241  0.36954  0.86183  1.0000
  H   H1854     1.0  0.68158  0.26375  0.65127  1.0000
  H   H1855     1.0  0.77852  0.29523  0.94588  1.0000
  H   H1856     1.0  0.75155  0.28230  0.63605  1.0000
  S   S415      1.0  0.80220  0.26958  0.51220  1.0000
  N   N104      1.0  0.82854  0.34607  0.95305  1.0000
  S   S416      1.0  0.81378  0.27379  0.96117  1.0000
  H   H1857     1.0  0.68151  0.29395  0.57611  1.0000
  H   H1858     1.0  0.66852  0.26173  0.58341  1.0000
  C   C1537     1.0  0.86874  0.25707  0.78854  1.0000
  N   N105      1.0  0.74678  0.26867  0.69118  1.0000
  H   H1859     1.0  0.94356  0.44470  0.78221  1.0000
  C   C1538     1.0  0.73496  0.26388  0.95079  1.0000
  C   C1539     1.0  0.88879  0.39013  0.59873  1.0000
  H   H1860     1.0  0.64685  0.32641  0.58433  1.0000
  C   C1540     1.0  0.89798  0.41009  0.66864  1.0000
  C   C1541     1.0  0.93408  0.46669  0.86836  1.0000
  C   C1542     1.0  0.93931  0.45218  0.84236  1.0000
  H   H1861     1.0  0.88858  0.39834  0.67050  1.0000
  H   H1862     1.0  0.94300  0.43804  0.85310  1.0000
  C   C1543     1.0  0.68651  0.26109  0.92453  1.0000
  C   C1544     1.0  0.79889  0.33628  0.91909  1.0000
  H   H1863     1.0  0.84147  0.37313  0.94310  1.0000
  H   H1864     1.0  0.76853  0.28716  0.67327  1.0000
  C   C1545     1.0  0.76304  0.31964  0.76713  1.0000
  C   C1546     1.0  0.75402  0.33300  0.74270  1.0000
  C   C1547     1.0  0.76146  0.33706  0.70623  1.0000
  C   C1548     1.0  0.77787  0.32771  0.69373  1.0000
  C   C1549     1.0  0.78677  0.31410  0.71792  1.0000
  C   C1550     1.0  0.77934  0.31010  0.75453  1.0000
  H   H1865     1.0  0.74156  0.34058  0.75223  1.0000
  H   H1866     1.0  0.75454  0.34764  0.68769  1.0000
  H   H1867     1.0  0.79938  0.30674  0.70846  1.0000
  H   H1868     1.0  0.78614  0.29945  0.77296  1.0000
  C   C1551     1.0  0.66518  0.27019  0.55777  1.0000
  C   C1552     1.0  0.67595  0.36610  0.71185  1.0000
  C   C1553     1.0  0.75205  0.28872  0.91949  1.0000
  C   C1554     1.0  0.79057  0.34687  0.85404  1.0000
  H   H1869     1.0  0.74100  0.29722  0.71269  1.0000
  H   H1870     1.0  0.67947  0.36636  0.74353  1.0000
  C   C1555     1.0  0.74877  0.26191  0.98073  1.0000
  H   H1871     1.0  0.72328  0.28010  0.72324  1.0000
  S   S417      1.0  0.92846  0.42222  0.99614  1.0000
  C   C1556     1.0  0.90228  0.41944  0.70352  1.0000
  N   N106      1.0  0.90080  0.40700  0.59511  1.0000
  H   H1872     1.0  0.89924  0.33098  0.97610  1.0000
  H   H1873     1.0  0.67453  0.31289  0.51777  1.0000
  C   C1557     1.0  0.89071  0.42111  0.56978  1.0000
  C   C1558     1.0  0.68541  0.26345  0.71341  1.0000
  C   C1559     1.0  0.75943  0.27587  0.66117  1.0000
  H   H1874     1.0  0.72549  0.27882  0.89920  1.0000
  C   C1560     1.0  0.91410  0.43490  0.70384  1.0000
  H   H1875     1.0  0.67614  0.38119  0.70191  1.0000
  C   C1561     1.0  0.81838  0.35360  0.98734  1.0000
  C   C1562     1.0  0.84533  0.35784  0.94847  1.0000
  H   H1876     1.0  0.87785  0.42685  0.58389  1.0000
  H   H1877     1.0  0.89945  0.43344  0.56251  1.0000
  H   H1878     1.0  0.88639  0.41463  0.54149  1.0000
  H   H1879     1.0  0.87492  0.39407  0.61095  1.0000
  H   H1880     1.0  0.90868  0.34191  0.53010  1.0000
  H   H1881     1.0  0.76543  0.26786  0.82280  1.0000
  H   H1882     1.0  0.97018  0.46115  0.53562  1.0000
  C   C1563     1.0  0.76692  0.26156  0.79412  1.0000
  C   C1564     1.0  0.90550  0.41609  0.63280  1.0000
  S   S418      1.0  0.96366  0.42580  0.57483  1.0000
  H   H1883     1.0  0.64479  0.36840  0.75603  1.0000
  C   C1565     1.0  0.87906  0.34816  0.53033  1.0000
  Fe  Fe209     1.0  0.81742  0.28732  0.55692  1.0000
  C   C1566     1.0  0.92943  0.48501  0.85420  1.0000
  S   S419      1.0  0.93566  0.47898  0.73804  1.0000
  C   C1567     1.0  0.93490  0.47432  0.78816  1.0000
  C   C1568     1.0  0.65844  0.33795  0.72232  1.0000
  H   H1884     1.0  0.85431  0.35766  0.97519  1.0000
  H   H1885     1.0  0.92662  0.39047  0.59416  1.0000
  H   H1886     1.0  0.88576  0.38357  0.56997  1.0000
  C   C1569     1.0  0.96560  0.47648  0.53538  1.0000
  C   C1570     1.0  0.64861  0.35513  0.88837  1.0000
  C   C1571     1.0  0.73650  0.27729  0.92107  1.0000
  H   H1887     1.0  0.78083  0.34714  0.82951  1.0000
  C   C1572     1.0  0.89913  0.35976  0.99863  1.0000
  H   H1888     1.0  0.94894  0.46978  0.99742  1.0000
  C   C1573     1.0  0.76464  0.27349  0.97777  1.0000
  C   C1574     1.0  0.80721  0.35665  0.85230  1.0000
  C   C1575     1.0  0.64829  0.33975  0.60008  1.0000
  N   N107      1.0  0.85252  0.25973  0.81451  1.0000
  C   C1576     1.0  0.91815  0.40050  0.57555  1.0000
  H   H1889     1.0  0.72279  0.25522  0.94963  1.0000
  C   C1577     1.0  0.96498  0.47901  0.60498  1.0000
  C   C1578     1.0  0.89759  0.35163  0.52027  1.0000
  C   C1579     1.0  0.75616  0.26886  0.76300  1.0000
  H   H1890     1.0  0.91709  0.44235  0.73081  1.0000
  H   H1891     1.0  0.92707  0.41252  0.56768  1.0000
  H   H1892     1.0  0.86900  0.27055  0.86227  1.0000
  H   H1893     1.0  0.73992  0.31258  0.00549  1.0000
  C   C1580     1.0  0.85991  0.25835  0.85503  1.0000
  C   C1581     1.0  0.91762  0.43182  0.63430  1.0000
  C   C1582     1.0  0.66849  0.29896  0.51989  1.0000
  S   S420      1.0  0.66849  0.36550  0.82394  1.0000
  C   C1583     1.0  0.89298  0.34085  0.99669  1.0000
  H   H1894     1.0  0.79507  0.32815  0.94425  1.0000
  H   H1895     1.0  0.96707  0.46324  0.60718  1.0000
  H   H1896     1.0  0.96842  0.48726  0.81985  1.0000
  C   C1584     1.0  0.92183  0.44102  0.66936  1.0000
  C   C1585     1.0  0.93955  0.45595  0.80225  1.0000
  H   H1897     1.0  0.87870  0.26891  0.79203  1.0000
  H   H1898     1.0  0.84410  0.32539  0.98789  1.0000
  H   H1899     1.0  0.82344  0.31637  0.96614  1.0000
  C   C1586     1.0  0.68427  0.25215  0.96047  1.0000
  H   H1900     1.0  0.68746  0.35807  0.69708  1.0000
  H   H1901     1.0  0.93093  0.45317  0.66986  1.0000
  H   H1902     1.0  0.84333  0.32012  0.93670  1.0000
  H   H1903     1.0  0.91507  0.39314  0.54766  1.0000
  C   C1587     1.0  0.84213  0.27813  0.80843  1.0000
  C   C1588     1.0  0.84492  0.29002  0.77565  1.0000
  C   C1589     1.0  0.82796  0.28414  0.83454  1.0000
  C   C1590     1.0  0.83462  0.30711  0.77037  1.0000
  C   C1591     1.0  0.81782  0.30131  0.82906  1.0000
  C   C1592     1.0  0.82127  0.31284  0.79721  1.0000
  S   S421      1.0  0.91598  0.36723  0.96502  1.0000
  H   H1904     1.0  0.94960  0.48171  0.60538  1.0000
  H   H1905     1.0  0.96490  0.49075  0.89405  1.0000
  H   H1906     1.0  0.64823  0.24857  0.53202  1.0000
  H   H1907     1.0  0.68040  0.26058  0.98556  1.0000
  C   C1593     1.0  0.73564  0.25307  0.67415  1.0000
  C   C1594     1.0  0.69122  0.25012  0.89199  1.0000
  C   C1595     1.0  0.86480  0.36071  0.51711  1.0000
  H   H1908     1.0  0.85438  0.35240  0.92468  1.0000
  C   C1596     1.0  0.76616  0.28672  0.94764  1.0000
  H   H1909     1.0  0.82433  0.27548  0.85913  1.0000
  H   H1910     1.0  0.83678  0.31578  0.74482  1.0000
  H   H1911     1.0  0.80695  0.30548  0.84916  1.0000
  H   H1912     1.0  0.83236  0.36431  0.88056  1.0000
  H   H1913     1.0  0.74667  0.28062  0.76962  1.0000
  H   H1914     1.0  0.71022  0.29880  0.98282  1.0000
  C   C1597     1.0  0.81588  0.34629  0.91855  1.0000
  H   H1915     1.0  0.81234  0.36817  0.98166  1.0000
  H   H1916     1.0  0.84873  0.25816  0.87681  1.0000
  C   C1598     1.0  0.75794  0.26128  0.72484  1.0000
  H   H1917     1.0  0.95561  0.38643  0.71826  1.0000
  H   H1918     1.0  0.77347  0.32907  0.88832  1.0000
  H   H1919     1.0  0.75320  0.29897  0.89613  1.0000
  N   N108      1.0  0.65770  0.35719  0.70410  1.0000
  H   H1920     1.0  0.95004  0.47703  0.53504  1.0000
  H   H1921     1.0  0.92524  0.49623  0.87413  1.0000
  H   H1922     1.0  0.96541  0.38647  0.76594  1.0000
  C   C1599     1.0  0.81977  0.35639  0.88391  1.0000
  S   S422      1.0  0.96298  0.38982  0.99938  1.0000
  H   H1923     1.0  0.69272  0.25688  0.86410  1.0000
  H   H1924     1.0  0.84872  0.25450  0.98115  1.0000
  C   C1600     1.0  0.83510  0.32616  0.96121  1.0000
  H   H1925     1.0  0.85476  0.28635  0.75320  1.0000
  H   H1926     1.0  0.96906  0.37834  0.59102  1.0000
  H   H1927     1.0  0.64602  0.39868  0.84495  1.0000
  H   H1928     1.0  0.76875  0.26445  0.64912  1.0000
  H   H1929     1.0  0.81311  0.32593  0.79250  1.0000
  C   C1601     1.0  0.67251  0.28828  0.55347  1.0000
  H   H1930     1.0  0.85048  0.35820  0.52467  1.0000
  C   C1602     1.0  0.65186  0.37415  0.64044  1.0000
  H   H1931     1.0  0.92381  0.43727  0.60827  1.0000
  C   C1603     1.0  0.68495  0.25504  0.67644  1.0000
  H   H1932     1.0  0.81513  0.24935  0.65742  1.0000
  H   H1933     1.0  0.64510  0.33038  0.71802  1.0000
  C   C1604     1.0  0.82432  0.25257  0.94409  1.0000
  H   H1934     1.0  0.65576  0.34135  0.88631  1.0000
  C   C1605     1.0  0.68965  0.25211  0.74595  1.0000
  H   H1935     1.0  0.65325  0.38785  0.65463  1.0000
  H   H1936     1.0  0.65372  0.32558  0.65350  1.0000
  H   H1937     1.0  0.66093  0.33884  0.75433  1.0000
  H   H1938     1.0  0.77621  0.27218  0.99828  1.0000
  H   H1939     1.0  0.64301  0.35732  0.54938  1.0000
  H   H1940     1.0  0.96246  0.39044  0.65595  1.0000
  H   H1941     1.0  0.72633  0.25827  0.64994  1.0000
  S   S423      1.0  0.97080  0.43342  0.97031  1.0000
  C   C1606     1.0  0.65367  0.26281  0.52877  1.0000
  C   C1607     1.0  0.92999  0.48887  0.81427  1.0000
  H   H1942     1.0  0.64279  0.38398  0.71556  1.0000
  H   H1943     1.0  0.80685  0.34432  0.99602  1.0000
  C   C1608     1.0  0.65217  0.33950  0.64011  1.0000
  C   C1609     1.0  0.64304  0.38739  0.86513  1.0000
  C   C1610     1.0  0.64287  0.36865  0.72381  1.0000
  C   C1611     1.0  0.96818  0.38185  0.73550  1.0000
  H   H1944     1.0  0.96908  0.36592  0.73514  1.0000
  C   C1612     1.0  0.65389  0.35679  0.66164  1.0000
  Fe  Fe210     1.0  0.95477  0.42365  0.51228  1.0000
  C   C1613     1.0  0.64614  0.35707  0.58035  1.0000
  C   C1614     1.0  0.64798  0.37421  0.60047  1.0000
  H   H1945     1.0  0.97095  0.48579  0.63163  1.0000
  H   H1946     1.0  0.80192  0.24681  0.90351  1.0000
  H   H1947     1.0  0.72655  0.24680  0.69640  1.0000
  Fe  Fe211     1.0  0.69395  0.68409  0.40726  1.0000
  S   S424      1.0  0.72115  0.68505  0.37638  1.0000
  S   S425      1.0  0.68623  0.70098  0.46076  1.0000
  Fe  Fe212     1.0  0.67930  0.65161  0.35714  1.0000
  S   S426      1.0  0.70556  0.64933  0.32231  1.0000
  C   C1615     1.0  0.77146  0.68708  0.42872  1.0000
  Fe  Fe213     1.0  0.72099  0.65312  0.37927  1.0000
  S   S427      1.0  0.74944  0.63934  0.39050  1.0000
  Fe  Fe214     1.0  0.70412  0.68139  0.32170  1.0000
  S   S428      1.0  0.71365  0.69576  0.26714  1.0000
  S   S429      1.0  0.69494  0.65222  0.41444  1.0000
  S   S430      1.0  0.67670  0.68369  0.35226  1.0000
  Fe  Fe215     1.0  0.83202  0.65778  0.11259  1.0000
  S   S431      1.0  0.80306  0.66740  0.12991  1.0000
  S   S432      1.0  0.84501  0.63680  0.15658  1.0000
  C   C1616     1.0  0.76919  0.69039  0.34141  1.0000
  H   H1948     1.0  0.80980  0.59539  0.49714  1.0000
  C   C1617     1.0  0.96219  0.55819  0.41298  1.0000
  Fe  Fe216     1.0  0.81245  0.69704  0.11964  1.0000
  S   S433      1.0  0.80102  0.71975  0.16001  1.0000
  Fe  Fe217     1.0  0.79551  0.66684  0.06660  1.0000
  Fe  Fe218     1.0  0.96534  0.53543  0.17521  1.0000
  S   S434      1.0  0.84197  0.68792  0.10656  1.0000
  C   C1618     1.0  0.82173  0.74649  0.25452  1.0000
  Fe  Fe219     1.0  0.93268  0.56404  0.18186  1.0000
  S   S435      1.0  0.93457  0.53275  0.16598  1.0000
  S   S436      1.0  0.91856  0.58418  0.13762  1.0000
  H   H1949     1.0  0.76313  0.67681  0.34825  1.0000
  C   C1619     1.0  0.67166  0.68816  0.18749  1.0000
  C   C1620     1.0  0.77058  0.71675  0.29626  1.0000
  Fe  Fe220     1.0  0.93378  0.52733  0.23032  1.0000
  C   C1621     1.0  0.78332  0.72567  0.32084  1.0000
  C   C1622     1.0  0.73500  0.74164  0.05727  1.0000
  S   S437      1.0  0.92910  0.55834  0.24584  1.0000
  H   H1950     1.0  0.76594  0.72362  0.26944  1.0000
  S   S438      1.0  0.84696  0.68532  0.48264  1.0000
  C   C1623     1.0  0.72481  0.71716  0.12420  1.0000
  H   H1951     1.0  0.77529  0.67987  0.45671  1.0000
  H   H1952     1.0  0.72025  0.73914  0.05414  1.0000
  C   C1624     1.0  0.93250  0.53048  0.50260  1.0000
  H   H1953     1.0  0.79775  0.63075  0.49168  1.0000
  C   C1625     1.0  0.81662  0.72849  0.19505  1.0000
  H   H1954     1.0  0.70646  0.72172  0.33407  1.0000
  H   H1955     1.0  0.71238  0.72410  0.10980  1.0000
  C   C1626     1.0  0.93936  0.50877  0.32552  1.0000
  H   H1956     1.0  0.73977  0.72660  0.34873  1.0000
  N   N109      1.0  0.73943  0.71141  0.09613  1.0000
  H   H1957     1.0  0.72318  0.72633  0.21693  1.0000
  C   C1627     1.0  0.84580  0.71987  0.44509  1.0000
  H   H1958     1.0  0.82807  0.72707  0.03897  1.0000
  H   H1959     1.0  0.85374  0.71277  0.42265  1.0000
  C   C1628     1.0  0.78917  0.71699  0.35574  1.0000
  C   C1629     1.0  0.86564  0.62250  0.15090  1.0000
  C   C1630     1.0  0.87143  0.61002  0.18104  1.0000
  C   C1631     1.0  0.88767  0.59832  0.17768  1.0000
  C   C1632     1.0  0.89831  0.59901  0.14406  1.0000
  C   C1633     1.0  0.89262  0.61163  0.11408  1.0000
  C   C1634     1.0  0.87636  0.62330  0.11742  1.0000
  H   H1960     1.0  0.86323  0.60929  0.20705  1.0000
  H   H1961     1.0  0.89187  0.58869  0.20095  1.0000
  H   H1962     1.0  0.90082  0.61248  0.08816  1.0000
  H   H1963     1.0  0.87212  0.63289  0.09412  1.0000
  C   C1635     1.0  0.70057  0.71571  0.25033  1.0000
  C   C1636     1.0  0.68204  0.71874  0.26127  1.0000
  C   C1637     1.0  0.74702  0.72866  0.07798  1.0000
  C   C1638     1.0  0.73103  0.69916  0.06561  1.0000
  H   H1964     1.0  0.76067  0.67811  0.41471  1.0000
  H   H1965     1.0  0.80625  0.69207  0.45409  1.0000
  H   H1966     1.0  0.67564  0.70894  0.28089  1.0000
  C   C1639     1.0  0.76354  0.69914  0.30652  1.0000
  H   H1967     1.0  0.74772  0.68659  0.13042  1.0000
  C   C1640     1.0  0.68888  0.72585  0.46016  1.0000
  H   H1968     1.0  0.94061  0.61338  0.03271  1.0000
  H   H1969     1.0  0.84119  0.58110  0.48523  1.0000
  C   C1641     1.0  0.69993  0.73452  0.43257  1.0000
  C   C1642     1.0  0.84039  0.73920  0.44080  1.0000
  C   C1643     1.0  0.65490  0.67938  0.19840  1.0000
  H   H1970     1.0  0.70676  0.72582  0.41082  1.0000
  C   C1644     1.0  0.75741  0.63865  0.43917  1.0000
  H   H1971     1.0  0.76489  0.69416  0.09778  1.0000
  H   H1972     1.0  0.64166  0.56867  0.40957  1.0000
  H   H1973     1.0  0.94539  0.52559  0.44820  1.0000
  H   H1974     1.0  0.64323  0.54988  0.34686  1.0000
  C   C1645     1.0  0.77627  0.63412  0.44726  1.0000
  C   C1646     1.0  0.64473  0.62012  0.31516  1.0000
  C   C1647     1.0  0.82908  0.73228  0.00959  1.0000
  H   H1975     1.0  0.81520  0.70143  0.41029  1.0000
  H   H1976     1.0  0.78555  0.63051  0.42375  1.0000
  H   H1977     1.0  0.65709  0.73636  0.25388  1.0000
  S   S439      1.0  0.96473  0.52720  0.23788  1.0000
  H   H1978     1.0  0.76467  0.70116  0.43550  1.0000
  H   H1979     1.0  0.75338  0.69235  0.28763  1.0000
  C   C1648     1.0  0.65746  0.61130  0.28998  1.0000
  C   C1649     1.0  0.80957  0.73914  0.22625  1.0000
  C   C1650     1.0  0.83585  0.72497  0.19242  1.0000
  H   H1980     1.0  0.67216  0.61428  0.29268  1.0000
  H   H1981     1.0  0.66106  0.59124  0.24267  1.0000
  C   C1651     1.0  0.88314  0.73286  0.49853  1.0000
  H   H1982     1.0  0.77645  0.72425  0.09536  1.0000
  H   H1983     1.0  0.74155  0.69508  0.04347  1.0000
  H   H1984     1.0  0.95965  0.56394  0.04400  1.0000
  H   H1985     1.0  0.85479  0.68034  0.39611  1.0000
  H   H1986     1.0  0.91173  0.58296  0.05524  1.0000
  C   C1652     1.0  0.78317  0.63415  0.48568  1.0000
  H   H1987     1.0  0.65584  0.67614  0.27585  1.0000
  C   C1653     1.0  0.67157  0.73428  0.24599  1.0000
  H   H1988     1.0  0.66206  0.64438  0.17049  1.0000
  C   C1654     1.0  0.94425  0.59950  0.04708  1.0000
  N   N110      1.0  0.82677  0.67056  0.25074  1.0000
  C   C1655     1.0  0.81001  0.68322  0.24455  1.0000
  C   C1656     1.0  0.84128  0.67583  0.22282  1.0000
  C   C1657     1.0  0.82124  0.65072  0.24137  1.0000
  C   C1658     1.0  0.83417  0.67292  0.29086  1.0000
  C   C1659     1.0  0.83880  0.69135  0.30496  1.0000
  C   C1660     1.0  0.83750  0.65727  0.31658  1.0000
  C   C1661     1.0  0.84602  0.69397  0.34249  1.0000
  C   C1662     1.0  0.84480  0.66006  0.35411  1.0000
  C   C1663     1.0  0.84899  0.67835  0.36708  1.0000
  H   H1989     1.0  0.80386  0.68152  0.21483  1.0000
  H   H1990     1.0  0.79900  0.68012  0.26589  1.0000
  H   H1991     1.0  0.81318  0.69859  0.24723  1.0000
  H   H1992     1.0  0.84609  0.69062  0.22732  1.0000
  H   H1993     1.0  0.83610  0.67486  0.19222  1.0000
  H   H1994     1.0  0.85382  0.66608  0.22535  1.0000
  H   H1995     1.0  0.81039  0.64567  0.26135  1.0000
  H   H1996     1.0  0.81537  0.64960  0.21126  1.0000
  H   H1997     1.0  0.83348  0.64051  0.24211  1.0000
  H   H1998     1.0  0.83727  0.70390  0.28676  1.0000
  H   H1999     1.0  0.83483  0.64269  0.30825  1.0000
  H   H2000     1.0  0.84969  0.70820  0.35211  1.0000
  H   H2001     1.0  0.76039  0.70769  0.14168  1.0000
  C   C1664     1.0  0.71175  0.73607  0.33464  1.0000
  N   N111      1.0  0.78796  0.68935  0.40384  1.0000
  C   C1665     1.0  0.80213  0.69982  0.42686  1.0000
  C   C1666     1.0  0.79612  0.67014  0.39500  1.0000
  H   H2002     1.0  0.93795  0.59995  0.07643  1.0000
  C   C1667     1.0  0.95926  0.54847  0.48010  1.0000
  H   H2003     1.0  0.73082  0.64638  0.46384  1.0000
  H   H2004     1.0  0.80765  0.67114  0.37399  1.0000
  H   H2005     1.0  0.93908  0.56392  0.07247  1.0000
  H   H2006     1.0  0.79913  0.72469  0.37325  1.0000
  C   C1668     1.0  0.84801  0.73202  0.22117  1.0000
  H   H2007     1.0  0.84742  0.64794  0.37322  1.0000
  H   H2008     1.0  0.80190  0.66295  0.42163  1.0000
  C   C1669     1.0  0.70873  0.72850  0.22481  1.0000
  H   H2009     1.0  0.92220  0.51964  0.49730  1.0000
  H   H2010     1.0  0.84141  0.71688  0.16827  1.0000
  H   H2011     1.0  0.68218  0.65039  0.19963  1.0000
  S   S440      1.0  0.92006  0.50202  0.25700  1.0000
  C   C1670     1.0  0.66414  0.66511  0.25972  1.0000
  H   H2012     1.0  0.88865  0.72874  0.47050  1.0000
  C   C1671     1.0  0.94587  0.53405  0.47458  1.0000
  C   C1672     1.0  0.78220  0.69902  0.36714  1.0000
  Fe  Fe221     1.0  0.83130  0.68542  0.04484  1.0000
  H   H2013     1.0  0.93935  0.55243  0.02547  1.0000
  C   C1673     1.0  0.74539  0.64289  0.46979  1.0000
  C   C1674     1.0  0.65443  0.71477  0.15805  1.0000
  S   S441      1.0  0.65175  0.63625  0.35176  1.0000
  N   N112      1.0  0.65564  0.66138  0.22099  1.0000
  C   C1675     1.0  0.76624  0.73317  0.08023  1.0000
  H   H2014     1.0  0.78563  0.66035  0.38239  1.0000
  H   H2015     1.0  0.95679  0.51552  0.07846  1.0000
  S   S442      1.0  0.80277  0.69723  0.05760  1.0000
  H   H2016     1.0  0.71965  0.70466  0.14041  1.0000
  H   H2017     1.0  0.94350  0.52205  0.31261  1.0000
  S   S443      1.0  0.82349  0.65449  0.04941  1.0000
  S   S444      1.0  0.96392  0.56690  0.18743  1.0000
  C   C1676     1.0  0.67134  0.70548  0.16731  1.0000
  H   H2018     1.0  0.72589  0.68558  0.07775  1.0000
  C   C1677     1.0  0.65114  0.59827  0.26170  1.0000
  H   H2019     1.0  0.91077  0.59721  0.01228  1.0000
  C   C1678     1.0  0.68035  0.73705  0.48896  1.0000
  H   H2020     1.0  0.86290  0.72924  0.21919  1.0000
  H   H2021     1.0  0.93393  0.50990  0.06066  1.0000
  C   C1679     1.0  0.94593  0.50367  0.36291  1.0000
  H   H2022     1.0  0.65430  0.72858  0.14374  1.0000
  C   C1680     1.0  0.68072  0.73397  0.01828  1.0000
  C   C1681     1.0  0.84122  0.70986  0.47864  1.0000
  H   H2023     1.0  0.79467  0.74170  0.22861  1.0000
  H   H2024     1.0  0.68518  0.68205  0.19572  1.0000
  H   H2025     1.0  0.67599  0.72374  0.03920  1.0000
  H   H2026     1.0  0.66489  0.65200  0.27795  1.0000
  H   H2027     1.0  0.95263  0.57073  0.41815  1.0000
  H   H2028     1.0  0.78857  0.73952  0.31291  1.0000
  H   H2029     1.0  0.79684  0.71422  0.43603  1.0000
  H   H2030     1.0  0.67864  0.67031  0.25778  1.0000
  C   C1682     1.0  0.75376  0.69956  0.11748  1.0000
  C   C1683     1.0  0.94797  0.50362  0.06816  1.0000
  S   S445      1.0  0.76602  0.66021  0.04853  1.0000
  H   H2031     1.0  0.95524  0.51299  0.37839  1.0000
  N   N113      1.0  0.93753  0.58315  0.02356  1.0000
  C   C1684     1.0  0.73055  0.73881  0.34296  1.0000
  Fe  Fe222     1.0  0.96052  0.55847  0.24969  1.0000
  H   H2032     1.0  0.71899  0.70629  0.05017  1.0000
  C   C1685     1.0  0.84097  0.74286  0.25218  1.0000
  C   C1686     1.0  0.94420  0.56506  0.04213  1.0000
  C   C1687     1.0  0.82593  0.73862  0.50374  1.0000
  H   H2033     1.0  0.95959  0.59882  0.05235  1.0000
  C   C1688     1.0  0.91679  0.58370  0.02484  1.0000
  H   H2034     1.0  0.73032  0.72749  0.14593  1.0000
  C   C1689     1.0  0.63784  0.68916  0.18817  1.0000
  H   H2035     1.0  0.68429  0.71218  0.16025  1.0000
  C   C1690     1.0  0.66724  0.64662  0.20081  1.0000
  C   C1691     1.0  0.69830  0.74417  0.20978  1.0000
  H   H2036     1.0  0.95358  0.54649  0.40111  1.0000
  H   H2037     1.0  0.66706  0.63255  0.21593  1.0000
  C   C1692     1.0  0.75211  0.64205  0.50837  1.0000
  C   C1693     1.0  0.83144  0.71936  0.50811  1.0000
  H   H2038     1.0  0.63806  0.63929  0.24273  1.0000
  H   H2039     1.0  0.91068  0.57128  0.00947  1.0000
  Fe  Fe223     1.0  0.68618  0.69813  0.90356  1.0000
  S   S446      1.0  0.71405  0.70670  0.88300  1.0000
  S   S447      1.0  0.67772  0.70510  0.96486  1.0000
  Fe  Fe224     1.0  0.67651  0.67824  0.82731  1.0000
  S   S448      1.0  0.70406  0.68508  0.80037  1.0000
  H   H2040     1.0  0.67030  0.70509  0.66503  1.0000
  Fe  Fe225     1.0  0.71655  0.67716  0.85893  1.0000
  S   S449      1.0  0.74549  0.66442  0.86881  1.0000
  Fe  Fe226     1.0  0.69963  0.71415  0.82679  1.0000
  H   H2041     1.0  0.73142  0.71326  0.68792  1.0000
  S   S450      1.0  0.68944  0.66764  0.88363  1.0000
  S   S451      1.0  0.67124  0.70831  0.84948  1.0000
  Fe  Fe227     1.0  0.84480  0.65187  0.61395  1.0000
  S   S452      1.0  0.81565  0.65770  0.63580  1.0000
  S   S453      1.0  0.86566  0.63777  0.65635  1.0000
  Fe  Fe228     1.0  0.83663  0.67345  0.53885  1.0000
  S   S454      1.0  0.80709  0.68061  0.55430  1.0000
  H   H2042     1.0  0.80343  0.67940  0.80905  1.0000
  Fe  Fe229     1.0  0.81878  0.68738  0.61325  1.0000
  S   S455      1.0  0.80703  0.71451  0.63994  1.0000
  Fe  Fe230     1.0  0.80634  0.65055  0.57503  1.0000
  S   S456      1.0  0.77913  0.63599  0.56475  1.0000
  S   S457      1.0  0.84859  0.68253  0.59638  1.0000
  S   S458      1.0  0.83511  0.64223  0.55451  1.0000
  Fe  Fe231     1.0  0.93340  0.54728  0.67970  1.0000
  S   S459      1.0  0.94524  0.51842  0.66185  1.0000
  S   S460      1.0  0.91372  0.56050  0.63376  1.0000
  C   C1694     1.0  0.71545  0.73181  0.56768  1.0000
  H   H2043     1.0  0.95237  0.50936  0.56974  1.0000
  C   C1695     1.0  0.86757  0.74320  0.57119  1.0000
  Fe  Fe232     1.0  0.94152  0.50966  0.72369  1.0000
  C   C1696     1.0  0.86243  0.73474  0.64008  1.0000
  H   H2044     1.0  0.83240  0.73753  0.59225  1.0000
  S   S461      1.0  0.92715  0.53740  0.74052  1.0000
  H   H2045     1.0  0.82725  0.60692  0.68365  1.0000
  H   H2046     1.0  0.65016  0.65434  0.90114  1.0000
  H   H2047     1.0  0.87649  0.71384  0.58687  1.0000
  H   H2048     1.0  0.93174  0.58590  0.88712  1.0000
  H   H2049     1.0  0.67157  0.73049  0.51009  1.0000
  H   H2050     1.0  0.78824  0.67537  0.84883  1.0000
  C   C1697     1.0  0.82329  0.70697  0.84422  1.0000
  C   C1698     1.0  0.81830  0.72240  0.68242  1.0000
  C   C1699     1.0  0.83257  0.71138  0.70029  1.0000
  C   C1700     1.0  0.94495  0.58421  0.98372  1.0000
  C   C1701     1.0  0.76085  0.73601  0.79517  1.0000
  H   H2051     1.0  0.91828  0.58354  0.95109  1.0000
  H   H2052     1.0  0.83648  0.69749  0.68856  1.0000
  H   H2053     1.0  0.66220  0.62682  0.86322  1.0000
  C   C1702     1.0  0.68855  0.74181  0.95218  1.0000
  C   C1703     1.0  0.88348  0.71976  0.52893  1.0000
  H   H2054     1.0  0.83386  0.69785  0.86016  1.0000
  H   H2055     1.0  0.82642  0.70546  0.81275  1.0000
  C   C1704     1.0  0.87937  0.61661  0.64884  1.0000
  C   C1705     1.0  0.89014  0.60908  0.67999  1.0000
  C   C1706     1.0  0.90084  0.59201  0.67577  1.0000
  C   C1707     1.0  0.90085  0.58228  0.64024  1.0000
  C   C1708     1.0  0.89013  0.58985  0.60899  1.0000
  C   C1709     1.0  0.87942  0.60693  0.61322  1.0000
  H   H2056     1.0  0.89020  0.61647  0.70765  1.0000
  H   H2057     1.0  0.90902  0.58636  0.70004  1.0000
  H   H2058     1.0  0.89020  0.58250  0.58133  1.0000
  H   H2059     1.0  0.87126  0.61262  0.58896  1.0000
  C   C1710     1.0  0.74205  0.66376  0.98622  1.0000
  H   H2060     1.0  0.66258  0.73418  0.69427  1.0000
  C   C1711     1.0  0.74110  0.73401  0.94558  1.0000
  H   H2061     1.0  0.82825  0.71197  0.53449  1.0000
  C   C1712     1.0  0.75012  0.71942  0.59789  1.0000
  H   H2062     1.0  0.76575  0.69849  0.85644  1.0000
  H   H2063     1.0  0.67813  0.72489  0.75682  1.0000
  C   C1713     1.0  0.76074  0.66160  0.99846  1.0000
  H   H2064     1.0  0.80782  0.73216  0.80089  1.0000
  H   H2065     1.0  0.87763  0.73186  0.64519  1.0000
  C   C1714     1.0  0.83710  0.73653  0.74828  1.0000
  C   C1715     1.0  0.79365  0.72851  0.80700  1.0000
  C   C1716     1.0  0.80149  0.70303  0.89538  1.0000
  H   H2066     1.0  0.96566  0.58848  0.87930  1.0000
  H   H2067     1.0  0.64981  0.64367  0.64681  1.0000
  C   C1717     1.0  0.83254  0.74636  0.93411  1.0000
  C   C1718     1.0  0.75137  0.66360  0.91873  1.0000
  C   C1719     1.0  0.77009  0.66136  0.93093  1.0000
  C   C1720     1.0  0.77481  0.66071  0.97077  1.0000
  C   C1721     1.0  0.68079  0.69627  0.57135  1.0000
  H   H2068     1.0  0.77357  0.73711  0.65289  1.0000
  C   C1722     1.0  0.73741  0.66511  0.94654  1.0000
  H   H2069     1.0  0.78095  0.65991  0.90967  1.0000
  H   H2070     1.0  0.78927  0.65895  0.98002  1.0000
  C   C1723     1.0  0.93214  0.54101  0.53703  1.0000
  H   H2071     1.0  0.72294  0.66678  0.93750  1.0000
  H   H2072     1.0  0.74265  0.64479  0.53205  1.0000
  H   H2073     1.0  0.69242  0.66338  0.69528  1.0000
  C   C1724     1.0  0.84200  0.71849  0.73317  1.0000
  H   H2074     1.0  0.73571  0.70739  0.97403  1.0000
  C   C1725     1.0  0.66074  0.62916  0.77681  1.0000
  C   C1726     1.0  0.65678  0.61113  0.76068  1.0000
  C   C1727     1.0  0.93328  0.58435  0.94982  1.0000
  H   H2075     1.0  0.67481  0.63229  0.78627  1.0000
  H   H2076     1.0  0.66786  0.60040  0.75799  1.0000
  H   H2077     1.0  0.84573  0.59598  0.65707  1.0000
  H   H2078     1.0  0.94502  0.56295  0.57092  1.0000
  H   H2079     1.0  0.64795  0.69086  0.69887  1.0000
  C   C1728     1.0  0.64651  0.64314  0.78002  1.0000
  C   C1729     1.0  0.64765  0.62740  0.87151  1.0000
  H   H2080     1.0  0.76691  0.73634  0.70265  1.0000
  H   H2081     1.0  0.79545  0.60299  0.66704  1.0000
  H   H2082     1.0  0.71613  0.73380  0.68334  1.0000
  C   C1730     1.0  0.95880  0.55861  0.51603  1.0000
  C   C1731     1.0  0.67864  0.66901  0.70535  1.0000
  C   C1732     1.0  0.87591  0.72479  0.56485  1.0000
  H   H2083     1.0  0.78823  0.59258  0.62199  1.0000
  H   H2084     1.0  0.74994  0.74489  0.78166  1.0000
  H   H2085     1.0  0.85553  0.72099  0.63368  1.0000
  C   C1733     1.0  0.73851  0.73143  0.62132  1.0000
  H   H2086     1.0  0.64178  0.60163  0.84219  1.0000
  H   H2087     1.0  0.73415  0.73352  0.71964  1.0000
  C   C1734     1.0  0.74431  0.71374  0.56064  1.0000
  H   H2088     1.0  0.81281  0.67171  0.85550  1.0000
  H   H2089     1.0  0.83378  0.61678  0.63801  1.0000
  H   H2090     1.0  0.88921  0.70544  0.52430  1.0000
  N   N114      1.0  0.80389  0.70143  0.85274  1.0000
  H   H2091     1.0  0.79937  0.61545  0.62301  1.0000
  S   S462      1.0  0.96165  0.55896  0.69516  1.0000
  H   H2092     1.0  0.81253  0.69473  0.91185  1.0000
  H   H2093     1.0  0.68035  0.68415  0.71439  1.0000
  C   C1735     1.0  0.78937  0.71333  0.83243  1.0000
  S   S463      1.0  0.96990  0.51857  0.74233  1.0000
  C   C1736     1.0  0.77016  0.70986  0.83776  1.0000
  H   H2094     1.0  0.83119  0.56496  0.65394  1.0000
  C   C1737     1.0  0.75620  0.72085  0.81889  1.0000
  H   H2095     1.0  0.65591  0.63947  0.69647  1.0000
  C   C1738     1.0  0.81875  0.59106  0.52146  1.0000
  Fe  Fe233     1.0  0.95630  0.54702  0.75451  1.0000
  H   H2096     1.0  0.84571  0.71900  0.92137  1.0000
  H   H2097     1.0  0.93575  0.49806  0.96422  1.0000
  C   C1739     1.0  0.77806  0.72770  0.96980  1.0000
  H   H2098     1.0  0.80226  0.71819  0.90501  1.0000
  H   H2099     1.0  0.67524  0.66110  0.73218  1.0000
  C   C1740     1.0  0.77102  0.63775  0.51636  1.0000
  H   H2100     1.0  0.90012  0.74561  0.96936  1.0000
  C   C1741     1.0  0.73087  0.72916  0.68921  1.0000
  C   C1742     1.0  0.96333  0.53483  0.94317  1.0000
  H   H2101     1.0  0.74165  0.71761  0.82291  1.0000
  C   C1743     1.0  0.83640  0.58301  0.51472  1.0000
  C   C1744     1.0  0.72091  0.73724  0.60515  1.0000
  H   H2102     1.0  0.94012  0.52178  0.91430  1.0000
  N   N115      1.0  0.74386  0.73745  0.66118  1.0000
  H   H2103     1.0  0.85314  0.71001  0.74681  1.0000
  H   H2104     1.0  0.72649  0.73603  0.93847  1.0000
  C   C1745     1.0  0.66986  0.67666  0.63897  1.0000
  C   C1746     1.0  0.74620  0.71765  0.96689  1.0000
  C   C1747     1.0  0.83718  0.72065  0.98097  1.0000
  C   C1748     1.0  0.67336  0.66676  0.60353  1.0000
  H   H2105     1.0  0.86166  0.57123  0.54070  1.0000
  H   H2106     1.0  0.76371  0.71408  0.60767  1.0000
  C   C1749     1.0  0.67758  0.70636  0.60563  1.0000
  H   H2107     1.0  0.82590  0.72200  0.85317  1.0000
  C   C1750     1.0  0.83913  0.72783  0.94337  1.0000
  C   C1751     1.0  0.80201  0.68113  0.84105  1.0000
  H   H2108     1.0  0.81244  0.57396  0.68278  1.0000
  C   C1752     1.0  0.96450  0.58515  0.97790  1.0000
  C   C1753     1.0  0.72704  0.71997  0.54551  1.0000
  C   C1754     1.0  0.81729  0.57243  0.65232  1.0000
  H   H2109     1.0  0.67200  0.65150  0.60057  1.0000
  C   C1755     1.0  0.76468  0.71445  0.97881  1.0000
  H   H2110     1.0  0.73107  0.66430  0.00741  1.0000
  H   H2111     1.0  0.80756  0.56284  0.63655  1.0000
  C   C1756     1.0  0.95867  0.50729  0.00260  1.0000
  C   C1757     1.0  0.94539  0.55486  0.54390  1.0000
  C   C1758     1.0  0.84181  0.58000  0.58404  1.0000
  S   S464      1.0  0.65079  0.66659  0.79669  1.0000
  H   H2112     1.0  0.76493  0.71541  0.67345  1.0000
  H   H2113     1.0  0.78790  0.69752  0.90491  1.0000
  C   C1759     1.0  0.67875  0.67654  0.57031  1.0000
  H   H2114     1.0  0.68126  0.66888  0.54333  1.0000
  H   H2115     1.0  0.79877  0.60012  0.56237  1.0000
  H   H2116     1.0  0.70204  0.73674  0.55599  1.0000
  C   C1760     1.0  0.67240  0.69671  0.63906  1.0000
  H   H2117     1.0  0.75324  0.70431  0.54355  1.0000
  H   H2118     1.0  0.92634  0.50305  0.80361  1.0000
  C   C1761     1.0  0.81328  0.74034  0.69781  1.0000
  C   C1762     1.0  0.76313  0.73128  0.67294  1.0000
  C   C1763     1.0  0.94927  0.52156  0.93977  1.0000
  H   H2119     1.0  0.68961  0.73783  0.92190  1.0000
  N   N116      1.0  0.81808  0.59122  0.63272  1.0000
  C   C1764     1.0  0.83177  0.60315  0.65375  1.0000
  C   C1765     1.0  0.79947  0.60093  0.63618  1.0000
  H   H2120     1.0  0.85130  0.57554  0.60727  1.0000
  C   C1766     1.0  0.82401  0.58839  0.59203  1.0000
  C   C1767     1.0  0.81255  0.59372  0.55945  1.0000
  C   C1768     1.0  0.68282  0.73712  0.74089  1.0000
  C   C1769     1.0  0.94691  0.50794  0.96888  1.0000
  C   C1770     1.0  0.84789  0.57744  0.54595  1.0000
  S   S465      1.0  0.84466  0.69708  0.99146  1.0000
  N   N117      1.0  0.66399  0.66697  0.67476  1.0000
  H   H2121     1.0  0.67386  0.63824  0.66141  1.0000
  C   C1771     1.0  0.68271  0.72851  0.97930  1.0000
  C   C1772     1.0  0.67415  0.74226  0.70540  1.0000
  S   S466      1.0  0.84899  0.74524  0.78934  1.0000
  H   H2122     1.0  0.92161  0.53848  0.55861  1.0000
  C   C1773     1.0  0.94081  0.58577  0.91272  1.0000
  C   C1774     1.0  0.95999  0.58718  0.90820  1.0000
  H   H2123     1.0  0.68483  0.70368  0.54538  1.0000
  C   C1775     1.0  0.66080  0.64621  0.66934  1.0000
  S   S467      1.0  0.70914  0.74130  0.79911  1.0000
  C   C1776     1.0  0.64626  0.67591  0.68867  1.0000
  H   H2124     1.0  0.67894  0.72179  0.60630  1.0000
  C   C1777     1.0  0.64091  0.64296  0.89288  1.0000
  C   C1778     1.0  0.96772  0.50722  0.56665  1.0000
  C   C1779     1.0  0.77955  0.73980  0.78912  1.0000
  H   H2125     1.0  0.76861  0.70178  0.99543  1.0000
  C   C1780     1.0  0.77317  0.74391  0.94774  1.0000
  S   S468      1.0  0.96515  0.55990  0.81174  1.0000
  H   H2126     1.0  0.96847  0.56970  0.52324  1.0000
  H   H2127     1.0  0.81817  0.74583  0.52638  1.0000
  H   H2128     1.0  0.96512  0.54526  0.92037  1.0000
  H   H2129     1.0  0.64072  0.66815  0.71399  1.0000
  H   H2130     1.0  0.79235  0.72532  0.97993  1.0000
  H   H2131     1.0  0.72249  0.71552  0.51669  1.0000
  H   H2132     1.0  0.85661  0.73984  0.66818  1.0000
  H   H2133     1.0  0.71111  0.74604  0.62142  1.0000
  C   C1781     1.0  0.63859  0.60692  0.74795  1.0000
  Fe  Fe234     1.0  0.66575  0.82529  0.12301  1.0000
  S   S469      1.0  0.93455  0.96540  0.49514  1.0000
  C   C1782     1.0  0.77828  0.80763  0.12026  1.0000
  Fe  Fe235     1.0  0.67804  0.78702  0.15994  1.0000
  S   S470      1.0  0.70628  0.78634  0.13235  1.0000
  H   H2134     1.0  0.93341  0.88280  0.37354  1.0000
  Fe  Fe236     1.0  0.70652  0.81735  0.14932  1.0000
  S   S471      1.0  0.73281  0.83024  0.17398  1.0000
  C   C1783     1.0  0.76069  0.76203  0.04278  1.0000
  H   H2135     1.0  0.92580  0.98172  0.24001  1.0000
  S   S472      1.0  0.67926  0.81738  0.18061  1.0000
  S   S473      1.0  0.92671  0.96231  0.01323  1.0000
  H   H2136     1.0  0.83063  0.78697  0.15546  1.0000
  H   H2137     1.0  0.68382  0.81255  0.35268  1.0000
  Fe  Fe237     1.0  0.93773  0.89618  0.45081  1.0000
  S   S474      1.0  0.93190  0.92387  0.41942  1.0000
  S   S475      1.0  0.91967  0.87017  0.45718  1.0000
  C   C1784     1.0  0.95899  0.96745  0.25243  1.0000
  H   H2138     1.0  0.73221  0.76793  0.02519  1.0000
  N   N118      1.0  0.69363  0.78761  0.32105  1.0000
  H   H2139     1.0  0.66172  0.85486  0.50624  1.0000
  C   C1785     1.0  0.70069  0.79886  0.28816  1.0000
  Fe  Fe238     1.0  0.82787  0.78366  0.40562  1.0000
  S   S476      1.0  0.85492  0.78917  0.37615  1.0000
  C   C1786     1.0  0.68486  0.75263  0.03023  1.0000
  Fe  Fe239     1.0  0.80388  0.79300  0.33358  1.0000
  S   S477      1.0  0.82878  0.79993  0.29823  1.0000
  S   S478      1.0  0.77475  0.78640  0.31208  1.0000
  Fe  Fe240     1.0  0.84205  0.77377  0.32535  1.0000
  H   H2140     1.0  0.82292  0.77564  0.19817  1.0000
  Fe  Fe241     1.0  0.83950  0.81507  0.35204  1.0000
  S   S479      1.0  0.85262  0.84420  0.34672  1.0000
  S   S480      1.0  0.81666  0.76583  0.35743  1.0000
  S   S481      1.0  0.81300  0.81051  0.38510  1.0000
  C   C1787     1.0  0.93816  0.97192  0.05417  1.0000
  H   H2141     1.0  0.66512  0.79572  0.30536  1.0000
  H   H2142     1.0  0.77301  0.78820  0.18711  1.0000
  C   C1788     1.0  0.95502  0.96391  0.06821  1.0000
  C   C1789     1.0  0.77260  0.81375  0.08321  1.0000
  H   H2143     1.0  0.68827  0.79159  0.38187  1.0000
  H   H2144     1.0  0.92318  0.93709  0.24133  1.0000
  C   C1790     1.0  0.90028  0.86383  0.42764  1.0000
  C   C1791     1.0  0.89317  0.84542  0.43132  1.0000
  C   C1792     1.0  0.87848  0.83931  0.40703  1.0000
  C   C1793     1.0  0.87072  0.85158  0.37873  1.0000
  C   C1794     1.0  0.87772  0.87007  0.37525  1.0000
  C   C1795     1.0  0.89238  0.87623  0.39972  1.0000
  H   H2145     1.0  0.89917  0.83574  0.45290  1.0000
  H   H2146     1.0  0.87320  0.82508  0.41015  1.0000
  H   H2147     1.0  0.87167  0.87972  0.35368  1.0000
  H   H2148     1.0  0.89751  0.89055  0.39707  1.0000
  C   C1796     1.0  0.74424  0.81809  0.21266  1.0000
  C   C1797     1.0  0.75956  0.82640  0.23145  1.0000
  C   C1798     1.0  0.76930  0.81670  0.26162  1.0000
  C   C1799     1.0  0.76359  0.79871  0.27333  1.0000
  C   C1800     1.0  0.74827  0.79039  0.25454  1.0000
  C   C1801     1.0  0.73865  0.80002  0.22422  1.0000
  H   H2149     1.0  0.76389  0.84042  0.22264  1.0000
  H   H2150     1.0  0.78101  0.82327  0.27615  1.0000
  H   H2151     1.0  0.74390  0.77638  0.26321  1.0000
  H   H2152     1.0  0.72698  0.79344  0.20966  1.0000
  C   C1802     1.0  0.72809  0.83111  0.42282  1.0000
  Fe  Fe242     1.0  0.69088  0.79711  0.07905  1.0000
  H   H2153     1.0  0.95281  0.97623  0.27627  1.0000
  C   C1803     1.0  0.96406  0.97210  0.10047  1.0000
  H   H2154     1.0  0.81708  0.76545  0.15204  1.0000
  C   C1804     1.0  0.78344  0.80918  0.05111  1.0000
  S   S482      1.0  0.69762  0.79020  0.46544  1.0000
  C   C1805     1.0  0.80551  0.79174  0.09281  1.0000
  C   C1806     1.0  0.64257  0.87682  0.48378  1.0000
  C   C1807     1.0  0.94664  0.92681  0.13771  1.0000
  H   H2155     1.0  0.78803  0.79353  0.45673  1.0000
  C   C1808     1.0  0.73640  0.83196  0.38661  1.0000
  H   H2156     1.0  0.96097  0.95129  0.05448  1.0000
  H   H2157     1.0  0.93111  0.84933  0.38737  1.0000
  H   H2158     1.0  0.67328  0.77381  0.28439  1.0000
  H   H2159     1.0  0.66280  0.81062  0.02769  1.0000
  S   S483      1.0  0.69734  0.78885  0.01732  1.0000
  H   H2160     1.0  0.93801  0.89146  0.32590  1.0000
  H   H2161     1.0  0.93625  0.98133  0.19308  1.0000
  N   N119      1.0  0.75958  0.79485  0.47645  1.0000
  C   C1809     1.0  0.75207  0.82045  0.37890  1.0000
  H   H2162     1.0  0.77173  0.79963  0.39921  1.0000
  C   C1810     1.0  0.74176  0.75812  0.04025  1.0000
  H   H2163     1.0  0.70193  0.78980  0.26156  1.0000
  H   H2164     1.0  0.87408  0.76088  0.47950  1.0000
  C   C1811     1.0  0.95208  0.94656  0.19584  1.0000
  C   C1812     1.0  0.73735  0.75724  0.34412  1.0000
  C   C1813     1.0  0.92895  0.84644  0.35583  1.0000
  C   C1814     1.0  0.77667  0.78385  0.46508  1.0000
  C   C1815     1.0  0.70609  0.77069  0.32814  1.0000
  C   C1816     1.0  0.80444  0.80870  0.18933  1.0000
  C   C1817     1.0  0.73561  0.81898  0.45161  1.0000
  H   H2165     1.0  0.71105  0.76107  0.41267  1.0000
  H   H2166     1.0  0.81833  0.78326  0.09431  1.0000
  H   H2167     1.0  0.73068  0.84153  0.36444  1.0000
  H   H2168     1.0  0.81618  0.75499  0.27804  1.0000
  H   H2169     1.0  0.79050  0.77626  0.21566  1.0000
  H   H2170     1.0  0.96416  0.88023  0.28966  1.0000
  H   H2171     1.0  0.93972  0.84291  0.28023  1.0000
  H   H2172     1.0  0.91769  0.85538  0.28652  1.0000
  C   C1818     1.0  0.64173  0.88543  0.03661  1.0000
  H   H2173     1.0  0.73999  0.77294  0.46251  1.0000
  H   H2174     1.0  0.66744  0.77500  0.33541  1.0000
  H   H2175     1.0  0.66145  0.86659  0.06706  1.0000
  C   C1819     1.0  0.93310  0.85659  0.29035  1.0000
  H   H2176     1.0  0.69120  0.81123  0.28064  1.0000
  C   C1820     1.0  0.77290  0.74958  0.06271  1.0000
  S   S484      1.0  0.82438  0.77298  0.46648  1.0000
  H   H2177     1.0  0.93008  0.95132  0.28230  1.0000
  C   C1821     1.0  0.93983  0.93794  0.16847  1.0000
  H   H2178     1.0  0.73137  0.78700  0.33812  1.0000
  H   H2179     1.0  0.91350  0.84697  0.35103  1.0000
  S   S485      1.0  0.69322  0.82826  0.09354  1.0000
  H   H2180     1.0  0.78379  0.76656  0.16904  1.0000
  C   C1822     1.0  0.81869  0.77929  0.16773  1.0000
  H   H2181     1.0  0.81546  0.81741  0.17621  1.0000
  S   S486      1.0  0.94986  0.91028  0.50425  1.0000
  H   H2182     1.0  0.70464  0.75400  0.19012  1.0000
  H   H2183     1.0  0.93391  0.83157  0.34950  1.0000
  C   C1823     1.0  0.72536  0.77299  0.33689  1.0000
  H   H2184     1.0  0.77386  0.77393  0.44048  1.0000
  C   C1824     1.0  0.70239  0.75439  0.43378  1.0000
  H   H2185     1.0  0.70725  0.80502  0.36463  1.0000
  H   H2186     1.0  0.65648  0.83517  0.03381  1.0000
  C   C1825     1.0  0.79978  0.79811  0.05587  1.0000
  C   C1826     1.0  0.69403  0.76551  0.46297  1.0000
  C   C1827     1.0  0.68309  0.75679  0.49066  1.0000
  H   H2187     1.0  0.76952  0.81197  0.14423  1.0000
  S   S487      1.0  0.66256  0.79468  0.10476  1.0000
  C   C1828     1.0  0.78648  0.78007  0.18518  1.0000
  S   S488      1.0  0.96573  0.89127  0.42364  1.0000
  C   C1829     1.0  0.64692  0.87089  0.06326  1.0000
  H   H2188     1.0  0.91584  0.88143  0.33610  1.0000
  Fe  Fe243     1.0  0.94633  0.93768  0.47065  1.0000
  H   H2189     1.0  0.76589  0.77471  0.02926  1.0000
  H   H2190     1.0  0.94524  0.93237  0.26526  1.0000
  H   H2191     1.0  0.71461  0.80488  0.29450  1.0000
  N   N120      1.0  0.80115  0.79114  0.16623  1.0000
  N   N121      1.0  0.94448  0.95745  0.22935  1.0000
  H   H2192     1.0  0.80888  0.80530  0.21976  1.0000
  H   H2193     1.0  0.75982  0.82234  0.07964  1.0000
  H   H2194     1.0  0.75851  0.82107  0.35062  1.0000
  Fe  Fe244     1.0  0.96093  0.92004  0.39648  1.0000
  S   S489      1.0  0.66572  0.76568  0.20046  1.0000
  C   C1830     1.0  0.95626  0.98828  0.11889  1.0000
  C   C1831     1.0  0.75964  0.80817  0.40744  1.0000
  H   H2195     1.0  0.92487  0.93963  0.17066  1.0000
  C   C1832     1.0  0.67404  0.78273  0.31121  1.0000
  C   C1833     1.0  0.75173  0.80726  0.44502  1.0000
  H   H2196     1.0  0.91756  0.96585  0.20366  1.0000
  C   C1834     1.0  0.93529  0.94400  0.25563  1.0000
  C   C1835     1.0  0.79500  0.79655  0.12635  1.0000
  H   H2197     1.0  0.81624  0.75972  0.02260  1.0000
  H   H2198     1.0  0.71573  0.83987  0.42878  1.0000
  C   C1836     1.0  0.69324  0.79975  0.35644  1.0000
  H   H2199     1.0  0.78765  0.75260  0.06467  1.0000
  H   H2200     1.0  0.79170  0.81802  0.19134  1.0000
  H   H2201     1.0  0.68342  0.75677  0.06036  1.0000
  C   C1837     1.0  0.93113  0.87991  0.34201  1.0000
  C   C1838     1.0  0.93044  0.97214  0.21594  1.0000
  N   N122      1.0  0.93844  0.86059  0.33141  1.0000
  S   S490      1.0  0.96789  0.92524  0.33385  1.0000
  H   H2202     1.0  0.75202  0.75936  0.35050  1.0000
  H   H2203     1.0  0.80818  0.79465  0.03072  1.0000
  H   H2204     1.0  0.77919  0.81423  0.02247  1.0000
  H   H2205     1.0  0.64597  0.87405  0.45375  1.0000
  H   H2206     1.0  0.96441  0.99527  0.01220  1.0000
  C   C1839     1.0  0.96577  0.92360  0.13371  1.0000
  H   H2207     1.0  0.93716  0.86811  0.27032  1.0000
  H   H2208     1.0  0.77461  0.81786  0.50291  1.0000
  S   S491      1.0  0.85627  0.75165  0.28790  1.0000
  C   C1840     1.0  0.95904  0.85996  0.33629  1.0000
  H   H2209     1.0  0.72856  0.81871  0.47910  1.0000
  S   S492      1.0  0.93805  0.90638  0.01528  1.0000
  H   H2210     1.0  0.93703  0.92065  0.11673  1.0000
  H   H2211     1.0  0.96683  0.97736  0.23390  1.0000
  C   C1841     1.0  0.74548  0.78093  0.48811  1.0000
  S   S493      1.0  0.63886  0.84337  0.11818  1.0000
  H   H2212     1.0  0.91743  0.99452  0.06150  1.0000
  H   H2213     1.0  0.65236  0.89214  0.01982  1.0000
  H   H2214     1.0  0.78253  0.77493  0.48937  1.0000
  C   C1842     1.0  0.83053  0.74861  0.47028  1.0000
  C   C1843     1.0  0.93051  0.98829  0.07224  1.0000
  H   H2215     1.0  0.73328  0.78804  0.50216  1.0000
  H   H2216     1.0  0.97094  0.91481  0.11000  1.0000
  C   C1844     1.0  0.93955  0.99649  0.10451  1.0000
  C   C1845     1.0  0.69961  0.75168  0.32745  1.0000
  H   H2217     1.0  0.68522  0.74841  0.32155  1.0000
  C   C1846     1.0  0.87500  0.75096  0.50370  1.0000
  H   H2218     1.0  0.64785  0.78246  0.01273  1.0000
  H   H2219     1.0  0.96898  0.95717  0.26696  1.0000
  C   C1847     1.0  0.96849  0.84913  0.36592  1.0000
  C   C1848     1.0  0.67962  0.74692  0.22001  1.0000
  C   C1849     1.0  0.65682  0.82330  0.01226  1.0000
  H   H2220     1.0  0.96117  0.84086  0.38694  1.0000
  C   C1850     1.0  0.97030  0.87088  0.31160  1.0000
  H   H2221     1.0  0.84428  0.74692  0.41513  1.0000
  Fe  Fe245     1.0  0.67690  0.82984  0.58202  1.0000
  H   H2222     1.0  0.83136  0.75516  0.63006  1.0000
  C   C1851     1.0  0.90822  0.77407  0.95370  1.0000
  Fe  Fe246     1.0  0.68174  0.78828  0.60726  1.0000
  S   S494      1.0  0.70810  0.78381  0.57428  1.0000
  S   S495      1.0  0.67026  0.76298  0.63845  1.0000
  Fe  Fe247     1.0  0.71605  0.81224  0.59820  1.0000
  S   S496      1.0  0.74670  0.81378  0.61528  1.0000
  H   H2223     1.0  0.81871  0.76125  0.74236  1.0000
  C   C1852     1.0  0.82415  0.75786  0.96259  1.0000
  S   S497      1.0  0.69051  0.81576  0.63487  1.0000
  S   S498      1.0  0.66608  0.80239  0.55746  1.0000
  H   H2224     1.0  0.94450  0.81330  0.92479  1.0000
  C   C1853     1.0  0.64729  0.86953  0.55237  1.0000
  Fe  Fe248     1.0  0.92844  0.89521  0.95685  1.0000
  S   S499      1.0  0.92666  0.92443  0.92970  1.0000
  S   S500      1.0  0.90535  0.87345  0.95892  1.0000
  H   H2225     1.0  0.64357  0.75904  0.89854  1.0000
  C   C1854     1.0  0.95913  0.98919  0.60829  1.0000
  H   H2226     1.0  0.73876  0.79300  0.92033  1.0000
  C   C1855     1.0  0.96294  0.91324  0.71770  1.0000
  C   C1856     1.0  0.96839  0.92336  0.61003  1.0000
  Fe  Fe249     1.0  0.82134  0.78823  0.88918  1.0000
  S   S501      1.0  0.84972  0.78853  0.86267  1.0000
  S   S502      1.0  0.81561  0.78097  0.95128  1.0000
  Fe  Fe250     1.0  0.80091  0.79734  0.81280  1.0000
  S   S503      1.0  0.82749  0.79849  0.77954  1.0000
  S   S504      1.0  0.77096  0.79981  0.79134  1.0000
  Fe  Fe251     1.0  0.83625  0.77237  0.81363  1.0000
  C   C1857     1.0  0.95846  0.92327  0.75159  1.0000
  Fe  Fe252     1.0  0.83862  0.81473  0.83143  1.0000
  S   S505      1.0  0.85582  0.84076  0.81991  1.0000
  S   S506      1.0  0.80889  0.76999  0.84294  1.0000
  S   S507      1.0  0.81112  0.81573  0.86204  1.0000
  C   C1858     1.0  0.94397  0.97408  0.53910  1.0000
  H   H2227     1.0  0.95295  0.95861  0.90575  1.0000
  H   H2228     1.0  0.95800  0.91580  0.77915  1.0000
  H   H2229     1.0  0.75177  0.76545  0.64257  1.0000
  H   H2230     1.0  0.76033  0.78252  0.86590  1.0000
  H   H2231     1.0  0.92477  0.83552  0.95875  1.0000
  H   H2232     1.0  0.75217  0.81414  0.52363  1.0000
  C   C1859     1.0  0.89094  0.86604  0.91966  1.0000
  C   C1860     1.0  0.89511  0.86993  0.88099  1.0000
  C   C1861     1.0  0.88406  0.86239  0.85062  1.0000
  C   C1862     1.0  0.86895  0.85070  0.85866  1.0000
  C   C1863     1.0  0.86462  0.84705  0.89733  1.0000
  C   C1864     1.0  0.87549  0.85481  0.92763  1.0000
  H   H2233     1.0  0.90694  0.87859  0.87448  1.0000
  H   H2234     1.0  0.88742  0.86539  0.82077  1.0000
  H   H2235     1.0  0.85289  0.83828  0.90391  1.0000
  H   H2236     1.0  0.87201  0.85195  0.95748  1.0000
  C   C1865     1.0  0.75337  0.80857  0.66381  1.0000
  C   C1866     1.0  0.77241  0.80705  0.67412  1.0000
  C   C1867     1.0  0.77806  0.80375  0.71297  1.0000
  C   C1868     1.0  0.76465  0.80223  0.74177  1.0000
  C   C1869     1.0  0.74564  0.80330  0.73128  1.0000
  C   C1870     1.0  0.74000  0.80635  0.69244  1.0000
  H   H2237     1.0  0.78281  0.80872  0.65207  1.0000
  H   H2238     1.0  0.79272  0.80274  0.72070  1.0000
  H   H2239     1.0  0.73519  0.80212  0.75342  1.0000
  H   H2240     1.0  0.72531  0.80750  0.68488  1.0000
  H   H2241     1.0  0.74723  0.76371  0.69366  1.0000
  C   C1871     1.0  0.88305  0.79791  0.95114  1.0000
  S   S508      1.0  0.70343  0.82882  0.54772  1.0000
  C   C1872     1.0  0.95548  0.95258  0.71515  1.0000
  C   C1873     1.0  0.86646  0.76736  0.62217  1.0000
  N   N123      1.0  0.74914  0.76426  0.91019  1.0000
  S   S509      1.0  0.96833  0.92880  0.85699  1.0000
  H   H2242     1.0  0.85574  0.78782  0.96468  1.0000
  H   H2243     1.0  0.94050  0.90209  0.63722  1.0000
  H   H2244     1.0  0.64967  0.75509  0.96889  1.0000
  H   H2245     1.0  0.80236  0.74899  0.68397  1.0000
  C   C1874     1.0  0.65156  0.86598  0.51346  1.0000
  H   H2246     1.0  0.90988  0.80551  0.87458  1.0000
  H   H2247     1.0  0.69932  0.78120  0.68382  1.0000
  H   H2248     1.0  0.64073  0.84289  0.95454  1.0000
  H   H2249     1.0  0.95337  0.97801  0.96433  1.0000
  C   C1875     1.0  0.95506  0.89612  0.63942  1.0000
  H   H2250     1.0  0.95554  0.88541  0.66320  1.0000
  C   C1876     1.0  0.82252  0.75084  0.00038  1.0000
  H   H2251     1.0  0.92250  0.99606  0.54509  1.0000
  C   C1877     1.0  0.69742  0.74794  0.75581  1.0000
  Fe  Fe253     1.0  0.69344  0.80037  0.52688  1.0000
  H   H2252     1.0  0.96595  0.89807  0.72038  1.0000
  H   H2253     1.0  0.95791  0.88806  0.61204  1.0000
  H   H2254     1.0  0.91901  0.82836  0.88889  1.0000
  H   H2255     1.0  0.86113  0.77139  0.65139  1.0000
  N   N124      1.0  0.91544  0.80846  0.93600  1.0000
  C   C1878     1.0  0.93515  0.80153  0.93292  1.0000
  C   C1879     1.0  0.73347  0.76031  0.88259  1.0000
  H   H2256     1.0  0.95265  0.96791  0.71415  1.0000
  H   H2257     1.0  0.74447  0.85743  0.65220  1.0000
  H   H2258     1.0  0.90104  0.83102  0.96791  1.0000
  S   S510      1.0  0.95767  0.88876  0.93660  1.0000
  H   H2259     1.0  0.73109  0.77566  0.95445  1.0000
  C   C1880     1.0  0.75652  0.85775  0.67172  1.0000
  Fe  Fe254     1.0  0.95670  0.91886  0.91390  1.0000
  H   H2260     1.0  0.73095  0.77203  0.86110  1.0000
  H   H2261     1.0  0.92255  0.76917  0.95105  1.0000
  H   H2262     1.0  0.95436  0.93007  0.60394  1.0000
  H   H2263     1.0  0.95155  0.95058  0.77693  1.0000
  C   C1881     1.0  0.95499  0.98521  0.93697  1.0000
  H   H2264     1.0  0.78416  0.75372  0.94219  1.0000
  C   C1882     1.0  0.93523  0.98980  0.55749  1.0000
  C   C1883     1.0  0.96046  0.96611  0.55511  1.0000
  S   S511      1.0  0.65706  0.85545  0.59068  1.0000
  C   C1884     1.0  0.96804  0.97375  0.58951  1.0000
  H   H2265     1.0  0.78318  0.75168  0.77077  1.0000
  C   C1885     1.0  0.70323  0.76395  0.73532  1.0000
  C   C1886     1.0  0.83850  0.75116  0.60263  1.0000
  H   H2266     1.0  0.66690  0.82687  0.98930  1.0000
  C   C1887     1.0  0.76486  0.77103  0.88665  1.0000
  H   H2267     1.0  0.67653  0.76527  0.51319  1.0000
  C   C1888     1.0  0.76454  0.80672  0.51075  1.0000
  C   C1889     1.0  0.69469  0.76893  0.69961  1.0000
  H   H2268     1.0  0.71446  0.77241  0.74690  1.0000
  H   H2269     1.0  0.77607  0.77752  0.90468  1.0000
  C   C1890     1.0  0.75491  0.85206  0.71019  1.0000
  C   C1891     1.0  0.89545  0.76030  0.96432  1.0000
  C   C1892     1.0  0.91502  0.82390  0.96566  1.0000
  H   H2270     1.0  0.95997  0.95113  0.65484  1.0000
  H   H2271     1.0  0.87750  0.81225  0.94623  1.0000
  C   C1893     1.0  0.95466  0.97390  0.90348  1.0000
  C   C1894     1.0  0.95483  0.94291  0.75039  1.0000
  H   H2272     1.0  0.69692  0.77078  0.94301  1.0000
  N   N125      1.0  0.63802  0.81980  0.99552  1.0000
  H   H2273     1.0  0.94063  0.79577  0.96113  1.0000
  C   C1895     1.0  0.63927  0.80336  0.96836  1.0000
  C   C1896     1.0  0.95979  0.94266  0.68098  1.0000
  C   C1897     1.0  0.77371  0.86338  0.65813  1.0000
  N   N126      1.0  0.85898  0.74889  0.60848  1.0000
  H   H2274     1.0  0.80240  0.86769  0.67099  1.0000
  C   C1898     1.0  0.74315  0.77986  0.93668  1.0000
  C   C1899     1.0  0.68026  0.75796  0.68439  1.0000
  H   H2275     1.0  0.77487  0.86770  0.62807  1.0000
  H   H2276     1.0  0.96740  0.95419  0.54078  1.0000
  C   C1900     1.0  0.64570  0.76908  0.95745  1.0000
  H   H2277     1.0  0.74154  0.84740  0.72042  1.0000
  C   C1901     1.0  0.95575  0.98222  0.86700  1.0000
  C   C1902     1.0  0.90974  0.81665  0.89774  1.0000
  C   C1903     1.0  0.64227  0.77129  0.91779  1.0000
  C   C1904     1.0  0.82264  0.74739  0.73070  1.0000
  Fe  Fe255     1.0  0.93845  0.93505  0.98653  1.0000
  H   H2278     1.0  0.88200  0.76657  0.62424  1.0000
  H   H2279     1.0  0.83414  0.75178  0.90502  1.0000
  H   H2280     1.0  0.89544  0.82306  0.89786  1.0000
  H   H2281     1.0  0.77098  0.79795  0.53466  1.0000
  C   C1905     1.0  0.87044  0.78404  0.96178  1.0000
  C   C1906     1.0  0.90237  0.79340  0.94687  1.0000
  N   N127      1.0  0.80537  0.85621  0.74720  1.0000
  C   C1907     1.0  0.82002  0.84396  0.72888  1.0000
  C   C1908     1.0  0.81259  0.87573  0.75239  1.0000
  C   C1909     1.0  0.80212  0.84835  0.78645  1.0000
  C   C1910     1.0  0.78837  0.85697  0.72204  1.0000
  C   C1911     1.0  0.77054  0.85155  0.73511  1.0000
  C   C1912     1.0  0.78940  0.86317  0.68290  1.0000
  H   H2282     1.0  0.76828  0.84638  0.76414  1.0000
  H   H2283     1.0  0.91887  0.81831  0.99502  1.0000
  H   H2284     1.0  0.77105  0.75913  0.86915  1.0000
  H   H2285     1.0  0.82516  0.85010  0.70150  1.0000
  H   H2286     1.0  0.83256  0.84197  0.74828  1.0000
  H   H2287     1.0  0.81466  0.82954  0.72200  1.0000
  H   H2288     1.0  0.81676  0.88216  0.72448  1.0000
  H   H2289     1.0  0.82522  0.87568  0.77188  1.0000
  H   H2290     1.0  0.80186  0.88549  0.76546  1.0000
  H   H2291     1.0  0.79693  0.83351  0.78466  1.0000
  H   H2292     1.0  0.81521  0.84776  0.80446  1.0000
  H   H2293     1.0  0.79193  0.85736  0.80290  1.0000
  H   H2294     1.0  0.86683  0.75456  0.97678  1.0000
  H   H2295     1.0  0.75463  0.78373  0.95718  1.0000
  H   H2296     1.0  0.83469  0.76234  0.58078  1.0000
  C   C1913     1.0  0.69109  0.76577  0.00316  1.0000
  C   C1914     1.0  0.69273  0.76041  0.96414  1.0000
  H   H2297     1.0  0.86017  0.76991  0.54100  1.0000
  C   C1915     1.0  0.64443  0.78485  0.98237  1.0000
  C   C1916     1.0  0.87664  0.76528  0.96845  1.0000
  H   H2298     1.0  0.93669  0.79030  0.91011  1.0000
  H   H2299     1.0  0.72839  0.76458  0.65959  1.0000
  H   H2300     1.0  0.71990  0.75884  0.89719  1.0000
  C   C1917     1.0  0.86712  0.75604  0.53926  1.0000
  Fe  Fe256     1.0  0.96703  0.90240  0.99261  1.0000
  C   C1918     1.0  0.74276  0.75863  0.66433  1.0000
  C   C1919     1.0  0.96367  0.92259  0.68123  1.0000
  H   H2301     1.0  0.86241  0.77945  0.60267  1.0000
  S   S512      1.0  0.96824  0.93200  0.96829  1.0000
  N   N128      1.0  0.96855  0.91158  0.64583  1.0000
  H   H2302     1.0  0.95519  0.97332  0.84116  1.0000
  H   H2303     1.0  0.75124  0.77038  0.50960  1.0000
  H   H2304     1.0  0.73629  0.74701  0.86574  1.0000
  C   C1920     1.0  0.75457  0.74722  0.93375  1.0000
