data_image0
_chemical_formula_structural       FeS2FeS2FeSFeS3HNHSHCSCH4CHNH2C3HC9H2CH2C3H4CSC2HC2HCHCH3SH3CHC2H3C5HC5SC2H2C3HCH2FeHC2HCH3CH3CHSCH2CH2C2HCHC2FeHCHCHC2H2C2H2NH3CH3C2H3CH2CHC3H5NC2HCH2C2HNCHCH2C2HC2HC4HCFeS2H5FeS2FeS2FeSFeS3C6H4SC4H3C6H2SCH4C4SC4HC4HC2H2CH8C2H2CHNH8CH2CH2C2NHNC6HC2HCH2CH3FeH2NSHCH2CFeH2CHSC2H2C2H2C2H3CH2CHCH2Fe2HCFeCFeS3H3FeSHCHC2H4C2H3FeS2FeS2FeS6C3HCH2CHC4H4C6H3CH6SC2HSH2C4SH3CHNCNH2NH2Fe2CHCH4SH2C2SCH5CH3C4H2SHCNH8C2H2C2H3CHCHC2FeSCFeS2FeS2FeCFeSH2C6H3CH2SCS2FeS2FeS2FeSHS2C6H2C4H7C3HC3HCH2C2HC3H2CSCH10CHCH2SHC2H2CHCH2C3H4NHCH3FeCHCHC2HNHC2HCNCHC4H5CHCH3CHC2H2CHCSFeSFeHCFe2HS2HS2FeS3CSC4H2C3HC4H2SHSHFeC2H2C3SH2CH2CH2C2HCSH3CHFeH3SHCHCHNC4HCHC2H12CHCHCHFeHFeHNCH11SCSC2H4CFeS3FeCFeSNFeS2FeSFeS2C6H4CHC6H2CSCH2CH3C3HCH2C3HFeHC2HCHNH5C4HCHNC2HNC9H13SH6CH2SH2CH3CHCH3CH3CHFeS2FeS2FeSFeS4HCSCFeS2C4HCH4CH2C2H2C3HCH2C6SCHC3NC3H2CHCH2CFeH2NC9H14C3H3CHCH2C2H6CHC2H2C5HC3H3C4H5C2H6CFeHCH3NHC2HSH5NCHCNCH2SHCFeS2HCH2NFeS2FeS2FeSFeS3C6H3C3H2CH3C6H3CH2SHCH5CHC2H2CH2CHNCH2C4H2C2H3CHC3H2SHCHCH3C3H2C5FeCH3CH2C3H2C3HCH5NHCH3CSH3CHCH2NCH2C2H2CH2CH3C2SHCH3FeCHCFeHFeCS2CHCFeSCHC5HC2HSH2FeS2FeS2FeSFeS4HCHCSCHC3HNH3CHC6H2CHCH5CFeHCH3C2HCHSHC2H5CHCN2CH3SCHCHCHCHFeSHCH2NSC2H2C2HCH3C2SC2H2CH4CSFeC3NH4SCHCHCH2CH2CH3CH3CHNC2FeSHFeS2FeS2FeHFeSH2C6H5CSHS2FeCSFeS2FeSHS2C6H2C6H3SHC2HC4H2CH2SCH3NC3HN2H3CHCNCH5C2H2CH2CH2CH3SH2CHSC4HCH2CH3CH3CHC2NFeH2CH2CFeCHC2H4SH5C2HCSC2H5SHFeHCHCFeHS2HCHFeS3FeSHC3H2CHNC5H2CFeHC5HC2H4CHCHCHC2H3SHC2SCH5NC5HC2FeCHCSHC2H2CHCH8SCH5CH2C2HFe2S3H2CSCFeSCFeSFeS2C6H4C7H3C2H2CH3CHFeSCNC10HCHCH3CH7CH2C2HC3SH5SNH3CH2C2H4NHCH2C3FeC2SHC2H2CHC2H2SHCHCH4CHCH3CH5CNH2CSFe
_chemical_formula_sum              "Fe96 S192 H864 N48 C720"
_cell_length_a       43.165
_cell_length_b       43.2823
_cell_length_c       37.3591
_cell_angle_alpha    89.9068
_cell_angle_beta     89.9218
_cell_angle_gamma    119.882

_space_group_name_H-M_alt    "P 1"
_space_group_IT_number       1

loop_
  _space_group_symop_operation_xyz
  'x, y, z'

loop_
  _atom_site_type_symbol
  _atom_site_label
  _atom_site_symmetry_multiplicity
  _atom_site_fract_x
  _atom_site_fract_y
  _atom_site_fract_z
  _atom_site_occupancy
  Fe  Fe1       1.0  0.39498  0.09594  0.29612  1.0000
  S   S1        1.0  0.37679  0.13575  0.30609  1.0000
  S   S2        1.0  0.43558  0.10645  0.25060  1.0000
  Fe  Fe2       1.0  0.36669  0.05983  0.37149  1.0000
  S   S3        1.0  0.34846  0.09835  0.38546  1.0000
  S   S4        1.0  0.35353  0.01250  0.40921  1.0000
  Fe  Fe3       1.0  0.32673  0.08979  0.32946  1.0000
  S   S5        1.0  0.27417  0.08996  0.32851  1.0000
  Fe  Fe4       1.0  0.39943  0.14087  0.36093  1.0000
  S   S6        1.0  0.43343  0.19377  0.38863  1.0000
  S   S7        1.0  0.34271  0.04887  0.31566  1.0000
  S   S8        1.0  0.42010  0.10316  0.35099  1.0000
  H   H1        1.0  0.00332  0.03115  0.28969  1.0000
  N   N1        1.0  0.47147  0.23595  0.09670  1.0000
  H   H2        1.0  0.00444  0.23804  0.06501  1.0000
  S   S9        1.0  0.04493  0.20007  0.01335  1.0000
  H   H3        1.0  0.06415  0.06595  0.43227  1.0000
  C   C1        1.0  0.40019  0.99995  0.33376  1.0000
  S   S10       1.0  0.37173  0.25873  0.99591  1.0000
  C   C2        1.0  0.18774  0.20808  0.06649  1.0000
  H   H4        1.0  0.39690  0.02352  0.33853  1.0000
  H   H5        1.0  0.44316  0.05425  0.29741  1.0000
  H   H6        1.0  0.43845  0.17423  0.14030  1.0000
  H   H7        1.0  0.19203  0.16691  0.04104  1.0000
  C   C3        1.0  0.24523  0.21417  0.04803  1.0000
  H   H8        1.0  0.18958  0.25444  0.08961  1.0000
  N   N2        1.0  0.32251  0.18589  0.40914  1.0000
  H   H9        1.0  0.42619  0.03518  0.10721  1.0000
  H   H10       1.0  0.20248  0.07558  0.33808  1.0000
  C   C4        1.0  0.20152  0.05531  0.32051  1.0000
  C   C5        1.0  0.03907  0.00865  0.43342  1.0000
  C   C6        1.0  0.12830  0.01539  0.46209  1.0000
  H   H11       1.0  0.05177  0.06922  0.12026  1.0000
  C   C7        1.0  0.19212  0.04031  0.45446  1.0000
  C   C8        1.0  0.43793  0.10988  0.20277  1.0000
  C   C9        1.0  0.12325  0.00556  0.42599  1.0000
  C   C10       1.0  0.33942  0.22450  0.40091  1.0000
  C   C11       1.0  0.44497  0.11236  0.12661  1.0000
  C   C12       1.0  0.41116  0.09442  0.14328  1.0000
  C   C13       1.0  0.40760  0.09346  0.18099  1.0000
  C   C14       1.0  0.29763  0.20709  0.05342  1.0000
  C   C15       1.0  0.41006  0.22399  0.98918  1.0000
  H   H12       1.0  0.38745  0.08070  0.12691  1.0000
  H   H13       1.0  0.38138  0.07904  0.19318  1.0000
  C   C16       1.0  0.43668  0.23339  0.37181  1.0000
  H   H14       1.0  0.34100  0.24059  0.42467  1.0000
  H   H15       1.0  0.98137  0.22642  0.02314  1.0000
  C   C17       1.0  0.44080  0.29719  0.34793  1.0000
  C   C18       1.0  0.41963  0.26510  0.32972  1.0000
  C   C19       1.0  0.41809  0.23343  0.34120  1.0000
  H   H16       1.0  0.14808  0.00434  0.37654  1.0000
  H   H17       1.0  0.31265  0.17191  0.35307  1.0000
  H   H18       1.0  0.40416  0.26470  0.30676  1.0000
  H   H19       1.0  0.40197  0.20904  0.32668  1.0000
  C   C20       1.0  0.23325  0.05546  0.31165  1.0000
  S   S11       1.0  0.44764  0.11021  0.07891  1.0000
  C   C21       1.0  0.21344  0.14646  0.44372  1.0000
  C   C22       1.0  0.27700  0.18643  0.45100  1.0000
  H   H20       1.0  0.21929  0.05373  0.46416  1.0000
  C   C23       1.0  0.23179  0.02937  0.28859  1.0000
  C   C24       1.0  0.24176  0.17391  0.46223  1.0000
  H   H21       1.0  0.25607  0.02936  0.28142  1.0000
  C   C25       1.0  0.98204  0.06133  0.10534  1.0000
  H   H22       1.0  0.36740  0.23554  0.39114  1.0000
  C   C26       1.0  0.19783  0.29374  0.00901  1.0000
  H   H23       1.0  0.29803  0.24838  0.99960  1.0000
  H   H24       1.0  0.00899  0.15542  0.10073  1.0000
  H   H25       1.0  0.29805  0.20781  0.46618  1.0000
  S   S12       1.0  0.47208  0.14647  0.98180  1.0000
  H   H26       1.0  0.46791  0.20088  0.31260  1.0000
  H   H27       1.0  0.34439  0.19575  0.46281  1.0000
  H   H28       1.0  0.37113  0.19002  0.42999  1.0000
  C   C27       1.0  0.23145  0.29811  0.00031  1.0000
  H   H29       1.0  0.20930  0.03592  0.40119  1.0000
  C   C28       1.0  0.46621  0.03582  0.33912  1.0000
  C   C29       1.0  0.44762  0.19924  0.15399  1.0000
  H   H30       1.0  0.25842  0.13072  0.37918  1.0000
  H   H31       1.0  0.40057  0.99568  0.30441  1.0000
  H   H32       1.0  0.06104  0.03370  0.22429  1.0000
  C   C30       1.0  0.26184  0.24977  0.06073  1.0000
  C   C31       1.0  0.20500  0.24301  0.07896  1.0000
  C   C32       1.0  0.45920  0.20126  0.07848  1.0000
  C   C33       1.0  0.45227  0.25286  0.08033  1.0000
  C   C34       1.0  0.15233  0.01271  0.40430  1.0000
  H   H33       1.0  0.09652  0.99207  0.41473  1.0000
  C   C35       1.0  0.05982  0.05416  0.17211  1.0000
  C   C36       1.0  0.20737  0.19370  0.05118  1.0000
  C   C37       1.0  0.19887  0.00389  0.27378  1.0000
  C   C38       1.0  0.25534  0.14364  0.40256  1.0000
  C   C39       1.0  0.16713  0.00373  0.28262  1.0000
  S   S13       1.0  0.13064  0.19038  0.98199  1.0000
  C   C40       1.0  0.41134  0.25707  0.98869  1.0000
  C   C41       1.0  0.23344  0.27027  0.98367  1.0000
  H   H34       1.0  0.02012  0.03817  0.07107  1.0000
  H   H35       1.0  0.26362  0.15180  0.01153  1.0000
  C   C42       1.0  0.02888  0.29780  0.43953  1.0000
  C   C43       1.0  0.03858  0.05221  0.14299  1.0000
  C   C44       1.0  0.28493  0.17187  0.42063  1.0000
  H   H36       1.0  0.45654  0.25592  0.05094  1.0000
  C   C45       1.0  0.47434  0.25324  0.97992  1.0000
  H   H37       1.0  0.15879  0.19253  0.06726  1.0000
  H   H38       1.0  0.39643  0.06110  0.46700  1.0000
  Fe  Fe5       1.0  0.37300  0.31163  0.99052  1.0000
  H   H39       1.0  0.44557  0.31375  0.98323  1.0000
  C   C46       1.0  0.45139  0.22797  0.21071  1.0000
  C   C47       1.0  0.16867  0.23282  0.98725  1.0000
  H   H40       1.0  0.02371  0.27662  0.42080  1.0000
  C   C48       1.0  0.34295  0.18075  0.43820  1.0000
  H   H41       1.0  0.29698  0.20973  0.98165  1.0000
  H   H42       1.0  0.47284  0.26582  0.41337  1.0000
  H   H43       1.0  0.31428  0.13901  0.38141  1.0000
  C   C49       1.0  0.28056  0.21917  0.99593  1.0000
  H   H44       1.0  0.44967  0.00566  0.40644  1.0000
  H   H45       1.0  0.14431  0.02976  0.31286  1.0000
  H   H46       1.0  0.29020  0.26757  0.05767  1.0000
  C   C50       1.0  0.24198  0.26379  0.07614  1.0000
  H   H47       1.0  0.31741  0.23593  0.05616  1.0000
  S   S14       1.0  0.03213  0.00467  0.38587  1.0000
  C   C51       1.0  0.16852  0.02936  0.30633  1.0000
  H   H48       1.0  0.38475  0.19980  0.99307  1.0000
  H   H49       1.0  0.99277  0.06584  0.29750  1.0000
  C   C52       1.0  0.16644  0.26121  0.00234  1.0000
  H   H50       1.0  0.44019  0.19645  0.98508  1.0000
  H   H51       1.0  0.35438  0.17812  0.36933  1.0000
  C   C53       1.0  0.98619  0.00717  0.17418  1.0000
  C   C54       1.0  0.46060  0.29752  0.37765  1.0000
  H   H52       1.0  0.22476  0.15494  0.00310  1.0000
  C   C55       1.0  0.46699  0.05849  0.31110  1.0000
  H   H53       1.0  0.18613  0.13711  0.45215  1.0000
  C   C56       1.0  0.04440  0.03267  0.20208  1.0000
  C   C57       1.0  0.45823  0.26561  0.38976  1.0000
  Fe  Fe6       1.0  0.99827  0.14582  0.00233  1.0000
  H   H54       1.0  0.31320  0.19532  0.04175  1.0000
  C   C58       1.0  0.05512  0.04273  0.44924  1.0000
  H   H55       1.0  0.25520  0.29150  0.08440  1.0000
  C   C59       1.0  0.43267  0.01439  0.09895  1.0000
  H   H56       1.0  0.00459  0.15518  0.16719  1.0000
  C   C60       1.0  0.22025  0.13119  0.41415  1.0000
  C   C61       1.0  0.46511  0.23265  0.13588  1.0000
  H   H57       1.0  0.33071  0.15204  0.44551  1.0000
  H   H58       1.0  0.14069  0.25773  0.00991  1.0000
  C   C62       1.0  0.24628  0.16158  0.02311  1.0000
  C   C63       1.0  0.35069  0.00959  0.45711  1.0000
  H   H59       1.0  0.00477  0.04730  0.33419  1.0000
  H   H60       1.0  0.42983  0.18327  0.08115  1.0000
  N   N3        1.0  0.26679  0.20045  0.03052  1.0000
  H   H61       1.0  0.01289  0.27039  0.32413  1.0000
  H   H62       1.0  0.23419  0.14605  0.04806  1.0000
  H   H63       1.0  0.28865  0.19581  0.08074  1.0000
  C   C64       1.0  0.99308  0.01681  0.07919  1.0000
  H   H64       1.0  0.42754  0.17135  0.20412  1.0000
  H   H65       1.0  0.47062  0.99803  0.05724  1.0000
  H   H66       1.0  0.19816  0.10970  0.39980  1.0000
  C   C65       1.0  0.47816  0.99966  0.08596  1.0000
  C   C66       1.0  0.00111  0.02840  0.14298  1.0000
  H   H67       1.0  0.44968  0.05408  0.15997  1.0000
  H   H68       1.0  0.32435  0.22955  0.37971  1.0000
  H   H69       1.0  0.44573  0.22610  0.23918  1.0000
  C   C67       1.0  0.47175  0.12821  0.18609  1.0000
  H   H70       1.0  0.42890  0.03194  0.39739  1.0000
  H   H71       1.0  0.19612  0.31526  0.02178  1.0000
  C   C68       1.0  0.00766  0.00943  0.20318  1.0000
  H   H72       1.0  0.42626  0.01037  0.06988  1.0000
  C   C69       1.0  0.32599  0.16803  0.37678  1.0000
  C   C70       1.0  0.98971  0.04057  0.30845  1.0000
  C   C71       1.0  0.44105  0.19714  0.19086  1.0000
  H   H73       1.0  0.00970  0.08276  0.09920  1.0000
  H   H74       1.0  0.46504  0.20473  0.04922  1.0000
  H   H75       1.0  0.42296  0.23669  0.08511  1.0000
  H   H76       1.0  0.47664  0.28503  0.20943  1.0000
  H   H77       1.0  0.08847  0.07208  0.17132  1.0000
  N   N4        1.0  0.43287  0.00415  0.35150  1.0000
  C   C72       1.0  0.18675  0.03032  0.41839  1.0000
  C   C73       1.0  0.42845  0.00665  0.39061  1.0000
  H   H78       1.0  0.00162  0.29733  0.24331  1.0000
  C   C74       1.0  0.44144  0.22203  0.98467  1.0000
  H   H79       1.0  0.46150  0.28012  0.09065  1.0000
  H   H80       1.0  0.99877  0.28150  0.09001  1.0000
  C   C75       1.0  0.47528  0.12983  0.14835  1.0000
  C   C76       1.0  0.47572  0.26355  0.15709  1.0000
  H   H81       1.0  0.99471  0.99230  0.08401  1.0000
  N   N5        1.0  0.47047  0.02463  0.10624  1.0000
  C   C77       1.0  0.46883  0.26112  0.19390  1.0000
  H   H82       1.0  0.47298  0.18725  0.08916  1.0000
  C   C78       1.0  0.44416  0.28814  0.98350  1.0000
  H   H83       1.0  0.99823  0.24007  0.24894  1.0000
  H   H84       1.0  0.99574  0.99220  0.22621  1.0000
  C   C79       1.0  0.46438  0.04155  0.16933  1.0000
  C   C80       1.0  0.47676  0.02467  0.14525  1.0000
  H   H85       1.0  0.46032  0.05515  0.22392  1.0000
  C   C81       1.0  0.98675  0.30178  0.32376  1.0000
  C   C82       1.0  0.98749  0.26969  0.32366  1.0000
  H   H86       1.0  0.41395  0.98908  0.11284  1.0000
  C   C83       1.0  0.98329  0.13988  0.11367  1.0000
  C   C84       1.0  0.04443  0.29906  0.47254  1.0000
  C   C85       1.0  0.47071  0.04267  0.20612  1.0000
  C   C86       1.0  0.20216  0.23763  0.97747  1.0000
  H   H87       1.0  0.25841  0.21509  0.97786  1.0000
  C   C87       1.0  0.47549  0.28620  0.97907  1.0000
  Fe  Fe7       1.0  0.01789  0.15127  0.91981  1.0000
  S   S15       1.0  0.06403  0.20669  0.92713  1.0000
  S   S16       1.0  0.00470  0.12984  0.86177  1.0000
  H   H88       1.0  0.28983  0.04850  0.81276  1.0000
  H   H89       1.0  0.42323  0.01948  0.75602  1.0000
  H   H90       1.0  0.14177  0.03977  0.56542  1.0000
  H   H91       1.0  0.00700  0.01890  0.61933  1.0000
  H   H92       1.0  0.26552  0.01858  0.63871  1.0000
  Fe  Fe8       1.0  0.09418  0.09008  0.67801  1.0000
  S   S17       1.0  0.15092  0.13330  0.66701  1.0000
  S   S18       1.0  0.07473  0.08069  0.73715  1.0000
  Fe  Fe9       1.0  0.08257  0.06630  0.59684  1.0000
  S   S19       1.0  0.13756  0.10952  0.58202  1.0000
  S   S20       1.0  0.04807  0.02101  0.55729  1.0000
  Fe  Fe10      1.0  0.15544  0.09344  0.63181  1.0000
  S   S21       1.0  0.20277  0.08555  0.62072  1.0000
  Fe  Fe11      1.0  0.12778  0.14495  0.61856  1.0000
  S   S22       1.0  0.13814  0.20060  0.60600  1.0000
  S   S23       1.0  0.10081  0.04908  0.64593  1.0000
  S   S24       1.0  0.07057  0.10294  0.63031  1.0000
  C   C88       1.0  0.24836  0.30115  0.61709  1.0000
  C   C89       1.0  0.24533  0.26728  0.61780  1.0000
  C   C90       1.0  0.21171  0.23617  0.61472  1.0000
  C   C91       1.0  0.18096  0.23882  0.61011  1.0000
  C   C92       1.0  0.18402  0.27269  0.60930  1.0000
  C   C93       1.0  0.21750  0.30372  0.61323  1.0000
  H   H93       1.0  0.26911  0.26512  0.62073  1.0000
  H   H94       1.0  0.20970  0.21024  0.61537  1.0000
  H   H95       1.0  0.16040  0.27500  0.60560  1.0000
  H   H96       1.0  0.98765  0.03329  0.56421  1.0000
  S   S25       1.0  0.02566  0.26766  0.96374  1.0000
  C   C94       1.0  0.21075  0.02501  0.70008  1.0000
  C   C95       1.0  0.19988  0.04572  0.68029  1.0000
  C   C96       1.0  0.21336  0.05733  0.64579  1.0000
  C   C97       1.0  0.17651  0.27261  0.90870  1.0000
  H   H97       1.0  0.21816  0.09288  0.50566  1.0000
  H   H98       1.0  0.33528  0.08227  0.81888  1.0000
  H   H99       1.0  0.18176  0.05336  0.69202  1.0000
  C   C98       1.0  0.05745  0.09739  0.77134  1.0000
  C   C99       1.0  0.06161  0.09118  0.80763  1.0000
  C   C100      1.0  0.04723  0.10237  0.83560  1.0000
  C   C101      1.0  0.02762  0.11939  0.82779  1.0000
  C   C102      1.0  0.02314  0.12528  0.79148  1.0000
  C   C103      1.0  0.03827  0.11487  0.76356  1.0000
  H   H100      1.0  0.07597  0.07738  0.81425  1.0000
  H   H101      1.0  0.05050  0.09691  0.86317  1.0000
  S   S26       1.0  0.24896  0.99056  0.71133  1.0000
  C   C104      1.0  0.16298  0.03277  0.47759  1.0000
  H   H102      1.0  0.18915  0.24114  0.72366  1.0000
  H   H103      1.0  0.11793  0.00278  0.53611  1.0000
  H   H104      1.0  0.43297  0.98970  0.84102  1.0000
  H   H105      1.0  0.21570  0.03662  0.52225  1.0000
  C   C105      1.0  0.23436  0.01499  0.68518  1.0000
  C   C106      1.0  0.37864  0.02607  0.77102  1.0000
  C   C107      1.0  0.23707  0.04740  0.63100  1.0000
  C   C108      1.0  0.41313  0.03127  0.77500  1.0000
  S   S27       1.0  0.33413  0.31632  0.95416  1.0000
  C   C109      1.0  0.13606  0.03218  0.53665  1.0000
  C   C110      1.0  0.37610  0.03651  0.47901  1.0000
  C   C111      1.0  0.05940  0.04717  0.48681  1.0000
  C   C112      1.0  0.04673  0.01743  0.50941  1.0000
  H   H106      1.0  0.15353  0.26984  0.70678  1.0000
  C   C113      1.0  0.11020  0.23854  0.80931  1.0000
  C   C114      1.0  0.45356  0.03452  0.66168  1.0000
  C   C115      1.0  0.00856  0.00690  0.68567  1.0000
  C   C116      1.0  0.37643  0.03099  0.51633  1.0000
  H   H107      1.0  0.43813  0.08147  0.85038  1.0000
  C   C117      1.0  0.35094  0.99884  0.53264  1.0000
  C   C118      1.0  0.38688  0.06111  0.82434  1.0000
  H   H108      1.0  0.10570  0.24230  0.69953  1.0000
  H   H109      1.0  0.10204  0.21012  0.85888  1.0000
  C   C119      1.0  0.43455  0.05155  0.80331  1.0000
  H   H110      1.0  0.16845  0.19335  0.72362  1.0000
  H   H111      1.0  0.46243  0.98710  0.60741  1.0000
  H   H112      1.0  0.05123  0.27884  0.47955  1.0000
  H   H113      1.0  0.26644  0.31062  0.85789  1.0000
  H   H114      1.0  0.44177  0.08912  0.60230  1.0000
  H   H115      1.0  0.20382  0.21587  0.96531  1.0000
  H   H116      1.0  0.12961  0.16734  0.76962  1.0000
  H   H117      1.0  0.16478  0.22229  0.88628  1.0000
  C   C120      1.0  0.10926  0.21182  0.83087  1.0000
  C   C121      1.0  0.24717  0.02595  0.65039  1.0000
  H   H118      1.0  0.03087  0.03306  0.67661  1.0000
  H   H119      1.0  0.07145  0.07358  0.49829  1.0000
  C   C122      1.0  0.43413  0.06389  0.61696  1.0000
  H   H120      1.0  0.19199  0.03248  0.56256  1.0000
  N   N6        1.0  0.32839  0.03631  0.78957  1.0000
  H   H121      1.0  0.33125  0.03868  0.73163  1.0000
  H   H122      1.0  0.46141  0.05595  0.80627  1.0000
  H   H123      1.0  0.07658  0.17641  0.70789  1.0000
  H   H124      1.0  0.10644  0.17861  0.67331  1.0000
  H   H125      1.0  0.34905  0.08116  0.75350  1.0000
  H   H126      1.0  0.47509  0.00748  0.78986  1.0000
  H   H127      1.0  0.24790  0.05653  0.60448  1.0000
  H   H128      1.0  0.40936  0.05690  0.63234  1.0000
  C   C123      1.0  0.36448  0.04105  0.79537  1.0000
  H   H129      1.0  0.13667  0.24175  0.66854  1.0000
  H   H130      1.0  0.39706  0.05165  0.53255  1.0000
  C   C124      1.0  0.21634  0.26468  0.86945  1.0000
  H   H131      1.0  0.37857  0.07330  0.84452  1.0000
  H   H132      1.0  0.17289  0.21639  0.68287  1.0000
  C   C125      1.0  0.31719  0.05288  0.81783  1.0000
  C   C126      1.0  0.19156  0.08248  0.51848  1.0000
  N   N7        1.0  0.46326  0.06716  0.64062  1.0000
  H   H133      1.0  0.11611  0.16604  0.83312  1.0000
  N   N8        1.0  0.13192  0.21379  0.71800  1.0000
  C   C127      1.0  0.13192  0.24332  0.69763  1.0000
  C   C128      1.0  0.16707  0.21625  0.71196  1.0000
  C   C129      1.0  0.10349  0.17981  0.70276  1.0000
  C   C130      1.0  0.12549  0.21449  0.75687  1.0000
  C   C131      1.0  0.12499  0.18807  0.77986  1.0000
  C   C132      1.0  0.11831  0.24012  0.77283  1.0000
  H   H134      1.0  0.30161  0.05153  0.75035  1.0000
  C   C133      1.0  0.18398  0.25053  0.88778  1.0000
  C   C134      1.0  0.42137  0.06613  0.82808  1.0000
  H   H135      1.0  0.03403  0.11941  0.73603  1.0000
  C   C135      1.0  0.18845  0.02666  0.53330  1.0000
  H   H136      1.0  0.20076  0.01668  0.72700  1.0000
  H   H137      1.0  0.15139  0.26135  0.92322  1.0000
  C   C136      1.0  0.11715  0.18698  0.81629  1.0000
  H   H138      1.0  0.17795  0.09573  0.50571  1.0000
  H   H139      1.0  0.10382  0.15621  0.71408  1.0000
  H   H140      1.0  0.98180  0.05529  0.90022  1.0000
  Fe  Fe12      1.0  0.07581  0.18444  0.97613  1.0000
  H   H141      1.0  0.42752  0.04332  0.59594  1.0000
  H   H142      1.0  0.31639  0.04121  0.84465  1.0000
  N   N9        1.0  0.16934  0.04317  0.51582  1.0000
  S   S28       1.0  0.35625  0.99153  0.57895  1.0000
  H   H143      1.0  0.00757  0.13782  0.78486  1.0000
  C   C137      1.0  0.42066  0.00220  0.65731  1.0000
  H   H144      1.0  0.19669  0.09140  0.54686  1.0000
  H   H145      1.0  0.11829  0.26137  0.75767  1.0000
  C   C138      1.0  0.32771  0.05269  0.75485  1.0000
  Fe  Fe13      1.0  0.02787  0.21636  0.96313  1.0000
  H   H146      1.0  0.22206  0.24743  0.85312  1.0000
  H   H147      1.0  0.12123  0.04530  0.52650  1.0000
  C   C139      1.0  0.47784  0.03421  0.68703  1.0000
  H   H148      1.0  0.45116  0.09131  0.68476  1.0000
  S   S29       1.0  0.03037  0.12824  0.96828  1.0000
  C   C140      1.0  0.46971  0.00370  0.70693  1.0000
  C   C141      1.0  0.98355  0.29857  0.96830  1.0000
  H   H149      1.0  0.10403  0.25782  0.82090  1.0000
  H   H150      1.0  0.17339  0.99715  0.53018  1.0000
  C   C142      1.0  0.24162  0.30089  0.87248  1.0000
  C   C143      1.0  0.98289  0.02055  0.62048  1.0000
  H   H151      1.0  0.23637  0.18577  0.48528  1.0000
  H   H152      1.0  0.36310  0.01022  0.74864  1.0000
  C   C144      1.0  0.47295  0.09764  0.66509  1.0000
  C   C145      1.0  0.20176  0.30875  0.91234  1.0000
  H   H153      1.0  0.01667  0.00191  0.71242  1.0000
  H   H154      1.0  0.40069  0.99952  0.63832  1.0000
  H   H155      1.0  0.99973  0.06216  0.70399  1.0000
  C   C146      1.0  0.98433  0.26696  0.96217  1.0000
  H   H156      1.0  0.47827  0.12213  0.65024  1.0000
  H   H157      1.0  0.98899  0.03111  0.74014  1.0000
  C   C147      1.0  0.47584  0.99049  0.81072  1.0000
  H   H158      1.0  0.27371  0.99337  0.78571  1.0000
  C   C148      1.0  0.30135  0.99778  0.78861  1.0000
  H   H159      1.0  0.10452  0.00881  0.47725  1.0000
  H   H160      1.0  0.25910  0.27362  0.97641  1.0000
  Fe  Fe14      1.0  0.07522  0.47344  0.29578  1.0000
  Fe  Fe15      1.0  0.02936  0.39574  0.31733  1.0000
  H   H161      1.0  0.46237  0.51526  0.39425  1.0000
  C   C149      1.0  0.40761  0.45806  0.16038  1.0000
  Fe  Fe16      1.0  0.99649  0.43178  0.27397  1.0000
  C   C150      1.0  0.00361  0.55590  0.40212  1.0000
  Fe  Fe17      1.0  0.01982  0.45361  0.35472  1.0000
  S   S30       1.0  0.00373  0.46636  0.40955  1.0000
  S   S31       1.0  0.04303  0.42338  0.26391  1.0000
  S   S32       1.0  0.06678  0.44512  0.34841  1.0000
  H   H162      1.0  0.28201  0.59199  0.32814  1.0000
  H   H163      1.0  0.07066  0.41263  0.42062  1.0000
  H   H164      1.0  0.17319  0.51491  0.37140  1.0000
  Fe  Fe18      1.0  0.40374  0.38634  0.01982  1.0000
  S   S33       1.0  0.44474  0.42705  0.05941  1.0000
  H   H165      1.0  0.31943  0.64530  0.38876  1.0000
  C   C151      1.0  0.43280  0.52104  0.14819  1.0000
  H   H166      1.0  0.38647  0.47138  0.41267  1.0000
  C   C152      1.0  0.45046  0.40712  0.13110  1.0000
  C   C153      1.0  0.46195  0.43378  0.10443  1.0000
  H   H167      1.0  0.39884  0.45055  0.23498  1.0000
  H   H168      1.0  0.03582  0.57765  0.46176  1.0000
  H   H169      1.0  0.38333  0.42846  0.40556  1.0000
  H   H170      1.0  0.43016  0.38018  0.12466  1.0000
  C   C154      1.0  0.98576  0.64124  0.12529  1.0000
  C   C155      1.0  0.40157  0.45781  0.40498  1.0000
  H   H171      1.0  0.07564  0.51271  0.44398  1.0000
  H   H172      1.0  0.19936  0.46507  0.31555  1.0000
  H   H173      1.0  0.14256  0.46556  0.30685  1.0000
  Fe  Fe19      1.0  0.40700  0.59943  0.28148  1.0000
  S   S34       1.0  0.36298  0.61292  0.27711  1.0000
  S   S35       1.0  0.44896  0.61089  0.23695  1.0000
  Fe  Fe20      1.0  0.38655  0.57384  0.36194  1.0000
  S   S36       1.0  0.34291  0.58740  0.36151  1.0000
  S   S37       1.0  0.39102  0.54125  0.40890  1.0000
  Fe  Fe21      1.0  0.32865  0.56184  0.30738  1.0000
  S   S38       1.0  0.27228  0.51559  0.29960  1.0000
  S   S39       1.0  0.35873  0.33372  0.03832  1.0000
  S   S40       1.0  0.37131  0.54635  0.30819  1.0000
  S   S41       1.0  0.42685  0.62600  0.33565  1.0000
  S   S42       1.0  0.02947  0.48426  0.30290  1.0000
  S   S43       1.0  0.12822  0.51965  0.27771  1.0000
  C   C156      1.0  0.45696  0.50794  0.42310  1.0000
  C   C157      1.0  0.05482  0.50599  0.46365  1.0000
  C   C158      1.0  0.42759  0.47132  0.23411  1.0000
  H   H174      1.0  0.99863  0.33780  0.08531  1.0000
  C   C159      1.0  0.01876  0.48414  0.45371  1.0000
  H   H175      1.0  0.36597  0.42992  0.46216  1.0000
  H   H176      1.0  0.40939  0.46504  0.37644  1.0000
  C   C160      1.0  0.45096  0.61395  0.18891  1.0000
  H   H177      1.0  0.41066  0.64394  0.07956  1.0000
  C   C161      1.0  0.20703  0.61557  0.35746  1.0000
  C   C162      1.0  0.45725  0.61422  0.11253  1.0000
  C   C163      1.0  0.42355  0.59827  0.12955  1.0000
  C   C164      1.0  0.42038  0.59855  0.16731  1.0000
  H   H178      1.0  0.21448  0.64301  0.35277  1.0000
  H   H179      1.0  0.46073  0.45702  0.38723  1.0000
  H   H180      1.0  0.39961  0.58507  0.11345  1.0000
  H   H181      1.0  0.39423  0.58570  0.17974  1.0000
  C   C165      1.0  0.23259  0.51726  0.29278  1.0000
  C   C166      1.0  0.19982  0.48800  0.30339  1.0000
  C   C167      1.0  0.16760  0.48819  0.29845  1.0000
  C   C168      1.0  0.16794  0.51774  0.28284  1.0000
  C   C169      1.0  0.20064  0.54675  0.27162  1.0000
  C   C170      1.0  0.23282  0.54635  0.27624  1.0000
  H   H182      1.0  0.20099  0.56944  0.25903  1.0000
  H   H183      1.0  0.25767  0.56810  0.26626  1.0000
  H   H184      1.0  0.44322  0.45908  0.22389  1.0000
  C   C171      1.0  0.40684  0.47840  0.10010  1.0000
  H   H185      1.0  0.00160  0.44279  0.11053  1.0000
  H   H186      1.0  0.35007  0.47809  0.45253  1.0000
  H   H187      1.0  0.04845  0.43698  0.43243  1.0000
  H   H188      1.0  0.99778  0.55016  0.37309  1.0000
  H   H189      1.0  0.46663  0.59137  0.43159  1.0000
  H   H190      1.0  0.47642  0.45748  0.43125  1.0000
  S   S44       1.0  0.02748  0.34275  0.32455  1.0000
  C   C172      1.0  0.99884  0.37418  0.41071  1.0000
  C   C173      1.0  0.28544  0.61913  0.32578  1.0000
  H   H191      1.0  0.15113  0.59999  0.35563  1.0000
  S   S45       1.0  0.45958  0.61081  0.06475  1.0000
  H   H192      1.0  0.39816  0.59110  0.46605  1.0000
  H   H193      1.0  0.41469  0.53991  0.21137  1.0000
  C   C174      1.0  0.29007  0.62643  0.38999  1.0000
  C   C175      1.0  0.42505  0.49360  0.17351  1.0000
  C   C176      1.0  0.05301  0.41491  0.44097  1.0000
  C   C177      1.0  0.15827  0.55501  0.36465  1.0000
  S   S46       1.0  0.36841  0.39859  0.98428  1.0000
  H   H194      1.0  0.01488  0.37422  0.38736  1.0000
  H   H195      1.0  0.45633  0.39495  0.18657  1.0000
  H   H196      1.0  0.40112  0.43539  0.17730  1.0000
  C   C178      1.0  0.39859  0.45079  0.12421  1.0000
  H   H197      1.0  0.02507  0.58426  0.40397  1.0000
  N   N10       1.0  0.43326  0.46898  0.42829  1.0000
  C   C179      1.0  0.18272  0.54317  0.36840  1.0000
  N   N11       1.0  0.01893  0.38080  0.44473  1.0000
  H   H198      1.0  0.47800  0.55635  0.20472  1.0000
  H   H199      1.0  0.40020  0.47246  0.07206  1.0000
  N   N12       1.0  0.43380  0.50238  0.21183  1.0000
  H   H200      1.0  0.44565  0.54862  0.15621  1.0000
  H   H201      1.0  0.00888  0.34703  0.21306  1.0000
  Fe  Fe22      1.0  0.38151  0.63743  0.33174  1.0000
  Fe  Fe23      1.0  0.32463  0.34384  0.99990  1.0000
  C   C180      1.0  0.41126  0.51632  0.22650  1.0000
  H   H202      1.0  0.00592  0.44471  0.17691  1.0000
  C   C181      1.0  0.42390  0.51349  0.11206  1.0000
  H   H203      1.0  0.06812  0.42345  0.46653  1.0000
  H   H204      1.0  0.43018  0.53505  0.09335  1.0000
  H   H205      1.0  0.23712  0.55635  0.36741  1.0000
  H   H206      1.0  0.43602  0.47909  0.26236  1.0000
  S   S47       1.0  0.27051  0.33794  0.01199  1.0000
  H   H207      1.0  0.38602  0.42357  0.11453  1.0000
  H   H208      1.0  0.98506  0.33948  0.25499  1.0000
  C   C182      1.0  0.17038  0.59111  0.35928  1.0000
  C   C183      1.0  0.23272  0.60425  0.36072  1.0000
  S   S48       1.0  0.98169  0.40204  0.32667  1.0000
  C   C184      1.0  0.02685  0.35217  0.45402  1.0000
  H   H209      1.0  0.98383  0.55366  0.21536  1.0000
  H   H210      1.0  0.38236  0.49601  0.22519  1.0000
  H   H211      1.0  0.12985  0.53600  0.36472  1.0000
  H   H212      1.0  0.01427  0.53864  0.41171  1.0000
  H   H213      1.0  0.28691  0.59953  0.39347  1.0000
  C   C185      1.0  0.35857  0.50096  0.46962  1.0000
  H   H214      1.0  0.43461  0.42076  0.41764  1.0000
  H   H215      1.0  0.00891  0.32150  0.40385  1.0000
  H   H216      1.0  0.27143  0.61978  0.30106  1.0000
  C   C186      1.0  0.47200  0.53007  0.21580  1.0000
  C   C187      1.0  0.45198  0.45020  0.41556  1.0000
  C   C188      1.0  0.46536  0.41553  0.16630  1.0000
  C   C189      1.0  0.37544  0.53534  0.45432  1.0000
  H   H217      1.0  0.31446  0.63762  0.32151  1.0000
  H   H218      1.0  0.27960  0.63262  0.41454  1.0000
  S   S49       1.0  0.43890  0.33540  0.33518  1.0000
  H   H219      1.0  0.44453  0.52293  0.43454  1.0000
  C   C190      1.0  0.21937  0.56724  0.36614  1.0000
  N   N13       1.0  0.27168  0.62900  0.35754  1.0000
  H   H220      1.0  0.99184  0.39524  0.40519  1.0000
  H   H221      1.0  0.44716  0.54017  0.99886  1.0000
  H   H222      1.0  0.46009  0.45857  0.98100  1.0000
  H   H223      1.0  0.98908  0.40469  0.46582  1.0000
  H   H224      1.0  0.41807  0.52500  0.25485  1.0000
  H   H225      1.0  0.00552  0.64919  0.17956  1.0000
  H   H226      1.0  0.99370  0.54350  0.17147  1.0000
  H   H227      1.0  0.45569  0.49237  0.02835  1.0000
  C   C191      1.0  0.42446  0.46090  0.46676  1.0000
  C   C192      1.0  0.99718  0.38476  0.47332  1.0000
  H   H228      1.0  0.47662  0.32208  0.39213  1.0000
  H   H229      1.0  0.98554  0.56864  0.03684  1.0000
  C   C193      1.0  0.98365  0.34284  0.22556  1.0000
  C   C194      1.0  0.47688  0.55603  0.99813  1.0000
  H   H230      1.0  0.98380  0.51179  0.05124  1.0000
  H   H231      1.0  0.98321  0.36816  0.22179  1.0000
  H   H232      1.0  0.48022  0.53521  0.24439  1.0000
  C   C195      1.0  0.02029  0.32392  0.43016  1.0000
  H   H233      1.0  0.01204  0.65270  0.11332  1.0000
  C   C196      1.0  0.98191  0.63904  0.16301  1.0000
  H   H234      1.0  0.99141  0.56861  0.56544  1.0000
  C   C197      1.0  0.38884  0.44019  0.47964  1.0000
  C   C198      1.0  0.26420  0.61822  0.56187  1.0000
  Fe  Fe24      1.0  0.37915  0.37058  0.93918  1.0000
  S   S50       1.0  0.38197  0.37914  0.87777  1.0000
  C   C199      1.0  0.04316  0.35288  0.48724  1.0000
  Fe  Fe25      1.0  0.33215  0.47240  0.61561  1.0000
  S   S51       1.0  0.28028  0.42533  0.59889  1.0000
  S   S52       1.0  0.36394  0.52056  0.57769  1.0000
  Fe  Fe26      1.0  0.32138  0.44483  0.69567  1.0000
  S   S53       1.0  0.26769  0.39738  0.68309  1.0000
  S   S54       1.0  0.34429  0.45764  0.75326  1.0000
  Fe  Fe27      1.0  0.29501  0.39245  0.63404  1.0000
  C   C200      1.0  0.23095  0.49761  0.56307  1.0000
  Fe  Fe28      1.0  0.25784  0.43492  0.64937  1.0000
  S   S55       1.0  0.34950  0.43885  0.64734  1.0000
  H   H235      1.0  0.22313  0.53106  0.72022  1.0000
  H   H236      1.0  0.23799  0.48637  0.69649  1.0000
  C   C201      1.0  0.36630  0.39877  0.84535  1.0000
  C   C202      1.0  0.36710  0.43110  0.85132  1.0000
  C   C203      1.0  0.35947  0.44817  0.82313  1.0000
  C   C204      1.0  0.34978  0.43280  0.78880  1.0000
  C   C205      1.0  0.34712  0.39953  0.78341  1.0000
  C   C206      1.0  0.35592  0.38303  0.81126  1.0000
  H   H237      1.0  0.37518  0.44385  0.87717  1.0000
  H   H238      1.0  0.36172  0.47389  0.82779  1.0000
  H   H239      1.0  0.35532  0.35815  0.80608  1.0000
  C   C207      1.0  0.45670  0.56672  0.55965  1.0000
  H   H240      1.0  0.38860  0.58215  0.53175  1.0000
  H   H241      1.0  0.09159  0.53706  0.50640  1.0000
  S   S56       1.0  0.04490  0.62338  0.89720  1.0000
  C   C208      1.0  0.23163  0.58686  0.61476  1.0000
  S   S57       1.0  0.20507  0.43324  0.63997  1.0000
  S   S58       1.0  0.30915  0.48310  0.66544  1.0000
  Fe  Fe29      1.0  0.08830  0.60006  0.68702  1.0000
  S   S59       1.0  0.14743  0.62236  0.69142  1.0000
  S   S60       1.0  0.05685  0.61595  0.72582  1.0000
  Fe  Fe30      1.0  0.08549  0.56391  0.61338  1.0000
  S   S61       1.0  0.14469  0.58407  0.61384  1.0000
  S   S62       1.0  0.04489  0.52841  0.57021  1.0000
  Fe  Fe31      1.0  0.13727  0.56887  0.67204  1.0000
  S   S63       1.0  0.16943  0.54871  0.70196  1.0000
  H   H242      1.0  0.29335  0.51352  0.53361  1.0000
  S   S64       1.0  0.07743  0.54509  0.67130  1.0000
  S   S65       1.0  0.09158  0.61717  0.62905  1.0000
  C   C209      1.0  0.19495  0.46477  0.65837  1.0000
  C   C210      1.0  0.16591  0.46713  0.64458  1.0000
  C   C211      1.0  0.15806  0.49307  0.65729  1.0000
  C   C212      1.0  0.17861  0.51616  0.68468  1.0000
  C   C213      1.0  0.20723  0.51335  0.69893  1.0000
  C   C214      1.0  0.21568  0.48805  0.68554  1.0000
  H   H243      1.0  0.14968  0.44911  0.62364  1.0000
  H   H244      1.0  0.13586  0.49492  0.64630  1.0000
  C   C215      1.0  0.05599  0.61954  0.77362  1.0000
  C   C216      1.0  0.06863  0.60283  0.79677  1.0000
  C   C217      1.0  0.06507  0.60444  0.83430  1.0000
  C   C218      1.0  0.04959  0.62341  0.84948  1.0000
  H   H245      1.0  0.04996  0.37409  0.50626  1.0000
  H   H246      1.0  0.21274  0.49016  0.58649  1.0000
  H   H247      1.0  0.08027  0.58780  0.78573  1.0000
  H   H248      1.0  0.07420  0.59061  0.85170  1.0000
  H   H249      1.0  0.42734  0.42833  0.70909  1.0000
  H   H250      1.0  0.42224  0.41305  0.76967  1.0000
  H   H251      1.0  0.33966  0.38714  0.75733  1.0000
  C   C219      1.0  0.04067  0.63868  0.78882  1.0000
  C   C220      1.0  0.03704  0.51172  0.52504  1.0000
  C   C221      1.0  0.00140  0.48954  0.51479  1.0000
  H   H252      1.0  0.47870  0.50191  0.68252  1.0000
  C   C222      1.0  0.35302  0.49574  0.50700  1.0000
  C   C223      1.0  0.36484  0.52496  0.52992  1.0000
  C   C224      1.0  0.37981  0.55923  0.51452  1.0000
  H   H253      1.0  0.34069  0.46916  0.51817  1.0000
  C   C225      1.0  0.47804  0.58785  0.48719  1.0000
  H   H254      1.0  0.23807  0.63720  0.59771  1.0000
  H   H255      1.0  0.27391  0.64118  0.54433  1.0000
  C   C226      1.0  0.42396  0.45123  0.71710  1.0000
  C   C227      1.0  0.25907  0.56049  0.57695  1.0000
  H   H256      1.0  0.40380  0.43784  0.56882  1.0000
  C   C228      1.0  0.28874  0.53641  0.53793  1.0000
  C   C229      1.0  0.29626  0.36453  0.91248  1.0000
  C   C230      1.0  0.99098  0.60242  0.64435  1.0000
  H   H257      1.0  0.27650  0.53924  0.51286  1.0000
  H   H258      1.0  0.47374  0.53308  0.75399  1.0000
  C   C231      1.0  0.46276  0.47444  0.95758  1.0000
  S   S66       1.0  0.29107  0.33970  0.62000  1.0000
  C   C232      1.0  0.06391  0.51990  0.49914  1.0000
  H   H259      1.0  0.31777  0.39269  0.91620  1.0000
  H   H260      1.0  0.23458  0.47422  0.55802  1.0000
  H   H261      1.0  0.46662  0.47304  0.54787  1.0000
  H   H262      1.0  0.44383  0.58281  0.55321  1.0000
  H   H263      1.0  0.28950  0.50300  0.59547  1.0000
  H   H264      1.0  0.45080  0.55925  0.58843  1.0000
  H   H265      1.0  0.01599  0.55866  0.66746  1.0000
  H   H266      1.0  0.21674  0.50087  0.53984  1.0000
  H   H267      1.0  0.28301  0.36865  0.84367  1.0000
  H   H268      1.0  0.30845  0.54896  0.60780  1.0000
  C   C233      1.0  0.45800  0.42284  0.81234  1.0000
  H   H269      1.0  0.29113  0.35093  0.93887  1.0000
  C   C234      1.0  0.38488  0.56439  0.47707  1.0000
  H   H270      1.0  0.26574  0.51567  0.62506  1.0000
  H   H271      1.0  0.43820  0.42727  0.92482  1.0000
  S   S67       1.0  0.41935  0.36384  0.97279  1.0000
  H   H272      1.0  0.40032  0.44141  0.73495  1.0000
  C   C235      1.0  0.23885  0.55943  0.60736  1.0000
  C   C236      1.0  0.98745  0.56502  0.53679  1.0000
  H   H273      1.0  0.99610  0.53303  0.62772  1.0000
  H   H274      1.0  0.44180  0.39615  0.82316  1.0000
  C   C237      1.0  0.40960  0.44433  0.54066  1.0000
  H   H275      1.0  0.22824  0.53719  0.62566  1.0000
  C   C238      1.0  0.01673  0.57535  0.51428  1.0000
  H   H276      1.0  0.21953  0.32967  0.61247  1.0000
  H   H277      1.0  0.28744  0.59427  0.53062  1.0000
  C   C239      1.0  0.47843  0.51214  0.95888  1.0000
  C   C240      1.0  0.27172  0.59091  0.55431  1.0000
  C   C241      1.0  0.03782  0.64093  0.82639  1.0000
  H   H278      1.0  0.99004  0.51167  0.67053  1.0000
  H   H279      1.0  0.29053  0.40871  0.86442  1.0000
  H   H280      1.0  0.21605  0.58524  0.63829  1.0000
  H   H281      1.0  0.30754  0.35213  0.89460  1.0000
  N   N14       1.0  0.26553  0.53052  0.56958  1.0000
  H   H282      1.0  0.19454  0.32388  0.93000  1.0000
  C   C242      1.0  0.24411  0.61614  0.59198  1.0000
  H   H283      1.0  0.31561  0.56034  0.54151  1.0000
  H   H284      1.0  0.44020  0.51799  0.72019  1.0000
  H   H285      1.0  0.22859  0.38274  0.91291  1.0000
  Fe  Fe32      1.0  0.15029  0.63592  0.63322  1.0000
  C   C243      1.0  0.45220  0.47266  0.49257  1.0000
  H   H286      1.0  0.41695  0.46094  0.69250  1.0000
  C   C244      1.0  0.27098  0.37965  0.86250  1.0000
  H   H287      1.0  0.44157  0.45951  0.86922  1.0000
  C   C245      1.0  0.44995  0.45595  0.92540  1.0000
  C   C246      1.0  0.45214  0.47414  0.89387  1.0000
  H   H288      1.0  0.24631  0.37665  0.84981  1.0000
  N   N15       1.0  0.45660  0.47985  0.73449  1.0000
  H   H289      1.0  0.44989  0.57209  0.49289  1.0000
  C   C247      1.0  0.99161  0.53524  0.65677  1.0000
  C   C248      1.0  0.28302  0.52444  0.60083  1.0000
  H   H290      1.0  0.01265  0.60798  0.66250  1.0000
  C   C249      1.0  0.25274  0.38232  0.92264  1.0000
  N   N16       1.0  0.26309  0.36199  0.89808  1.0000
  C   C250      1.0  0.23533  0.32400  0.89443  1.0000
  H   H291      1.0  0.01193  0.39449  0.49892  1.0000
  C   C251      1.0  0.99243  0.47618  0.47977  1.0000
  C   C252      1.0  0.44482  0.46435  0.52888  1.0000
  C   C253      1.0  0.99371  0.63086  0.62409  1.0000
  C   C254      1.0  0.44953  0.50910  0.74376  1.0000
  H   H292      1.0  0.99060  0.54389  0.89701  1.0000
  H   H293      1.0  0.04327  0.58665  0.52577  1.0000
  H   H294      1.0  0.42834  0.50037  0.76471  1.0000
  H   H295      1.0  0.27434  0.41062  0.92512  1.0000
  H   H296      1.0  0.44297  0.54124  0.54444  1.0000
  C   C255      1.0  0.44693  0.43304  0.78153  1.0000
  H   H297      1.0  0.35434  0.41645  0.52547  1.0000
  C   C256      1.0  0.46720  0.46805  0.76720  1.0000
  H   H298      1.0  0.47023  0.52531  0.86940  1.0000
  H   H299      1.0  0.98822  0.38208  0.86085  1.0000
  H   H300      1.0  0.00817  0.32293  0.97403  1.0000
  C   C257      1.0  0.46794  0.51107  0.89408  1.0000
  H   H301      1.0  0.24761  0.37097  0.95030  1.0000
  C   C258      1.0  0.38172  0.43222  0.51611  1.0000
  C   C259      1.0  0.05164  0.32660  0.49632  1.0000
  H   H302      1.0  0.47994  0.48790  0.48473  1.0000
  H   H303      1.0  0.06418  0.32775  0.52181  1.0000
  C   C260      1.0  0.01198  0.56985  0.47733  1.0000
  H   H304      1.0  0.03064  0.65166  0.77135  1.0000
  C   C261      1.0  0.48104  0.52986  0.92601  1.0000
  S   S68       1.0  0.38163  0.68873  0.34556  1.0000
  Fe  Fe33      1.0  0.07285  0.95341  0.28794  1.0000
  S   S69       1.0  0.41810  0.90767  0.99383  1.0000
  Fe  Fe34      1.0  0.07620  0.71559  0.99224  1.0000
  H   H305      1.0  0.40617  0.66624  0.11739  1.0000
  C   C262      1.0  0.17172  0.75936  0.00493  1.0000
  Fe  Fe35      1.0  0.01437  0.88798  0.32584  1.0000
  Fe  Fe36      1.0  0.02665  0.96221  0.34476  1.0000
  H   H306      1.0  0.45775  0.71213  0.33812  1.0000
  S   S70       1.0  0.02794  0.90122  0.26784  1.0000
  S   S71       1.0  0.06233  0.93820  0.34587  1.0000
  H   H307      1.0  0.42390  0.77329  0.15737  1.0000
  S   S72       1.0  0.33347  0.86926  0.00771  1.0000
  S   S73       1.0  0.00622  0.83544  0.34749  1.0000
  Fe  Fe37      1.0  0.38232  0.88470  0.04196  1.0000
  S   S74       1.0  0.39001  0.91331  0.09595  1.0000
  S   S75       1.0  0.37766  0.83093  0.03789  1.0000
  S   S76       1.0  0.02815  0.71729  0.01328  1.0000
  C   C263      1.0  0.23826  0.84349  0.10146  1.0000
  S   S77       1.0  0.47186  0.90347  0.34665  1.0000
  C   C264      1.0  0.17564  0.80726  0.08638  1.0000
  C   C265      1.0  0.40883  0.66775  0.08775  1.0000
  C   C266      1.0  0.17337  0.72796  0.00749  1.0000
  C   C267      1.0  0.02729  0.97898  0.45599  1.0000
  H   H308      1.0  0.00076  0.94107  0.10527  1.0000
  H   H309      1.0  0.40716  0.95305  0.22031  1.0000
  C   C268      1.0  0.43706  0.75662  0.05797  1.0000
  C   C269      1.0  0.43391  0.90606  0.14835  1.0000
  C   C270      1.0  0.20675  0.72947  0.00674  1.0000
  H   H310      1.0  0.44749  0.67381  0.03040  1.0000
  C   C271      1.0  0.43958  0.92917  0.20975  1.0000
  C   C272      1.0  0.41471  0.93970  0.20060  1.0000
  C   C273      1.0  0.39984  0.93385  0.16616  1.0000
  C   C274      1.0  0.40919  0.91716  0.13955  1.0000
  H   H311      1.0  0.40975  0.94692  0.35150  1.0000
  H   H312      1.0  0.00796  0.74303  0.21947  1.0000
  S   S78       1.0  0.12679  0.97295  0.26151  1.0000
  H   H313      1.0  0.38096  0.94267  0.16012  1.0000
  S   S79       1.0  0.28017  0.76359  0.00368  1.0000
  H   H314      1.0  0.26047  0.87018  0.10463  1.0000
  Fe  Fe38      1.0  0.33150  0.81691  0.00050  1.0000
  C   C275      1.0  0.42065  0.73135  0.34403  1.0000
  C   C276      1.0  0.45477  0.73541  0.34059  1.0000
  H   H315      1.0  0.42641  0.97553  0.47014  1.0000
  H   H316      1.0  0.00512  0.93904  0.17145  1.0000
  C   C277      1.0  0.44768  0.79622  0.34709  1.0000
  C   C278      1.0  0.41728  0.76190  0.34727  1.0000
  C   C279      1.0  0.43365  0.78602  0.06752  1.0000
  S   S80       1.0  0.13108  0.75960  0.00880  1.0000
  H   H317      1.0  0.44471  0.81949  0.34969  1.0000
  H   H318      1.0  0.39103  0.75905  0.34997  1.0000
  C   C280      1.0  0.47266  0.70529  0.09356  1.0000
  H   H319      1.0  0.27234  0.67641  0.37648  1.0000
  H   H320      1.0  0.14904  0.70267  0.01085  1.0000
  C   C281      1.0  0.23856  0.76231  0.00346  1.0000
  H   H321      1.0  0.30542  0.95628  0.45692  1.0000
  H   H322      1.0  0.42103  0.69394  0.02080  1.0000
  C   C282      1.0  0.42736  0.76845  0.12955  1.0000
  C   C283      1.0  0.20350  0.79206  0.00151  1.0000
  H   H323      1.0  0.01465  0.95254  0.44452  1.0000
  C   C284      1.0  0.44913  0.91213  0.18334  1.0000
  S   S81       1.0  0.45786  0.93962  0.25420  1.0000
  H   H324      1.0  0.41795  0.91730  0.45816  1.0000
  H   H325      1.0  0.20371  0.86438  0.08733  1.0000
  H   H326      1.0  0.38371  0.66484  0.07633  1.0000
  C   C285      1.0  0.43078  0.73897  0.12031  1.0000
  H   H327      1.0  0.47798  0.68344  0.08632  1.0000
  Fe  Fe39      1.0  0.99403  0.92700  0.27038  1.0000
  H   H328      1.0  0.31118  0.68473  0.35156  1.0000
  H   H329      1.0  0.44097  0.75392  0.02986  1.0000
  H   H330      1.0  0.26076  0.81890  0.99754  1.0000
  S   S82       1.0  0.46474  0.85473  0.98333  1.0000
  H   H331      1.0  0.46836  0.90389  0.18977  1.0000
  C   C286      1.0  0.28158  0.66699  0.35330  1.0000
  H   H332      1.0  0.15063  0.80507  0.07772  1.0000
  C   C287      1.0  0.43579  0.73214  0.08420  1.0000
  H   H333      1.0  0.20795  0.70517  0.00916  1.0000
  N   N17       1.0  0.27563  0.81449  0.11657  1.0000
  C   C288      1.0  0.30528  0.85135  0.12292  1.0000
  C   C289      1.0  0.27062  0.79381  0.14991  1.0000
  C   C290      1.0  0.28707  0.79906  0.08753  1.0000
  C   C291      1.0  0.24158  0.81265  0.10642  1.0000
  H   H334      1.0  0.46281  0.97218  0.09704  1.0000
  C   C292      1.0  0.21046  0.77912  0.10064  1.0000
  H   H335      1.0  0.37062  0.89749  0.45867  1.0000
  C   C293      1.0  0.17799  0.77660  0.09109  1.0000
  C   C294      1.0  0.23670  0.79353  0.00052  1.0000
  H   H336      1.0  0.29884  0.86466  0.14481  1.0000
  H   H337      1.0  0.33040  0.85184  0.13086  1.0000
  H   H338      1.0  0.31199  0.86799  0.09823  1.0000
  H   H339      1.0  0.26012  0.80346  0.17187  1.0000
  H   H340      1.0  0.29619  0.79609  0.15922  1.0000
  H   H341      1.0  0.25165  0.76489  0.14634  1.0000
  H   H342      1.0  0.28979  0.81313  0.06177  1.0000
  H   H343      1.0  0.31328  0.80101  0.09330  1.0000
  H   H344      1.0  0.26768  0.77041  0.08276  1.0000
  H   H345      1.0  0.44171  0.89333  0.12819  1.0000
  H   H346      1.0  0.21111  0.75454  0.10266  1.0000
  H   H347      1.0  0.15473  0.75079  0.08585  1.0000
  C   C295      1.0  0.42883  0.79195  0.10319  1.0000
  H   H348      1.0  0.46891  0.72098  0.02539  1.0000
  C   C296      1.0  0.44456  0.69747  0.03634  1.0000
  H   H349      1.0  0.98581  0.73210  0.17625  1.0000
  C   C297      1.0  0.20567  0.84061  0.09154  1.0000
  H   H350      1.0  0.27057  0.67143  0.32813  1.0000
  Fe  Fe40      1.0  0.41168  0.85295  0.98862  1.0000
  H   H351      1.0  0.00219  0.78909  0.19450  1.0000
  Fe  Fe41      1.0  0.00054  0.65743  0.01295  1.0000
  H   H352      1.0  0.99313  0.76432  0.35511  1.0000
  N   N18       1.0  0.44035  0.70129  0.07532  1.0000
  C   C298      1.0  0.43494  0.97157  0.34417  1.0000
  H   H353      1.0  0.42647  0.81497  0.11037  1.0000
  H   H354      1.0  0.45662  0.97094  0.35957  1.0000
  H   H355      1.0  0.37893  0.95742  0.46875  1.0000
  H   H356      1.0  0.44018  0.96970  0.31525  1.0000
  H   H357      1.0  0.42991  0.72173  0.14175  1.0000
  H   H358      1.0  0.37548  0.97660  0.34446  1.0000
  H   H359      1.0  0.43511  0.80454  0.04705  1.0000
  H   H360      1.0  0.19798  0.98428  0.25525  1.0000
  H   H361      1.0  0.00030  0.84407  0.19754  1.0000
  H   H362      1.0  0.20242  0.81648  0.99986  1.0000
  H   H363      1.0  0.47019  0.70451  0.12321  1.0000
  S   S83       1.0  0.05015  0.65589  0.99570  1.0000
  C   C299      1.0  0.32504  0.97751  0.47346  1.0000
  S   S84       1.0  0.03994  0.98059  0.28692  1.0000
  C   C300      1.0  0.39418  0.90525  0.47624  1.0000
  C   C301      1.0  0.98328  0.72397  0.20488  1.0000
  H   H364      1.0  0.98238  0.69778  0.20523  1.0000
  H   H365      1.0  0.40261  0.98431  0.40049  1.0000
  H   H366      1.0  0.45395  0.91608  0.50035  1.0000
  H   H367      1.0  0.38740  0.94749  0.67393  1.0000
  C   C302      1.0  0.47807  0.94640  0.86583  1.0000
  Fe  Fe42      1.0  0.36906  0.88633  0.95873  1.0000
  S   S85       1.0  0.35974  0.91718  0.91351  1.0000
  S   S86       1.0  0.36524  0.83317  0.95047  1.0000
  S   S87       1.0  0.06201  0.71588  0.93471  1.0000
  Fe  Fe43      1.0  0.03326  0.65637  0.93823  1.0000
  C   C303      1.0  0.43702  0.97264  0.70241  1.0000
  Fe  Fe44      1.0  0.31786  0.95582  0.62352  1.0000
  S   S88       1.0  0.25940  0.93876  0.62717  1.0000
  N   N19       1.0  0.15390  0.71807  0.88720  1.0000
  Fe  Fe45      1.0  0.31823  0.92619  0.70028  1.0000
  S   S89       1.0  0.26032  0.90805  0.70801  1.0000
  S   S90       1.0  0.34804  0.91085  0.74160  1.0000
  Fe  Fe46      1.0  0.25288  0.88804  0.65154  1.0000
  S   S91       1.0  0.20275  0.83450  0.64419  1.0000
  Fe  Fe47      1.0  0.27181  0.96000  0.68317  1.0000
  S   S92       1.0  0.31052  0.90327  0.64431  1.0000
  S   S93       1.0  0.19754  0.68756  0.61355  1.0000
  C   C304      1.0  0.20204  0.79411  0.63504  1.0000
  C   C305      1.0  0.16992  0.76186  0.63970  1.0000
  C   C306      1.0  0.16841  0.72903  0.63393  1.0000
  C   C307      1.0  0.19888  0.72826  0.62253  1.0000
  C   C308      1.0  0.23095  0.76055  0.61743  1.0000
  C   C309      1.0  0.23262  0.79340  0.62388  1.0000
  H   H368      1.0  0.14612  0.76224  0.64807  1.0000
  H   H369      1.0  0.14357  0.70434  0.63777  1.0000
  H   H370      1.0  0.25452  0.76008  0.60838  1.0000
  H   H371      1.0  0.25739  0.81810  0.61986  1.0000
  C   C310      1.0  0.18977  0.75024  0.89005  1.0000
  H   H372      1.0  0.27249  0.77654  0.92614  1.0000
  C   C311      1.0  0.35483  0.91322  0.86582  1.0000
  C   C312      1.0  0.36382  0.89156  0.84563  1.0000
  C   C313      1.0  0.36166  0.89124  0.80781  1.0000
  C   C314      1.0  0.34939  0.91162  0.78955  1.0000
  C   C315      1.0  0.33958  0.93257  0.80976  1.0000
  C   C316      1.0  0.34272  0.93370  0.84750  1.0000
  H   H373      1.0  0.37310  0.87556  0.85907  1.0000
  H   H374      1.0  0.36971  0.87514  0.79262  1.0000
  C   C317      1.0  0.13941  0.70507  0.92358  1.0000
  S   S94       1.0  0.99912  0.75288  0.93019  1.0000
  C   C318      1.0  0.45231  0.98067  0.83955  1.0000
  H   H375      1.0  0.36019  0.93245  0.54308  1.0000
  H   H376      1.0  0.13584  0.73285  0.83964  1.0000
  C   C319      1.0  0.43114  0.96117  0.56047  1.0000
  H   H377      1.0  0.39137  0.88031  0.48799  1.0000
  H   H378      1.0  0.43046  0.94900  0.71807  1.0000
  H   H379      1.0  0.01716  0.65708  0.62666  1.0000
  C   C320      1.0  0.45950  0.97090  0.58426  1.0000
  C   C321      1.0  0.45365  0.93051  0.52378  1.0000
  C   C322      1.0  0.44152  0.75637  0.94952  1.0000
  H   H380      1.0  0.02169  0.81253  0.82726  1.0000
  C   C323      1.0  0.44220  0.89162  0.89889  1.0000
  H   H381      1.0  0.30503  0.98388  0.76539  1.0000
  H   H382      1.0  0.10076  0.69965  0.86654  1.0000
  C   C324      1.0  0.40174  0.96316  0.48670  1.0000
  C   C325      1.0  0.32480  0.97233  0.51094  1.0000
  C   C326      1.0  0.21790  0.74843  0.90783  1.0000
  H   H383      1.0  0.30511  0.94732  0.52278  1.0000
  Fe  Fe48      1.0  0.01174  0.71284  0.95576  1.0000
  H   H384      1.0  0.33586  0.95074  0.86267  1.0000
  C   C327      1.0  0.43819  0.78611  0.95854  1.0000
  C   C328      1.0  0.45356  0.95926  0.86685  1.0000
  H   H385      1.0  0.35912  0.89048  0.54056  1.0000
  C   C329      1.0  0.23176  0.81411  0.88036  1.0000
  H   H386      1.0  0.42197  0.89866  0.90799  1.0000
  N   N20       1.0  0.47834  0.92333  0.89502  1.0000
  H   H387      1.0  0.43280  0.87710  0.87308  1.0000
  H   H388      1.0  0.15580  0.69647  0.93898  1.0000
  H   H389      1.0  0.16805  0.69840  0.84075  1.0000
  H   H390      1.0  0.41387  0.78640  0.95232  1.0000
  H   H391      1.0  0.46902  0.95244  0.93667  1.0000
  C   C330      1.0  0.12747  0.72433  0.86780  1.0000
  C   C331      1.0  0.25866  0.81134  0.89809  1.0000
  C   C332      1.0  0.36252  0.91367  0.52451  1.0000
  C   C333      1.0  0.19779  0.78412  0.87622  1.0000
  H   H392      1.0  0.99366  0.89371  0.86657  1.0000
  C   C334      1.0  0.99500  0.80525  0.83621  1.0000
  H   H393      1.0  0.33041  0.94855  0.79625  1.0000
  N   N21       1.0  0.39697  0.93054  0.50464  1.0000
  C   C335      1.0  0.42707  0.94027  0.52964  1.0000
  C   C336      1.0  0.25176  0.77852  0.91163  1.0000
  H   H394      1.0  0.41965  0.73383  0.93631  1.0000
  N   N22       1.0  0.25456  0.80477  0.74567  1.0000
  C   C337      1.0  0.28469  0.80283  0.76255  1.0000
  C   C338      1.0  0.26566  0.81834  0.70868  1.0000
  C   C339      1.0  0.24911  0.83104  0.76616  1.0000
  C   C340      1.0  0.22077  0.77012  0.74461  1.0000
  C   C341      1.0  0.18953  0.76784  0.72948  1.0000
  C   C342      1.0  0.21785  0.73782  0.75765  1.0000
  C   C343      1.0  0.15746  0.73540  0.72759  1.0000
  C   C344      1.0  0.18563  0.70546  0.75535  1.0000
  C   C345      1.0  0.15553  0.70426  0.74037  1.0000
  H   H395      1.0  0.29142  0.78479  0.74739  1.0000
  H   H396      1.0  0.30952  0.82942  0.76292  1.0000
  H   H397      1.0  0.27866  0.79372  0.79088  1.0000
  H   H398      1.0  0.26718  0.79812  0.69149  1.0000
  H   H399      1.0  0.29222  0.84313  0.70795  1.0000
  H   H400      1.0  0.24673  0.82520  0.69572  1.0000
  H   H401      1.0  0.22916  0.83663  0.75334  1.0000
  H   H402      1.0  0.23974  0.82139  0.79385  1.0000
  H   H403      1.0  0.27427  0.85723  0.76806  1.0000
  H   H404      1.0  0.18988  0.79099  0.71799  1.0000
  H   H405      1.0  0.24018  0.73661  0.76902  1.0000
  H   H406      1.0  0.13420  0.73418  0.71508  1.0000
  H   H407      1.0  0.18412  0.68089  0.76435  1.0000
  S   S95       1.0  0.47633  0.71842  0.94372  1.0000
  H   H408      1.0  0.23714  0.83991  0.87052  1.0000
  H   H409      1.0  0.44184  0.87246  0.91902  1.0000
  H   H410      1.0  0.17809  0.78836  0.86280  1.0000
  H   H411      1.0  0.13811  0.72623  0.93933  1.0000
  H   H412      1.0  0.12304  0.74461  0.88161  1.0000
  H   H413      1.0  0.12970  0.66517  0.86482  1.0000
  C   C346      1.0  0.15648  0.68946  0.86798  1.0000
  H   H414      1.0  0.28473  0.83479  0.90192  1.0000
  H   H415      1.0  0.33920  0.90417  0.50619  1.0000
  S   S96       1.0  0.33077  0.98011  0.67911  1.0000
  H   H416      1.0  0.02060  0.96003  0.51061  1.0000
  H   H417      1.0  0.21375  0.72388  0.91980  1.0000
  C   C347      1.0  0.41267  0.97188  0.67754  1.0000
  H   H418      1.0  0.43501  0.95284  0.88887  1.0000
  H   H419      1.0  0.17323  0.68068  0.88247  1.0000
  H   H420      1.0  0.13081  0.67902  0.73794  1.0000
  C   C348      1.0  0.98439  0.83092  0.83796  1.0000
  H   H421      1.0  0.99360  0.81561  0.93951  1.0000
  C   C349      1.0  0.46680  0.81579  0.97442  1.0000
  H   H422      1.0  0.40404  0.98356  0.50619  1.0000
  H   H423      1.0  0.41275  0.97068  0.56608  1.0000
  H   H424      1.0  0.00356  0.85771  0.82970  1.0000
  C   C350      1.0  0.47305  0.75573  0.95713  1.0000
  H   H425      1.0  0.30216  0.98403  0.81350  1.0000
  H   H426      1.0  0.02570  0.65553  0.83738  1.0000
  H   H427      1.0  0.11193  0.68158  0.92274  1.0000
  C   C351      1.0  0.03068  0.98335  0.49362  1.0000
  H   H428      1.0  0.00664  0.98571  0.66741  1.0000
  Fe  Fe49      1.0  0.90244  0.10224  0.26002  1.0000
  S   S97       1.0  0.86408  0.12242  0.25316  1.0000
  S   S98       1.0  0.94677  0.11750  0.21736  1.0000
  Fe  Fe50      1.0  0.87153  0.07147  0.33706  1.0000
  S   S99       1.0  0.83243  0.09136  0.33369  1.0000
  S   S100      1.0  0.86394  0.03083  0.38160  1.0000
  Fe  Fe51      1.0  0.82257  0.07061  0.27759  1.0000
  S   S101      1.0  0.76778  0.03805  0.25248  1.0000
  Fe  Fe52      1.0  0.87779  0.14152  0.30986  1.0000
  S   S102      1.0  0.88163  0.19478  0.32202  1.0000
  S   S103      1.0  0.85987  0.04856  0.28084  1.0000
  S   S104      1.0  0.91822  0.12353  0.31672  1.0000
  S   S105      1.0  0.95504  0.11464  0.04525  1.0000
  H   H429      1.0  0.94541  0.17963  0.11049  1.0000
  C   C352      1.0  0.97877  0.27478  0.23134  1.0000
  S   S106      1.0  0.53564  0.19551  0.04108  1.0000
  C   C353      1.0  0.69515  0.00955  0.25938  1.0000
  Fe  Fe53      1.0  0.56999  0.17906  0.01022  1.0000
  S   S107      1.0  0.62532  0.18741  0.02132  1.0000
  S   S108      1.0  0.52701  0.12139  0.00910  1.0000
  C   C354      1.0  0.94633  0.31435  0.06216  1.0000
  C   C355      1.0  0.72992  0.26258  0.00920  1.0000
  C   C356      1.0  0.69802  0.23023  0.01520  1.0000
  C   C357      1.0  0.66475  0.22876  0.01430  1.0000
  H   H430      1.0  0.69440  0.31641  0.99699  1.0000
  C   C358      1.0  0.97944  0.21822  0.05164  1.0000
  H   H431      1.0  0.92544  0.99808  0.09081  1.0000
  H   H432      1.0  0.89000  0.17789  0.06413  1.0000
  H   H433      1.0  0.94298  0.05640  0.26553  1.0000
  H   H434      1.0  0.49892  0.10502  0.27872  1.0000
  C   C359      1.0  0.66356  0.25987  0.00730  1.0000
  H   H435      1.0  0.52272  0.06928  0.09535  1.0000
  H   H436      1.0  0.55603  0.11842  0.30720  1.0000
  C   C360      1.0  0.53124  0.09560  0.31601  1.0000
  C   C361      1.0  0.94772  0.11909  0.16929  1.0000
  H   H437      1.0  0.89648  0.26690  0.32284  1.0000
  H   H438      1.0  0.92282  0.20382  0.12100  1.0000
  C   C362      1.0  0.95296  0.11882  0.09288  1.0000
  C   C363      1.0  0.91993  0.09866  0.11062  1.0000
  C   C364      1.0  0.91722  0.09902  0.14840  1.0000
  H   H439      1.0  0.69916  0.20627  0.02071  1.0000
  C   C365      1.0  0.91702  0.28312  0.04988  1.0000
  H   H440      1.0  0.89621  0.08210  0.09505  1.0000
  H   H441      1.0  0.89165  0.08284  0.16139  1.0000
  C   C366      1.0  0.92258  0.23549  0.32223  1.0000
  C   C367      1.0  0.92187  0.26758  0.32277  1.0000
  C   C368      1.0  0.95379  0.30059  0.32329  1.0000
  C   C369      1.0  0.53160  0.23398  0.24778  1.0000
  C   C370      1.0  0.97553  0.28095  0.07857  1.0000
  C   C371      1.0  0.95553  0.23664  0.32261  1.0000
  S   S109      1.0  0.52846  0.98689  0.33091  1.0000
  C   C372      1.0  0.50341  0.01162  0.19706  1.0000
  H   H442      1.0  0.93621  0.05232  0.32623  1.0000
  C   C373      1.0  0.49691  0.01001  0.16025  1.0000
  C   C374      1.0  0.72856  0.02864  0.27620  1.0000
  C   C375      1.0  0.49006  0.02756  0.21998  1.0000
  N   N23       1.0  0.97944  0.02630  0.11140  1.0000
  C   C376      1.0  0.66597  0.01813  0.31100  1.0000
  C   C377      1.0  0.69921  0.03623  0.32816  1.0000
  C   C378      1.0  0.73026  0.04092  0.31107  1.0000
  H   H443      1.0  0.70096  0.04699  0.35467  1.0000
  H   H444      1.0  0.75557  0.05437  0.32472  1.0000
  C   C379      1.0  0.85830  0.02866  0.42942  1.0000
  H   H445      1.0  0.49425  0.02759  0.24859  1.0000
  C   C380      1.0  0.88083  0.05700  0.45175  1.0000
  H   H446      1.0  0.59099  0.31141  0.33544  1.0000
  H   H447      1.0  0.90038  0.08210  0.43998  1.0000
  C   C381      1.0  0.95111  0.27775  0.21381  1.0000
  Fe  Fe54      1.0  0.51764  0.20253  0.98666  1.0000
  H   H448      1.0  0.92633  0.30008  0.15743  1.0000
  H   H449      1.0  0.48962  0.08107  0.10613  1.0000
  N   N24       1.0  0.77191  0.14783  0.30387  1.0000
  C   C382      1.0  0.77916  0.13937  0.34037  1.0000
  C   C383      1.0  0.79057  0.13667  0.27796  1.0000
  C   C384      1.0  0.78793  0.18702  0.30060  1.0000
  C   C385      1.0  0.73286  0.13029  0.29790  1.0000
  C   C386      1.0  0.71104  0.13722  0.32124  1.0000
  C   C387      1.0  0.71535  0.10603  0.26935  1.0000
  C   C388      1.0  0.67401  0.12039  0.31673  1.0000
  C   C389      1.0  0.67835  0.08970  0.26488  1.0000
  C   C390      1.0  0.65771  0.09664  0.28864  1.0000
  H   H450      1.0  0.76541  0.11010  0.34489  1.0000
  H   H451      1.0  0.80825  0.15002  0.34492  1.0000
  H   H452      1.0  0.77018  0.15091  0.36175  1.0000
  H   H453      1.0  0.81977  0.15031  0.28309  1.0000
  H   H454      1.0  0.78738  0.14329  0.24993  1.0000
  H   H455      1.0  0.78078  0.10759  0.27981  1.0000
  H   H456      1.0  0.78236  0.19446  0.27382  1.0000
  H   H457      1.0  0.77751  0.19807  0.32113  1.0000
  H   H458      1.0  0.81752  0.20098  0.30420  1.0000
  H   H459      1.0  0.72239  0.15519  0.34360  1.0000
  H   H460      1.0  0.72933  0.09819  0.25072  1.0000
  H   H461      1.0  0.65770  0.12504  0.33563  1.0000
  H   H462      1.0  0.66538  0.07027  0.24378  1.0000
  H   H463      1.0  0.62887  0.08255  0.28600  1.0000
  C   C391      1.0  0.91689  0.25075  0.05133  1.0000
  C   C392      1.0  0.83374  0.99599  0.44567  1.0000
  C   C393      1.0  0.91570  0.18413  0.05118  1.0000
  H   H464      1.0  0.90000  0.24595  0.18676  1.0000
  H   H465      1.0  0.51772  0.99914  0.20816  1.0000
  H   H466      1.0  0.55642  0.07959  0.35588  1.0000
  C   C394      1.0  0.53142  0.07387  0.34344  1.0000
  H   H467      1.0  0.91741  0.15926  0.05281  1.0000
  C   C395      1.0  0.93412  0.02737  0.33690  1.0000
  H   H468      1.0  0.97292  0.06976  0.12943  1.0000
  H   H469      1.0  0.75542  0.26352  0.01024  1.0000
  C   C396      1.0  0.49910  0.08797  0.29994  1.0000
  C   C397      1.0  0.94033  0.00194  0.45616  1.0000
  H   H470      1.0  0.95790  0.02385  0.43881  1.0000
  H   H471      1.0  0.63812  0.25910  0.00657  1.0000
  H   H472      1.0  0.97079  0.22583  0.12125  1.0000
  H   H473      1.0  0.92852  0.00616  0.13793  1.0000
  H   H474      1.0  0.69360  0.99973  0.23244  1.0000
  H   H475      1.0  0.57303  0.28784  0.24232  1.0000
  C   C398      1.0  0.49061  0.22030  0.29701  1.0000
  H   H476      1.0  0.89464  0.28415  0.03793  1.0000
  C   C399      1.0  0.92069  0.21296  0.20413  1.0000
  C   C400      1.0  0.54969  0.26993  0.25773  1.0000
  H   H477      1.0  0.50737  0.99652  0.14430  1.0000
  H   H478      1.0  0.89793  0.18872  0.19431  1.0000
  C   C401      1.0  0.93097  0.02892  0.25707  1.0000
  C   C402      1.0  0.50215  0.20922  0.26744  1.0000
  C   C403      1.0  0.94646  0.20569  0.10700  1.0000
  C   C404      1.0  0.53829  0.28229  0.28740  1.0000
  C   C405      1.0  0.97558  0.31328  0.07642  1.0000
  H   H479      1.0  0.96429  0.99066  0.35940  1.0000
  C   C406      1.0  0.49946  0.04449  0.35494  1.0000
  C   C407      1.0  0.72876  0.29384  0.00285  1.0000
  C   C408      1.0  0.49399  0.06097  0.09203  1.0000
  H   H480      1.0  0.91446  0.18942  0.02214  1.0000
  H   H481      1.0  0.95639  0.21208  0.32240  1.0000
  H   H482      1.0  0.52584  0.24741  0.10196  1.0000
  C   C409      1.0  0.94090  0.99957  0.11525  1.0000
  C   C410      1.0  0.51024  0.25856  0.08910  1.0000
  C   C411      1.0  0.69546  0.29230  0.00181  1.0000
  C   C412      1.0  0.66383  0.00400  0.27684  1.0000
  H   H483      1.0  0.50707  0.00812  0.08617  1.0000
  H   H484      1.0  0.51596  0.26049  0.05974  1.0000
  H   H485      1.0  0.48892  0.06281  0.06311  1.0000
  H   H486      1.0  0.50107  0.02829  0.37615  1.0000
  H   H487      1.0  0.50153  0.14366  0.13617  1.0000
  C   C413      1.0  0.91234  0.01981  0.22465  1.0000
  C   C414      1.0  0.51423  0.99875  0.46671  1.0000
  H   H488      1.0  0.89441  0.29002  0.21436  1.0000
  H   H489      1.0  0.49811  0.26275  0.33033  1.0000
  H   H490      1.0  0.90511  0.00778  0.34002  1.0000
  H   H491      1.0  0.63836  0.99028  0.26328  1.0000
  H   H492      1.0  0.97536  0.01136  0.05558  1.0000
  H   H493      1.0  0.96528  0.06047  0.08230  1.0000
  C   C415      1.0  0.50828  0.25622  0.30694  1.0000
  Fe  Fe55      1.0  0.49128  0.13882  0.03576  1.0000
  H   H494      1.0  0.52117  0.28639  0.09851  1.0000
  C   C416      1.0  0.93345  0.00302  0.27837  1.0000
  H   H495      1.0  0.54060  0.22513  0.22491  1.0000
  H   H496      1.0  0.91846  0.30246  0.25590  1.0000
  H   H497      1.0  0.77937  0.99499  0.36128  1.0000
  N   N25       1.0  0.94674  0.21471  0.06865  1.0000
  H   H498      1.0  0.89368  0.22799  0.04020  1.0000
  C   C417      1.0  0.92209  0.24580  0.20016  1.0000
  C   C418      1.0  0.94633  0.24868  0.06568  1.0000
  H   H499      1.0  0.53802  0.31571  0.35206  1.0000
  S   S110      1.0  0.62879  0.01733  0.33160  1.0000
  H   H500      1.0  0.48830  0.18133  0.25987  1.0000
  H   H501      1.0  0.94604  0.03382  0.36418  1.0000
  H   H502      1.0  0.48896  0.28985  0.14520  1.0000
  H   H503      1.0  0.91026  0.03999  0.20928  1.0000
  H   H504      1.0  0.97964  0.19258  0.05216  1.0000
  N   N26       1.0  0.95168  0.31209  0.20959  1.0000
  C   C419      1.0  0.97721  0.24184  0.23485  1.0000
  H   H505      1.0  0.49550  0.14088  0.20250  1.0000
  C   C420      1.0  0.94821  0.21101  0.22144  1.0000
  N   N27       1.0  0.95171  0.01294  0.31351  1.0000
  C   C421      1.0  0.91978  0.30988  0.22715  1.0000
  H   H506      1.0  0.94688  0.18548  0.22496  1.0000
  H   H507      1.0  0.95816  0.98778  0.17661  1.0000
  S   S111      1.0  0.51481  0.25258  0.97693  1.0000
  H   H508      1.0  0.48235  0.02428  0.46602  1.0000
  C   C422      1.0  0.98069  0.13965  0.15150  1.0000
  Fe  Fe56      1.0  0.51244  0.13466  0.95548  1.0000
  S   S112      1.0  0.55639  0.19168  0.95632  1.0000
  S   S113      1.0  0.50792  0.09642  0.91021  1.0000
  H   H509      1.0  0.60300  0.19179  0.74196  1.0000
  C   C423      1.0  0.65352  0.26463  0.68986  1.0000
  H   H510      1.0  0.71111  0.11161  0.68329  1.0000
  H   H511      1.0  0.61455  0.31667  0.66375  1.0000
  N   N28       1.0  0.75179  0.11876  0.64474  1.0000
  Fe  Fe57      1.0  0.57804  0.09667  0.70599  1.0000
  S   S114      1.0  0.63369  0.10993  0.71911  1.0000
  S   S115      1.0  0.54515  0.11229  0.74264  1.0000
  Fe  Fe58      1.0  0.58564  0.07586  0.62794  1.0000
  S   S116      1.0  0.64267  0.08900  0.63629  1.0000
  S   S117      1.0  0.55384  0.05860  0.57514  1.0000
  Fe  Fe59      1.0  0.62262  0.06071  0.68890  1.0000
  S   S118      1.0  0.64618  0.03056  0.71665  1.0000
  Fe  Fe60      1.0  0.65011  0.13750  0.66600  1.0000
  S   S119      1.0  0.70274  0.18883  0.67325  1.0000
  S   S120      1.0  0.56475  0.04448  0.67950  1.0000
  S   S121      1.0  0.59488  0.12720  0.65386  1.0000
  C   C424      1.0  0.73466  0.29628  0.62010  1.0000
  C   C425      1.0  0.70772  0.26452  0.60491  1.0000
  C   C426      1.0  0.69676  0.23143  0.62154  1.0000
  C   C427      1.0  0.71333  0.22988  0.65307  1.0000
  C   C428      1.0  0.74007  0.26166  0.66840  1.0000
  C   C429      1.0  0.75042  0.29481  0.65224  1.0000
  H   H512      1.0  0.69543  0.26550  0.58003  1.0000
  H   H513      1.0  0.67628  0.20711  0.60940  1.0000
  H   H514      1.0  0.75303  0.26063  0.69278  1.0000
  C   C430      1.0  0.77011  0.04474  0.61469  1.0000
  C   C431      1.0  0.54110  0.99623  0.48572  1.0000
  C   C432      1.0  0.65120  0.18865  0.86703  1.0000
  H   H515      1.0  0.51808  0.07972  0.63312  1.0000
  H   H516      1.0  0.48908  0.00417  0.72567  1.0000
  C   C433      1.0  0.62251  0.27822  0.73579  1.0000
  H   H517      1.0  0.58937  0.23476  0.77148  1.0000
  H   H518      1.0  0.73249  0.04616  0.64968  1.0000
  H   H519      1.0  0.50479  0.05569  0.52304  1.0000
  C   C434      1.0  0.53903  0.10980  0.79008  1.0000
  C   C435      1.0  0.53923  0.08291  0.81076  1.0000
  C   C436      1.0  0.53011  0.07951  0.84751  1.0000
  C   C437      1.0  0.52199  0.10370  0.86447  1.0000
  C   C438      1.0  0.52315  0.13142  0.84406  1.0000
  C   C439      1.0  0.53100  0.13403  0.80705  1.0000
  H   H520      1.0  0.54520  0.06396  0.79823  1.0000
  H   H521      1.0  0.52907  0.05778  0.86286  1.0000
  H   H522      1.0  0.95330  0.08548  0.93079  1.0000
  C   C440      1.0  0.95108  0.29883  0.96737  1.0000
  H   H523      1.0  0.89529  0.21148  0.94827  1.0000
  H   H524      1.0  0.70398  0.23605  0.87112  1.0000
  S   S122      1.0  0.85654  0.01524  0.55343  1.0000
  H   H525      1.0  0.71648  0.10983  0.60052  1.0000
  C   C441      1.0  0.69299  0.21822  0.81710  1.0000
  H   H526      1.0  0.66348  0.18040  0.95606  1.0000
  H   H527      1.0  0.80831  0.14549  0.59749  1.0000
  H   H528      1.0  0.89776  0.07437  0.50605  1.0000
  H   H529      1.0  0.53043  0.15478  0.79138  1.0000
  H   H530      1.0  0.95126  0.03407  0.95670  1.0000
  C   C442      1.0  0.67030  0.18403  0.92698  1.0000
  H   H531      1.0  0.67564  0.19481  0.76489  1.0000
  C   C443      1.0  0.54104  0.03608  0.53278  1.0000
  C   C444      1.0  0.93182  0.01782  0.65048  1.0000
  H   H532      1.0  0.58521  0.15768  0.90228  1.0000
  H   H533      1.0  0.95843  0.05080  0.85976  1.0000
  C   C445      1.0  0.85521  0.01967  0.50563  1.0000
  H   H534      1.0  0.67288  0.16086  0.91814  1.0000
  H   H535      1.0  0.67132  0.27103  0.66729  1.0000
  C   C446      1.0  0.63593  0.16619  0.80539  1.0000
  H   H536      1.0  0.85278  0.01221  0.80665  1.0000
  N   N29       1.0  0.64284  0.18697  0.90573  1.0000
  C   C447      1.0  0.60748  0.15623  0.91566  1.0000
  H   H537      1.0  0.50359  0.05757  0.69137  1.0000
  H   H538      1.0  0.79210  0.14062  0.68554  1.0000
  C   C448      1.0  0.97195  0.02876  0.58835  1.0000
  C   C449      1.0  0.91911  0.26744  0.96011  1.0000
  C   C450      1.0  0.62703  0.16381  0.84173  1.0000
  C   C451      1.0  0.79897  0.06330  0.59164  1.0000
  H   H539      1.0  0.60108  0.14221  0.84928  1.0000
  H   H540      1.0  0.77122  0.31911  0.66412  1.0000
  C   C452      1.0  0.51517  0.03920  0.51299  1.0000
  C   C453      1.0  0.91989  0.23585  0.95404  1.0000
  H   H541      1.0  0.60560  0.13032  0.90891  1.0000
  H   H542      1.0  0.90737  0.04767  0.84098  1.0000
  H   H543      1.0  0.66964  0.24417  0.91384  1.0000
  C   C454      1.0  0.64284  0.21997  0.91641  1.0000
  H   H544      1.0  0.62370  0.22410  0.89998  1.0000
  C   C455      1.0  0.68791  0.99952  0.70911  1.0000
  C   C456      1.0  0.97949  0.03523  0.71379  1.0000
  C   C457      1.0  0.75478  0.06235  0.63234  1.0000
  H   H545      1.0  0.95251  0.21113  0.95009  1.0000
  H   H546      1.0  0.61718  0.14678  0.78662  1.0000
  S   S123      1.0  0.98043  0.16272  0.95275  1.0000
  H   H547      1.0  0.83482  0.11382  0.56767  1.0000
  C   C458      1.0  0.60726  0.24321  0.74860  1.0000
  H   H548      1.0  0.92390  0.99066  0.93828  1.0000
  C   C459      1.0  0.87944  0.05242  0.48939  1.0000
  H   H549      1.0  0.66879  0.31708  0.63749  1.0000
  H   H550      1.0  0.90550  0.06622  0.92933  1.0000
  H   H551      1.0  0.63492  0.21887  0.94494  1.0000
  C   C460      1.0  0.64592  0.28999  0.70578  1.0000
  C   C461      1.0  0.79722  0.11747  0.60324  1.0000
  C   C462      1.0  0.92127  0.02621  0.61828  1.0000
  H   H552      1.0  0.80063  0.16978  0.64789  1.0000
  H   H553      1.0  0.64450  0.21090  0.69037  1.0000
  C   C463      1.0  0.76794  0.09941  0.62720  1.0000
  C   C464      1.0  0.55446  0.01484  0.51866  1.0000
  C   C465      1.0  0.85544  0.00327  0.83304  1.0000
  C   C466      1.0  0.77927  0.14953  0.66529  1.0000
  C   C467      1.0  0.65237  0.99564  0.65750  1.0000
  Fe  Fe61      1.0  0.87385  0.31595  0.96922  1.0000
  C   C468      1.0  0.92904  0.06866  0.91456  1.0000
  H   H554      1.0  0.69982  0.07367  0.65619  1.0000
  H   H555      1.0  0.72354  0.14612  0.62920  1.0000
  H   H556      1.0  0.94637  0.30483  0.89226  1.0000
  C   C469      1.0  0.96323  0.01513  0.65271  1.0000
  H   H557      1.0  0.57449  0.01212  0.53344  1.0000
  H   H558      1.0  0.71857  0.23929  0.80743  1.0000
  C   C470      1.0  0.81250  0.09961  0.58589  1.0000
  C   C471      1.0  0.68440  0.21606  0.85352  1.0000
  C   C472      1.0  0.95231  0.23556  0.95514  1.0000
  H   H559      1.0  0.73176  0.08539  0.69194  1.0000
  H   H560      1.0  0.75759  0.15159  0.59857  1.0000
  C   C473      1.0  0.49440  0.07547  0.61751  1.0000
  C   C474      1.0  0.72249  0.09636  0.67009  1.0000
  C   C475      1.0  0.66883  0.19326  0.79309  1.0000
  H   H561      1.0  0.63329  0.00122  0.64454  1.0000
  C   C476      1.0  0.73679  0.13215  0.61703  1.0000
  H   H562      1.0  0.76742  0.16377  0.67973  1.0000
  H   H563      1.0  0.89739  0.02852  0.61742  1.0000
  H   H564      1.0  0.49771  0.10509  0.68055  1.0000
  H   H565      1.0  0.81073  0.04939  0.57809  1.0000
  H   H566      1.0  0.51663  0.15003  0.85649  1.0000
  N   N30       1.0  0.92490  0.03314  0.90721  1.0000
  H   H567      1.0  0.61597  0.29610  0.74971  1.0000
  C   C477      1.0  0.61498  0.21897  0.73211  1.0000
  H   H568      1.0  0.93216  0.08401  0.88961  1.0000
  H   H569      1.0  0.95080  0.30825  0.79533  1.0000
  H   H570      1.0  0.91510  0.01354  0.67369  1.0000
  C   C478      1.0  0.94123  0.03160  0.58723  1.0000
  S   S124      1.0  0.87776  0.26653  0.95799  1.0000
  H   H571      1.0  0.87862  0.29995  0.85944  1.0000
  H   H572      1.0  0.92369  0.00334  0.76967  1.0000
  H   H573      1.0  0.60225  0.15542  0.94501  1.0000
  C   C479      1.0  0.94577  0.30978  0.86306  1.0000
  H   H574      1.0  0.48814  0.05335  0.59847  1.0000
  C   C480      1.0  0.95616  0.03793  0.88613  1.0000
  H   H575      1.0  0.95456  0.01185  0.88112  1.0000
  H   H576      1.0  0.93286  0.03805  0.56228  1.0000
  N   N31       1.0  0.97447  0.00746  0.68748  1.0000
  C   C481      1.0  0.92582  0.01710  0.94212  1.0000
  H   H577      1.0  0.89974  0.31741  0.90168  1.0000
  H   H578      1.0  0.69709  0.20832  0.92508  1.0000
  C   C482      1.0  0.63821  0.22973  0.70295  1.0000
  C   C483      1.0  0.66317  0.00706  0.69258  1.0000
  H   H579      1.0  0.95445  0.03580  0.71907  1.0000
  H   H580      1.0  0.50300  0.10002  0.60126  1.0000
  C   C484      1.0  0.88674  0.02316  0.85278  1.0000
  H   H581      1.0  0.75931  0.01635  0.61880  1.0000
  H   H582      1.0  0.92644  0.28359  0.85115  1.0000
  C   C485      1.0  0.89157  0.01138  0.88675  1.0000
  H   H583      1.0  0.90377  0.01381  0.96009  1.0000
  H   H584      1.0  0.69635  0.00825  0.73627  1.0000
  H   H585      1.0  0.94511  0.98781  0.82360  1.0000
  C   C486      1.0  0.50213  0.02098  0.48050  1.0000
  C   C487      1.0  0.83181  0.99165  0.48340  1.0000
  S   S125      1.0  0.80947  0.98968  0.64820  1.0000
  H   H586      1.0  0.50083  0.31044  0.97540  1.0000
  C   C488      1.0  0.95331  0.99613  0.48803  1.0000
  H   H587      1.0  0.98104  0.01355  0.49513  1.0000
  H   H588      1.0  0.97310  0.31838  0.85277  1.0000
  H   H589      1.0  0.51925  0.98691  0.78676  1.0000
  Fe  Fe62      1.0  0.56932  0.43174  0.32072  1.0000
  C   C489      1.0  0.97736  0.55413  0.46177  1.0000
  H   H590      1.0  0.67722  0.49848  0.44294  1.0000
  C   C490      1.0  0.93959  0.48624  0.20559  1.0000
  Fe  Fe63      1.0  0.51984  0.44755  0.27445  1.0000
  H   H591      1.0  0.91302  0.46156  0.20736  1.0000
  Fe  Fe64      1.0  0.53158  0.46678  0.35663  1.0000
  C   C491      1.0  0.54979  0.62772  0.46714  1.0000
  S   S126      1.0  0.52419  0.39851  0.28300  1.0000
  S   S127      1.0  0.53423  0.41751  0.36961  1.0000
  C   C492      1.0  0.97515  0.51563  0.02520  1.0000
  H   H592      1.0  0.53147  0.45716  0.45384  1.0000
  C   C493      1.0  0.56378  0.34379  0.26685  1.0000
  Fe  Fe65      1.0  0.90037  0.38073  0.01745  1.0000
  S   S128      1.0  0.94311  0.40905  0.06118  1.0000
  C   C494      1.0  0.97608  0.54752  0.01705  1.0000
  H   H593      1.0  0.91945  0.53002  0.23268  1.0000
  C   C495      1.0  0.66399  0.52380  0.37004  1.0000
  C   C496      1.0  0.96249  0.48837  0.00002  1.0000
  C   C497      1.0  0.94468  0.40700  0.10900  1.0000
  C   C498      1.0  0.76078  0.51115  0.45396  1.0000
  C   C499      1.0  0.53201  0.55542  0.98910  1.0000
  H   H594      1.0  0.95296  0.56969  0.38009  1.0000
  C   C500      1.0  0.73006  0.50606  0.43656  1.0000
  C   C501      1.0  0.92657  0.53159  0.12433  1.0000
  H   H595      1.0  0.54407  0.57089  0.01399  1.0000
  S   S129      1.0  0.85453  0.32460  0.02227  1.0000
  H   H596      1.0  0.69286  0.52195  0.24287  1.0000
  H   H597      1.0  0.63531  0.47854  0.27120  1.0000
  Fe  Fe66      1.0  0.89937  0.60098  0.26875  1.0000
  S   S130      1.0  0.85878  0.61824  0.26209  1.0000
  S   S131      1.0  0.94493  0.61760  0.22724  1.0000
  Fe  Fe67      1.0  0.86799  0.56702  0.34396  1.0000
  S   S132      1.0  0.82575  0.58281  0.34099  1.0000
  S   S133      1.0  0.86606  0.52939  0.38921  1.0000
  Fe  Fe68      1.0  0.81870  0.56468  0.28405  1.0000
  S   S134      1.0  0.76523  0.54035  0.25622  1.0000
  Fe  Fe69      1.0  0.86904  0.63525  0.31938  1.0000
  S   S135      1.0  0.85842  0.54548  0.28705  1.0000
  S   S136      1.0  0.91259  0.62135  0.32598  1.0000
  S   S137      1.0  0.56849  0.48206  0.30878  1.0000
  S   S138      1.0  0.61901  0.42745  0.32884  1.0000
  H   H598      1.0  0.91632  0.50549  0.42489  1.0000
  C   C502      1.0  0.49163  0.45069  0.17513  1.0000
  H   H599      1.0  0.57742  0.37245  0.27472  1.0000
  C   C503      1.0  0.97394  0.54722  0.18733  1.0000
  S   S139      1.0  0.51134  0.46524  0.21870  1.0000
  C   C504      1.0  0.54140  0.48281  0.46657  1.0000
  H   H600      1.0  0.51282  0.32324  0.31772  1.0000
  C   C505      1.0  0.94795  0.62294  0.17943  1.0000
  C   C506      1.0  0.91782  0.61005  0.15737  1.0000
  C   C507      1.0  0.92166  0.61184  0.11961  1.0000
  H   H601      1.0  0.68620  0.62167  0.35892  1.0000
  N   N32       1.0  0.49268  0.53287  0.99224  1.0000
  H   H602      1.0  0.58121  0.34226  0.24592  1.0000
  H   H603      1.0  0.89144  0.59751  0.16927  1.0000
  H   H604      1.0  0.95306  0.34635  0.16674  1.0000
  C   C508      1.0  0.91416  0.38710  0.13011  1.0000
  H   H605      1.0  0.49758  0.48941  0.09401  1.0000
  C   C509      1.0  0.72515  0.51031  0.27824  1.0000
  C   C510      1.0  0.69275  0.50622  0.26547  1.0000
  C   C511      1.0  0.66013  0.48162  0.28146  1.0000
  C   C512      1.0  0.65966  0.46028  0.30978  1.0000
  C   C513      1.0  0.69209  0.46462  0.32290  1.0000
  C   C514      1.0  0.72483  0.48993  0.30748  1.0000
  H   H606      1.0  0.69189  0.44819  0.34485  1.0000
  H   H607      1.0  0.74968  0.49282  0.31739  1.0000
  C   C515      1.0  0.85818  0.52565  0.43666  1.0000
  H   H608      1.0  0.94857  0.49403  0.23372  1.0000
  C   C516      1.0  0.84577  0.49229  0.45343  1.0000
  H   H609      1.0  0.53779  0.33723  0.25440  1.0000
  H   H610      1.0  0.83905  0.46915  0.43713  1.0000
  H   H611      1.0  0.91444  0.45019  0.14872  1.0000
  H   H612      1.0  0.91058  0.54518  0.19173  1.0000
  H   H613      1.0  0.93950  0.50639  0.38560  1.0000
  C   C517      1.0  0.70121  0.50264  0.45651  1.0000
  Fe  Fe70      1.0  0.48902  0.38921  0.33076  1.0000
  H   H614      1.0  0.89802  0.60044  0.10298  1.0000
  C   C518      1.0  0.70852  0.58583  0.35547  1.0000
  H   H615      1.0  0.49467  0.52684  0.04947  1.0000
  H   H616      1.0  0.93480  0.56948  0.42299  1.0000
  H   H617      1.0  0.76284  0.62388  0.40042  1.0000
  C   C519      1.0  0.64677  0.56884  0.37170  1.0000
  C   C520      1.0  0.63812  0.53346  0.37584  1.0000
  H   H618      1.0  0.78319  0.51360  0.43839  1.0000
  C   C521      1.0  0.48818  0.46846  0.11373  1.0000
  H   H619      1.0  0.96154  0.46348  0.00657  1.0000
  S   S140      1.0  0.48280  0.43728  0.32116  1.0000
  H   H620      1.0  0.89489  0.48321  0.04798  1.0000
  C   C522      1.0  0.95560  0.62702  0.10316  1.0000
  C   C523      1.0  0.91661  0.38874  0.16793  1.0000
  H   H621      1.0  0.87697  0.58121  0.44625  1.0000
  H   H622      1.0  0.89257  0.37426  0.18382  1.0000
  H   H623      1.0  0.55497  0.35856  0.33277  1.0000
  H   H624      1.0  0.91523  0.54383  0.07168  1.0000
  H   H625      1.0  0.61014  0.32462  0.29149  1.0000
  C   C524      1.0  0.91202  0.52257  0.20416  1.0000
  H   H626      1.0  0.61116  0.51340  0.38326  1.0000
  C   C525      1.0  0.77003  0.61552  0.37503  1.0000
  N   N33       1.0  0.93790  0.51503  0.18552  1.0000
  N   N34       1.0  0.97125  0.54894  0.42267  1.0000
  C   C526      1.0  0.69870  0.54948  0.36014  1.0000
  H   H627      1.0  0.95889  0.47953  0.19300  1.0000
  H   H628      1.0  0.88456  0.49905  0.20347  1.0000
  H   H629      1.0  0.94980  0.49227  0.42692  1.0000
  S   S141      1.0  0.95055  0.41327  0.23306  1.0000
  C   C527      1.0  0.86698  0.55524  0.45841  1.0000
  H   H630      1.0  0.52266  0.50395  0.15443  1.0000
  C   C528      1.0  0.50254  0.47679  0.14839  1.0000
  H   H631      1.0  0.96615  0.57779  0.97925  1.0000
  C   C529      1.0  0.91513  0.52350  0.08887  1.0000
  H   H632      1.0  0.72854  0.50440  0.40759  1.0000
  C   C530      1.0  0.95939  0.57359  0.40919  1.0000
  H   H633      1.0  0.53020  0.62625  0.41383  1.0000
  Fe  Fe71      1.0  0.50297  0.64503  0.02287  1.0000
  S   S142      1.0  0.54253  0.51053  0.39825  1.0000
  H   H634      1.0  0.75774  0.57663  0.31639  1.0000
  C   C531      1.0  0.55029  0.51298  0.44560  1.0000
  H   H635      1.0  0.78366  0.62174  0.30313  1.0000
  H   H636      1.0  0.62622  0.57593  0.37609  1.0000
  N   N35       1.0  0.74571  0.61258  0.34558  1.0000
  S   S143      1.0  0.55331  0.64576  0.00507  1.0000
  C   C532      1.0  0.52315  0.61825  0.44153  1.0000
  C   C533      1.0  0.68143  0.59484  0.36172  1.0000
  H   H637      1.0  0.88847  0.37145  0.11731  1.0000
  H   H638      1.0  0.57037  0.56961  0.44729  1.0000
  C   C534      1.0  0.90389  0.46361  0.09756  1.0000
  C   C535      1.0  0.91516  0.47149  0.13316  1.0000
  H   H639      1.0  0.93501  0.55818  0.13347  1.0000
  C   C536      1.0  0.94306  0.51173  0.41488  1.0000
  H   H640      1.0  0.57766  0.64299  0.45925  1.0000
  H   H641      1.0  0.60968  0.35688  0.32094  1.0000
  H   H642      1.0  0.48588  0.57092  0.02383  1.0000
  C   C537      1.0  0.90366  0.48947  0.07553  1.0000
  C   C538      1.0  0.94962  0.40965  0.18529  1.0000
  S   S144      1.0  0.86831  0.40075  0.98729  1.0000
  C   C539      1.0  0.56330  0.54600  0.46304  1.0000
  C   C540      1.0  0.59380  0.32860  0.31204  1.0000
  H   H643      1.0  0.73736  0.59618  0.29024  1.0000
  H   H644      1.0  0.71773  0.54053  0.35586  1.0000
  C   C541      1.0  0.92685  0.50589  0.14768  1.0000
  H   H645      1.0  0.76917  0.58983  0.38036  1.0000
  H   H646      1.0  0.89533  0.43725  0.08691  1.0000
  H   H647      1.0  0.92024  0.33586  0.22608  1.0000
  H   H648      1.0  0.65688  0.49607  0.37275  1.0000
  C   C542      1.0  0.75647  0.60136  0.31250  1.0000
  S   S145      1.0  0.95850  0.62278  0.05563  1.0000
  Fe  Fe72      1.0  0.82360  0.34337  0.98873  1.0000
  C   C543      1.0  0.54008  0.32960  0.32632  1.0000
  C   C544      1.0  0.97775  0.42726  0.12642  1.0000
  C   C545      1.0  0.48779  0.63066  0.13406  1.0000
  N   N36       1.0  0.55837  0.32031  0.29808  1.0000
  H   H649      1.0  0.95278  0.32501  0.32362  1.0000
  H   H650      1.0  0.96456  0.45943  0.47294  1.0000
  H   H651      1.0  0.48368  0.51814  0.43547  1.0000
  H   H652      1.0  0.50856  0.64195  0.18803  1.0000
  S   S146      1.0  0.76806  0.33552  0.99700  1.0000
  C   C546      1.0  0.98031  0.42837  0.16420  1.0000
  H   H653      1.0  0.94658  0.33951  0.06003  1.0000
  C   C547      1.0  0.48462  0.63007  0.17184  1.0000
  H   H654      1.0  0.48972  0.52176  0.20230  1.0000
  C   C548      1.0  0.48737  0.59851  0.45157  1.0000
  H   H655      1.0  0.49823  0.49402  0.02386  1.0000
  H   H656      1.0  0.79840  0.63544  0.36870  1.0000
  C   C549      1.0  0.75111  0.64878  0.33881  1.0000
  H   H657      1.0  0.51397  0.64287  0.12173  1.0000
  H   H658      1.0  0.97328  0.34834  0.41137  1.0000
  C   C550      1.0  0.48494  0.51044  0.02474  1.0000
  H   H659      1.0  0.98018  0.60190  0.41353  1.0000
  H   H660      1.0  0.97424  0.57146  0.17711  1.0000
  H   H661      1.0  0.97422  0.32070  0.15670  1.0000
  C   C551      1.0  0.96464  0.55240  0.98357  1.0000
  H   H662      1.0  0.54468  0.53892  0.98367  1.0000
  H   H663      1.0  0.73368  0.64847  0.31670  1.0000
  H   H664      1.0  0.48456  0.57646  0.97693  1.0000
  C   C552      1.0  0.95123  0.31999  0.17097  1.0000
  H   H665      1.0  0.92128  0.53339  0.47563  1.0000
  N   N37       1.0  0.93514  0.33705  0.85608  1.0000
  C   C553      1.0  0.92024  0.37589  0.77065  1.0000
  C   C554      1.0  0.70288  0.50405  0.49393  1.0000
  Fe  Fe73      1.0  0.88386  0.38516  0.93552  1.0000
  S   S147      1.0  0.90407  0.42003  0.88451  1.0000
  H   H666      1.0  0.61733  0.33455  0.70785  1.0000
  Fe  Fe74      1.0  0.82427  0.47078  0.60313  1.0000
  S   S148      1.0  0.76594  0.43075  0.60007  1.0000
  S   S149      1.0  0.85141  0.51584  0.56092  1.0000
  Fe  Fe75      1.0  0.82957  0.44394  0.67992  1.0000
  S   S150      1.0  0.77127  0.40251  0.68082  1.0000
  S   S151      1.0  0.86982  0.45425  0.72565  1.0000
  Fe  Fe76      1.0  0.77955  0.39136  0.62403  1.0000
  H   H667      1.0  0.50244  0.63793  0.56690  1.0000
  Fe  Fe77      1.0  0.76175  0.44481  0.65672  1.0000
  S   S152      1.0  0.83894  0.43041  0.62353  1.0000
  H   H668      1.0  0.76157  0.57485  0.67172  1.0000
  H   H669      1.0  0.76540  0.51943  0.67213  1.0000
  C   C555      1.0  0.89072  0.42770  0.84124  1.0000
  C   C556      1.0  0.91743  0.45424  0.81981  1.0000
  C   C557      1.0  0.91003  0.46158  0.78519  1.0000
  C   C558      1.0  0.87562  0.44266  0.77055  1.0000
  C   C559      1.0  0.84841  0.41578  0.79175  1.0000
  C   C560      1.0  0.85595  0.40828  0.82695  1.0000
  H   H670      1.0  0.94446  0.46918  0.82984  1.0000
  H   H671      1.0  0.93145  0.48217  0.76952  1.0000
  H   H672      1.0  0.83491  0.38752  0.84287  1.0000
  H   H673      1.0  0.57713  0.57448  0.51343  1.0000
  H   H674      1.0  0.67896  0.46831  0.55863  1.0000
  C   C561      1.0  0.50949  0.48166  0.81677  1.0000
  S   S153      1.0  0.55735  0.62088  0.90576  1.0000
  H   H675      1.0  0.95086  0.32326  0.97250  1.0000
  S   S154      1.0  0.71011  0.44448  0.66904  1.0000
  S   S155      1.0  0.81948  0.48757  0.65945  1.0000
  Fe  Fe78      1.0  0.58591  0.58835  0.69144  1.0000
  C   C562      1.0  0.54074  0.61766  0.50292  1.0000
  S   S156      1.0  0.54873  0.58737  0.73680  1.0000
  Fe  Fe79      1.0  0.58622  0.56323  0.61166  1.0000
  S   S157      1.0  0.64316  0.60621  0.60309  1.0000
  S   S158      1.0  0.55458  0.51929  0.56981  1.0000
  Fe  Fe80      1.0  0.65211  0.59035  0.65797  1.0000
  S   S159      1.0  0.70282  0.58782  0.66709  1.0000
  H   H676      1.0  0.89112  0.34462  0.87241  1.0000
  S   S160      1.0  0.59548  0.54607  0.66619  1.0000
  S   S161      1.0  0.57103  0.60086  0.63760  1.0000
  C   C563      1.0  0.70852  0.48456  0.66852  1.0000
  C   C564      1.0  0.67526  0.48295  0.66607  1.0000
  C   C565      1.0  0.67307  0.51435  0.66523  1.0000
  C   C566      1.0  0.70416  0.54763  0.66746  1.0000
  C   C567      1.0  0.73741  0.54920  0.66989  1.0000
  C   C568      1.0  0.73965  0.51783  0.67005  1.0000
  H   H677      1.0  0.65105  0.45733  0.66480  1.0000
  H   H678      1.0  0.64734  0.51281  0.66334  1.0000
  C   C569      1.0  0.55327  0.59917  0.78334  1.0000
  C   C570      1.0  0.58098  0.60145  0.80467  1.0000
  C   C571      1.0  0.58195  0.60854  0.84180  1.0000
  C   C572      1.0  0.55586  0.61441  0.85818  1.0000
  C   C573      1.0  0.52867  0.61304  0.83664  1.0000
  C   C574      1.0  0.52716  0.60502  0.79971  1.0000
  H   H679      1.0  0.60117  0.59679  0.79283  1.0000
  H   H680      1.0  0.60304  0.60926  0.85803  1.0000
  H   H681      1.0  0.54028  0.57845  0.56177  1.0000
  S   S162      1.0  0.48610  0.64145  0.96497  1.0000
  H   H682      1.0  0.82167  0.40075  0.78105  1.0000
  C   C575      1.0  0.56697  0.54883  0.50073  1.0000
  C   C576      1.0  0.55640  0.51839  0.52184  1.0000
  H   H683      1.0  0.70682  0.47275  0.59563  1.0000
  C   C577      1.0  0.93315  0.56345  0.61795  1.0000
  C   C578      1.0  0.86447  0.55160  0.49617  1.0000
  C   C579      1.0  0.85227  0.51824  0.51293  1.0000
  C   C580      1.0  0.84238  0.48848  0.49114  1.0000
  H   H684      1.0  0.87234  0.57494  0.51253  1.0000
  H   H685      1.0  0.54134  0.63386  0.57432  1.0000
  C   C581      1.0  0.96636  0.62571  0.60083  1.0000
  H   H686      1.0  0.53540  0.46160  0.52021  1.0000
  H   H687      1.0  0.93230  0.54669  0.70692  1.0000
  S   S163      1.0  0.74783  0.33709  0.59796  1.0000
  C   C582      1.0  0.48581  0.49295  0.70758  1.0000
  H   H688      1.0  0.72902  0.53928  0.59572  1.0000
  H   H689      1.0  0.93032  0.54168  0.53984  1.0000
  H   H690      1.0  0.50290  0.55340  0.59032  1.0000
  N   N38       1.0  0.66180  0.32725  0.69281  1.0000
  C   C583      1.0  0.93327  0.34407  0.81754  1.0000
  C   C584      1.0  0.92774  0.50264  0.65376  1.0000
  C   C585      1.0  0.76900  0.51632  0.56757  1.0000
  H   H691      1.0  0.50426  0.61214  0.60388  1.0000
  N   N39       1.0  0.49570  0.58690  0.55213  1.0000
  N   N40       1.0  0.73434  0.50935  0.55225  1.0000
  H   H692      1.0  0.74666  0.56402  0.55499  1.0000
  H   H693      1.0  0.64456  0.36313  0.67294  1.0000
  H   H694      1.0  0.90206  0.50156  0.66040  1.0000
  C   C586      1.0  0.90173  0.50210  0.91619  1.0000
  H   H695      1.0  0.77534  0.49524  0.55993  1.0000
  C   C587      1.0  0.73372  0.50908  0.51257  1.0000
  N   N41       1.0  0.95897  0.53784  0.66276  1.0000
  C   C588      1.0  0.76273  0.51263  0.49136  1.0000
  H   H696      1.0  0.50820  0.61722  0.84860  1.0000
  H   H697      1.0  0.97136  0.58655  0.91762  1.0000
  H   H698      1.0  0.53995  0.57509  0.96689  1.0000
  H   H699      1.0  0.83306  0.46263  0.50334  1.0000
  H   H700      1.0  0.96851  0.64783  0.58522  1.0000
  C   C589      1.0  0.68418  0.33468  0.66018  1.0000
  C   C590      1.0  0.54376  0.48543  0.50436  1.0000
  H   H701      1.0  0.79149  0.54257  0.55879  1.0000
  H   H702      1.0  0.71015  0.45231  0.55523  1.0000
  C   C591      1.0  0.96089  0.56764  0.64145  1.0000
  H   H703      1.0  0.50547  0.60330  0.78372  1.0000
  H   H704      1.0  0.67962  0.50076  0.50822  1.0000
  C   C592      1.0  0.51061  0.56394  0.56258  1.0000
  H   H705      1.0  0.69985  0.53212  0.55947  1.0000
  H   H706      1.0  0.90884  0.53829  0.61446  1.0000
  C   C593      1.0  0.95322  0.54975  0.52240  1.0000
  H   H707      1.0  0.56239  0.62563  0.52178  1.0000
  H   H708      1.0  0.92647  0.56989  0.93460  1.0000
  H   H709      1.0  0.92723  0.36461  0.71621  1.0000
  S   S164      1.0  0.64337  0.63118  0.68701  1.0000
  H   H710      1.0  0.91580  0.38277  0.82626  1.0000
  H   H711      1.0  0.69517  0.36264  0.65058  1.0000
  C   C594      1.0  0.70631  0.47420  0.56590  1.0000
  H   H712      1.0  0.95464  0.52247  0.71827  1.0000
  S   S165      1.0  0.92081  0.37105  0.96528  1.0000
  C   C595      1.0  0.94823  0.54469  0.48548  1.0000
  C   C596      1.0  0.95098  0.49294  0.96649  1.0000
  C   C597      1.0  0.68473  0.35201  0.72117  1.0000
  C   C598      1.0  0.95648  0.54448  0.70129  1.0000
  H   H713      1.0  0.89173  0.50426  0.88936  1.0000
  C   C599      1.0  0.95188  0.52520  0.95709  1.0000
  H   H714      1.0  0.70769  0.33127  0.66533  1.0000
  H   H715      1.0  0.49347  0.55851  0.92464  1.0000
  C   C600      1.0  0.93605  0.59214  0.59797  1.0000
  H   H716      1.0  0.95430  0.52895  0.86581  1.0000
  H   H717      1.0  0.88458  0.50466  0.93692  1.0000
  H   H718      1.0  0.66949  0.35006  0.74586  1.0000
  C   C601      1.0  0.72714  0.53735  0.56600  1.0000
  H   H719      1.0  0.91455  0.58817  0.58012  1.0000
  H   H720      1.0  0.49766  0.43893  0.85370  1.0000
  H   H721      1.0  0.69750  0.38037  0.71221  1.0000
  C   C602      1.0  0.63322  0.33559  0.68402  1.0000
  H   H722      1.0  0.49229  0.47182  0.70051  1.0000
  C   C603      1.0  0.50453  0.59749  0.51411  1.0000
  C   C604      1.0  0.94208  0.32721  0.78985  1.0000
  N   N42       1.0  0.93984  0.52939  0.92119  1.0000
  Fe  Fe81      1.0  0.53927  0.64858  0.94715  1.0000
  H   H723      1.0  0.76875  0.51663  0.59741  1.0000
  H   H724      1.0  0.93422  0.56727  0.88796  1.0000
  C   C605      1.0  0.96158  0.52464  0.89322  1.0000
  H   H725      1.0  0.70652  0.34656  0.72872  1.0000
  H   H726      1.0  0.51087  0.51614  0.71724  1.0000
  C   C606      1.0  0.94310  0.56483  0.91528  1.0000
  Fe  Fe82      1.0  0.62902  0.64273  0.63295  1.0000
  C   C607      1.0  0.96156  0.37047  0.87400  1.0000
  H   H727      1.0  0.91171  0.39480  0.76327  1.0000
  C   C608      1.0  0.48938  0.44697  0.82971  1.0000
  C   C609      1.0  0.92251  0.36874  0.80673  1.0000
  H   H728      1.0  0.89712  0.47453  0.91808  1.0000
  H   H729      1.0  0.94135  0.47094  0.94790  1.0000
  H   H730      1.0  0.96495  0.36592  0.90274  1.0000
  H   H731      1.0  0.78718  0.51627  0.50297  1.0000
  S   S166      1.0  0.83822  0.32897  0.93605  1.0000
  H   H732      1.0  0.98016  0.56945  0.71074  1.0000
  H   H733      1.0  0.95341  0.39116  0.87351  1.0000
  H   H734      1.0  0.95795  0.49736  0.89335  1.0000
  H   H735      1.0  0.92755  0.48066  0.66954  1.0000
  H   H736      1.0  0.92776  0.49611  0.62494  1.0000
  C   C610      1.0  0.51161  0.61907  0.57520  1.0000
  C   C611      1.0  0.93989  0.33467  0.75374  1.0000
  H   H737      1.0  0.51502  0.51944  0.77726  1.0000
  C   C612      1.0  0.49860  0.49216  0.78608  1.0000
  S   S167      1.0  0.98124  0.65282  0.95546  1.0000
  C   C613      1.0  0.89966  0.32426  0.87299  1.0000
  C   C614      1.0  0.92893  0.35889  0.74418  1.0000
  H   H738      1.0  0.53359  0.50067  0.83065  1.0000
  H   H739      1.0  0.50128  0.54075  0.54426  1.0000
  H   H740      1.0  0.97238  0.35898  0.47867  1.0000
  H   H741      1.0  0.98027  0.48304  0.53407  1.0000
  H   H742      1.0  0.94681  0.32165  0.73299  1.0000
  S   S168      1.0  0.86543  0.68482  0.33038  1.0000
  H   H743      1.0  0.51148  0.77256  0.33871  1.0000
  Fe  Fe83      1.0  0.51849  0.89401  0.34146  1.0000
  H   H744      1.0  0.90039  0.73495  0.25110  1.0000
  C   C615      1.0  0.97656  0.92885  0.12116  1.0000
  H   H745      1.0  0.81637  0.97366  0.42890  1.0000
  C   C616      1.0  0.91944  0.69490  0.20131  1.0000
  Fe  Fe84      1.0  0.50897  0.95187  0.37983  1.0000
  H   H746      1.0  0.89085  0.88713  0.17897  1.0000
  S   S169      1.0  0.54056  0.92651  0.29092  1.0000
  S   S170      1.0  0.55317  0.93904  0.37865  1.0000
  H   H747      1.0  0.88691  0.93198  0.22198  1.0000
  C   C617      1.0  0.74922  0.72558  0.01327  1.0000
  H   H748      1.0  0.97024  0.72870  0.27583  1.0000
  Fe  Fe85      1.0  0.90164  0.89518  0.01088  1.0000
  S   S171      1.0  0.94205  0.92344  0.05685  1.0000
  S   S172      1.0  0.85144  0.84155  0.01451  1.0000
  S   S173      1.0  0.52878  0.70447  0.02502  1.0000
  Fe  Fe86      1.0  0.57819  0.70527  0.00423  1.0000
  S   S174      1.0  0.63070  0.73184  0.03388  1.0000
  H   H749      1.0  0.90023  0.79123  0.25300  1.0000
  C   C618      1.0  0.73432  0.80708  0.01928  1.0000
  C   C619      1.0  0.70230  0.77945  0.03356  1.0000
  C   C620      1.0  0.66997  0.76685  0.01501  1.0000
  H   H750      1.0  0.75905  0.81694  0.03395  1.0000
  H   H751      1.0  0.70249  0.76790  0.05921  1.0000
  C   C621      1.0  0.97920  0.78786  0.20735  1.0000
  H   H752      1.0  0.74951  0.97439  0.30269  1.0000
  N   N43       1.0  0.95092  0.72153  0.22171  1.0000
  C   C622      1.0  0.73378  0.96564  0.32713  1.0000
  C   C623      1.0  0.94838  0.91318  0.18026  1.0000
  C   C624      1.0  0.91497  0.89866  0.16299  1.0000
  C   C625      1.0  0.91233  0.89922  0.12520  1.0000
  C   C626      1.0  0.94320  0.91496  0.10387  1.0000
  H   H753      1.0  0.64054  0.86080  0.35126  1.0000
  H   H754      1.0  0.74595  0.66022  0.36324  1.0000
  C   C627      1.0  0.66973  0.78212  0.98210  1.0000
  Fe  Fe87      1.0  0.57153  0.97226  0.32866  1.0000
  H   H755      1.0  0.73067  0.69816  0.02324  1.0000
  C   C628      1.0  0.89888  0.95906  0.23197  1.0000
  C   C629      1.0  0.95097  0.98254  0.33281  1.0000
  C   C630      1.0  0.90479  0.72659  0.33469  1.0000
  C   C631      1.0  0.93729  0.72899  0.34385  1.0000
  C   C632      1.0  0.73398  0.82284  0.98673  1.0000
  H   H756      1.0  0.49678  0.73095  0.08608  1.0000
  C   C633      1.0  0.93451  0.79159  0.33166  1.0000
  C   C634      1.0  0.90343  0.75796  0.32885  1.0000
  H   H757      1.0  0.63073  0.93128  0.30470  1.0000
  H   H758      1.0  0.89379  0.68951  0.21371  1.0000
  H   H759      1.0  0.93331  0.81565  0.32707  1.0000
  H   H760      1.0  0.87834  0.75630  0.32186  1.0000
  C   C635      1.0  0.91732  0.96782  0.26446  1.0000
  H   H761      1.0  0.52566  0.78471  0.98001  1.0000
  C   C636      1.0  0.96695  0.79399  0.34123  1.0000
  H   H762      1.0  0.68498  0.93538  0.29910  1.0000
  C   C637      1.0  0.96816  0.76258  0.34739  1.0000
  H   H763      1.0  0.74371  0.97640  0.41701  1.0000
  C   C638      1.0  0.48183  0.80027  0.34421  1.0000
  C   C639      1.0  0.92207  0.79010  0.23992  1.0000
  H   H764      1.0  0.93858  0.70503  0.34879  1.0000
  H   H765      1.0  0.63806  0.87842  0.30843  1.0000
  H   H766      1.0  0.95095  0.68368  0.25959  1.0000
  S   S175      1.0  0.49099  0.97171  0.42867  1.0000
  H   H767      1.0  0.96549  0.97156  0.31761  1.0000
  C   C640      1.0  0.73042  0.96695  0.39144  1.0000
  C   C641      1.0  0.69671  0.94332  0.32539  1.0000
  S   S176      1.0  0.52089  0.84286  0.34565  1.0000
  C   C642      1.0  0.49824  0.81506  0.98236  1.0000
  H   H768      1.0  0.88643  0.88869  0.11269  1.0000
  H   H769      1.0  0.94978  0.84587  0.22634  1.0000
  H   H770      1.0  0.77547  0.73487  0.02664  1.0000
  H   H771      1.0  0.88105  0.97769  0.18752  1.0000
  H   H772      1.0  0.79433  0.71299  0.97946  1.0000
  N   N44       1.0  0.63603  0.90803  0.35416  1.0000
  C   C643      1.0  0.61742  0.89875  0.38937  1.0000
  C   C644      1.0  0.62020  0.92537  0.33249  1.0000
  C   C645      1.0  0.62814  0.87422  0.33647  1.0000
  C   C646      1.0  0.67524  0.93195  0.35681  1.0000
  C   C647      1.0  0.69329  0.94456  0.39005  1.0000
  H   H773      1.0  0.91858  0.66877  0.19997  1.0000
  C   C648      1.0  0.88209  0.95143  0.46921  1.0000
  C   C649      1.0  0.97916  0.92768  0.15889  1.0000
  Fe  Fe88      1.0  0.49523  0.93787  0.29731  1.0000
  C   C650      1.0  0.95002  0.82094  0.22504  1.0000
  H   H774      1.0  0.58799  0.88087  0.38630  1.0000
  C   C651      1.0  0.48521  0.76972  0.34095  1.0000
  S   S177      1.0  0.95003  0.91495  0.22835  1.0000
  H   H775      1.0  0.59069  0.90813  0.33016  1.0000
  C   C652      1.0  0.75061  0.97746  0.36008  1.0000
  C   C653      1.0  0.95113  0.75588  0.22245  1.0000
  H   H776      1.0  0.59875  0.85521  0.33509  1.0000
  H   H777      1.0  0.92272  0.70088  0.27181  1.0000
  C   C654      1.0  0.94863  0.70819  0.25879  1.0000
  H   H778      1.0  0.62562  0.95092  0.34487  1.0000
  C   C655      1.0  0.92249  0.75802  0.23871  1.0000
  H   H779      1.0  0.52047  0.83797  0.99469  1.0000
  H   H780      1.0  0.55070  0.97907  0.47576  1.0000
  H   H781      1.0  0.85474  0.93495  0.46068  1.0000
  H   H782      1.0  0.62090  0.92291  0.40354  1.0000
  H   H783      1.0  0.62690  0.88431  0.40683  1.0000
  H   H784      1.0  0.91990  0.70409  0.17336  1.0000
  H   H785      1.0  0.73962  0.74368  0.02275  1.0000
  H   H786      1.0  0.93682  0.97239  0.11934  1.0000
  S   S178      1.0  0.97749  0.91071  0.32831  1.0000
  C   C656      1.0  0.97848  0.81982  0.20878  1.0000
  H   H787      1.0  0.77927  0.66787  0.33075  1.0000
  H   H788      1.0  0.68414  0.70699  0.00137  1.0000
  H   H789      1.0  0.92314  0.96082  0.33803  1.0000
  H   H790      1.0  0.67938  0.93769  0.41539  1.0000
  H   H791      1.0  0.91859  0.94640  0.27800  1.0000
  C   C657      1.0  0.89596  0.98485  0.21234  1.0000
  H   H792      1.0  0.80256  0.77546  0.97764  1.0000
  H   H793      1.0  0.89458  0.98450  0.42211  1.0000
  C   C658      1.0  0.90479  0.97961  0.44673  1.0000
  C   C659      1.0  0.92679  0.78634  0.86128  1.0000
  H   H794      1.0  0.89522  0.93946  0.57549  1.0000
  Fe  Fe89      1.0  0.82514  0.97282  0.59719  1.0000
  Fe  Fe90      1.0  0.89199  0.89995  0.92747  1.0000
  S   S179      1.0  0.91374  0.93277  0.87549  1.0000
  S   S180      1.0  0.84313  0.84624  0.92705  1.0000
  S   S181      1.0  0.56624  0.70836  0.94607  1.0000
  H   H795      1.0  0.76478  0.78079  0.96779  1.0000
  H   H796      1.0  0.87293  0.71131  0.95765  1.0000
  C   C660      1.0  0.83743  0.91824  0.53378  1.0000
  S   S182      1.0  0.77107  0.92542  0.58830  1.0000
  C   C661      1.0  0.94110  0.86601  0.81886  1.0000
  Fe  Fe91      1.0  0.82344  0.95300  0.67930  1.0000
  S   S183      1.0  0.76807  0.90535  0.67458  1.0000
  C   C662      1.0  0.77694  0.76378  0.96272  1.0000
  Fe  Fe92      1.0  0.78840  0.89461  0.62333  1.0000
  S   S184      1.0  0.78486  0.84195  0.60939  1.0000
  Fe  Fe93      1.0  0.75570  0.94094  0.64015  1.0000
  S   S185      1.0  0.84432  0.94096  0.62896  1.0000
  S   S186      1.0  0.63599  0.69708  0.61980  1.0000
  C   C663      1.0  0.74351  0.80189  0.61435  1.0000
  C   C664      1.0  0.74278  0.76905  0.61494  1.0000
  C   C665      1.0  0.71012  0.73671  0.61746  1.0000
  C   C666      1.0  0.67787  0.73698  0.61854  1.0000
  C   C667      1.0  0.67863  0.76982  0.61818  1.0000
  C   C668      1.0  0.71128  0.80215  0.61651  1.0000
  H   H797      1.0  0.76758  0.76861  0.61324  1.0000
  H   H798      1.0  0.70991  0.71160  0.61767  1.0000
  H   H799      1.0  0.65383  0.77033  0.61879  1.0000
  H   H800      1.0  0.71147  0.82724  0.61589  1.0000
  C   C669      1.0  0.48183  0.94036  0.54783  1.0000
  C   C670      1.0  0.92890  0.72909  0.94968  1.0000
  C   C671      1.0  0.89570  0.93966  0.83474  1.0000
  C   C672      1.0  0.86111  0.91660  0.82138  1.0000
  C   C673      1.0  0.84950  0.92450  0.78851  1.0000
  C   C674      1.0  0.87201  0.95609  0.76943  1.0000
  C   C675      1.0  0.70163  0.81036  0.96823  1.0000
  H   H801      1.0  0.88303  0.81652  0.85298  1.0000
  H   H802      1.0  0.84330  0.89283  0.83631  1.0000
  H   H803      1.0  0.82288  0.90680  0.77862  1.0000
  C   C676      1.0  0.68440  0.69785  0.89831  1.0000
  C   C677      1.0  0.50066  0.97886  0.80906  1.0000
  H   H804      1.0  0.66963  0.71239  0.69270  1.0000
  H   H805      1.0  0.53199  0.93244  0.88804  1.0000
  C   C678      1.0  0.94657  0.97217  0.70089  1.0000
  H   H806      1.0  0.92247  0.84505  0.80005  1.0000
  H   H807      1.0  0.84324  0.87859  0.48210  1.0000
  H   H808      1.0  0.83950  0.85776  0.52449  1.0000
  C   C679      1.0  0.82797  0.97130  0.84659  1.0000
  H   H809      1.0  0.96835  0.86842  0.90455  1.0000
  Fe  Fe94      1.0  0.87214  0.82880  0.96451  1.0000
  S   S187      1.0  0.77313  0.85920  0.96928  1.0000
  C   C680      1.0  0.50187  0.95705  0.83610  1.0000
  N   N45       1.0  0.63662  0.71859  0.73229  1.0000
  C   C681      1.0  0.67023  0.71966  0.72141  1.0000
  C   C682      1.0  0.60648  0.68297  0.72244  1.0000
  C   C683      1.0  0.63282  0.74556  0.71113  1.0000
  C   C684      1.0  0.63784  0.72660  0.77100  1.0000
  C   C685      1.0  0.66519  0.75958  0.78470  1.0000
  C   C686      1.0  0.61233  0.70248  0.79608  1.0000
  C   C687      1.0  0.66691  0.76785  0.82112  1.0000
  C   C688      1.0  0.61423  0.71110  0.83241  1.0000
  C   C689      1.0  0.64145  0.74367  0.84491  1.0000
  C   C690      1.0  0.48824  0.94353  0.92907  1.0000
  H   H810      1.0  0.92007  0.73390  0.86855  1.0000
  C   C691      1.0  0.93808  0.79798  0.95029  1.0000
  H   H811      1.0  0.90049  0.77722  0.87230  1.0000
  C   C692      1.0  0.95014  0.82241  0.85111  1.0000
  H   H812      1.0  0.93303  0.88681  0.82057  1.0000
  H   H813      1.0  0.65643  0.77272  0.71362  1.0000
  H   H814      1.0  0.64267  0.75025  0.87309  1.0000
  C   C693      1.0  0.90379  0.76863  0.95440  1.0000
  H   H815      1.0  0.68540  0.77930  0.76725  1.0000
  H   H816      1.0  0.59048  0.67680  0.78841  1.0000
  H   H817      1.0  0.94192  0.95066  0.68168  1.0000
  H   H818      1.0  0.77741  0.70754  0.93552  1.0000
  H   H819      1.0  0.60882  0.74692  0.71969  1.0000
  H   H820      1.0  0.88124  0.87768  0.50025  1.0000
  H   H821      1.0  0.68371  0.69537  0.86940  1.0000
  C   C694      1.0  0.96740  0.79285  0.94431  1.0000
  H   H822      1.0  0.86409  0.96711  0.92504  1.0000
  H   H823      1.0  0.96815  0.87907  0.80657  1.0000
  C   C695      1.0  0.48479  0.96054  0.57794  1.0000
  C   C696      1.0  0.93764  0.76087  0.85915  1.0000
  H   H824      1.0  0.92051  0.97093  0.70486  1.0000
  C   C697      1.0  0.50386  0.91017  0.88915  1.0000
  C   C698      1.0  0.66530  0.97576  0.63958  1.0000
  C   C699      1.0  0.65382  0.69282  0.95389  1.0000
  S   S188      1.0  0.86572  0.77394  0.95659  1.0000
  H   H825      1.0  0.49765  0.89421  0.86414  1.0000
  H   H826      1.0  0.72032  0.97440  0.70385  1.0000
  H   H827      1.0  0.69405  0.74660  0.72426  1.0000
  H   H828      1.0  0.86575  0.89230  0.57819  1.0000
  H   H829      1.0  0.95858  0.89993  0.88339  1.0000
  S   S189      1.0  0.85985  0.97090  0.72948  1.0000
  N   N46       1.0  0.86949  0.91521  0.52570  1.0000
  H   H830      1.0  0.67482  0.70068  0.73757  1.0000
  H   H831      1.0  0.84521  0.94481  0.54528  1.0000
  H   H832      1.0  0.65605  0.96611  0.61280  1.0000
  C   C700      1.0  0.85789  0.88084  0.50730  1.0000
  H   H833      1.0  0.59426  0.69241  0.85097  1.0000
  H   H834      1.0  0.50226  0.93336  0.54240  1.0000
  C   C701      1.0  0.68987  0.96800  0.65612  1.0000
  C   C702      1.0  0.89935  0.73419  0.95444  1.0000
  H   H835      1.0  0.62832  0.68030  0.90248  1.0000
  H   H836      1.0  0.90209  0.82669  0.89745  1.0000
  H   H837      1.0  0.70122  0.82270  0.94316  1.0000
  H   H838      1.0  0.94191  0.82455  0.95077  1.0000
  N   N47       1.0  0.94036  0.85058  0.85455  1.0000
  H   H839      1.0  0.95386  0.96561  0.72727  1.0000
  C   C703      1.0  0.90418  0.83753  0.86993  1.0000
  H   H840      1.0  0.78394  0.76622  0.93383  1.0000
  H   H841      1.0  0.89763  0.85929  0.87200  1.0000
  C   C704      1.0  0.91820  0.97005  0.81456  1.0000
  C   C705      1.0  0.68568  0.70446  0.97275  1.0000
  C   C706      1.0  0.71807  0.71306  0.95474  1.0000
  Fe  Fe95      1.0  0.51383  0.70126  0.96702  1.0000
  C   C707      1.0  0.86294  0.97859  0.89979  1.0000
  C   C708      1.0  0.70161  0.98045  0.69079  1.0000
  S   S190      1.0  0.92300  0.88133  0.96164  1.0000
  H   H842      1.0  0.63004  0.73924  0.68197  1.0000
  C   C709      1.0  0.96295  0.75842  0.94384  1.0000
  C   C710      1.0  0.65313  0.68937  0.91684  1.0000
  H   H843      1.0  0.75072  0.67588  0.96960  1.0000
  H   H844      1.0  0.81930  0.89757  0.55330  1.0000
  C   C711      1.0  0.97175  0.77036  0.84705  1.0000
  H   H845      1.0  0.58011  0.68050  0.72865  1.0000
  C   C712      1.0  0.88555  0.91407  0.56050  1.0000
  C   C713      1.0  0.96636  0.87935  0.87820  1.0000
  H   H846      1.0  0.60627  0.67765  0.69323  1.0000
  H   H847      1.0  0.68796  0.79328  0.83094  1.0000
  S   S191      1.0  0.70363  0.94126  0.63304  1.0000
  H   H848      1.0  0.81262  0.96645  0.49519  1.0000
  C   C714      1.0  0.50122  0.78491  0.97418  1.0000
  H   H849      1.0  0.80408  0.95563  0.83087  1.0000
  C   C715      1.0  0.90620  0.97862  0.78320  1.0000
  H   H850      1.0  0.50739  0.96912  0.59580  1.0000
  H   H851      1.0  0.62955  0.68685  0.96819  1.0000
  H   H852      1.0  0.74020  0.71673  0.90129  1.0000
  H   H853      1.0  0.51508  0.96781  0.92707  1.0000
  C   C716      1.0  0.89427  0.94501  0.50220  1.0000
  H   H854      1.0  0.92509  0.70244  0.94890  1.0000
  C   C717      1.0  0.71649  0.70973  0.91686  1.0000
  H   H855      1.0  0.52172  0.94900  0.83312  1.0000
  H   H856      1.0  0.82084  0.91464  0.50980  1.0000
  H   H857      1.0  0.90816  0.90889  0.55683  1.0000
  C   C718      1.0  0.83169  0.95901  0.87989  1.0000
  H   H858      1.0  0.50271  0.89238  0.91146  1.0000
  H   H859      1.0  0.64491  0.77265  0.96771  1.0000
  H   H860      1.0  0.81048  0.93380  0.89017  1.0000
  H   H861      1.0  0.94299  0.96511  0.53484  1.0000
  H   H862      1.0  0.60830  0.66123  0.73648  1.0000
  C   C719      1.0  0.76924  0.70465  0.96409  1.0000
  N   N48       1.0  0.75254  0.72639  0.97363  1.0000
  H   H863      1.0  0.48891  0.92708  0.95177  1.0000
  H   H864      1.0  0.98050  0.75082  0.84710  1.0000
  C   C720      1.0  0.93089  0.96805  0.51076  1.0000
  S   S192      1.0  0.87589  0.91931  0.97620  1.0000
  Fe  Fe96      1.0  0.82742  0.86437  0.97644  1.0000
