data_image0
_chemical_formula_structural       FeS2CSHFeSFeS3CHFeHSHCH2SHSHFeS2FeS2FeSFeS3C2H2C4HCHC3SH3C2HSCH2CHC7H4C2H4CH3C4HCH3C5H4C3HC2H2CHNH2CH2CHCHC2H2CH2CHC3HFeCHCHCHNCHCHCHCHCH3CH5CH2CNHCH3FeCFeC2H2CSCNH8CSHC2H2FeS2FeS2FeSFeS3FeSFeS2HCFeSFeCSHCSHC2HSH4CHC6HFeHC6H7C2H4CHC5H2CHCHC3H2CH5C2HC2HCHCH3SHCHC3HC2H2CH2C2HSCH2CHCH2CHCH2CH6CHNC2SCNH2CH6CHSCH2NCHC3SCNC2HCHNCSH15SCH2NC5FeHCSFeHSH3C2H2CHSCHCH2CH3C7HCNCH3CH2CHCH3SCHC2H3NC2H3FeSFeS2FeSHCSFeSHFeS2FeSFeS3FeS2FeS2FeHFeS5H3NH7CH2C5H3CHCH2C3H2C3HCSH2C3HC2H3C6H4CH2CHCH4C6H3SHNH3CH3CHC2H2CNCHC3HNHCH7C3HCHCHCH8NC6H2CH3CSHCH3CHCHC4SH3C2FeHC2HCFeHCH2CH2CH2C2HNCSHC4HCH3C2HC2NC5HCH3CHCH3SH4CH2CNH2C2HC2H2CH4CH2CFeSFeS2FeSFeS2FeSFeS2FeSCFeSFeCS3H3CH3CHC2HSFeCH3SHCH2C6H4C6H9CH3CH2NHC2FeH3SHC6HCHC3H3CH2CHCH3CHCHCH2NC4H6C2H3SHNCHCH3C3HC2H2CH2CH2C3FeSCH2C2SH3NHCHSHS2HCFeHCH2C5H2CHNC5H5C2H3CHC2HC2H2C2FeS2FeSCFeCFeS3H2FeCSFeHSFeSCSHFeSHFeSHFeSFeSNSCHCH2SCHCHSHCH5C4HC2S2HC6H5C3H2CHFeC2HC2HCH3SCH3CHCSC6H2SH2C7H4CHCH2NC6H2CHCH8CH2CHC4NH2C2HC3H3NC3H9C2SH5C6H2C2HCH3C2HS2HCHC2H2CHCH2C2H2CH6CHC3H2C3HCHCH3FeNH2CH2SFeSCFeS2FeSFeS3FeSFeS2NFe2SHNH2CHC4H3CHCHC4HCH2C7H4CHC3SH6NC2H3CH4C3HC2SHSHNH3CH4SHSHCH2CHC2NC9H14CHCHC7HNC2FeHC2H9CH3C2H3SC4HCFeCH2C3HCH2NH2C3H2CH3CH6CHC3HC2FeSFeS2FeSFeCSCSHFeS2FeSFeS3FeS2FeS2FeHFeS4HCH3SHNSCH5C2H2C2HC3H2C4H2C14H3C6H4C2HCHCH4C6H3SH2FeH2C6H2CHNCH5CSH2C2NC6HCHSH5CH2CH3N2C2HC6H18FeC3H2NC5HCH2C3H2CHSHCH2CHSC2HCH4CH4CSH2CHC2Fe2SFeS2FeSHS2FeSFeS2FeSHFeSFeHS3H4CH4C3H4SH5C7H4C6H4C2NHCNCH3CH2SNH2CH4SH3CHC3HSHCH2CHCH3C2H2CN2C9H3CH7C3H3CH2CHC2HC2SHNHCH2CSCH5SHC2HCSCH4FeH2C2HCHCH5C3FeCHC4HC2H2C2HCFeSCHC6H3C2HC3SCHCH4C2HC2H2FeS2FeSHFeSFeS3H3CSH2C4SHFeSHFeS2FeSFeS3C2HCH2CHC6HSH2C6H3SC6H5NC2H2NHC2HC2H9C3H3C6H2CH2C3HC2H10CHC2NFeC3HCH3C2FeC2H2CSHNCH3C2HSHFeC2H5SH5CSH2CNC4H2CH4SHCH6CHCHC3H3CHCH3FeS2FeS2FeSFeS3FeSFeS2HCFeSFeCNHCHC2HCH4C2HC3HC2H3C6H7C2SCH2CH3C3H2CH3C2H2NHC3FeC2HSH3CH2CHNCH2C2SHC2H2FeC3HCNHC5H2C2SFeCHCSCHCH5NSHCH3CHSC2HCH2C3HSHCHCHSH3NHCH4CSHC2H5CHCHCHC2HCHC2H4CH2CHCHSCH6CHSFeS2FeSC2SFeSCFeS2FeSFeS3FeS2FeS2FeSFeS4CH4SH2SHSC3HCH4CHC4H2CH2CHC3HC2H2C2HC4H2C6H4CH2C4H2C7H6C2H2NC5H3CH3CFe2CHCH3C3HCHCSHC2HCH2CH2C2HC3H4CHSNH3C2HCH3CFeNCH4SHCHCSHCHNCH5C3FeC3HCHCH5C4H4NHC2H2C4NHCH2NC3H6FeCH3CNHC2HCH2CHCH3CHC3H2C3HC3H2CH2C4HCHC3H3FeCFeS2FeSFeS2FeSFeS2FeSCFeSFeHS3C2SHCH2CHC2H2C2HCH2SHCHC6H4C6H6NHC3HCHC2SH3NH4CH4CH2CNC3HC2H6CHCH3FeH3CHCHCSC2HSH4C2H3CHCH2C3HC4HFeNCH2C2NSH2CH4C3HC2HCHSHCSH2CH6C3HC2H4C2FeS2FeSHFeSFeS3HCFeHSH2CFeSHSCFeSHFeS2FeSFeS3HCH2CSH2SH2C3SC2HC3HC2H4C6H6C5H2C4HCH5C4H3SC6H5CNCHC7HSH4SHFeH5CHSC2HCHNC4HNHSCH6CH4CHSNH6CHC2H2CFeHNH2CHNC2H7CSCSCH4SC3Fe2H2C2H3C4HC2HCHSCH2CH2C2H6FeS2FeS2FeSFeS3HSHSHCH2SC3HCHC2H6C2HC7H2C6H7CHCH3CHCHC2FeH3CFeHCH2CHCH3CSC3H6CHCH2CNCH2CFeH2CH2CH6C2HC2H2C2HNHCH2C2HNHCH2C2SCH2SC2HC2SCH2CSC2HC2H2C3HCHFeSFeS2FeSFeHSFeSCFeS2FeSFeS3FeS2FeS2FeCFeHS3H2SH2SCHSH2CHSFeHCH3CHC3HC4H3CHCH2C2HCH3C4HC6H4C4H4FeHC6H4NC9H14NC4HFeHCH4C2H2CH2C2H3NHCHCH2NHSHC2H2CHC2HC3HCH6CHCNCH3NC2HCSNH5CHC3HCH2C2HC3HCH4C4SH4CH2CHCHCH2CSHCH2C2FeSFeS2FeSHS2FeSFeS2FeSCFeSFeHS3HC5H3C2H2SH2C2SCH3C6H4C6H4C2SHCSHFeHC2HC2H9NHC7HCH5SHCH2C2SFeHCH5CH5C2H3N2CHSCH2CH3CNH3CH2CH9CHC2HCHFeCHC3HCNHSCHSNH5CHCHNHC2H2CH3C5H5CHC2HCHCH2CH2CHFeC4HCHCHC2H2CH2
_chemical_formula_sum              "Fe192 S384 C1440 H1728 N96"
_cell_length_a       55.8318
_cell_length_b       56.0713
_cell_length_c       42.0044
_cell_angle_alpha    90.1459
_cell_angle_beta     90.0571
_cell_angle_gamma    119.674

_space_group_name_H-M_alt    "P 1"
_space_group_IT_number       1

loop_
  _space_group_symop_operation_xyz
  'x, y, z'

loop_
  _atom_site_type_symbol
  _atom_site_label
  _atom_site_symmetry_multiplicity
  _atom_site_fract_x
  _atom_site_fract_y
  _atom_site_fract_z
  _atom_site_occupancy
  Fe  Fe1       1.0  0.37979  0.17027  0.04063  1.0000
  S   S1        1.0  0.40161  0.16241  0.08053  1.0000
  S   S2        1.0  0.36547  0.20160  0.03986  1.0000
  C   C1        1.0  0.35068  0.17102  0.47509  1.0000
  S   S3        1.0  0.40216  0.11461  0.03446  1.0000
  H   H1        1.0  0.23384  0.24170  0.26529  1.0000
  Fe  Fe2       1.0  0.37281  0.11779  0.06882  1.0000
  S   S4        1.0  0.35083  0.08860  0.10913  1.0000
  Fe  Fe3       1.0  0.42893  0.16022  0.04269  1.0000
  S   S5        1.0  0.47581  0.18492  0.04004  1.0000
  S   S6        1.0  0.34905  0.12593  0.03178  1.0000
  S   S7        1.0  0.40876  0.17114  0.00329  1.0000
  C   C2        1.0  0.15658  0.01574  0.45350  1.0000
  H   H2        1.0  0.30583  0.06299  0.06173  1.0000
  Fe  Fe4       1.0  0.11115  0.22972  0.15887  1.0000
  H   H3        1.0  0.22831  0.06662  0.08587  1.0000
  S   S8        1.0  0.07688  0.20472  0.12329  1.0000
  H   H4        1.0  0.24567  0.10187  0.00475  1.0000
  C   C3        1.0  0.30439  0.07581  0.46468  1.0000
  H   H5        1.0  0.25770  0.24163  0.31295  1.0000
  H   H6        1.0  0.23152  0.14238  0.06164  1.0000
  S   S9        1.0  0.12603  0.22099  0.27705  1.0000
  H   H7        1.0  0.28677  0.22012  0.26501  1.0000
  S   S10       1.0  0.13229  0.21101  0.18643  1.0000
  H   H8        1.0  0.04250  0.12968  0.26837  1.0000
  Fe  Fe5       1.0  0.22319  0.20297  0.43100  1.0000
  S   S11       1.0  0.25041  0.20848  0.38932  1.0000
  S   S12       1.0  0.21809  0.23805  0.44972  1.0000
  Fe  Fe6       1.0  0.19989  0.14062  0.43267  1.0000
  S   S13       1.0  0.22462  0.14148  0.39007  1.0000
  S   S14       1.0  0.17272  0.10410  0.46412  1.0000
  Fe  Fe7       1.0  0.25939  0.17825  0.41399  1.0000
  S   S15       1.0  0.30150  0.18168  0.41282  1.0000
  Fe  Fe8       1.0  0.21334  0.17172  0.36927  1.0000
  S   S16       1.0  0.20580  0.17564  0.31700  1.0000
  S   S17       1.0  0.23545  0.17594  0.45784  1.0000
  S   S18       1.0  0.18536  0.16757  0.40973  1.0000
  C   C4        1.0  0.02785  0.13707  0.17419  1.0000
  C   C5        1.0  0.50736  0.18735  0.12843  1.0000
  H   H9        1.0  0.27305  0.09160  0.11190  1.0000
  H   H10       1.0  0.26601  0.06724  0.44426  1.0000
  C   C6        1.0  0.38951  0.03729  0.44657  1.0000
  C   C7        1.0  0.27563  0.09416  0.48559  1.0000
  C   C8        1.0  0.47659  0.24494  0.48602  1.0000
  C   C9        1.0  0.32664  0.14425  0.10253  1.0000
  H   H11       1.0  0.33310  0.01333  0.41317  1.0000
  C   C10       1.0  0.05048  0.15138  0.26103  1.0000
  H   H12       1.0  0.30020  0.11412  0.15211  1.0000
  C   C11       1.0  0.17164  0.03540  0.43008  1.0000
  C   C12       1.0  0.17601  0.06234  0.43239  1.0000
  C   C13       1.0  0.16544  0.06987  0.45828  1.0000
  S   S19       1.0  0.10852  0.25329  0.20079  1.0000
  H   H13       1.0  0.04676  0.14856  0.16088  1.0000
  H   H14       1.0  0.49962  0.18132  0.15238  1.0000
  H   H15       1.0  0.18766  0.07727  0.41425  1.0000
  C   C14       1.0  0.31628  0.17868  0.44848  1.0000
  C   C15       1.0  0.33781  0.17263  0.44709  1.0000
  H   H16       1.0  0.45146  0.22174  0.06055  1.0000
  S   S20       1.0  0.22131  0.01935  0.12775  1.0000
  C   C16       1.0  0.26461  0.10342  0.10151  1.0000
  H   H17       1.0  0.08105  0.15192  0.19114  1.0000
  H   H18       1.0  0.34451  0.16913  0.42424  1.0000
  C   C17       1.0  0.14568  0.02316  0.47915  1.0000
  H   H19       1.0  0.40486  0.07807  0.46630  1.0000
  C   C18       1.0  0.26643  0.14625  0.08820  1.0000
  C   C19       1.0  0.14746  0.20748  0.28798  1.0000
  C   C20       1.0  0.14841  0.20038  0.31978  1.0000
  C   C21       1.0  0.16647  0.19092  0.32913  1.0000
  C   C22       1.0  0.18306  0.18770  0.30651  1.0000
  C   C23       1.0  0.18176  0.19441  0.27467  1.0000
  C   C24       1.0  0.16443  0.20473  0.26552  1.0000
  H   H20       1.0  0.13542  0.20252  0.33734  1.0000
  H   H21       1.0  0.16720  0.18572  0.35371  1.0000
  H   H22       1.0  0.19426  0.19167  0.25697  1.0000
  H   H23       1.0  0.16415  0.21035  0.24101  1.0000
  C   C25       1.0  0.15006  0.05010  0.48146  1.0000
  C   C26       1.0  0.33828  0.02458  0.14003  1.0000
  H   H24       1.0  0.06934  0.18821  0.19276  1.0000
  H   H25       1.0  0.04827  0.18983  0.22398  1.0000
  H   H26       1.0  0.45513  0.22945  0.48835  1.0000
  H   H27       1.0  0.40111  0.04471  0.42473  1.0000
  C   C27       1.0  0.48871  0.18245  0.10332  1.0000
  H   H28       1.0  0.11417  0.21461  0.44942  1.0000
  H   H29       1.0  0.30790  0.06375  0.44711  1.0000
  H   H30       1.0  0.22912  0.10904  0.45118  1.0000
  C   C28       1.0  0.24736  0.10596  0.45238  1.0000
  C   C29       1.0  0.02855  0.19658  0.15214  1.0000
  C   C30       1.0  0.04096  0.19269  0.12521  1.0000
  C   C31       1.0  0.02430  0.17790  0.09919  1.0000
  H   H31       1.0  0.25231  0.21070  0.27684  1.0000
  C   C32       1.0  0.18047  0.02265  0.99683  1.0000
  H   H32       1.0  0.04112  0.20829  0.17209  1.0000
  H   H33       1.0  0.03373  0.17489  0.07820  1.0000
  H   H34       1.0  0.46682  0.17268  0.10800  1.0000
  C   C33       1.0  0.25708  0.03570  0.12040  1.0000
  C   C34       1.0  0.27471  0.04610  0.14668  1.0000
  C   C35       1.0  0.30323  0.06193  0.14254  1.0000
  C   C36       1.0  0.31460  0.06850  0.11203  1.0000
  C   C37       1.0  0.29711  0.05820  0.08538  1.0000
  H   H35       1.0  0.23843  0.05801  0.02380  1.0000
  H   H36       1.0  0.06715  0.12480  0.22002  1.0000
  H   H37       1.0  0.31656  0.06947  0.16321  1.0000
  H   H38       1.0  0.24473  0.09170  0.43259  1.0000
  C   C38       1.0  0.37244  0.22343  0.07301  1.0000
  C   C39       1.0  0.38427  0.22001  0.10072  1.0000
  C   C40       1.0  0.38854  0.23692  0.12728  1.0000
  H   H39       1.0  0.27328  0.15059  0.00892  1.0000
  C   C41       1.0  0.26078  0.09610  0.99812  1.0000
  C   C42       1.0  0.36526  0.24411  0.07188  1.0000
  H   H40       1.0  0.39006  0.20432  0.10185  1.0000
  H   H41       1.0  0.27587  0.16834  0.08796  1.0000
  C   C43       1.0  0.37270  0.24874  0.45894  1.0000
  H   H42       1.0  0.17837  0.01794  0.02195  1.0000
  N   N1        1.0  0.27375  0.24868  0.25007  1.0000
  H   H43       1.0  0.33151  0.02530  0.08991  1.0000
  H   H44       1.0  0.36325  0.24178  0.43489  1.0000
  C   C44       1.0  0.22718  0.10296  0.07197  1.0000
  H   H45       1.0  0.30027  0.18061  0.13790  1.0000
  H   H46       1.0  0.26590  0.12610  0.44705  1.0000
  C   C45       1.0  0.23907  0.08893  0.08623  1.0000
  H   H47       1.0  0.17997  0.02975  0.41005  1.0000
  C   C46       1.0  0.31559  0.17699  0.12501  1.0000
  H   H48       1.0  0.03660  0.15872  0.27034  1.0000
  C   C47       1.0  0.24092  0.13156  0.07273  1.0000
  C   C48       1.0  0.30768  0.18315  0.47804  1.0000
  H   H49       1.0  0.29139  0.18825  0.47928  1.0000
  H   H50       1.0  0.33511  0.18730  0.13903  1.0000
  C   C49       1.0  0.37256  0.00885  0.45107  1.0000
  H   H51       1.0  0.32047  0.18796  0.10180  1.0000
  H   H52       1.0  0.22319  0.05355  0.46839  1.0000
  C   C50       1.0  0.07480  0.14708  0.21646  1.0000
  H   H53       1.0  0.28563  0.13446  0.16637  1.0000
  C   C51       1.0  0.27882  0.13248  0.10366  1.0000
  C   C52       1.0  0.45407  0.24120  0.06902  1.0000
  C   C53       1.0  0.30321  0.13527  0.15295  1.0000
  H   H54       1.0  0.27113  0.04188  0.01040  1.0000
  Fe  Fe9       1.0  0.13309  0.23740  0.22690  1.0000
  C   C54       1.0  0.02768  0.13757  0.20800  1.0000
  H   H55       1.0  0.36718  0.16625  0.47376  1.0000
  C   C55       1.0  0.25622  0.07063  0.00908  1.0000
  H   H56       1.0  0.25875  0.20627  0.23673  1.0000
  C   C56       1.0  0.26830  0.04137  0.08959  1.0000
  H   H57       1.0  0.34714  0.15485  0.11454  1.0000
  N   N2        1.0  0.30554  0.14718  0.12075  1.0000
  C   C57       1.0  0.49844  0.19010  0.07228  1.0000
  H   H58       1.0  0.32230  0.14739  0.16733  1.0000
  C   C58       1.0  0.26775  0.22034  0.25750  1.0000
  H   H59       1.0  0.26623  0.04205  0.17049  1.0000
  C   C59       1.0  0.24945  0.00537  0.48515  1.0000
  H   H60       1.0  0.19497  0.06578  0.00411  1.0000
  C   C60       1.0  0.27446  0.06137  0.00131  1.0000
  H   H61       1.0  0.09416  0.15875  0.23062  1.0000
  C   C61       1.0  0.06396  0.18370  0.21836  1.0000
  H   H62       1.0  0.32923  0.15318  0.07831  1.0000
  H   H63       1.0  0.33910  0.01980  0.19057  1.0000
  H   H64       1.0  0.23536  0.23358  0.22434  1.0000
  C   C62       1.0  0.49687  0.23725  0.48527  1.0000
  H   H65       1.0  0.25471  0.03371  0.06920  1.0000
  H   H66       1.0  0.39754  0.23405  0.14874  1.0000
  H   H67       1.0  0.40003  0.22062  0.45984  1.0000
  H   H68       1.0  0.36265  0.23049  0.47460  1.0000
  H   H69       1.0  0.43224  0.24778  0.44541  1.0000
  C   C63       1.0  0.39165  0.05628  0.47009  1.0000
  H   H70       1.0  0.42620  0.24223  0.03459  1.0000
  H   H71       1.0  0.32115  0.12239  0.09960  1.0000
  C   C64       1.0  0.28061  0.07817  0.46312  1.0000
  N   N3        1.0  0.05362  0.15444  0.22589  1.0000
  H   H72       1.0  0.20722  0.09160  0.06042  1.0000
  C   C65       1.0  0.31629  0.01507  0.42540  1.0000
  H   H73       1.0  0.31425  0.03156  0.41326  1.0000
  H   H74       1.0  0.08284  0.19736  0.23223  1.0000
  H   H75       1.0  0.07060  0.16393  0.27357  1.0000
  Fe  Fe10      1.0  0.38007  0.12586  0.99799  1.0000
  C   C66       1.0  0.44000  0.25288  0.05432  1.0000
  Fe  Fe11      1.0  0.17206  0.24803  0.17265  1.0000
  C   C67       1.0  0.32368  0.08893  0.48882  1.0000
  C   C68       1.0  0.40959  0.23982  0.44570  1.0000
  H   H76       1.0  0.35841  0.04293  0.13934  1.0000
  H   H77       1.0  0.40180  0.23351  0.42094  1.0000
  C   C69       1.0  0.24733  0.24813  0.24394  1.0000
  S   S21       1.0  0.20903  0.24289  0.16443  1.0000
  C   C70       1.0  0.32305  0.01454  0.11210  1.0000
  N   N4        1.0  0.24982  0.09552  0.48397  1.0000
  H   H78       1.0  0.35606  0.24685  0.05051  1.0000
  H   H79       1.0  0.28935  0.00935  0.48398  1.0000
  H   H80       1.0  0.27914  0.24216  0.20045  1.0000
  H   H81       1.0  0.07633  0.21385  0.47947  1.0000
  H   H82       1.0  0.26338  0.25299  0.15144  1.0000
  H   H83       1.0  0.32406  0.02205  0.44997  1.0000
  H   H84       1.0  0.32282  0.16007  0.00303  1.0000
  H   H85       1.0  0.48204  0.24502  0.10614  1.0000
  C   C71       1.0  0.11540  0.21617  0.47517  1.0000
  S   S22       1.0  0.48791  0.20248  0.48807  1.0000
  H   H86       1.0  0.15544  0.21925  0.47710  1.0000
  C   C72       1.0  0.32725  0.01160  0.16887  1.0000
  C   C73       1.0  0.22602  0.06755  0.48861  1.0000
  H   H87       1.0  0.35581  0.07918  0.88914  1.0000
  H   H88       1.0  0.22850  0.11461  0.50605  1.0000
  Fe  Fe12      1.0  0.22185  0.07411  0.82852  1.0000
  S   S23       1.0  0.24907  0.09101  0.87127  1.0000
  S   S24       1.0  0.21249  0.03404  0.80606  1.0000
  Fe  Fe13      1.0  0.20883  0.12068  0.82580  1.0000
  S   S25       1.0  0.23446  0.14138  0.86924  1.0000
  S   S26       1.0  0.19215  0.13813  0.78876  1.0000
  Fe  Fe14      1.0  0.26568  0.13206  0.84786  1.0000
  S   S27       1.0  0.31073  0.16361  0.85322  1.0000
  Fe  Fe15      1.0  0.21594  0.09876  0.88971  1.0000
  S   S28       1.0  0.20640  0.09063  0.94210  1.0000
  S   S29       1.0  0.24162  0.11420  0.80301  1.0000
  S   S30       1.0  0.18713  0.07879  0.84836  1.0000
  Fe  Fe16      1.0  0.43389  0.16248  0.58369  1.0000
  S   S31       1.0  0.44906  0.17839  0.63369  1.0000
  Fe  Fe17      1.0  0.07839  0.20736  0.70578  1.0000
  S   S32       1.0  0.05388  0.18383  0.74806  1.0000
  S   S33       1.0  0.06557  0.18913  0.65671  1.0000
  H   H89       1.0  0.37772  0.05909  0.75536  1.0000
  C   C74       1.0  0.38073  0.14995  0.85395  1.0000
  Fe  Fe18      1.0  0.09446  0.20060  0.77355  1.0000
  S   S34       1.0  0.10369  0.17662  0.81035  1.0000
  Fe  Fe19      1.0  0.05540  0.22331  0.76115  1.0000
  C   C75       1.0  0.29582  0.10746  0.50981  1.0000
  S   S35       1.0  0.11915  0.22050  0.72972  1.0000
  H   H90       1.0  0.19065  0.21895  0.81321  1.0000
  C   C76       1.0  0.48212  0.18526  0.64609  1.0000
  S   S36       1.0  0.38950  0.13319  0.57230  1.0000
  H   H91       1.0  0.23982  0.03166  0.94012  1.0000
  C   C77       1.0  0.07605  0.21968  0.57931  1.0000
  C   C78       1.0  0.38927  0.18729  0.62517  1.0000
  H   H92       1.0  0.42366  0.15111  0.93476  1.0000
  S   S37       1.0  0.43550  0.19469  0.55110  1.0000
  H   H93       1.0  0.50845  0.22680  0.58539  1.0000
  H   H94       1.0  0.48470  0.20480  0.86852  1.0000
  H   H95       1.0  0.47976  0.20343  0.69042  1.0000
  H   H96       1.0  0.46250  0.21413  0.78314  1.0000
  C   C79       1.0  0.27565  0.01455  0.93095  1.0000
  H   H97       1.0  0.41050  0.24027  0.56424  1.0000
  C   C80       1.0  0.32595  0.18415  0.81949  1.0000
  C   C81       1.0  0.35251  0.20705  0.82161  1.0000
  C   C82       1.0  0.36487  0.22350  0.79473  1.0000
  C   C83       1.0  0.38660  0.17053  0.83179  1.0000
  C   C84       1.0  0.32410  0.19430  0.76373  1.0000
  C   C85       1.0  0.31181  0.17792  0.79050  1.0000
  H   H98       1.0  0.36359  0.21194  0.84398  1.0000
  Fe  Fe20      1.0  0.44851  0.17461  0.51428  1.0000
  H   H99       1.0  0.29142  0.16047  0.78855  1.0000
  C   C86       1.0  0.16821  0.14948  0.79581  1.0000
  C   C87       1.0  0.16192  0.16216  0.77090  1.0000
  C   C88       1.0  0.14230  0.17071  0.77506  1.0000
  C   C89       1.0  0.12870  0.16649  0.80418  1.0000
  C   C90       1.0  0.13524  0.15411  0.82922  1.0000
  C   C91       1.0  0.15500  0.14570  0.82512  1.0000
  H   H100      1.0  0.17201  0.16510  0.74811  1.0000
  H   H101      1.0  0.13733  0.18006  0.75555  1.0000
  H   H102      1.0  0.12479  0.15078  0.85183  1.0000
  H   H103      1.0  0.15965  0.13591  0.84445  1.0000
  H   H104      1.0  0.40972  0.13235  0.81168  1.0000
  H   H105      1.0  0.26738  0.05873  0.91928  1.0000
  H   H106      1.0  0.49083  0.16836  0.60447  1.0000
  C   C92       1.0  0.19321  0.05624  0.95415  1.0000
  C   C93       1.0  0.18612  0.03529  0.93175  1.0000
  H   H107      1.0  0.43735  0.20027  0.93235  1.0000
  H   H108      1.0  0.24214  0.19082  0.80343  1.0000
  H   H109      1.0  0.41704  0.20998  0.81421  1.0000
  H   H110      1.0  0.18808  0.03997  0.90660  1.0000
  C   C94       1.0  0.24245  0.03247  0.79758  1.0000
  H   H111      1.0  0.37213  0.17517  0.60828  1.0000
  C   C95       1.0  0.18693  0.22974  0.83324  1.0000
  C   C96       1.0  0.29031  0.02927  0.78564  1.0000
  C   C97       1.0  0.29198  0.05483  0.79000  1.0000
  C   C98       1.0  0.26814  0.05644  0.79638  1.0000
  C   C99       1.0  0.35941  0.21648  0.60578  1.0000
  H   H112      1.0  0.31180  0.07341  0.78875  1.0000
  H   H113      1.0  0.26964  0.07623  0.80009  1.0000
  C   C100      1.0  0.35847  0.07454  0.93977  1.0000
  H   H114      1.0  0.50953  0.16230  0.73245  1.0000
  C   C101      1.0  0.34700  0.02874  0.95689  1.0000
  H   H115      1.0  0.32418  0.18272  0.97210  1.0000
  C   C102      1.0  0.34550  0.03775  0.90084  1.0000
  C   C103      1.0  0.35340  0.06517  0.90814  1.0000
  C   C104      1.0  0.34235  0.01947  0.92521  1.0000
  H   H116      1.0  0.34190  0.03080  0.87634  1.0000
  H   H117      1.0  0.33458  0.11506  0.52990  1.0000
  C   C105      1.0  0.31937  0.10468  0.51131  1.0000
  H   H118      1.0  0.37150  0.08591  0.79776  1.0000
  H   H119      1.0  0.13400  0.00819  0.49726  1.0000
  H   H120      1.0  0.24868  0.23018  0.77072  1.0000
  H   H121      1.0  0.42550  0.23018  0.66063  1.0000
  H   H122      1.0  0.50006  0.11667  0.72657  1.0000
  C   C106      1.0  0.32078  0.18186  0.50604  1.0000
  C   C107      1.0  0.13741  0.02759  0.69300  1.0000
  H   H123      1.0  0.45842  0.15834  0.93592  1.0000
  C   C108      1.0  0.26465  0.00529  0.78715  1.0000
  C   C109      1.0  0.26141  0.21011  0.80463  1.0000
  H   H124      1.0  0.20305  0.08112  0.71201  1.0000
  C   C110      1.0  0.44205  0.11657  0.75243  1.0000
  H   H125      1.0  0.31433  0.18575  0.52882  1.0000
  C   C111      1.0  0.27845  0.03165  0.87798  1.0000
  H   H126      1.0  0.13287  0.04177  0.77283  1.0000
  H   H127      1.0  0.17768  0.02090  0.74971  1.0000
  H   H128      1.0  0.31295  0.18931  0.74139  1.0000
  S   S38       1.0  0.09366  0.23823  0.79102  1.0000
  H   H129      1.0  0.39501  0.13554  0.89178  1.0000
  C   C112      1.0  0.39458  0.07938  0.76132  1.0000
  H   H130      1.0  0.40785  0.20084  0.61087  1.0000
  C   C113      1.0  0.49209  0.19770  0.67584  1.0000
  C   C114      1.0  0.26516  0.23233  0.78624  1.0000
  C   C115      1.0  0.37891  0.22443  0.63096  1.0000
  H   H131      1.0  0.49509  0.15473  0.77144  1.0000
  C   C116      1.0  0.40556  0.21541  0.67188  1.0000
  C   C117      1.0  0.01461  0.18412  0.66827  1.0000
  H   H132      1.0  0.38549  0.24085  0.79635  1.0000
  H   H133      1.0  0.27980  0.19511  0.83820  1.0000
  C   C118      1.0  0.30777  0.23716  0.82551  1.0000
  H   H134      1.0  0.29449  0.03423  0.93702  1.0000
  H   H135      1.0  0.20513  0.06764  0.75005  1.0000
  C   C119      1.0  0.47492  0.18482  0.88124  1.0000
  C   C120      1.0  0.28262  0.21258  0.82428  1.0000
  H   H136      1.0  0.45348  0.15191  0.78428  1.0000
  S   S39       1.0  0.44903  0.14343  0.54766  1.0000
  C   C121      1.0  0.50416  0.23604  0.80102  1.0000
  H   H137      1.0  0.07778  0.20202  0.58867  1.0000
  H   H138      1.0  0.06397  0.24062  0.50853  1.0000
  C   C122      1.0  0.47965  0.23399  0.78945  1.0000
  H   H139      1.0  0.46682  0.24514  0.59258  1.0000
  C   C123      1.0  0.47966  0.10852  0.73851  1.0000
  H   H140      1.0  0.16540  0.04499  0.78407  1.0000
  H   H141      1.0  0.22839  0.05802  0.51072  1.0000
  C   C124      1.0  0.19001  0.04978  0.98668  1.0000
  H   H142      1.0  0.44955  0.10928  0.68936  1.0000
  C   C125      1.0  0.41256  0.12058  0.79308  1.0000
  H   H143      1.0  0.46605  0.08796  0.72791  1.0000
  H   H144      1.0  0.48297  0.13876  0.68655  1.0000
  C   C126      1.0  0.09384  0.21569  0.49265  1.0000
  H   H145      1.0  0.29414  0.12035  0.52778  1.0000
  H   H146      1.0  0.02823  0.19124  0.55119  1.0000
  H   H147      1.0  0.35938  0.16927  0.67943  1.0000
  H   H148      1.0  0.45276  0.21514  0.85168  1.0000
  H   H149      1.0  0.49474  0.23518  0.55205  1.0000
  H   H150      1.0  0.33949  0.17316  0.64853  1.0000
  C   C127      1.0  0.41265  0.19380  0.83125  1.0000
  H   H151      1.0  0.16133  0.09815  0.73830  1.0000
  N   N5        1.0  0.44956  0.17946  0.89855  1.0000
  C   C128      1.0  0.45611  0.20324  0.91956  1.0000
  C   C129      1.0  0.35519  0.05625  0.96417  1.0000
  S   S40       1.0  0.40520  0.14652  0.49619  1.0000
  C   C130      1.0  0.40099  0.15233  0.87542  1.0000
  N   N6        1.0  0.46835  0.12738  0.73480  1.0000
  H   H152      1.0  0.48257  0.10550  0.76413  1.0000
  H   H153      1.0  0.37078  0.16849  0.81521  1.0000
  C   C131      1.0  0.39104  0.09452  0.78530  1.0000
  H   H154      1.0  0.42120  0.07761  0.72651  1.0000
  H   H155      1.0  0.14179  0.05577  0.50155  1.0000
  H   H156      1.0  0.48351  0.17067  0.74253  1.0000
  H   H157      1.0  0.36025  0.13208  0.85464  1.0000
  H   H158      1.0  0.45380  0.14262  0.69676  1.0000
  H   H159      1.0  0.05230  0.24258  0.54722  1.0000
  C   C132      1.0  0.29704  0.07727  0.98199  1.0000
  H   H160      1.0  0.27801  0.17146  0.97464  1.0000
  S   S41       1.0  0.32045  0.02766  0.77836  1.0000
  C   C133      1.0  0.25006  0.03733  0.91651  1.0000
  H   H161      1.0  0.03943  0.19070  0.51191  1.0000
  H   H162      1.0  0.03204  0.16041  0.60277  1.0000
  N   N7        1.0  0.38283  0.20353  0.64809  1.0000
  C   C134      1.0  0.16409  0.01652  0.72948  1.0000
  H   H163      1.0  0.32340  0.23731  0.84080  1.0000
  C   C135      1.0  0.30149  0.10249  0.97041  1.0000
  C   C136      1.0  0.35706  0.18472  0.66513  1.0000
  C   C137      1.0  0.01187  0.24835  0.77576  1.0000
  S   S42       1.0  0.35903  0.17551  0.53993  1.0000
  C   C138      1.0  0.03097  0.17875  0.64746  1.0000
  N   N8        1.0  0.16467  0.06130  0.73757  1.0000
  C   C139      1.0  0.15384  0.07872  0.72443  1.0000
  C   C140      1.0  0.15561  0.05530  0.77121  1.0000
  H   H164      1.0  0.23505  0.03775  0.89935  1.0000
  C   C141      1.0  0.15527  0.03523  0.71990  1.0000
  H   H165      1.0  0.26603  0.12616  0.92592  1.0000
  N   N9        1.0  0.07201  0.21782  0.54423  1.0000
  C   C142      1.0  0.27218  0.15030  0.98246  1.0000
  S   S43       1.0  0.50733  0.20666  0.80545  1.0000
  H   H166      1.0  0.16072  0.08493  0.69946  1.0000
  H   H167      1.0  0.13092  0.06812  0.72544  1.0000
  H   H168      1.0  0.43611  0.13643  0.90512  1.0000
  H   H169      1.0  0.35102  0.19633  0.68180  1.0000
  H   H170      1.0  0.16111  0.07447  0.78479  1.0000
  H   H171      1.0  0.16711  0.21435  0.84438  1.0000
  H   H172      1.0  0.40105  0.22599  0.69151  1.0000
  H   H173      1.0  0.20290  0.09824  0.74820  1.0000
  H   H174      1.0  0.31917  0.11393  0.95525  1.0000
  H   H175      1.0  0.31161  0.07042  0.97643  1.0000
  H   H176      1.0  0.26724  0.03411  0.85748  1.0000
  H   H177      1.0  0.46449  0.22278  0.90605  1.0000
  H   H178      1.0  0.25033  0.13708  0.97487  1.0000
  H   H179      1.0  0.47043  0.16859  0.86312  1.0000
  H   H180      1.0  0.49106  0.18570  0.89758  1.0000
  S   S44       1.0  0.37837  0.06990  0.52883  1.0000
  C   C143      1.0  0.28403  0.11314  0.97898  1.0000
  H   H181      1.0  0.34458  0.01469  0.97584  1.0000
  H   H182      1.0  0.48429  0.23925  0.62458  1.0000
  N   N10       1.0  0.29046  0.14086  0.96830  1.0000
  C   C144      1.0  0.41961  0.09017  0.74502  1.0000
  C   C145      1.0  0.37685  0.04700  0.49848  1.0000
  C   C146      1.0  0.04573  0.19227  0.53730  1.0000
  C   C147      1.0  0.28757  0.14081  0.93326  1.0000
  C   C148      1.0  0.42783  0.17581  0.87555  1.0000
  Fe  Fe21      1.0  0.39245  0.16406  0.53671  1.0000
  H   H183      1.0  0.24806  0.10631  0.53299  1.0000
  C   C149      1.0  0.19522  0.07770  0.73688  1.0000
  S   S45       1.0  0.36785  0.10895  0.94796  1.0000
  Fe  Fe22      1.0  0.40449  0.11669  0.53263  1.0000
  H   H184      1.0  0.12955  0.04037  0.68386  1.0000
  S   S46       1.0  0.36518  0.23681  0.73146  1.0000
  H   H185      1.0  0.29555  0.05253  0.88421  1.0000
  H   H186      1.0  0.20865  0.24841  0.76712  1.0000
  H   H187      1.0  0.02318  0.19475  0.69049  1.0000
  C   C150      1.0  0.35058  0.21710  0.76576  1.0000
  C   C151      1.0  0.43775  0.13159  0.77700  1.0000
  H   H188      1.0  0.39342  0.17210  0.63744  1.0000
  H   H189      1.0  0.40873  0.19930  0.68340  1.0000
  C   C152      1.0  0.34233  0.17586  0.50459  1.0000
  H   H190      1.0  0.33482  0.15832  0.96395  1.0000
  S   S47       1.0  0.01366  0.21808  0.77224  1.0000
  C   C153      1.0  0.31924  0.16128  0.97717  1.0000
  H   H191      1.0  0.04730  0.17374  0.54314  1.0000
  C   C154      1.0  0.43298  0.19653  0.85282  1.0000
  H   H192      1.0  0.29267  0.16141  0.92405  1.0000
  H   H193      1.0  0.34706  0.19522  0.59876  1.0000
  C   C155      1.0  0.16335  0.24548  0.79845  1.0000
  H   H194      1.0  0.30137  0.13489  0.92063  1.0000
  H   H195      1.0  0.28872  0.01999  0.86995  1.0000
  H   H196      1.0  0.05838  0.21933  0.59206  1.0000
  C   C156      1.0  0.44150  0.15523  0.91933  1.0000
  C   C157      1.0  0.35980  0.01855  0.50294  1.0000
  C   C158      1.0  0.46343  0.12954  0.70047  1.0000
  C   C159      1.0  0.17591  0.00807  0.94187  1.0000
  C   C160      1.0  0.01971  0.16516  0.61862  1.0000
  C   C161      1.0  0.48992  0.15493  0.74587  1.0000
  C   C162      1.0  0.35538  0.23575  0.58909  1.0000
  H   H197      1.0  0.47182  0.20623  0.93791  1.0000
  C   C163      1.0  0.49827  0.17796  0.62747  1.0000
  N   N11       1.0  0.25958  0.01825  0.90528  1.0000
  C   C164      1.0  0.40689  0.24894  0.51515  1.0000
  H   H198      1.0  0.34838  0.01115  0.52489  1.0000
  H   H199      1.0  0.34065  0.22914  0.56964  1.0000
  H   H200      1.0  0.20368  0.23535  0.85103  1.0000
  C   C165      1.0  0.24798  0.11371  0.50847  1.0000
  H   H201      1.0  0.15722  0.25054  0.85950  1.0000
  H   H202      1.0  0.26514  0.13518  0.50607  1.0000
  C   C166      1.0  0.11883  0.22016  0.54154  1.0000
  H   H203      1.0  0.12157  0.22175  0.56706  1.0000
  C   C167      1.0  0.09488  0.21775  0.52640  1.0000
  H   H204      1.0  0.25224  0.01358  0.50911  1.0000
  H   H205      1.0  0.14267  0.23286  0.80929  1.0000
  H   H206      1.0  0.39337  0.22745  0.51016  1.0000
  S   S48       1.0  0.07794  0.24609  0.71741  1.0000
  C   C168      1.0  0.06921  0.24166  0.53420  1.0000
  H   H207      1.0  0.09474  0.23907  0.58655  1.0000
  C   C169      1.0  0.24070  0.00693  0.79268  1.0000
  C   C170      1.0  0.14029  0.22067  0.52378  1.0000
  H   H208      1.0  0.16462  0.23247  0.77930  1.0000
  H   H209      1.0  0.15845  0.22264  0.53567  1.0000
  H   H210      1.0  0.26342  0.00649  0.95313  1.0000
  N   N12       1.0  0.18574  0.25427  0.82240  1.0000
  C   C171      1.0  0.39347  0.25282  0.63903  1.0000
  C   C172      1.0  0.13863  0.21873  0.49070  1.0000
  H   H211      1.0  0.20637  0.06790  0.49080  1.0000
  H   H212      1.0  0.34207  0.08698  0.49017  1.0000
  H   H213      1.0  0.35900  0.06328  0.98863  1.0000
  Fe  Fe23      1.0  0.16962  0.47947  0.07438  1.0000
  S   S49       1.0  0.17399  0.45780  0.03203  1.0000
  Fe  Fe24      1.0  0.10727  0.44125  0.07816  1.0000
  S   S50       1.0  0.10686  0.41684  0.03549  1.0000
  S   S51       1.0  0.07170  0.43014  0.11228  1.0000
  Fe  Fe25      1.0  0.14464  0.41920  0.05726  1.0000
  S   S52       1.0  0.14900  0.38153  0.05411  1.0000
  H   H214      1.0  0.49868  0.42667  0.05738  1.0000
  C   C173      1.0  0.46315  0.31945  0.13794  1.0000
  S   S53       1.0  0.14334  0.44073  0.10155  1.0000
  Fe  Fe26      1.0  0.38522  0.31731  0.15733  1.0000
  S   S54       1.0  0.38347  0.33807  0.11250  1.0000
  H   H215      1.0  0.43293  0.49728  0.03686  1.0000
  Fe  Fe27      1.0  0.39070  0.36403  0.19980  1.0000
  S   S55       1.0  0.39090  0.38911  0.15827  1.0000
  S   S56       1.0  0.39010  0.37531  0.25132  1.0000
  Fe  Fe28      1.0  0.35610  0.34919  0.14056  1.0000
  S   S57       1.0  0.31818  0.35052  0.12526  1.0000
  Fe  Fe29      1.0  0.41861  0.37597  0.13436  1.0000
  S   S58       1.0  0.45287  0.40369  0.10059  1.0000
  S   S59       1.0  0.35444  0.32478  0.18341  1.0000
  S   S60       1.0  0.42194  0.35458  0.17779  1.0000
  Fe  Fe30      1.0  0.30949  0.42772  0.34752  1.0000
  S   S61       1.0  0.33767  0.43210  0.38810  1.0000
  S   S62       1.0  0.32078  0.43171  0.29513  1.0000
  Fe  Fe31      1.0  0.25915  0.40748  0.39101  1.0000
  S   S63       1.0  0.28328  0.40878  0.43434  1.0000
  S   S64       1.0  0.21326  0.39227  0.38920  1.0000
  Fe  Fe32      1.0  0.31560  0.45009  0.41555  1.0000
  H   H216      1.0  0.21693  0.47041  0.08627  1.0000
  Fe  Fe33      1.0  0.30290  0.39087  0.40291  1.0000
  S   S65       1.0  0.31280  0.35687  0.41125  1.0000
  S   S66       1.0  0.29018  0.44936  0.37343  1.0000
  S   S67       1.0  0.27595  0.38594  0.36119  1.0000
  S   S68       1.0  0.16074  0.33150  0.18457  1.0000
  S   S69       1.0  0.09178  0.39757  0.47503  1.0000
  H   H217      1.0  0.18513  0.43955  0.42406  1.0000
  H   H218      1.0  0.31264  0.39474  0.15076  1.0000
  H   H219      1.0  0.22960  0.31798  0.37969  1.0000
  N   N13       1.0  0.23861  0.37985  0.23691  1.0000
  H   H220      1.0  0.39346  0.44922  0.19946  1.0000
  H   H221      1.0  0.30491  0.46900  0.20541  1.0000
  H   H222      1.0  0.34562  0.32851  0.29703  1.0000
  H   H223      1.0  0.40863  0.29968  0.44193  1.0000
  H   H224      1.0  0.43420  0.44291  0.11893  1.0000
  H   H225      1.0  0.14442  0.44217  0.41581  1.0000
  H   H226      1.0  0.02550  0.33627  0.11816  1.0000
  C   C174      1.0  0.27585  0.42796  0.22075  1.0000
  H   H227      1.0  0.08598  0.36811  0.17368  1.0000
  H   H228      1.0  0.28441  0.44096  0.00128  1.0000
  C   C175      1.0  0.43965  0.45901  0.05976  1.0000
  C   C176      1.0  0.31320  0.29255  0.27387  1.0000
  C   C177      1.0  0.28811  0.26725  0.27729  1.0000
  C   C178      1.0  0.24912  0.44690  0.00021  1.0000
  C   C179      1.0  0.01691  0.40349  0.12791  1.0000
  H   H229      1.0  0.22310  0.49923  0.48373  1.0000
  H   H230      1.0  0.14180  0.32880  0.06994  1.0000
  H   H231      1.0  0.21788  0.34948  0.19976  1.0000
  C   C180      1.0  0.19758  0.39398  0.42495  1.0000
  H   H232      1.0  0.44568  0.47499  0.13838  1.0000
  C   C181      1.0  0.32646  0.30929  0.30022  1.0000
  H   H233      1.0  0.23513  0.41290  0.45231  1.0000
  H   H234      1.0  0.16523  0.47347  0.39494  1.0000
  C   C182      1.0  0.16907  0.38435  0.42564  1.0000
  C   C183      1.0  0.21208  0.30662  0.36299  1.0000
  C   C184      1.0  0.20035  0.40640  0.48083  1.0000
  H   H235      1.0  0.03546  0.30548  0.09403  1.0000
  H   H236      1.0  0.15687  0.37562  0.40434  1.0000
  C   C185      1.0  0.28639  0.32425  0.42290  1.0000
  C   C186      1.0  0.26079  0.32004  0.43324  1.0000
  C   C187      1.0  0.24005  0.29358  0.44201  1.0000
  H   H237      1.0  0.25652  0.46166  0.01960  1.0000
  C   C188      1.0  0.46063  0.29201  0.09147  1.0000
  S   S70       1.0  0.38597  0.27747  0.16053  1.0000
  H   H238      1.0  0.25709  0.33723  0.43483  1.0000
  H   H239      1.0  0.46838  0.27857  0.48274  1.0000
  C   C189      1.0  0.28787  0.32078  0.13661  1.0000
  C   C190      1.0  0.28793  0.29610  0.14098  1.0000
  C   C191      1.0  0.02690  0.39823  0.07316  1.0000
  H   H240      1.0  0.21252  0.46297  0.44883  1.0000
  C   C192      1.0  0.23909  0.29787  0.15000  1.0000
  C   C193      1.0  0.26343  0.32166  0.14107  1.0000
  H   H241      1.0  0.48103  0.46269  0.09262  1.0000
  H   H242      1.0  0.22021  0.29854  0.15327  1.0000
  H   H243      1.0  0.26324  0.34064  0.13748  1.0000
  C   C194      1.0  0.36987  0.39012  0.26281  1.0000
  C   C195      1.0  0.36703  0.39400  0.29528  1.0000
  C   C196      1.0  0.35175  0.40640  0.30531  1.0000
  C   C197      1.0  0.33942  0.41536  0.28293  1.0000
  C   C198      1.0  0.34196  0.41124  0.25036  1.0000
  C   C199      1.0  0.35691  0.39838  0.24034  1.0000
  H   H244      1.0  0.37692  0.38763  0.31283  1.0000
  H   H245      1.0  0.34991  0.40938  0.33043  1.0000
  H   H246      1.0  0.33250  0.41813  0.23289  1.0000
  H   H247      1.0  0.35877  0.39522  0.21529  1.0000
  C   C200      1.0  0.03622  0.40941  0.10345  1.0000
  H   H248      1.0  0.35354  0.48796  0.12389  1.0000
  H   H249      1.0  0.31101  0.30518  0.41361  1.0000
  C   C201      1.0  0.48715  0.41019  0.10478  1.0000
  H   H250      1.0  0.32218  0.40181  0.08142  1.0000
  C   C202      1.0  0.44297  0.27778  0.06537  1.0000
  H   H251      1.0  0.04157  0.40263  0.05418  1.0000
  H   H252      1.0  0.20911  0.32217  0.34979  1.0000
  H   H253      1.0  0.48247  0.39549  0.15291  1.0000
  H   H254      1.0  0.41780  0.45366  0.05615  1.0000
  C   C203      1.0  0.15301  0.36823  0.09040  1.0000
  C   C204      1.0  0.16095  0.38407  0.11826  1.0000
  C   C205      1.0  0.16346  0.37271  0.14703  1.0000
  C   C206      1.0  0.15817  0.34552  0.14803  1.0000
  C   C207      1.0  0.15044  0.32984  0.12010  1.0000
  C   C208      1.0  0.14794  0.34117  0.09139  1.0000
  H   H255      1.0  0.16541  0.40512  0.11764  1.0000
  H   H256      1.0  0.16939  0.38500  0.16853  1.0000
  H   H257      1.0  0.14600  0.30884  0.12052  1.0000
  S   S71       1.0  0.13364  0.48226  0.05443  1.0000
  H   H258      1.0  0.42386  0.31106  0.09495  1.0000
  N   N14       1.0  0.17961  0.47250  0.44241  1.0000
  H   H259      1.0  0.36380  0.27685  0.09747  1.0000
  H   H260      1.0  0.26948  0.32665  0.35817  1.0000
  H   H261      1.0  0.50979  0.33734  0.10450  1.0000
  C   C209      1.0  0.06768  0.27506  0.12971  1.0000
  H   H262      1.0  0.19163  0.25608  0.30783  1.0000
  H   H263      1.0  0.04212  0.36918  0.13649  1.0000
  H   H264      1.0  0.27716  0.46765  0.15887  1.0000
  C   C210      1.0  0.26477  0.43520  0.99012  1.0000
  H   H265      1.0  0.14248  0.47191  0.42674  1.0000
  C   C211      1.0  0.36973  0.26119  0.09839  1.0000
  C   C212      1.0  0.30582  0.40801  0.13879  1.0000
  H   H266      1.0  0.29830  0.41675  0.15751  1.0000
  H   H267      1.0  0.26091  0.40087  0.27957  1.0000
  C   C213      1.0  0.49351  0.34044  0.09319  1.0000
  N   N15       1.0  0.32799  0.43010  0.11955  1.0000
  C   C214      1.0  0.33884  0.41757  0.09675  1.0000
  H   H268      1.0  0.03533  0.33957  0.15947  1.0000
  C   C215      1.0  0.31506  0.44320  0.10080  1.0000
  C   C216      1.0  0.35071  0.44948  0.14058  1.0000
  C   C217      1.0  0.36151  0.47838  0.13969  1.0000
  H   H269      1.0  0.34849  0.40688  0.10905  1.0000
  N   N16       1.0  0.46540  0.31913  0.10270  1.0000
  H   H270      1.0  0.35474  0.43334  0.08094  1.0000
  C   C218      1.0  0.21318  0.40523  0.45258  1.0000
  H   H271      1.0  0.46400  0.33864  0.14668  1.0000
  H   H272      1.0  0.10078  0.29418  0.16356  1.0000
  H   H273      1.0  0.30642  0.45298  0.11671  1.0000
  H   H274      1.0  0.32993  0.45907  0.08419  1.0000
  H   H275      1.0  0.49090  0.49388  0.11334  1.0000
  H   H276      1.0  0.21524  0.39435  0.26318  1.0000
  H   H277      1.0  0.35658  0.41795  0.16391  1.0000
  C   C219      1.0  0.17191  0.39680  0.48157  1.0000
  C   C220      1.0  0.16663  0.45863  0.47273  1.0000
  C   C221      1.0  0.26351  0.27225  0.14923  1.0000
  H   H278      1.0  0.25084  0.26864  0.23662  1.0000
  C   C222      1.0  0.41435  0.28390  0.43533  1.0000
  H   H279      1.0  0.44873  0.34668  0.09932  1.0000
  C   C223      1.0  0.38468  0.45739  0.18250  1.0000
  H   H280      1.0  0.45139  0.46810  0.03744  1.0000
  C   C224      1.0  0.29114  0.30195  0.42130  1.0000
  H   H281      1.0  0.19634  0.37088  0.23159  1.0000
  H   H282      1.0  0.48013  0.31847  0.15046  1.0000
  H   H283      1.0  0.43726  0.29390  0.43379  1.0000
  H   H284      1.0  0.29772  0.42802  0.08576  1.0000
  H   H285      1.0  0.23271  0.42581  0.14718  1.0000
  H   H286      1.0  0.06016  0.34996  0.07632  1.0000
  H   H287      1.0  0.07714  0.38394  0.09187  1.0000
  H   H288      1.0  0.33529  0.45848  0.00961  1.0000
  N   N17       1.0  0.06924  0.35289  0.12685  1.0000
  C   C225      1.0  0.09000  0.37435  0.14826  1.0000
  C   C226      1.0  0.07589  0.36357  0.09389  1.0000
  C   C227      1.0  0.04184  0.34918  0.13558  1.0000
  C   C228      1.0  0.06869  0.32624  0.12865  1.0000
  C   C229      1.0  0.04974  0.30362  0.10978  1.0000
  C   C230      1.0  0.08686  0.32193  0.14844  1.0000
  H   H289      1.0  0.24174  0.28111  0.37414  1.0000
  H   H290      1.0  0.25969  0.31719  0.24090  1.0000
  C   C231      1.0  0.39455  0.48556  0.18128  1.0000
  H   H291      1.0  0.48934  0.28959  0.12492  1.0000
  H   H292      1.0  0.11131  0.37918  0.14206  1.0000
  H   H293      1.0  0.08982  0.39412  0.14628  1.0000
  C   C232      1.0  0.31518  0.30156  0.33055  1.0000
  S   S72       1.0  0.33202  0.48380  0.45357  1.0000
  H   H294      1.0  0.41487  0.46063  0.11470  1.0000
  C   C233      1.0  0.22257  0.26975  0.35985  1.0000
  H   H295      1.0  0.32544  0.31473  0.35088  1.0000
  H   H296      1.0  0.21279  0.44929  0.99466  1.0000
  H   H297      1.0  0.29328  0.27721  0.21134  1.0000
  C   C234      1.0  0.24473  0.27122  0.44007  1.0000
  H   H298      1.0  0.09611  0.36606  0.08620  1.0000
  C   C235      1.0  0.27035  0.27550  0.42971  1.0000
  H   H299      1.0  0.30659  0.29519  0.13695  1.0000
  C   C236      1.0  0.25014  0.40375  0.21517  1.0000
  C   C237      1.0  0.23911  0.27310  0.15383  1.0000
  C   C238      1.0  0.23512  0.40354  0.18774  1.0000
  C   C239      1.0  0.36329  0.43960  0.16230  1.0000
  S   S73       1.0  0.15137  0.26430  0.14053  1.0000
  H   H300      1.0  0.21536  0.38592  0.18200  1.0000
  H   H301      1.0  0.30826  0.35518  0.32423  1.0000
  H   H302      1.0  0.44329  0.30190  0.14622  1.0000
  C   C240      1.0  0.24489  0.42627  0.16759  1.0000
  C   C241      1.0  0.34640  0.47484  0.99275  1.0000
  Fe  Fe34      1.0  0.14976  0.28688  0.18394  1.0000
  H   H303      1.0  0.21962  0.28878  0.27356  1.0000
  C   C242      1.0  0.50564  0.42197  0.07931  1.0000
  C   C243      1.0  0.28546  0.45056  0.20040  1.0000
  H   H304      1.0  0.10225  0.33785  0.16340  1.0000
  C   C244      1.0  0.23332  0.35479  0.21911  1.0000
  Fe  Fe35      1.0  0.13628  0.45758  0.01362  1.0000
  H   H305      1.0  0.49402  0.49420  0.07078  1.0000
  C   C245      1.0  0.29045  0.27714  0.33466  1.0000
  H   H306      1.0  0.43097  0.28525  0.05319  1.0000
  H   H307      1.0  0.32319  0.29997  0.25118  1.0000
  C   C246      1.0  0.19741  0.46163  0.43064  1.0000
  H   H308      1.0  0.22478  0.33647  0.23483  1.0000
  H   H309      1.0  0.28879  0.43023  0.24097  1.0000
  C   C247      1.0  0.26991  0.44981  0.17406  1.0000
  H   H310      1.0  0.25257  0.35736  0.20804  1.0000
  H   H311      1.0  0.28787  0.39380  0.12380  1.0000
  C   C248      1.0  0.44550  0.32684  0.08933  1.0000
  C   C249      1.0  0.19028  0.27134  0.32356  1.0000
  H   H312      1.0  0.30413  0.35071  0.26564  1.0000
  N   N18       1.0  0.21657  0.28847  0.34088  1.0000
  C   C250      1.0  0.25700  0.38306  0.26417  1.0000
  S   S74       1.0  0.17389  0.27346  0.21461  1.0000
  H   H313      1.0  0.20307  0.35822  0.26735  1.0000
  C   C251      1.0  0.24018  0.30519  0.31962  1.0000
  C   C252      1.0  0.26620  0.32423  0.33270  1.0000
  C   C253      1.0  0.23840  0.30299  0.28578  1.0000
  C   C254      1.0  0.28871  0.34067  0.31336  1.0000
  H   H314      1.0  0.44776  0.32995  0.06313  1.0000
  C   C255      1.0  0.28635  0.33816  0.28040  1.0000
  H   H315      1.0  0.25923  0.46688  0.09416  1.0000
  H   H316      1.0  0.27725  0.38597  0.25602  1.0000
  H   H317      1.0  0.24790  0.36481  0.28004  1.0000
  C   C256      1.0  0.21222  0.37565  0.25029  1.0000
  C   C257      1.0  0.25968  0.48605  0.09904  1.0000
  H   H318      1.0  0.05476  0.31750  0.48808  1.0000
  C   C258      1.0  0.26130  0.31926  0.26662  1.0000
  C   C259      1.0  0.15704  0.46486  0.41887  1.0000
  N   N19       1.0  0.40308  0.26075  0.45827  1.0000
  C   C260      1.0  0.04935  0.27846  0.11032  1.0000
  C   C261      1.0  0.23574  0.48802  0.09456  1.0000
  C   C262      1.0  0.39850  0.49676  0.48502  1.0000
  C   C263      1.0  0.08621  0.29668  0.14886  1.0000
  C   C264      1.0  0.48404  0.27267  0.48271  1.0000
  H   H319      1.0  0.38685  0.47890  0.46993  1.0000
  C   C265      1.0  0.43606  0.46353  0.11606  1.0000
  H   H320      1.0  0.22031  0.29041  0.45019  1.0000
  H   H321      1.0  0.27433  0.25852  0.42871  1.0000
  H   H322      1.0  0.36681  0.26381  0.46800  1.0000
  C   C266      1.0  0.15628  0.38595  0.45383  1.0000
  H   H323      1.0  0.49779  0.36135  0.10008  1.0000
  C   C267      1.0  0.48075  0.48241  0.09120  1.0000
  H   H324      1.0  0.31043  0.25837  0.22320  1.0000
  H   H325      1.0  0.13429  0.37829  0.45423  1.0000
  H   H326      1.0  0.43948  0.43920  0.06318  1.0000
  S   S75       1.0  0.09901  0.47058  0.47016  1.0000
  H   H327      1.0  0.02399  0.41202  0.15144  1.0000
  H   H328      1.0  0.40613  0.27690  0.41083  1.0000
  H   H329      1.0  0.03521  0.26163  0.09520  1.0000
  H   H330      1.0  0.18420  0.28404  0.30897  1.0000
  C   C268      1.0  0.49638  0.40423  0.13299  1.0000
  H   H331      1.0  0.28179  0.27119  0.35834  1.0000
  H   H332      1.0  0.19367  0.29478  0.37837  1.0000
  C   C269      1.0  0.47508  0.27974  0.10552  1.0000
  N   N20       1.0  0.45232  0.47780  0.08737  1.0000
  H   H333      1.0  0.20913  0.47287  0.40912  1.0000
  H   H334      1.0  0.05060  0.27145  0.48880  1.0000
  C   C270      1.0  0.36147  0.50218  0.00355  1.0000
  C   C271      1.0  0.38121  0.25748  0.12624  1.0000
  H   H335      1.0  0.06785  0.25577  0.12958  1.0000
  C   C272      1.0  0.27692  0.26031  0.30848  1.0000
  C   C273      1.0  0.47143  0.25450  0.09469  1.0000
  H   H336      1.0  0.49625  0.34053  0.06693  1.0000
  H   H337      1.0  0.17287  0.25919  0.34015  1.0000
  C   C274      1.0  0.38313  0.49604  0.15977  1.0000
  H   H338      1.0  0.15280  0.43619  0.46927  1.0000
  H   H339      1.0  0.43858  0.31369  0.48365  1.0000
  H   H340      1.0  0.15401  0.46711  0.48300  1.0000
  H   H341      1.0  0.41095  0.49931  0.19718  1.0000
  C   C275      1.0  0.28998  0.25706  0.22009  1.0000
  H   H342      1.0  0.22509  0.25503  0.34433  1.0000
  H   H343      1.0  0.20577  0.25742  0.37710  1.0000
  C   C276      1.0  0.19659  0.50247  0.44780  1.0000
  Fe  Fe36      1.0  0.30931  0.42807  0.89625  1.0000
  S   S76       1.0  0.32517  0.43442  0.94704  1.0000
  Fe  Fe37      1.0  0.25476  0.39933  0.85996  1.0000
  S   S77       1.0  0.27463  0.41869  0.81373  1.0000
  S   S78       1.0  0.20886  0.37136  0.86492  1.0000
  Fe  Fe38      1.0  0.30716  0.40798  0.82792  1.0000
  S   S79       1.0  0.31581  0.38519  0.78866  1.0000
  Fe  Fe39      1.0  0.29910  0.45720  0.84210  1.0000
  S   S80       1.0  0.28552  0.38638  0.87294  1.0000
  S   S81       1.0  0.27629  0.43886  0.88714  1.0000
  Fe  Fe40      1.0  0.07770  0.40475  0.56431  1.0000
  S   S82       1.0  0.06876  0.40829  0.61612  1.0000
  Fe  Fe41      1.0  0.42687  0.33742  0.75460  1.0000
  S   S83       1.0  0.40562  0.31293  0.71071  1.0000
  S   S84       1.0  0.41969  0.36712  0.78453  1.0000
  Fe  Fe42      1.0  0.46261  0.31075  0.76096  1.0000
  S   S85       1.0  0.44407  0.28352  0.71850  1.0000
  C   C277      1.0  0.02960  0.40746  0.90231  1.0000
  Fe  Fe43      1.0  0.44760  0.32096  0.69500  1.0000
  S   S86       1.0  0.45920  0.32421  0.64285  1.0000
  Fe  Fe44      1.0  0.40391  0.27743  0.73716  1.0000
  C   C278      1.0  0.08852  0.47377  0.56703  1.0000
  S   S87       1.0  0.46927  0.34898  0.73632  1.0000
  S   S88       1.0  0.42199  0.30098  0.78223  1.0000
  S   S89       1.0  0.15584  0.29794  0.74264  1.0000
  H   H344      1.0  0.23497  0.49664  0.73882  1.0000
  H   H345      1.0  0.29229  0.27369  0.77253  1.0000
  H   H346      1.0  0.32121  0.31318  0.80006  1.0000
  C   C279      1.0  0.31232  0.26023  0.80700  1.0000
  H   H347      1.0  0.18002  0.44448  0.96030  1.0000
  H   H348      1.0  0.26904  0.33825  0.81877  1.0000
  H   H349      1.0  0.21493  0.36682  0.72865  1.0000
  C   C280      1.0  0.03574  0.27397  0.77867  1.0000
  H   H350      1.0  0.05202  0.31750  0.78545  1.0000
  C   C281      1.0  0.03422  0.38888  0.62890  1.0000
  C   C282      1.0  0.50972  0.28584  0.56484  1.0000
  H   H351      1.0  0.06166  0.33970  0.65582  1.0000
  S   S90       1.0  0.30822  0.50004  0.82996  1.0000
  Fe  Fe45      1.0  0.11573  0.39741  0.51796  1.0000
  C   C283      1.0  0.38905  0.27189  0.62239  1.0000
  H   H352      1.0  0.04464  0.39907  0.67838  1.0000
  H   H353      1.0  0.03653  0.27421  0.70165  1.0000
  H   H354      1.0  0.48531  0.33203  0.58230  1.0000
  S   S91       1.0  0.07837  0.36760  0.54583  1.0000
  H   H355      1.0  0.27382  0.43416  0.74442  1.0000
  C   C284      1.0  0.22379  0.43945  0.98566  1.0000
  H   H356      1.0  0.20356  0.41428  0.89741  1.0000
  H   H357      1.0  0.24912  0.46301  0.82487  1.0000
  C   C285      1.0  0.34506  0.38079  0.78755  1.0000
  C   C286      1.0  0.36518  0.39138  0.81139  1.0000
  C   C287      1.0  0.38811  0.38734  0.80974  1.0000
  C   C288      1.0  0.39101  0.37248  0.78448  1.0000
  C   C289      1.0  0.37085  0.36182  0.76062  1.0000
  C   C290      1.0  0.34798  0.36600  0.76218  1.0000
  H   H358      1.0  0.36321  0.40286  0.83097  1.0000
  H   H359      1.0  0.40366  0.39572  0.82823  1.0000
  H   H360      1.0  0.37310  0.35077  0.74078  1.0000
  H   H361      1.0  0.33266  0.35804  0.74342  1.0000
  C   C291      1.0  0.19413  0.34881  0.83248  1.0000
  C   C292      1.0  0.21082  0.34766  0.80844  1.0000
  C   C293      1.0  0.19882  0.33106  0.78154  1.0000
  C   C294      1.0  0.17010  0.31557  0.77849  1.0000
  C   C295      1.0  0.15338  0.31571  0.80317  1.0000
  C   C296      1.0  0.16540  0.33241  0.83010  1.0000
  H   H362      1.0  0.23300  0.35970  0.81042  1.0000
  H   H363      1.0  0.21186  0.33035  0.76295  1.0000
  H   H364      1.0  0.13117  0.30376  0.80098  1.0000
  H   H365      1.0  0.15239  0.33310  0.84874  1.0000
  H   H366      1.0  0.16529  0.41429  0.98566  1.0000
  H   H367      1.0  0.21255  0.41477  0.50221  1.0000
  H   H368      1.0  0.33787  0.29613  0.75757  1.0000
  H   H369      1.0  0.50825  0.36504  0.67669  1.0000
  H   H370      1.0  0.02904  0.33912  0.65799  1.0000
  C   C297      1.0  0.43361  0.28356  0.55460  1.0000
  H   H371      1.0  0.08867  0.26134  0.53830  1.0000
  H   H372      1.0  0.05578  0.27538  0.77856  1.0000
  H   H373      1.0  0.24238  0.39007  0.75350  1.0000
  C   C298      1.0  0.49983  0.28348  0.79355  1.0000
  H   H374      1.0  0.14871  0.37408  0.93355  1.0000
  H   H375      1.0  0.03583  0.47946  0.53529  1.0000
  N   N21       1.0  0.02802  0.30241  0.67510  1.0000
  H   H376      1.0  0.10492  0.48405  0.58533  1.0000
  C   C299      1.0  0.49356  0.34618  0.63085  1.0000
  C   C300      1.0  0.01276  0.37433  0.60722  1.0000
  Fe  Fe46      1.0  0.05434  0.37081  0.50480  1.0000
  H   H377      1.0  0.08281  0.39436  0.85768  1.0000
  H   H378      1.0  0.09874  0.47383  0.54430  1.0000
  H   H379      1.0  0.20485  0.44509  0.91148  1.0000
  S   S92       1.0  0.15685  0.39885  0.51760  1.0000
  H   H380      1.0  0.22615  0.30673  0.84444  1.0000
  C   C301      1.0  0.27135  0.49300  0.74318  1.0000
  C   C302      1.0  0.06791  0.39798  0.87017  1.0000
  C   C303      1.0  0.39387  0.49498  0.51770  1.0000
  C   C304      1.0  0.25520  0.41608  0.96545  1.0000
  C   C305      1.0  0.35072  0.29259  0.77502  1.0000
  C   C306      1.0  0.41662  0.25612  0.54634  1.0000
  H   H381      1.0  0.48475  0.27151  0.62198  1.0000
  C   C307      1.0  0.01943  0.28644  0.64498  1.0000
  H   H382      1.0  0.37887  0.47549  0.52792  1.0000
  C   C308      1.0  0.25324  0.48381  0.82133  1.0000
  C   C309      1.0  0.26425  0.44675  0.74237  1.0000
  C   C310      1.0  0.16983  0.42167  0.96058  1.0000
  H   H383      1.0  0.17704  0.28432  0.84333  1.0000
  H   H384      1.0  0.06483  0.29921  0.67843  1.0000
  H   H385      1.0  0.32253  0.30424  0.84084  1.0000
  C   C311      1.0  0.25567  0.31842  0.80783  1.0000
  H   H386      1.0  0.14956  0.41444  0.94860  1.0000
  H   H387      1.0  0.19258  0.27059  0.87033  1.0000
  C   C312      1.0  0.48564  0.25517  0.60776  1.0000
  H   H388      1.0  0.48680  0.25705  0.68769  1.0000
  C   C313      1.0  0.29019  0.25707  0.78738  1.0000
  H   H389      1.0  0.35960  0.48532  0.91344  1.0000
  H   H390      1.0  0.20355  0.44742  0.73544  1.0000
  H   H391      1.0  0.28214  0.32674  0.76742  1.0000
  C   C314      1.0  0.03358  0.29774  0.78269  1.0000
  H   H392      1.0  0.45879  0.25632  0.77616  1.0000
  C   C315      1.0  0.02814  0.38788  0.66146  1.0000
  H   H393      1.0  0.49679  0.30391  0.67279  1.0000
  C   C316      1.0  0.04687  0.29583  0.69321  1.0000
  H   H394      1.0  0.35239  0.28311  0.85441  1.0000
  H   H395      1.0  0.40821  0.26091  0.65829  1.0000
  N   N22       1.0  0.21598  0.40549  0.73651  1.0000
  C   C317      1.0  0.19643  0.39866  0.70944  1.0000
  C   C318      1.0  0.22999  0.38902  0.73221  1.0000
  C   C319      1.0  0.20006  0.39673  0.76655  1.0000
  C   C320      1.0  0.23535  0.43546  0.73801  1.0000
  H   H396      1.0  0.03282  0.32093  0.61143  1.0000
  H   H397      1.0  0.05749  0.46769  0.51687  1.0000
  H   H398      1.0  0.20773  0.40703  0.68669  1.0000
  H   H399      1.0  0.18303  0.37604  0.70638  1.0000
  H   H400      1.0  0.18201  0.40672  0.71276  1.0000
  H   H401      1.0  0.24369  0.39588  0.71099  1.0000
  C   C321      1.0  0.05867  0.48699  0.59368  1.0000
  C   C322      1.0  0.43165  0.29686  0.50020  1.0000
  H   H402      1.0  0.18812  0.40749  0.77070  1.0000
  H   H403      1.0  0.18509  0.37427  0.76656  1.0000
  H   H404      1.0  0.21396  0.40120  0.78749  1.0000
  S   S93       1.0  0.33378  0.44871  0.85233  1.0000
  H   H405      1.0  0.44071  0.28916  0.57897  1.0000
  N   N23       1.0  0.33867  0.28657  0.80744  1.0000
  C   C323      1.0  0.35968  0.28672  0.82932  1.0000
  H   H406      1.0  0.40037  0.29344  0.62903  1.0000
  C   C324      1.0  0.33357  0.30904  0.81766  1.0000
  H   H407      1.0  0.04881  0.34414  0.69311  1.0000
  H   H408      1.0  0.04413  0.46562  0.60164  1.0000
  H   H409      1.0  0.25176  0.28171  0.74183  1.0000
  C   C325      1.0  0.16975  0.38100  0.94310  1.0000
  C   C326      1.0  0.15774  0.50244  0.91383  1.0000
  C   C327      1.0  0.23006  0.40865  0.95061  1.0000
  H   H410      1.0  0.31688  0.49733  0.91865  1.0000
  C   C328      1.0  0.01548  0.28324  0.58656  1.0000
  C   C329      1.0  0.19217  0.42229  0.91150  1.0000
  H   H411      1.0  0.09770  0.42632  0.90382  1.0000
  H   H412      1.0  0.37138  0.31144  0.77474  1.0000
  C   C330      1.0  0.28183  0.47510  0.74510  1.0000
  H   H413      1.0  0.21091  0.47179  0.81069  1.0000
  H   H414      1.0  0.35317  0.32880  0.82074  1.0000
  C   C331      1.0  0.37020  0.26343  0.59737  1.0000
  H   H415      1.0  0.05500  0.30872  0.71507  1.0000
  H   H416      1.0  0.15456  0.48576  0.89817  1.0000
  C   C332      1.0  0.02347  0.29897  0.61451  1.0000
  C   C333      1.0  0.26313  0.31192  0.77886  1.0000
  C   C334      1.0  0.15076  0.49729  0.94611  1.0000
  Fe  Fe47      1.0  0.09181  0.43343  0.49938  1.0000
  S   S94       1.0  0.49824  0.31374  0.78899  1.0000
  C   C335      1.0  0.34536  0.46866  0.96017  1.0000
  H   H417      1.0  0.07575  0.45206  0.57480  1.0000
  H   H418      1.0  0.22402  0.39427  0.93100  1.0000
  C   C336      1.0  0.04255  0.33260  0.67016  1.0000
  C   C337      1.0  0.04037  0.38469  0.86018  1.0000
  S   S95       1.0  0.01332  0.33431  0.49096  1.0000
  H   H419      1.0  0.01886  0.29322  0.56357  1.0000
  H   H420      1.0  0.03484  0.37090  0.83996  1.0000
  H   H421      1.0  0.37923  0.30688  0.82894  1.0000
  N   N24       1.0  0.18668  0.41143  0.94442  1.0000
  H   H422      1.0  0.26745  0.40705  0.95753  1.0000
  C   C338      1.0  0.24599  0.28663  0.76453  1.0000
  H   H423      1.0  0.50744  0.30235  0.57662  1.0000
  S   S96       1.0  0.11763  0.43456  0.54075  1.0000
  H   H424      1.0  0.17272  0.41650  0.89834  1.0000
  S   S97       1.0  0.13610  0.46338  0.96040  1.0000
  S   S98       1.0  0.05183  0.40670  0.52479  1.0000
  H   H425      1.0  0.18188  0.46051  0.49101  1.0000
  C   C339      1.0  0.44116  0.30385  0.53155  1.0000
  Fe  Fe48      1.0  0.11633  0.25732  0.74573  1.0000
  H   H426      1.0  0.35333  0.27536  0.76582  1.0000
  C   C340      1.0  0.22532  0.45432  0.73698  1.0000
  H   H427      1.0  0.45449  0.32524  0.53796  1.0000
  H   H428      1.0  0.16740  0.37196  0.96731  1.0000
  C   C341      1.0  0.02035  0.38912  0.87583  1.0000
  C   C342      1.0  0.50082  0.34537  0.59909  1.0000
  C   C343      1.0  0.23166  0.48881  0.81332  1.0000
  C   C344      1.0  0.22121  0.26783  0.77905  1.0000
  C   C345      1.0  0.07632  0.41592  0.89608  1.0000
  H   H429      1.0  0.03560  0.44915  0.54912  1.0000
  H   H430      1.0  0.30366  0.48326  0.74963  1.0000
  C   C346      1.0  0.47757  0.25779  0.78539  1.0000
  H   H431      1.0  0.06400  0.43455  0.93236  1.0000
  N   N25       1.0  0.07169  0.48725  0.56278  1.0000
  C   C347      1.0  0.05721  0.42058  0.91214  1.0000
  C   C348      1.0  0.04918  0.47031  0.53996  1.0000
  C   C349      1.0  0.23079  0.29995  0.82238  1.0000
  C   C350      1.0  0.21252  0.27416  0.80809  1.0000
  C   C351      1.0  0.30360  0.49791  0.93811  1.0000
  H   H432      1.0  0.17872  0.37156  0.92721  1.0000
  H   H433      1.0  0.36703  0.27837  0.58448  1.0000
  H   H434      1.0  0.14287  0.49851  0.51788  1.0000
  H   H435      1.0  0.16362  0.26346  0.78705  1.0000
  H   H436      1.0  0.01717  0.37480  0.58209  1.0000
  C   C352      1.0  0.17797  0.26557  0.85009  1.0000
  C   C353      1.0  0.21329  0.41974  0.96058  1.0000
  H   H437      1.0  0.28288  0.47944  0.93543  1.0000
  H   H438      1.0  0.49163  0.27511  0.54867  1.0000
  H   H439      1.0  0.01598  0.41209  0.91586  1.0000
  C   C354      1.0  0.03238  0.27327  0.49187  1.0000
  H   H440      1.0  0.07396  0.49641  0.61325  1.0000
  C   C355      1.0  0.36004  0.48989  0.93855  1.0000
  C   C356      1.0  0.24317  0.48264  0.73901  1.0000
  H   H441      1.0  0.31235  0.49574  0.96100  1.0000
  C   C357      1.0  0.50509  0.27486  0.69672  1.0000
  C   C358      1.0  0.03479  0.29943  0.49139  1.0000
  H   H442      1.0  0.04697  0.49825  0.59194  1.0000
  H   H443      1.0  0.36535  0.27101  0.82224  1.0000
  C   C359      1.0  0.01125  0.30206  0.49398  1.0000
  C   C360      1.0  0.41415  0.26902  0.49101  1.0000
  Fe  Fe49      1.0  0.37766  0.60721  0.08386  1.0000
  S   S99       1.0  0.37601  0.58604  0.12971  1.0000
  S   S100      1.0  0.37152  0.64391  0.07830  1.0000
  Fe  Fe50      1.0  0.39000  0.56868  0.04459  1.0000
  S   S101      1.0  0.39045  0.54533  0.08753  1.0000
  C   C361      1.0  0.02810  0.62191  0.09764  1.0000
  Fe  Fe51      1.0  0.35256  0.54704  0.10135  1.0000
  C   C362      1.0  0.27005  0.52024  0.01824  1.0000
  Fe  Fe52      1.0  0.41433  0.58674  0.11132  1.0000
  S   S102      1.0  0.44920  0.59768  0.14674  1.0000
  S   S103      1.0  0.35083  0.56818  0.05704  1.0000
  S   S104      1.0  0.41719  0.61010  0.06689  1.0000
  H   H444      1.0  0.28684  0.67488  0.31759  1.0000
  H   H445      1.0  0.15153  0.70323  0.44936  1.0000
  Fe  Fe53      1.0  0.10570  0.73034  0.19709  1.0000
  C   C363      1.0  0.36371  0.53609  0.47657  1.0000
  S   S105      1.0  0.06650  0.72048  0.16976  1.0000
  Fe  Fe54      1.0  0.16217  0.73409  0.19417  1.0000
  H   H446      1.0  0.33269  0.63436  0.42310  1.0000
  S   S106      1.0  0.18748  0.71781  0.17074  1.0000
  Fe  Fe55      1.0  0.13809  0.73438  0.25797  1.0000
  S   S107      1.0  0.13913  0.72454  0.30982  1.0000
  C   C364      1.0  0.34477  0.72875  0.28777  1.0000
  S   S108      1.0  0.12219  0.70412  0.21757  1.0000
  H   H447      1.0  0.06787  0.72438  0.35983  1.0000
  Fe  Fe56      1.0  0.22187  0.69125  0.44481  1.0000
  S   S109      1.0  0.24679  0.69702  0.40114  1.0000
  H   H448      1.0  0.06695  0.62791  0.11308  1.0000
  Fe  Fe57      1.0  0.20819  0.63128  0.45257  1.0000
  S   S110      1.0  0.23138  0.63276  0.40809  1.0000
  H   H449      1.0  0.27250  0.74515  0.46010  1.0000
  Fe  Fe58      1.0  0.26395  0.67368  0.42664  1.0000
  S   S111      1.0  0.30914  0.68733  0.41983  1.0000
  Fe  Fe59      1.0  0.21208  0.65616  0.38684  1.0000
  S   S112      1.0  0.19868  0.65510  0.33601  1.0000
  N   N26       1.0  0.33911  0.60317  0.44519  1.0000
  S   S113      1.0  0.18579  0.65100  0.42954  1.0000
  C   C365      1.0  0.46518  0.52484  0.10795  1.0000
  H   H450      1.0  0.47989  0.63259  0.09282  1.0000
  C   C366      1.0  0.31548  0.55188  0.45709  1.0000
  H   H451      1.0  0.31995  0.54673  0.43387  1.0000
  H   H452      1.0  0.28428  0.74110  0.15935  1.0000
  S   S114      1.0  0.42548  0.60941  0.44445  1.0000
  C   C367      1.0  0.37201  0.52966  0.42159  1.0000
  H   H453      1.0  0.27283  0.71904  0.29281  1.0000
  C   C368      1.0  0.35756  0.51878  0.44990  1.0000
  H   H454      1.0  0.10932  0.71770  0.07569  1.0000
  S   S115      1.0  0.03871  0.74201  0.44760  1.0000
  H   H455      1.0  0.17942  0.74564  0.47805  1.0000
  C   C369      1.0  0.14966  0.55226  0.45492  1.0000
  H   H456      1.0  0.41706  0.65874  0.17278  1.0000
  H   H457      1.0  0.23458  0.72593  0.33248  1.0000
  H   H458      1.0  0.47604  0.56570  0.12371  1.0000
  H   H459      1.0  0.30181  0.60210  0.42967  1.0000
  H   H460      1.0  0.15142  0.56716  0.43742  1.0000
  C   C370      1.0  0.32777  0.68423  0.45185  1.0000
  C   C371      1.0  0.38399  0.56398  0.47500  1.0000
  C   C372      1.0  0.44433  0.53700  0.05375  1.0000
  C   C373      1.0  0.07025  0.66702  0.09955  1.0000
  H   H461      1.0  0.11149  0.72819  0.36736  1.0000
  C   C374      1.0  0.35532  0.69105  0.44718  1.0000
  C   C375      1.0  0.48524  0.69105  0.15533  1.0000
  S   S116      1.0  0.24214  0.67159  0.47223  1.0000
  S   S117      1.0  0.31454  0.50701  0.11303  1.0000
  H   H462      1.0  0.36484  0.69841  0.42419  1.0000
  C   C376      1.0  0.15524  0.70482  0.31697  1.0000
  C   C377      1.0  0.16289  0.70241  0.34810  1.0000
  C   C378      1.0  0.17637  0.68734  0.35413  1.0000
  C   C379      1.0  0.18179  0.67413  0.32913  1.0000
  C   C380      1.0  0.17426  0.67669  0.29801  1.0000
  C   C381      1.0  0.16120  0.69215  0.29190  1.0000
  H   H463      1.0  0.15880  0.71257  0.36752  1.0000
  H   H464      1.0  0.18250  0.68588  0.37814  1.0000
  H   H465      1.0  0.17846  0.66661  0.27855  1.0000
  H   H466      1.0  0.15551  0.69398  0.26779  1.0000
  H   H467      1.0  0.01404  0.67136  0.07378  1.0000
  C   C382      1.0  0.12627  0.50491  0.47449  1.0000
  C   C383      1.0  0.39891  0.57471  0.44697  1.0000
  C   C384      1.0  0.39275  0.55748  0.42024  1.0000
  H   H468      1.0  0.07451  0.68435  0.40701  1.0000
  H   H469      1.0  0.13394  0.72555  0.10693  1.0000
  C   C385      1.0  0.10462  0.68057  0.14119  1.0000
  H   H470      1.0  0.40416  0.56562  0.39840  1.0000
  Fe  Fe60      1.0  0.43626  0.64093  0.48393  1.0000
  C   C386      1.0  0.48430  0.62298  0.14131  1.0000
  C   C387      1.0  0.01340  0.68841  0.14870  1.0000
  H   H471      1.0  0.30899  0.59769  0.08779  1.0000
  C   C388      1.0  0.03544  0.68879  0.16539  1.0000
  C   C389      1.0  0.05421  0.67859  0.08821  1.0000
  H   H472      1.0  0.17592  0.51622  0.41382  1.0000
  C   C390      1.0  0.30157  0.52994  0.47811  1.0000
  H   H473      1.0  0.29611  0.64426  0.00729  1.0000
  H   H474      1.0  0.44127  0.64711  0.17842  1.0000
  H   H475      1.0  0.20456  0.56477  0.42458  1.0000
  S   S118      1.0  0.39540  0.55791  0.99433  1.0000
  C   C391      1.0  0.12909  0.52450  0.45173  1.0000
  H   H476      1.0  0.21267  0.55301  0.99410  1.0000
  H   H477      1.0  0.49871  0.70102  0.13444  1.0000
  H   H478      1.0  0.43603  0.54183  0.03284  1.0000
  C   C392      1.0  0.44260  0.51131  0.05649  1.0000
  H   H479      1.0  0.44514  0.56397  0.47823  1.0000
  C   C393      1.0  0.44629  0.66672  0.12005  1.0000
  S   S119      1.0  0.43628  0.68055  0.47430  1.0000
  C   C394      1.0  0.37044  0.66216  0.11204  1.0000
  C   C395      1.0  0.36593  0.65087  0.14257  1.0000
  C   C396      1.0  0.36371  0.66541  0.16870  1.0000
  C   C397      1.0  0.36611  0.69135  0.16451  1.0000
  C   C398      1.0  0.37082  0.70267  0.13399  1.0000
  C   C399      1.0  0.37288  0.68808  0.10786  1.0000
  H   H480      1.0  0.36360  0.63075  0.14602  1.0000
  H   H481      1.0  0.35996  0.65648  0.19224  1.0000
  S   S120      1.0  0.19245  0.59566  0.48766  1.0000
  H   H482      1.0  0.37637  0.69696  0.08431  1.0000
  H   H483      1.0  0.07254  0.74313  0.39595  1.0000
  C   C400      1.0  0.34552  0.59578  0.41357  1.0000
  C   C401      1.0  0.23446  0.54107  0.47635  1.0000
  C   C402      1.0  0.11153  0.71358  0.10110  1.0000
  C   C403      1.0  0.02609  0.66210  0.08157  1.0000
  C   C404      1.0  0.01305  0.63387  0.08640  1.0000
  C   C405      1.0  0.45418  0.70883  0.14551  1.0000
  C   C406      1.0  0.11599  0.67442  0.08762  1.0000
  H   H484      1.0  0.13859  0.68714  0.09222  1.0000
  H   H485      1.0  0.22944  0.51351  0.02852  1.0000
  H   H486      1.0  0.26092  0.55419  0.11816  1.0000
  H   H487      1.0  0.23368  0.70893  0.16196  1.0000
  C   C407      1.0  0.30982  0.71443  0.34034  1.0000
  H   H488      1.0  0.49574  0.61834  0.18900  1.0000
  C   C408      1.0  0.13194  0.70265  0.45179  1.0000
  H   H489      1.0  0.12673  0.69351  0.14803  1.0000
  H   H490      1.0  0.11236  0.67561  0.06175  1.0000
  N   N27       1.0  0.28446  0.61130  0.06205  1.0000
  C   C409      1.0  0.29784  0.59422  0.06470  1.0000
  C   C410      1.0  0.30629  0.64050  0.06558  1.0000
  C   C411      1.0  0.26507  0.60497  0.08907  1.0000
  C   C412      1.0  0.26939  0.60514  0.03137  1.0000
  C   C413      1.0  0.24571  0.57906  0.02599  1.0000
  C   C414      1.0  0.27802  0.62418  0.00578  1.0000
  H   H491      1.0  0.49401  0.70529  0.17599  1.0000
  H   H492      1.0  0.09887  0.74386  0.31619  1.0000
  C   C415      1.0  0.45654  0.55655  0.07782  1.0000
  H   H493      1.0  0.31333  0.59917  0.04548  1.0000
  C   C416      1.0  0.31563  0.67484  0.48165  1.0000
  H   H494      1.0  0.29606  0.70720  0.36047  1.0000
  H   H495      1.0  0.31622  0.64466  0.08952  1.0000
  H   H496      1.0  0.29781  0.65465  0.06282  1.0000
  H   H497      1.0  0.32341  0.64626  0.04831  1.0000
  H   H498      1.0  0.24935  0.58287  0.09052  1.0000
  H   H499      1.0  0.27599  0.61021  0.11245  1.0000
  H   H500      1.0  0.25381  0.61665  0.08710  1.0000
  H   H501      1.0  0.23830  0.56314  0.04389  1.0000
  C   C417      1.0  0.12491  0.71150  0.48027  1.0000
  H   H502      1.0  0.30830  0.52514  0.00231  1.0000
  H   H503      1.0  0.42318  0.74373  0.17606  1.0000
  C   C418      1.0  0.28476  0.53372  0.11538  1.0000
  H   H504      1.0  0.37831  0.61342  0.46568  1.0000
  C   C419      1.0  0.41748  0.52173  0.47157  1.0000
  C   C420      1.0  0.32174  0.70267  0.28949  1.0000
  C   C421      1.0  0.26063  0.53536  0.11203  1.0000
  C   C422      1.0  0.19225  0.52204  0.43106  1.0000
  N   N28       1.0  0.45611  0.68358  0.14945  1.0000
  H   H505      1.0  0.48176  0.72392  0.10459  1.0000
  H   H506      1.0  0.06262  0.70040  0.08512  1.0000
  C   C423      1.0  0.25555  0.71807  0.27862  1.0000
  C   C424      1.0  0.08858  0.69215  0.42709  1.0000
  H   H507      1.0  0.32645  0.58161  0.40021  1.0000
  C   C425      1.0  0.37059  0.68829  0.47206  1.0000
  C   C426      1.0  0.32240  0.61673  0.43982  1.0000
  C   C427      1.0  0.28432  0.50908  0.10893  1.0000
  H   H508      1.0  0.11052  0.65291  0.09297  1.0000
  H   H509      1.0  0.29728  0.75145  0.37230  1.0000
  H   H510      1.0  0.31890  0.62523  0.46216  1.0000
  N   N29       1.0  0.10002  0.68377  0.10709  1.0000
  C   C428      1.0  0.23101  0.57286  0.99736  1.0000
  C   C429      1.0  0.08153  0.70175  0.45410  1.0000
  C   C430      1.0  0.24166  0.73073  0.16515  1.0000
  H   H511      1.0  0.35726  0.61419  0.39829  1.0000
  H   H512      1.0  0.27948  0.74756  0.22919  1.0000
  H   H513      1.0  0.31767  0.68791  0.27057  1.0000
  H   H514      1.0  0.48727  0.67267  0.16063  1.0000
  H   H515      1.0  0.35860  0.73402  0.26756  1.0000
  H   H516      1.0  0.28272  0.57196  0.06285  1.0000
  H   H517      1.0  0.10131  0.72230  0.11626  1.0000
  H   H518      1.0  0.09222  0.68661  0.15649  1.0000
  H   H519      1.0  0.30358  0.55138  0.12361  1.0000
  C   C431      1.0  0.03240  0.66413  0.17718  1.0000
  C   C432      1.0  0.30441  0.69545  0.31584  1.0000
  S   S121      1.0  0.36331  0.70908  0.19785  1.0000
  H   H520      1.0  0.01560  0.70734  0.13938  1.0000
  H   H521      1.0  0.09879  0.65916  0.14748  1.0000
  H   H522      1.0  0.04908  0.66412  0.19026  1.0000
  H   H523      1.0  0.25461  0.70766  0.25564  1.0000
  H   H524      1.0  0.37285  0.72265  0.13044  1.0000
  C   C433      1.0  0.43775  0.71546  0.16552  1.0000
  C   C434      1.0  0.12079  0.74993  0.37546  1.0000
  C   C435      1.0  0.46681  0.55043  0.10492  1.0000
  C   C436      1.0  0.32401  0.57933  0.46657  1.0000
  C   C437      1.0  0.43940  0.66598  0.17628  1.0000
  C   C438      1.0  0.43632  0.73943  0.16089  1.0000
  H   H525      1.0  0.45782  0.57643  0.07569  1.0000
  H   H526      1.0  0.14968  0.51525  0.99108  1.0000
  C   C439      1.0  0.22334  0.74073  0.17017  1.0000
  C   C440      1.0  0.46724  0.75152  0.11629  1.0000
  H   H527      1.0  0.42055  0.52309  0.44599  1.0000
  C   C441      1.0  0.24396  0.51575  0.01003  1.0000
  H   H528      1.0  0.30998  0.73643  0.40099  1.0000
  H   H529      1.0  0.35868  0.58605  0.41596  1.0000
  H   H530      1.0  0.37816  0.64095  0.44416  1.0000
  C   C442      1.0  0.28874  0.52276  0.99458  1.0000
  C   C443      1.0  0.49390  0.63722  0.11265  1.0000
  H   H531      1.0  0.24125  0.58144  0.46513  1.0000
  S   S122      1.0  0.20751  0.51691  0.09318  1.0000
  S   S123      1.0  0.21394  0.72612  0.45620  1.0000
  H   H532      1.0  0.42534  0.70231  0.18463  1.0000
  C   C444      1.0  0.05629  0.63813  0.10400  1.0000
  H   H533      1.0  0.44618  0.64691  0.12277  1.0000
  C   C445      1.0  0.11383  0.69278  0.42584  1.0000
  C   C446      1.0  0.22947  0.55966  0.45980  1.0000
  H   H534      1.0  0.12066  0.75014  0.40196  1.0000
  H   H535      1.0  0.06318  0.75358  0.35945  1.0000
  C   C447      1.0  0.09930  0.71126  0.48038  1.0000
  H   H536      1.0  0.27573  0.52139  0.04312  1.0000
  C   C448      1.0  0.36570  0.62321  0.46008  1.0000
  H   H537      1.0  0.39090  0.51803  0.15885  1.0000
  H   H538      1.0  0.45946  0.67706  0.09910  1.0000
  C   C449      1.0  0.23628  0.51284  0.10080  1.0000
  C   C450      1.0  0.20869  0.55019  0.43692  1.0000
  H   H539      1.0  0.42489  0.66185  0.11395  1.0000
  H   H540      1.0  0.36754  0.51653  0.40093  1.0000
  C   C451      1.0  0.46900  0.72771  0.12083  1.0000
  H   H541      1.0  0.06207  0.70176  0.45480  1.0000
  H   H542      1.0  0.11939  0.68546  0.40468  1.0000
  H   H543      1.0  0.47352  0.52118  0.12944  1.0000
  H   H544      1.0  0.39183  0.69378  0.46825  1.0000
  H   H545      1.0  0.11508  0.51823  0.43166  1.0000
  H   H546      1.0  0.36187  0.50682  0.02861  1.0000
  C   C452      1.0  0.16743  0.56074  0.48119  1.0000
  H   H547      1.0  0.44618  0.67698  0.19948  1.0000
  C   C453      1.0  0.21847  0.51289  0.47033  1.0000
  C   C454      1.0  0.35037  0.74789  0.31213  1.0000
  C   C455      1.0  0.27029  0.74888  0.16379  1.0000
  H   H548      1.0  0.23586  0.70383  0.29070  1.0000
  H   H549      1.0  0.01764  0.60001  0.10212  1.0000
  C   C456      1.0  0.07607  0.74544  0.36978  1.0000
  C   C457      1.0  0.33274  0.74152  0.33894  1.0000
  C   C458      1.0  0.23368  0.74307  0.25939  1.0000
  H   H550      1.0  0.29441  0.66952  0.48548  1.0000
  C   C459      1.0  0.50295  0.62921  0.16670  1.0000
  H   H551      1.0  0.29606  0.50927  0.47060  1.0000
  C   C460      1.0  0.24984  0.74749  0.33247  1.0000
  H   H552      1.0  0.35528  0.74155  0.39497  1.0000
  H   H553      1.0  0.24309  0.75081  0.38251  1.0000
  H   H554      1.0  0.36297  0.63196  0.48261  1.0000
  Fe  Fe61      1.0  0.37192  0.75273  0.19149  1.0000
  N   N30       1.0  0.25921  0.74597  0.27379  1.0000
  H   H555      1.0  0.22825  0.73095  0.23683  1.0000
  H   H556      1.0  0.21576  0.73239  0.27567  1.0000
  C   C461      1.0  0.45323  0.50453  0.08373  1.0000
  H   H557      1.0  0.10405  0.55861  0.48771  1.0000
  H   H558      1.0  0.38707  0.53340  0.93254  1.0000
  S   S124      1.0  0.47788  0.66245  0.50754  1.0000
  Fe  Fe62      1.0  0.21355  0.56216  0.80243  1.0000
  S   S125      1.0  0.23830  0.58872  0.84295  1.0000
  C   C462      1.0  0.35845  0.67888  0.50185  1.0000
  Fe  Fe63      1.0  0.18925  0.59903  0.78685  1.0000
  S   S126      1.0  0.21148  0.62712  0.82735  1.0000
  S   S127      1.0  0.16175  0.60635  0.75286  1.0000
  Fe  Fe64      1.0  0.25205  0.62778  0.81064  1.0000
  S   S128      1.0  0.31785  0.68547  0.80661  1.0000
  Fe  Fe65      1.0  0.19973  0.58907  0.85526  1.0000
  S   S129      1.0  0.18526  0.58420  0.90614  1.0000
  S   S130      1.0  0.22646  0.59765  0.76916  1.0000
  S   S131      1.0  0.17412  0.56085  0.81620  1.0000
  Fe  Fe66      1.0  0.45492  0.65693  0.55291  1.0000
  S   S132      1.0  0.46986  0.64761  0.59857  1.0000
  Fe  Fe67      1.0  0.11121  0.73811  0.66085  1.0000
  S   S133      1.0  0.08809  0.70776  0.69961  1.0000
  S   S134      1.0  0.10474  0.73226  0.60755  1.0000
  N   N31       1.0  0.30189  0.52340  0.93713  1.0000
  Fe  Fe68      1.0  0.08055  0.74098  0.71865  1.0000
  Fe  Fe69      1.0  0.12808  0.72912  0.72716  1.0000
  S   S135      1.0  0.14703  0.71188  0.76197  1.0000
  H   H559      1.0  0.47535  0.59409  0.51443  1.0000
  N   N32       1.0  0.11421  0.59259  0.85096  1.0000
  H   H560      1.0  0.42001  0.75097  0.81978  1.0000
  H   H561      1.0  0.14114  0.59076  0.52354  1.0000
  C   C463      1.0  0.42689  0.54421  0.52401  1.0000
  H   H562      1.0  0.29056  0.54444  0.90236  1.0000
  C   C464      1.0  0.06269  0.71361  0.56397  1.0000
  C   C465      1.0  0.07052  0.71061  0.59478  1.0000
  C   C466      1.0  0.48249  0.71495  0.65710  1.0000
  C   C467      1.0  0.31737  0.58325  0.49810  1.0000
  H   H563      1.0  0.03802  0.73560  0.65560  1.0000
  H   H564      1.0  0.07733  0.72981  0.54883  1.0000
  H   H565      1.0  0.32151  0.66512  0.52967  1.0000
  C   C468      1.0  0.10553  0.55213  0.51159  1.0000
  H   H566      1.0  0.21602  0.51015  0.97180  1.0000
  C   C469      1.0  0.40801  0.51823  0.53704  1.0000
  H   H567      1.0  0.13494  0.68026  0.51963  1.0000
  C   C470      1.0  0.33915  0.70072  0.77311  1.0000
  C   C471      1.0  0.34256  0.68539  0.74892  1.0000
  C   C472      1.0  0.36148  0.69885  0.72415  1.0000
  C   C473      1.0  0.37682  0.72762  0.72329  1.0000
  H   H568      1.0  0.46295  0.70640  0.64322  1.0000
  C   C474      1.0  0.35424  0.72942  0.77185  1.0000
  H   H569      1.0  0.33160  0.66327  0.74983  1.0000
  H   H570      1.0  0.36462  0.68695  0.70600  1.0000
  C   C475      1.0  0.29385  0.52647  0.90428  1.0000
  C   C476      1.0  0.15842  0.63619  0.75490  1.0000
  C   C477      1.0  0.14365  0.64106  0.73109  1.0000
  C   C478      1.0  0.14041  0.66446  0.73237  1.0000
  C   C479      1.0  0.15198  0.68318  0.75753  1.0000
  C   C480      1.0  0.16696  0.67839  0.78112  1.0000
  C   C481      1.0  0.16994  0.65493  0.78000  1.0000
  H   H571      1.0  0.13458  0.62663  0.71161  1.0000
  H   H572      1.0  0.12873  0.66785  0.71414  1.0000
  H   H573      1.0  0.17572  0.69262  0.80083  1.0000
  H   H574      1.0  0.18067  0.65114  0.79889  1.0000
  C   C482      1.0  0.16485  0.54107  0.50371  1.0000
  H   H575      1.0  0.44213  0.74732  0.60927  1.0000
  C   C483      1.0  0.12648  0.57031  0.53176  1.0000
  C   C484      1.0  0.17247  0.55076  0.92139  1.0000
  C   C485      1.0  0.16883  0.52913  0.90156  1.0000
  S   S136      1.0  0.41325  0.63178  0.53004  1.0000
  H   H576      1.0  0.05692  0.68781  0.63849  1.0000
  H   H577      1.0  0.49793  0.71252  0.64297  1.0000
  H   H578      1.0  0.17428  0.53282  0.87667  1.0000
  H   H579      1.0  0.16599  0.69917  0.49681  1.0000
  H   H580      1.0  0.26996  0.63250  0.95797  1.0000
  H   H581      1.0  0.07224  0.56845  0.83397  1.0000
  N   N33       1.0  0.01442  0.74844  0.62655  1.0000
  C   C486      1.0  0.28548  0.53257  0.81830  1.0000
  C   C487      1.0  0.26386  0.53760  0.81075  1.0000
  H   H582      1.0  0.38191  0.72641  0.55679  1.0000
  H   H583      1.0  0.30641  0.54952  0.81964  1.0000
  H   H584      1.0  0.26815  0.55831  0.80609  1.0000
  C   C488      1.0  0.16880  0.74768  0.49935  1.0000
  H   H585      1.0  0.35161  0.74143  0.79028  1.0000
  H   H586      1.0  0.25050  0.54852  0.49429  1.0000
  H   H587      1.0  0.28497  0.51490  0.74614  1.0000
  H   H588      1.0  0.42979  0.59177  0.57727  1.0000
  C   C489      1.0  0.01671  0.67497  0.57234  1.0000
  C   C490      1.0  0.03585  0.69590  0.55277  1.0000
  C   C491      1.0  0.12992  0.59203  0.87927  1.0000
  H   H589      1.0  0.12731  0.74275  0.53435  1.0000
  C   C492      1.0  0.45815  0.59456  0.52722  1.0000
  C   C493      1.0  0.30367  0.56118  0.51899  1.0000
  S   S137      1.0  0.37688  0.67475  0.53339  1.0000
  H   H590      1.0  0.16843  0.56230  0.96923  1.0000
  S   S138      1.0  0.40162  0.74445  0.69324  1.0000
  H   H591      1.0  0.09240  0.71823  0.50049  1.0000
  N   N34       1.0  0.44084  0.56871  0.54490  1.0000
  H   H592      1.0  0.44566  0.59865  0.50962  1.0000
  H   H593      1.0  0.11493  0.52915  0.59522  1.0000
  H   H594      1.0  0.16604  0.70691  0.53758  1.0000
  C   C494      1.0  0.08976  0.51584  0.55200  1.0000
  H   H595      1.0  0.24801  0.51502  0.92992  1.0000
  H   H596      1.0  0.42290  0.72924  0.53622  1.0000
  H   H597      1.0  0.17857  0.54746  0.52404  1.0000
  H   H598      1.0  0.33947  0.54503  0.96536  1.0000
  S   S139      1.0  0.45411  0.69621  0.54942  1.0000
  H   H599      1.0  0.14708  0.60036  0.81882  1.0000
  S   S140      1.0  0.03660  0.73051  0.72855  1.0000
  H   H600      1.0  0.49070  0.73232  0.60019  1.0000
  C   C495      1.0  0.08493  0.57141  0.85560  1.0000
  H   H601      1.0  0.15236  0.60694  0.87695  1.0000
  H   H602      1.0  0.47018  0.58338  0.58361  1.0000
  C   C496      1.0  0.37558  0.51711  0.94941  1.0000
  H   H603      1.0  0.22822  0.58726  0.95083  1.0000
  C   C497      1.0  0.26323  0.61765  0.97712  1.0000
  C   C498      1.0  0.45899  0.56505  0.56780  1.0000
  N   N35       1.0  0.25712  0.68311  0.77318  1.0000
  C   C499      1.0  0.28093  0.70439  0.75520  1.0000
  C   C500      1.0  0.23506  0.66585  0.75018  1.0000
  C   C501      1.0  0.24665  0.69741  0.79390  1.0000
  C   C502      1.0  0.26580  0.66600  0.79116  1.0000
  C   C503      1.0  0.26799  0.66684  0.82776  1.0000
  C   C504      1.0  0.27615  0.64913  0.77311  1.0000
  C   C505      1.0  0.27936  0.65091  0.84511  1.0000
  C   C506      1.0  0.28756  0.63329  0.79066  1.0000
  C   C507      1.0  0.28976  0.63475  0.82643  1.0000
  H   H604      1.0  0.28975  0.69538  0.73849  1.0000
  H   H605      1.0  0.27521  0.71752  0.74091  1.0000
  H   H606      1.0  0.29789  0.71809  0.77166  1.0000
  H   H607      1.0  0.24231  0.65700  0.73134  1.0000
  H   H608      1.0  0.22666  0.67764  0.73767  1.0000
  H   H609      1.0  0.21750  0.64846  0.76231  1.0000
  H   H610      1.0  0.26311  0.71249  0.80994  1.0000
  H   H611      1.0  0.23917  0.70921  0.77970  1.0000
  H   H612      1.0  0.22903  0.68272  0.80862  1.0000
  H   H613      1.0  0.26264  0.67951  0.84206  1.0000
  H   H614      1.0  0.27661  0.64903  0.74740  1.0000
  H   H615      1.0  0.28164  0.65240  0.87074  1.0000
  H   H616      1.0  0.29540  0.62200  0.77748  1.0000
  H   H617      1.0  0.29939  0.62471  0.83870  1.0000
  C   C508      1.0  0.37262  0.74279  0.74685  1.0000
  H   H618      1.0  0.44725  0.54710  0.58363  1.0000
  C   C509      1.0  0.16563  0.54565  0.95374  1.0000
  H   H619      1.0  0.03004  0.69837  0.52894  1.0000
  C   C510      1.0  0.11622  0.61962  0.84542  1.0000
  C   C511      1.0  0.32980  0.54720  0.94323  1.0000
  C   C512      1.0  0.13157  0.64274  0.86560  1.0000
  C   C513      1.0  0.10385  0.64860  0.81342  1.0000
  C   C514      1.0  0.13289  0.66791  0.85958  1.0000
  C   C515      1.0  0.11907  0.67082  0.83357  1.0000
  C   C516      1.0  0.29584  0.53458  0.50903  1.0000
  H   H620      1.0  0.38824  0.57704  0.49557  1.0000
  N   N36       1.0  0.49303  0.74413  0.66598  1.0000
  C   C517      1.0  0.14455  0.51327  0.50028  1.0000
  C   C518      1.0  0.50344  0.67340  0.60953  1.0000
  Fe  Fe70      1.0  0.47567  0.70114  0.50295  1.0000
  H   H621      1.0  0.11382  0.58344  0.80057  1.0000
  C   C519      1.0  0.10241  0.62338  0.81913  1.0000
  C   C520      1.0  0.28211  0.52165  0.96175  1.0000
  H   H622      1.0  0.46796  0.61263  0.54354  1.0000
  H   H623      1.0  0.14295  0.64203  0.88602  1.0000
  H   H624      1.0  0.07561  0.57715  0.87554  1.0000
  H   H625      1.0  0.32304  0.60353  0.50694  1.0000
  H   H626      1.0  0.12078  0.69056  0.82835  1.0000
  H   H627      1.0  0.40738  0.73057  0.62391  1.0000
  H   H628      1.0  0.40374  0.51574  0.56225  1.0000
  H   H629      1.0  0.46655  0.73079  0.70735  1.0000
  H   H630      1.0  0.41476  0.71923  0.58764  1.0000
  C   C521      1.0  0.23699  0.51566  0.80749  1.0000
  H   H631      1.0  0.07260  0.51195  0.50383  1.0000
  H   H632      1.0  0.14621  0.57580  0.57713  1.0000
  H   H633      1.0  0.29926  0.56478  0.54312  1.0000
  C   C522      1.0  0.05113  0.69025  0.61466  1.0000
  C   C523      1.0  0.12938  0.56176  0.56188  1.0000
  H   H634      1.0  0.09075  0.60698  0.80237  1.0000
  H   H635      1.0  0.08272  0.55100  0.86120  1.0000
  H   H636      1.0  0.12841  0.57157  0.88247  1.0000
  S   S141      1.0  0.21028  0.52092  0.79325  1.0000
  C   C524      1.0  0.47202  0.74509  0.68680  1.0000
  C   C525      1.0  0.12509  0.58490  0.82297  1.0000
  C   C526      1.0  0.15508  0.51904  0.96617  1.0000
  C   C527      1.0  0.25519  0.51680  0.95416  1.0000
  H   H637      1.0  0.12381  0.56460  0.82614  1.0000
  C   C528      1.0  0.37624  0.52338  0.98186  1.0000
  Fe  Fe71      1.0  0.41497  0.67215  0.52168  1.0000
  C   C529      1.0  0.28030  0.50566  0.82305  1.0000
  H   H638      1.0  0.27499  0.50769  0.89594  1.0000
  H   H639      1.0  0.12220  0.59646  0.90166  1.0000
  C   C530      1.0  0.13205  0.72579  0.53709  1.0000
  C   C531      1.0  0.49608  0.75313  0.60618  1.0000
  C   C532      1.0  0.11134  0.53498  0.57197  1.0000
  H   H640      1.0  0.09391  0.65132  0.79260  1.0000
  C   C533      1.0  0.42006  0.57239  0.56303  1.0000
  H   H641      1.0  0.37141  0.73567  0.59271  1.0000
  H   H642      1.0  0.50153  0.65672  0.65626  1.0000
  N   N37       1.0  0.14417  0.72129  0.50774  1.0000
  H   H643      1.0  0.35269  0.52780  0.49859  1.0000
  H   H644      1.0  0.34462  0.54966  0.92402  1.0000
  C   C534      1.0  0.15304  0.70100  0.51569  1.0000
  C   C535      1.0  0.08749  0.52521  0.52129  1.0000
  C   C536      1.0  0.33101  0.67236  0.50664  1.0000
  H   H645      1.0  0.32914  0.56667  0.94499  1.0000
  H   H646      1.0  0.11289  0.70683  0.54428  1.0000
  C   C537      1.0  0.04099  0.75092  0.63687  1.0000
  H   H647      1.0  0.47469  0.56185  0.55512  1.0000
  H   H648      1.0  0.47820  0.70165  0.67843  1.0000
  H   H649      1.0  0.14502  0.68545  0.87488  1.0000
  C   C538      1.0  0.43556  0.75121  0.53401  1.0000
  H   H650      1.0  0.40477  0.57318  0.54673  1.0000
  H   H651      1.0  0.14643  0.73182  0.55780  1.0000
  H   H652      1.0  0.31008  0.52971  0.88662  1.0000
  H   H653      1.0  0.40851  0.55563  0.58033  1.0000
  H   H654      1.0  0.05211  0.74738  0.61715  1.0000
  H   H655      1.0  0.45367  0.74698  0.49050  1.0000
  C   C539      1.0  0.23972  0.59212  0.97299  1.0000
  H   H656      1.0  0.45264  0.73935  0.67347  1.0000
  C   C540      1.0  0.02435  0.67237  0.60339  1.0000
  C   C541      1.0  0.38640  0.74406  0.57271  1.0000
  C   C542      1.0  0.23649  0.51389  0.97808  1.0000
  H   H657      1.0  0.28554  0.51750  0.52534  1.0000
  C   C543      1.0  0.42019  0.73798  0.60192  1.0000
  C   C544      1.0  0.43149  0.54520  0.49058  1.0000
  Fe  Fe72      1.0  0.18855  0.98267  0.10095  1.0000
  S   S142      1.0  0.19789  0.96271  0.06054  1.0000
  Fe  Fe73      1.0  0.12650  0.93909  0.10151  1.0000
  S   S143      1.0  0.13170  0.91633  0.06014  1.0000
  S   S144      1.0  0.08981  0.92499  0.13536  1.0000
  Fe  Fe74      1.0  0.17007  0.92303  0.08534  1.0000
  S   S145      1.0  0.18307  0.89071  0.08762  1.0000
  Fe  Fe75      1.0  0.15912  0.95839  0.03918  1.0000
  C   C545      1.0  0.18806  0.88897  0.47973  1.0000
  S   S146      1.0  0.16368  0.94337  0.12765  1.0000
  C   C546      1.0  0.35775  0.99956  0.47947  1.0000
  S   S147      1.0  0.37109  0.77285  0.14559  1.0000
  H   H658      1.0  0.44919  0.77563  0.13250  1.0000
  Fe  Fe76      1.0  0.38760  0.80422  0.23051  1.0000
  S   S148      1.0  0.38925  0.82830  0.18739  1.0000
  S   S149      1.0  0.39420  0.82250  0.27990  1.0000
  Fe  Fe77      1.0  0.34950  0.79074  0.17405  1.0000
  S   S150      1.0  0.31603  0.80096  0.16255  1.0000
  Fe  Fe78      1.0  0.41098  0.80849  0.16357  1.0000
  S   S151      1.0  0.44611  0.82934  0.12794  1.0000
  S   S152      1.0  0.34699  0.76767  0.21843  1.0000
  S   S153      1.0  0.41276  0.78735  0.20808  1.0000
  Fe  Fe79      1.0  0.32410  0.89687  0.35894  1.0000
  S   S154      1.0  0.35357  0.90871  0.39993  1.0000
  S   S155      1.0  0.32843  0.88568  0.30825  1.0000
  Fe  Fe80      1.0  0.28037  0.90007  0.39971  1.0000
  S   S156      1.0  0.30566  0.91091  0.44454  1.0000
  S   S157      1.0  0.24088  0.90082  0.39204  1.0000
  Fe  Fe81      1.0  0.34079  0.93998  0.41326  1.0000
  H   H659      1.0  0.36897  0.76752  0.30989  1.0000
  Fe  Fe82      1.0  0.31597  0.87877  0.42741  1.0000
  S   S158      1.0  0.31838  0.84547  0.45479  1.0000
  S   S159      1.0  0.31459  0.93052  0.36932  1.0000
  S   S160      1.0  0.28732  0.86545  0.38560  1.0000
  S   S161      1.0  0.17598  0.82985  0.21734  1.0000
  H   H660      1.0  0.01451  0.93582  0.27595  1.0000
  C   C547      1.0  0.01498  0.79930  0.45538  1.0000
  H   H661      1.0  0.08241  0.83953  0.47564  1.0000
  H   H662      1.0  0.42520  0.91252  0.24155  1.0000
  H   H663      1.0  0.28332  0.77940  0.24107  1.0000
  S   S162      1.0  0.15292  0.98262  0.45017  1.0000
  H   H664      1.0  0.42278  0.86701  0.23759  1.0000
  N   N38       1.0  0.33945  0.76168  0.36511  1.0000
  S   S163      1.0  0.12000  0.90573  0.46191  1.0000
  C   C548      1.0  0.44789  0.92195  0.23797  1.0000
  H   H665      1.0  0.18892  0.90871  0.02255  1.0000
  H   H666      1.0  0.23907  0.85613  0.25102  1.0000
  H   H667      1.0  0.36982  0.79884  0.34153  1.0000
  H   H668      1.0  0.49176  0.85744  0.08560  1.0000
  H   H669      1.0  0.28140  0.99386  0.37584  1.0000
  C   C549      1.0  0.20272  0.90882  0.00431  1.0000
  C   C550      1.0  0.29267  0.78936  0.45690  1.0000
  H   H670      1.0  0.05192  0.95697  0.20114  1.0000
  H   H671      1.0  0.13052  0.77521  0.31944  1.0000
  C   C551      1.0  0.48490  0.91844  0.21210  1.0000
  C   C552      1.0  0.20787  0.85505  0.29971  1.0000
  H   H672      1.0  0.17123  0.90002  0.15275  1.0000
  C   C553      1.0  0.29328  0.96799  0.44298  1.0000
  C   C554      1.0  0.22177  0.89719  0.42658  1.0000
  C   C555      1.0  0.22323  0.88272  0.45287  1.0000
  H   H673      1.0  0.15936  0.80514  0.35873  1.0000
  H   H674      1.0  0.44404  0.91826  0.17434  1.0000
  C   C556      1.0  0.18758  0.90444  0.45395  1.0000
  C   C557      1.0  0.20410  0.90820  0.42723  1.0000
  C   C558      1.0  0.11757  0.79152  0.37543  1.0000
  C   C559      1.0  0.31561  0.75493  0.38629  1.0000
  H   H675      1.0  0.17417  0.91319  0.45432  1.0000
  H   H676      1.0  0.20301  0.91952  0.40700  1.0000
  C   C560      1.0  0.28928  0.81237  0.45311  1.0000
  C   C561      1.0  0.26277  0.80864  0.44888  1.0000
  C   C562      1.0  0.02162  0.94169  0.12890  1.0000
  C   C563      1.0  0.28273  0.78983  0.30680  1.0000
  C   C564      1.0  0.06346  0.82141  0.46873  1.0000
  C   C565      1.0  0.11338  0.82774  0.40363  1.0000
  C   C566      1.0  0.36177  0.76221  0.38470  1.0000
  C   C567      1.0  0.03357  0.77316  0.15360  1.0000
  C   C568      1.0  0.28064  0.77717  0.16688  1.0000
  C   C569      1.0  0.22063  0.98556  0.43890  1.0000
  C   C570      1.0  0.03930  0.82281  0.46474  1.0000
  C   C571      1.0  0.14603  0.81071  0.37144  1.0000
  C   C572      1.0  0.23380  0.76892  0.17434  1.0000
  C   C573      1.0  0.26231  0.78707  0.17232  1.0000
  H   H677      1.0  0.41595  0.88896  0.19225  1.0000
  H   H678      1.0  0.21987  0.77685  0.17800  1.0000
  H   H679      1.0  0.27020  0.80894  0.17450  1.0000
  C   C574      1.0  0.37566  0.83979  0.28782  1.0000
  C   C575      1.0  0.37827  0.85230  0.31758  1.0000
  C   C576      1.0  0.36353  0.86604  0.32435  1.0000
  C   C577      1.0  0.34664  0.86796  0.30106  1.0000
  C   C578      1.0  0.34410  0.85551  0.27128  1.0000
  C   C579      1.0  0.35832  0.84123  0.26477  1.0000
  H   H680      1.0  0.39182  0.85150  0.33545  1.0000
  H   H681      1.0  0.36568  0.87564  0.34735  1.0000
  H   H682      1.0  0.33102  0.85685  0.25316  1.0000
  H   H683      1.0  0.35593  0.83150  0.24183  1.0000
  C   C580      1.0  0.05425  0.90097  0.13000  1.0000
  C   C581      1.0  0.04193  0.89380  0.09987  1.0000
  H   H684      1.0  0.45496  0.88016  0.25729  1.0000
  C   C582      1.0  0.48160  0.85193  0.13553  1.0000
  H   H685      1.0  0.47822  0.76534  0.09688  1.0000
  C   C583      1.0  0.03751  0.89027  0.15712  1.0000
  H   H686      1.0  0.05453  0.90191  0.07881  1.0000
  H   H687      1.0  0.35089  0.80452  0.37120  1.0000
  H   H688      1.0  0.47851  0.85061  0.18658  1.0000
  H   H689      1.0  0.04687  0.89563  0.18050  1.0000
  C   C584      1.0  0.17886  0.87285  0.12360  1.0000
  C   C585      1.0  0.18221  0.84966  0.12361  1.0000
  C   C586      1.0  0.18052  0.83587  0.15215  1.0000
  C   C587      1.0  0.17615  0.84562  0.18100  1.0000
  C   C588      1.0  0.17302  0.86894  0.18106  1.0000
  C   C589      1.0  0.17394  0.88226  0.15239  1.0000
  H   H690      1.0  0.18617  0.84233  0.10148  1.0000
  H   H691      1.0  0.18334  0.81813  0.15190  1.0000
  H   H692      1.0  0.16955  0.87653  0.20329  1.0000
  S   S164      1.0  0.15108  0.98089  0.07857  1.0000
  H   H693      1.0  0.26002  0.82631  0.44611  1.0000
  H   H694      1.0  0.30204  0.97773  0.38060  1.0000
  Fe  Fe83      1.0  0.12903  0.94636  0.48342  1.0000
  H   H695      1.0  0.45026  0.86422  0.21895  1.0000
  H   H696      1.0  0.28540  0.98502  0.09070  1.0000
  C   C590      1.0  0.10150  0.80086  0.39197  1.0000
  C   C591      1.0  0.49211  0.85929  0.16642  1.0000
  C   C592      1.0  0.45089  0.75736  0.13628  1.0000
  C   C593      1.0  0.43851  0.89901  0.18747  1.0000
  C   C594      1.0  0.28697  0.80376  0.33576  1.0000
  C   C595      1.0  0.15776  0.83739  0.38374  1.0000
  H   H697      1.0  0.20772  0.99780  0.48103  1.0000
  H   H698      1.0  0.30110  0.82573  0.33709  1.0000
  C   C596      1.0  0.44543  0.87794  0.23345  1.0000
  H   H699      1.0  0.29401  0.80212  0.28658  1.0000
  N   N39       1.0  0.10576  0.76337  0.36231  1.0000
  C   C597      1.0  0.26751  0.99195  0.43923  1.0000
  H   H700      1.0  0.21286  0.87136  0.28164  1.0000
  H   H701      1.0  0.45551  0.94265  0.22737  1.0000
  H   H702      1.0  0.26620  0.95850  0.38866  1.0000
  H   H703      1.0  0.20155  0.75613  0.33114  1.0000
  H   H704      1.0  0.34497  0.97776  0.48351  1.0000
  C   C598      1.0  0.05169  0.80135  0.15234  1.0000
  S   S165      1.0  0.11803  0.75803  0.24009  1.0000
  H   H705      1.0  0.21538  0.94306  0.13087  1.0000
  H   H706      1.0  0.31012  0.96505  0.43298  1.0000
  C   C599      1.0  0.04192  0.81906  0.14407  1.0000
  C   C600      1.0  0.24315  0.75910  0.45375  1.0000
  N   N40       1.0  0.25700  0.95306  0.14183  1.0000
  C   C601      1.0  0.01403  0.80862  0.13684  1.0000
  C   C602      1.0  0.25590  0.93231  0.11893  1.0000
  C   C603      1.0  0.24844  0.93955  0.17341  1.0000
  C   C604      1.0  0.28489  0.97756  0.14178  1.0000
  C   C605      1.0  0.14140  0.84587  0.39970  1.0000
  C   C606      1.0  0.30095  0.98840  0.16993  1.0000
  H   H707      1.0  0.06339  0.96539  0.14531  1.0000
  C   C607      1.0  0.49971  0.86305  0.10959  1.0000
  H   H708      1.0  0.50323  0.75722  0.44294  1.0000
  S   S166      1.0  0.17891  0.76254  0.23590  1.0000
  H   H709      1.0  0.25741  0.93898  0.09378  1.0000
  H   H710      1.0  0.21930  0.77941  0.44713  1.0000
  H   H711      1.0  0.27636  0.80064  0.38533  1.0000
  H   H712      1.0  0.23605  0.91261  0.12043  1.0000
  H   H713      1.0  0.27278  0.92762  0.12356  1.0000
  C   C608      1.0  0.20616  0.87839  0.47933  1.0000
  H   H714      1.0  0.26290  0.93272  0.18212  1.0000
  H   H715      1.0  0.24691  0.95334  0.19142  1.0000
  C   C609      1.0  0.26442  0.76103  0.30439  1.0000
  H   H716      1.0  0.29366  0.97952  0.19310  1.0000
  H   H717      1.0  0.33454  0.78946  0.33389  1.0000
  H   H718      1.0  0.23704  0.97392  0.40051  1.0000
  N   N41       1.0  0.45474  0.90461  0.21737  1.0000
  N   N42       1.0  0.22925  0.84671  0.30088  1.0000
  C   C610      1.0  0.25592  0.87075  0.31042  1.0000
  C   C611      1.0  0.23272  0.83886  0.26809  1.0000
  H   H719      1.0  0.27399  0.94768  0.44270  1.0000
  C   C612      1.0  0.22107  0.82432  0.32436  1.0000
  C   C613      1.0  0.21424  0.79718  0.31561  1.0000
  C   C614      1.0  0.21935  0.82927  0.35722  1.0000
  C   C615      1.0  0.20655  0.77661  0.33845  1.0000
  C   C616      1.0  0.21209  0.80865  0.37996  1.0000
  C   C617      1.0  0.20568  0.78231  0.37057  1.0000
  H   H720      1.0  0.27175  0.86455  0.31456  1.0000
  H   H721      1.0  0.26417  0.88704  0.29190  1.0000
  H   H722      1.0  0.25439  0.88082  0.33254  1.0000
  H   H723      1.0  0.24882  0.83265  0.26725  1.0000
  H   H724      1.0  0.22763  0.92091  0.17236  1.0000
  H   H725      1.0  0.21303  0.82196  0.25841  1.0000
  H   H726      1.0  0.02729  0.94500  0.10397  1.0000
  H   H727      1.0  0.10078  0.83461  0.41590  1.0000
  H   H728      1.0  0.18742  0.83738  0.29297  1.0000
  H   H729      1.0  0.04128  0.75947  0.16033  1.0000
  H   H730      1.0  0.22393  0.84927  0.36562  1.0000
  H   H731      1.0  0.14259  0.75993  0.36746  1.0000
  H   H732      1.0  0.21172  0.81329  0.40500  1.0000
  H   H733      1.0  0.32010  0.77158  0.40383  1.0000
  H   H734      1.0  0.48191  0.79706  0.48183  1.0000
  H   H735      1.0  0.49558  0.92049  0.26247  1.0000
  H   H736      1.0  0.30235  0.76564  0.26154  1.0000
  H   H737      1.0  0.36758  0.77700  0.40488  1.0000
  Fe  Fe84      1.0  0.15780  0.78386  0.21439  1.0000
  C   C618      1.0  0.03875  0.77294  0.45447  1.0000
  C   C619      1.0  0.23651  0.96115  0.13207  1.0000
  C   C620      1.0  0.27298  0.78968  0.36299  1.0000
  H   H738      1.0  0.24093  0.97085  0.10820  1.0000
  H   H739      1.0  0.45697  0.92485  0.26219  1.0000
  N   N43       1.0  0.28987  0.98865  0.42468  1.0000
  C   C621      1.0  0.50323  0.92532  0.23837  1.0000
  C   C622      1.0  0.06323  0.79655  0.46332  1.0000
  C   C623      1.0  0.28212  0.76034  0.25065  1.0000
  C   C624      1.0  0.01307  0.87706  0.09705  1.0000
  C   C625      1.0  0.02154  0.94076  0.25079  1.0000
  H   H740      1.0  0.29867  0.97405  0.46832  1.0000
  C   C626      1.0  0.28451  0.97935  0.39096  1.0000
  H   H741      1.0  0.03945  0.93727  0.24871  1.0000
  H   H742      1.0  0.09874  0.77589  0.31641  1.0000
  C   C627      1.0  0.04192  0.95326  0.15229  1.0000
  C   C628      1.0  0.29667  0.99154  0.11288  1.0000
  C   C629      1.0  0.23974  0.78207  0.44958  1.0000
  H   H743      1.0  0.20673  0.87640  0.02592  1.0000
  H   H744      1.0  0.23692  0.87424  0.45252  1.0000
  C   C630      1.0  0.22445  0.99657  0.46944  1.0000
  H   H745      1.0  0.20026  0.76631  0.38816  1.0000
  S   S167      1.0  0.36989  0.98606  0.41995  1.0000
  H   H746      1.0  0.20559  0.86328  0.32295  1.0000
  C   C631      1.0  0.49697  0.92535  0.18127  1.0000
  H   H747      1.0  0.23588  0.76342  0.25363  1.0000
  H   H748      1.0  0.21475  0.79125  0.29131  1.0000
  C   C632      1.0  0.10860  0.76473  0.32715  1.0000
  H   H749      1.0  0.31312  0.79217  0.46037  1.0000
  S   S168      1.0  0.14471  0.75791  0.17025  1.0000
  C   C633      1.0  0.26971  0.76275  0.45673  1.0000
  C   C634      1.0  0.03496  0.94801  0.18450  1.0000
  H   H750      1.0  0.07971  0.78788  0.39635  1.0000
  C   C635      1.0  0.34898  0.78967  0.35232  1.0000
  H   H751      1.0  0.17961  0.85170  0.38095  1.0000
  H   H752      1.0  0.15037  0.86656  0.40903  1.0000
  H   H753      1.0  0.38067  0.76818  0.37039  1.0000
  H   H754      1.0  0.44156  0.88482  0.17144  1.0000
  C   C636      1.0  0.01458  0.77429  0.45072  1.0000
  H   H755      1.0  0.20091  0.97835  0.42705  1.0000
  H   H756      1.0  0.02875  0.96296  0.24719  1.0000
  H   H757      1.0  0.05602  0.84107  0.14329  1.0000
  H   H758      1.0  0.07334  0.80950  0.15793  1.0000
  C   C637      1.0  0.21270  0.89050  0.00599  1.0000
  S   S169      1.0  0.03890  0.85352  0.47187  1.0000
  H   H759      1.0  0.08201  0.79561  0.46619  1.0000
  H   H760      1.0  0.23612  0.97630  0.14901  1.0000
  C   C638      1.0  0.24172  0.98319  0.42388  1.0000
  H   H761      1.0  0.48488  0.92030  0.15970  1.0000
  C   C639      1.0  0.25434  0.76163  0.36133  1.0000
  C   C640      1.0  0.27065  0.00300  0.47042  1.0000
  Fe  Fe85      1.0  0.08001  0.88800  0.48837  1.0000
  Fe  Fe86      1.0  0.32779  0.97327  0.86468  1.0000
  S   S170      1.0  0.33148  0.98472  0.91683  1.0000
  Fe  Fe87      1.0  0.28641  0.93041  0.81905  1.0000
  S   S171      1.0  0.31181  0.95092  0.77543  1.0000
  S   S172      1.0  0.24468  0.89240  0.82552  1.0000
  Fe  Fe88      1.0  0.34781  0.95598  0.80518  1.0000
  S   S173      1.0  0.38505  0.95438  0.78533  1.0000
  H   H762      1.0  0.24975  0.98555  0.85054  1.0000
  S   S174      1.0  0.32182  0.93272  0.84725  1.0000
  S   S175      1.0  0.29078  0.96928  0.83956  1.0000
  Fe  Fe89      1.0  0.10651  0.92042  0.54824  1.0000
  S   S176      1.0  0.09739  0.92200  0.60036  1.0000
  Fe  Fe90      1.0  0.42188  0.84065  0.72273  1.0000
  S   S177      1.0  0.40941  0.81648  0.67700  1.0000
  S   S178      1.0  0.38884  0.84624  0.74759  1.0000
  Fe  Fe91      1.0  0.47609  0.84008  0.72558  1.0000
  S   S179      1.0  0.46749  0.81534  0.68098  1.0000
  H   H763      1.0  0.17362  0.94270  0.92854  1.0000
  Fe  Fe92      1.0  0.45336  0.84350  0.66215  1.0000
  S   S180      1.0  0.46377  0.85629  0.61112  1.0000
  Fe  Fe93      1.0  0.42458  0.79040  0.69970  1.0000
  H   H764      1.0  0.43996  0.79131  0.61674  1.0000
  S   S181      1.0  0.46472  0.87045  0.70565  1.0000
  S   S182      1.0  0.43447  0.81257  0.74639  1.0000
  S   S183      1.0  0.16963  0.83223  0.70557  1.0000
  H   H765      1.0  0.27387  0.92465  0.88516  1.0000
  H   H766      1.0  0.46381  0.86081  0.87792  1.0000
  H   H767      1.0  0.49785  0.76305  0.55633  1.0000
  H   H768      1.0  0.17792  0.88926  0.77343  1.0000
  C   C641      1.0  0.05427  0.78389  0.74562  1.0000
  H   H769      1.0  0.41916  0.85737  0.81039  1.0000
  H   H770      1.0  0.48105  0.79469  0.75091  1.0000
  H   H771      1.0  0.07470  0.78627  0.74622  1.0000
  H   H772      1.0  0.20278  0.94171  0.97850  1.0000
  C   C642      1.0  0.06183  0.90328  0.60881  1.0000
  C   C643      1.0  0.05280  0.89960  0.64049  1.0000
  C   C644      1.0  0.10321  0.88336  0.74767  1.0000
  H   H773      1.0  0.13177  0.96591  0.67409  1.0000
  H   H774      1.0  0.25699  0.87877  0.89716  1.0000
  H   H775      1.0  0.38361  0.76487  0.74602  1.0000
  H   H776      1.0  0.06765  0.90847  0.65959  1.0000
  S   S184      1.0  0.02007  0.83214  0.75793  1.0000
  H   H777      1.0  0.49103  0.75670  0.75956  1.0000
  H   H778      1.0  0.16658  0.88590  0.58037  1.0000
  H   H779      1.0  0.48045  0.82948  0.52022  1.0000
  H   H780      1.0  0.05032  0.79323  0.53004  1.0000
  H   H781      1.0  0.16819  0.88459  0.81381  1.0000
  C   C645      1.0  0.13028  0.84333  0.77594  1.0000
  C   C646      1.0  0.38589  0.92408  0.77554  1.0000
  C   C647      1.0  0.41074  0.92615  0.76483  1.0000
  C   C648      1.0  0.41211  0.90255  0.75618  1.0000
  C   C649      1.0  0.38857  0.87665  0.75826  1.0000
  C   C650      1.0  0.36383  0.87457  0.76916  1.0000
  C   C651      1.0  0.36243  0.89815  0.77770  1.0000
  H   H782      1.0  0.42898  0.94617  0.76317  1.0000
  H   H783      1.0  0.43131  0.90443  0.74791  1.0000
  H   H784      1.0  0.34553  0.85459  0.77092  1.0000
  H   H785      1.0  0.34321  0.89629  0.78590  1.0000
  C   C652      1.0  0.22544  0.87535  0.79128  1.0000
  C   C653      1.0  0.20390  0.84816  0.79388  1.0000
  C   C654      1.0  0.18750  0.83433  0.76731  1.0000
  C   C655      1.0  0.19204  0.84790  0.73817  1.0000
  C   C656      1.0  0.21346  0.87517  0.73561  1.0000
  C   C657      1.0  0.23034  0.88879  0.76200  1.0000
  H   H786      1.0  0.20005  0.83763  0.81644  1.0000
  H   H787      1.0  0.17107  0.81331  0.76954  1.0000
  H   H788      1.0  0.21706  0.88582  0.71316  1.0000
  H   H789      1.0  0.24683  0.90980  0.75981  1.0000
  C   C658      1.0  0.41843  0.77955  0.60760  1.0000
  C   C659      1.0  0.16298  0.89002  0.79030  1.0000
  N   N44       1.0  0.45730  0.86014  0.82741  1.0000
  H   H790      1.0  0.10840  0.82781  0.77170  1.0000
  C   C660      1.0  0.48700  0.87766  0.81970  1.0000
  N   N45       1.0  0.39680  0.90068  0.65621  1.0000
  C   C661      1.0  0.44758  0.83032  0.82525  1.0000
  H   H791      1.0  0.28269  0.90131  0.96353  1.0000
  H   H792      1.0  0.21353  0.98669  0.94174  1.0000
  H   H793      1.0  0.37960  0.90765  0.69910  1.0000
  C   C662      1.0  0.02451  0.88447  0.64756  1.0000
  H   H794      1.0  0.40480  0.77051  0.62870  1.0000
  H   H795      1.0  0.24340  0.86439  0.93510  1.0000
  S   S185      1.0  0.08694  0.92891  0.50607  1.0000
  N   N46       1.0  0.25636  0.90771  0.93087  1.0000
  H   H796      1.0  0.22086  0.98838  0.79358  1.0000
  H   H797      1.0  0.21071  0.94083  0.83972  1.0000
  C   C663      1.0  0.13823  0.98500  0.68686  1.0000
  H   H798      1.0  0.49491  0.86978  0.55288  1.0000
  H   H799      1.0  0.49155  0.87351  0.79512  1.0000
  H   H800      1.0  0.41371  0.88238  0.68772  1.0000
  H   H801      1.0  0.46977  0.78367  0.81302  1.0000
  S   S186      1.0  0.16171  0.96744  0.98629  1.0000
  H   H802      1.0  0.41633  0.92848  0.69539  1.0000
  H   H803      1.0  0.12244  0.86328  0.83067  1.0000
  H   H804      1.0  0.39464  0.86116  0.65403  1.0000
  C   C664      1.0  0.28375  0.91581  0.94487  1.0000
  H   H805      1.0  0.47934  0.91603  0.60807  1.0000
  C   C665      1.0  0.11561  0.89949  0.69345  1.0000
  C   C666      1.0  0.01412  0.87734  0.59126  1.0000
  C   C667      1.0  0.50774  0.77772  0.75933  1.0000
  H   H806      1.0  0.44364  0.86226  0.78011  1.0000
  S   S187      1.0  0.11839  0.76012  0.74967  1.0000
  H   H807      1.0  0.44012  0.88977  0.64207  1.0000
  C   C668      1.0  0.45093  0.79787  0.55108  1.0000
  H   H808      1.0  0.14185  0.84259  0.75491  1.0000
  H   H809      1.0  0.16732  0.91164  0.79153  1.0000
  C   C669      1.0  0.45294  0.86692  0.86026  1.0000
  H   H810      1.0  0.23336  0.94232  0.93677  1.0000
  C   C670      1.0  0.46435  0.92280  0.61148  1.0000
  H   H811      1.0  0.39381  0.93593  0.67236  1.0000
  H   H812      1.0  0.16217  0.88395  0.72424  1.0000
  H   H813      1.0  0.40431  0.81729  0.83462  1.0000
  C   C671      1.0  0.26072  0.92642  0.90383  1.0000
  C   C672      1.0  0.44150  0.90781  0.63111  1.0000
  H   H814      1.0  0.49359  0.89991  0.82072  1.0000
  H   H815      1.0  0.45117  0.81328  0.56672  1.0000
  C   C673      1.0  0.39563  0.87638  0.67181  1.0000
  N   N47       1.0  0.13384  0.87106  0.78101  1.0000
  N   N48       1.0  0.13467  0.85115  0.60562  1.0000
  C   C674      1.0  0.15591  0.84507  0.61848  1.0000
  C   C675      1.0  0.12300  0.83419  0.57653  1.0000
  C   C676      1.0  0.14891  0.88060  0.59668  1.0000
  C   C677      1.0  0.11215  0.84537  0.62831  1.0000
  C   C678      1.0  0.11096  0.83468  0.65922  1.0000
  C   C679      1.0  0.09046  0.85046  0.61978  1.0000
  C   C680      1.0  0.08939  0.82934  0.68002  1.0000
  C   C681      1.0  0.06896  0.84505  0.64083  1.0000
  C   C682      1.0  0.06835  0.83440  0.67090  1.0000
  H   H816      1.0  0.14694  0.82296  0.62475  1.0000
  H   H817      1.0  0.16623  0.85761  0.64006  1.0000
  H   H818      1.0  0.11168  0.81191  0.58239  1.0000
  C   C683      1.0  0.45287  0.76116  0.50752  1.0000
  H   H819      1.0  0.15707  0.89405  0.61800  1.0000
  H   H820      1.0  0.13519  0.88648  0.58391  1.0000
  H   H821      1.0  0.12661  0.83050  0.66815  1.0000
  H   H822      1.0  0.09009  0.85900  0.59690  1.0000
  H   H823      1.0  0.08945  0.82169  0.70356  1.0000
  H   H824      1.0  0.05289  0.84950  0.63391  1.0000
  H   H825      1.0  0.05189  0.83064  0.68739  1.0000
  C   C684      1.0  0.42139  0.91605  0.63581  1.0000
  C   C685      1.0  0.44860  0.95488  0.60005  1.0000
  C   C686      1.0  0.42770  0.77288  0.82169  1.0000
  H   H826      1.0  0.43073  0.85623  0.86681  1.0000
  H   H827      1.0  0.15259  0.90144  0.67573  1.0000
  H   H828      1.0  0.26325  0.98553  0.78344  1.0000
  C   C687      1.0  0.11624  0.86950  0.80836  1.0000
  H   H829      1.0  0.16282  0.97799  0.72094  1.0000
  H   H830      1.0  0.41284  0.79434  0.59699  1.0000
  C   C688      1.0  0.05029  0.80625  0.75220  1.0000
  H   H831      1.0  0.29860  0.91676  0.92648  1.0000
  C   C689      1.0  0.49942  0.87630  0.60360  1.0000
  C   C690      1.0  0.09766  0.89261  0.71917  1.0000
  H   H832      1.0  0.11753  0.88968  0.81294  1.0000
  C   C691      1.0  0.12709  0.88058  0.75114  1.0000
  C   C692      1.0  0.23021  0.89033  0.98226  1.0000
  S   S188      1.0  0.35701  0.99698  0.82556  1.0000
  H   H833      1.0  0.10852  0.83904  0.56379  1.0000
  N   N49       1.0  0.41527  0.75813  0.58437  1.0000
  H   H834      1.0  0.28269  0.99992  0.92352  1.0000
  C   C693      1.0  0.46795  0.80759  0.52432  1.0000
  H   H835      1.0  0.06764  0.82608  0.75762  1.0000
  H   H836      1.0  0.11109  0.90640  0.67128  1.0000
  C   C694      1.0  0.14440  0.88686  0.72405  1.0000
  S   S189      1.0  0.09687  0.87876  0.53175  1.0000
  C   C695      1.0  0.13892  0.89660  0.69593  1.0000
  H   H837      1.0  0.36940  0.90788  0.62626  1.0000
  H   H838      1.0  0.07905  0.89408  0.71693  1.0000
  H   H839      1.0  0.27167  0.94833  0.91139  1.0000
  H   H840      1.0  0.45137  0.97308  0.58780  1.0000
  H   H841      1.0  0.04917  0.89441  0.55974  1.0000
  S   S190      1.0  0.14922  0.94137  0.52744  1.0000
  H   H842      1.0  0.17253  0.84969  0.60082  1.0000
  C   C696      1.0  0.24446  0.87956  0.91743  1.0000
  C   C697      1.0  0.42569  0.94009  0.61966  1.0000
  H   H843      1.0  0.05490  0.77167  0.64697  1.0000
  C   C698      1.0  0.02391  0.80329  0.75091  1.0000
  S   S191      1.0  0.16554  0.88188  0.51205  1.0000
  C   C699      1.0  0.04242  0.89178  0.58423  1.0000
  H   H844      1.0  0.13756  0.83635  0.79676  1.0000
  H   H845      1.0  0.37701  0.86530  0.68711  1.0000
  H   H846      1.0  0.08816  0.87814  0.76638  1.0000
  H   H847      1.0  0.35250  0.87836  0.65108  1.0000
  Fe  Fe94      1.0  0.14041  0.78626  0.70745  1.0000
  H   H848      1.0  0.09420  0.85379  0.80441  1.0000
  H   H849      1.0  0.13941  0.83769  0.55902  1.0000
  C   C700      1.0  0.41926  0.81085  0.82981  1.0000
  C   C701      1.0  0.18959  0.93884  0.88335  1.0000
  H   H850      1.0  0.37131  0.87769  0.61658  1.0000
  C   C702      1.0  0.21348  0.97766  0.91894  1.0000
  H   H851      1.0  0.29305  0.93663  0.95591  1.0000
  C   C703      1.0  0.39662  0.91897  0.68173  1.0000
  H   H852      1.0  0.48748  0.83263  0.81540  1.0000
  H   H853      1.0  0.44882  0.89014  0.80552  1.0000
  H   H854      1.0  0.17190  0.91901  0.87804  1.0000
  H   H855      1.0  0.01236  0.76958  0.66863  1.0000
  H   H856      1.0  0.48558  0.95762  0.58065  1.0000
  C   C704      1.0  0.45568  0.79134  0.81778  1.0000
  C   C705      1.0  0.23394  0.97699  0.86847  1.0000
  C   C706      1.0  0.37144  0.89077  0.63669  1.0000
  Fe  Fe95      1.0  0.31930  0.99016  0.79905  1.0000
  C   C707      1.0  0.44157  0.86772  0.80502  1.0000
  H   H857      1.0  0.22329  0.87227  0.90801  1.0000
  C   C708      1.0  0.43421  0.76924  0.55683  1.0000
  C   C709      1.0  0.21133  0.95115  0.86184  1.0000
  C   C710      1.0  0.46563  0.81965  0.81942  1.0000
  C   C711      1.0  0.01695  0.81041  0.58499  1.0000
  H   H858      1.0  0.41128  0.94758  0.62198  1.0000
  C   C712      1.0  0.49871  0.76243  0.63822  1.0000
  C   C713      1.0  0.50037  0.77073  0.58058  1.0000
  H   H859      1.0  0.50043  0.87441  0.83668  1.0000
  H   H860      1.0  0.03588  0.82776  0.53987  1.0000
  C   C714      1.0  0.50207  0.79920  0.75454  1.0000
  C   C715      1.0  0.19062  0.95215  0.91178  1.0000
  H   H861      1.0  0.46067  0.88931  0.86325  1.0000
  C   C716      1.0  0.22801  0.92738  0.95539  1.0000
  Fe  Fe96      1.0  0.13767  0.90007  0.50723  1.0000
  S   S192      1.0  0.15212  0.75669  0.68636  1.0000
  C   C717      1.0  0.03124  0.81173  0.55726  1.0000
  H   H862      1.0  0.11555  0.99737  0.65630  1.0000
  C   C718      1.0  0.21052  0.92737  0.97927  1.0000
  C   C719      1.0  0.03382  0.77183  0.57422  1.0000
  C   C720      1.0  0.03175  0.75833  0.73819  1.0000
  C   C721      1.0  0.23805  0.90848  0.95590  1.0000
  C   C722      1.0  0.03949  0.79236  0.55182  1.0000
  C   C723      1.0  0.23561  0.99118  0.89719  1.0000
  H   H863      1.0  0.16986  0.99192  0.92436  1.0000
  H   H864      1.0  0.24095  0.92142  0.89190  1.0000
  H   H865      1.0  0.20680  0.86662  0.49935  1.0000
  C   C724      1.0  0.15567  0.99183  0.71316  1.0000
  C   C725      1.0  0.40956  0.78261  0.82786  1.0000
  H   H866      1.0  0.47921  0.76571  0.69733  1.0000
  C   C726      1.0  0.46890  0.78930  0.50263  1.0000
  C   C727      1.0  0.50721  0.79062  0.64280  1.0000
  C   C728      1.0  0.46788  0.94623  0.59597  1.0000
  S   S193      1.0  0.10165  0.76996  0.67867  1.0000
  C   C729      1.0  0.12912  0.00282  0.67684  1.0000
  H   H867      1.0  0.18431  0.75548  0.51897  1.0000
  C   C730      1.0  0.01965  0.77010  0.60297  1.0000
  H   H868      1.0  0.01775  0.88176  0.67205  1.0000
  H   H869      1.0  0.16318  0.76372  0.49395  1.0000
  H   H870      1.0  0.38194  0.75835  0.55890  1.0000
  H   H871      1.0  0.23761  0.87591  0.98478  1.0000
  C   C731      1.0  0.50821  0.79818  0.58600  1.0000
  C   C732      1.0  0.17333  0.00167  0.97443  1.0000
  H   H872      1.0  0.38779  0.76813  0.83091  1.0000
  C   C733      1.0  0.50924  0.87959  0.57228  1.0000
  C   C734      1.0  0.01112  0.78994  0.60758  1.0000
  H   H873      1.0  0.04068  0.75728  0.56885  1.0000
  H   H874      1.0  0.01061  0.82557  0.58924  1.0000
  Fe  Fe97      1.0  0.87286  0.14074  0.05607  1.0000
  S   S194      1.0  0.87169  0.12102  0.10276  1.0000
  S   S195      1.0  0.85714  0.16986  0.04498  1.0000
  Fe  Fe98      1.0  0.90061  0.11276  0.02193  1.0000
  S   S196      1.0  0.90293  0.09178  0.06634  1.0000
  H   H875      1.0  0.64159  0.08030  0.39495  1.0000
  Fe  Fe99      1.0  0.85926  0.08270  0.07398  1.0000
  S   S197      1.0  0.82568  0.03848  0.07932  1.0000
  Fe  Fe100     1.0  0.91560  0.13222  0.09092  1.0000
  S   S198      1.0  0.94665  0.15409  0.13097  1.0000
  S   S199      1.0  0.85662  0.10171  0.02833  1.0000
  S   S200      1.0  0.91703  0.15406  0.04553  1.0000
  H   H876      1.0  0.68859  0.03483  0.39601  1.0000
  H   H877      1.0  0.97492  0.24551  0.08527  1.0000
  H   H878      1.0  0.97710  0.22353  0.12947  1.0000
  C   C735      1.0  0.97820  0.10889  0.17211  1.0000
  S   S201      1.0  0.55825  0.20618  0.15563  1.0000
  H   H879      1.0  0.71605  0.14066  0.03726  1.0000
  H   H880      1.0  0.89347  0.24387  0.40346  1.0000
  C   C736      1.0  0.78077  0.08381  0.04902  1.0000
  C   C737      1.0  0.52700  0.20277  0.06665  1.0000
  C   C738      1.0  0.75767  0.16140  0.05505  1.0000
  C   C739      1.0  0.76280  0.04303  0.12208  1.0000
  S   S202      1.0  0.63052  0.21019  0.17459  1.0000
  H   H881      1.0  0.74788  0.20048  0.23876  1.0000
  Fe  Fe101     1.0  0.74085  0.20920  0.40842  1.0000
  S   S203      1.0  0.76610  0.21054  0.36624  1.0000
  H   H882      1.0  0.72908  0.07301  0.99832  1.0000
  Fe  Fe102     1.0  0.71571  0.14706  0.41681  1.0000
  S   S204      1.0  0.73849  0.14351  0.37486  1.0000
  S   S205      1.0  0.68691  0.11241  0.44922  1.0000
  Fe  Fe103     1.0  0.77463  0.18161  0.39466  1.0000
  S   S206      1.0  0.81558  0.18288  0.39402  1.0000
  Fe  Fe104     1.0  0.72779  0.17274  0.35054  1.0000
  S   S207      1.0  0.71386  0.16781  0.29928  1.0000
  S   S208      1.0  0.75262  0.18338  0.43846  1.0000
  S   S209      1.0  0.70173  0.17304  0.39087  1.0000
  C   C740      1.0  0.94852  0.25156  0.11876  1.0000
  C   C741      1.0  0.66587  0.10438  0.34056  1.0000
  H   H883      1.0  0.63034  0.13818  0.38582  1.0000
  C   C742      1.0  0.82223  0.07301  0.44854  1.0000
  H   H884      1.0  0.79888  0.13377  0.06401  1.0000
  H   H885      1.0  0.93024  0.24658  0.46054  1.0000
  C   C743      1.0  0.62505  0.16001  0.34807  1.0000
  H   H886      1.0  0.97676  0.24254  0.16391  1.0000
  C   C744      1.0  0.87121  0.00815  0.44549  1.0000
  C   C745      1.0  0.75804  0.11011  0.43879  1.0000
  C   C746      1.0  0.99545  0.16648  0.10028  1.0000
  C   C747      1.0  0.68162  0.04157  0.41640  1.0000
  C   C748      1.0  0.68784  0.06910  0.41858  1.0000
  C   C749      1.0  0.67893  0.07791  0.44489  1.0000
  H   H887      1.0  0.66523  0.06084  0.02476  1.0000
  S   S210      1.0  0.85539  0.24262  0.15977  1.0000
  H   H888      1.0  0.74907  0.09397  0.42008  1.0000
  H   H889      1.0  0.69952  0.08345  0.39997  1.0000
  C   C750      1.0  0.83050  0.18266  0.43079  1.0000
  C   C751      1.0  0.84912  0.17278  0.43208  1.0000
  C   C752      1.0  0.86159  0.17253  0.46097  1.0000
  C   C753      1.0  0.78071  0.15899  0.06240  1.0000
  C   C754      1.0  0.99965  0.18469  0.15348  1.0000
  C   C755      1.0  0.82451  0.19249  0.45856  1.0000
  H   H890      1.0  0.85377  0.16508  0.41067  1.0000
  H   H891      1.0  0.87564  0.16458  0.46164  1.0000
  H   H892      1.0  0.93815  0.20118  0.09505  1.0000
  S   S211      1.0  0.89369  0.08711  0.46790  1.0000
  C   C756      1.0  0.67489  0.22002  0.27193  1.0000
  C   C757      1.0  0.67861  0.20412  0.24886  1.0000
  C   C758      1.0  0.69091  0.18835  0.25728  1.0000
  C   C759      1.0  0.69984  0.18876  0.28863  1.0000
  C   C760      1.0  0.69716  0.20559  0.31127  1.0000
  C   C761      1.0  0.68450  0.22097  0.30301  1.0000
  H   H893      1.0  0.67126  0.20331  0.22480  1.0000
  H   H894      1.0  0.69290  0.17535  0.23964  1.0000
  H   H895      1.0  0.70428  0.20635  0.33538  1.0000
  H   H896      1.0  0.68174  0.23329  0.32093  1.0000
  H   H897      1.0  0.68233  0.12504  0.34824  1.0000
  N   N50       1.0  0.75495  0.08375  0.04029  1.0000
  C   C762      1.0  0.63295  0.12573  0.30636  1.0000
  C   C763      1.0  0.87647  0.03544  0.44438  1.0000
  H   H898      1.0  0.77899  0.06328  0.04539  1.0000
  H   H899      1.0  0.65430  0.11617  0.39804  1.0000
  N   N51       1.0  0.93951  0.22545  0.13593  1.0000
  H   H900      1.0  0.87168  0.04294  0.42296  1.0000
  C   C764      1.0  0.76509  0.19585  0.23987  1.0000
  C   C765      1.0  0.98295  0.16944  0.12766  1.0000
  H   H901      1.0  0.83385  0.22834  0.22573  1.0000
  C   C766      1.0  0.54565  0.20743  0.09175  1.0000
  C   C767      1.0  0.53587  0.19982  0.12282  1.0000
  H   H902      1.0  0.75818  0.18082  0.05850  1.0000
  H   H903      1.0  0.73464  0.06756  0.08515  1.0000
  H   H904      1.0  0.74331  0.11786  0.44230  1.0000
  H   H905      1.0  0.56749  0.21669  0.08706  1.0000
  H   H906      1.0  0.79130  0.14087  0.48478  1.0000
  H   H907      1.0  0.98287  0.15483  0.08023  1.0000
  H   H908      1.0  0.77749  0.12734  0.42902  1.0000
  H   H909      1.0  0.67103  0.08900  0.35028  1.0000
  H   H910      1.0  0.79854  0.09874  0.03450  1.0000
  C   C768      1.0  0.79350  0.03019  0.09584  1.0000
  C   C769      1.0  0.78923  0.04997  0.11101  1.0000
  C   C770      1.0  0.63788  0.09708  0.38672  1.0000
  H   H911      1.0  0.99017  0.18697  0.17485  1.0000
  H   H912      1.0  0.53932  0.25135  0.11175  1.0000
  H   H913      1.0  0.63661  0.11350  0.28920  1.0000
  C   C771      1.0  0.85642  0.18978  0.07700  1.0000
  C   C772      1.0  0.84978  0.17900  0.10778  1.0000
  C   C773      1.0  0.84887  0.19518  0.13286  1.0000
  C   C774      1.0  0.85530  0.22241  0.12748  1.0000
  C   C775      1.0  0.86211  0.23316  0.09673  1.0000
  C   C776      1.0  0.86228  0.21676  0.07149  1.0000
  H   H914      1.0  0.84494  0.15809  0.11219  1.0000
  H   H915      1.0  0.84352  0.18668  0.15658  1.0000
  C   C777      1.0  0.88820  0.05321  0.47059  1.0000
  H   H916      1.0  0.86740  0.22521  0.04773  1.0000
  H   H917      1.0  0.76255  0.22410  0.28583  1.0000
  C   C778      1.0  0.62966  0.13939  0.36021  1.0000
  C   C779      1.0  0.62415  0.16334  0.31532  1.0000
  C   C780      1.0  0.79068  0.22961  0.20021  1.0000
  H   H918      1.0  0.74686  0.23548  0.11995  1.0000
  C   C781      1.0  0.97725  0.10869  0.20525  1.0000
  C   C782      1.0  0.65362  0.01859  0.01565  1.0000
  H   H919      1.0  0.81687  0.01462  0.45322  1.0000
  H   H920      1.0  0.71440  0.09686  0.02946  1.0000
  H   H921      1.0  0.75679  0.05689  0.43091  1.0000
  H   H922      1.0  0.61759  0.09259  0.39661  1.0000
  H   H923      1.0  0.62834  0.24284  0.43525  1.0000
  H   H924      1.0  0.78472  0.21279  0.18246  1.0000
  H   H925      1.0  0.61783  0.07123  0.31232  1.0000
  H   H926      1.0  0.79027  0.04211  0.41928  1.0000
  H   H927      1.0  0.75951  0.05840  0.13371  1.0000
  H   H928      1.0  0.80629  0.07059  0.11420  1.0000
  C   C783      1.0  0.73322  0.11373  0.03876  1.0000
  H   H929      1.0  0.76500  0.18733  0.26385  1.0000
  C   C784      1.0  0.79583  0.05921  0.43541  1.0000
  C   C785      1.0  0.74954  0.07634  0.00607  1.0000
  N   N52       1.0  0.63848  0.09931  0.35143  1.0000
  Fe  Fe105     1.0  0.64813  0.24292  0.21199  1.0000
  C   C786      1.0  0.75630  0.11050  0.04584  1.0000
  C   C787      1.0  0.61701  0.07243  0.33867  1.0000
  C   C788      1.0  0.79968  0.24337  0.25571  1.0000
  H   H930      1.0  0.95748  0.20558  0.16308  1.0000
  C   C789      1.0  0.66650  0.02267  0.44046  1.0000
  H   H931      1.0  0.53468  0.20864  0.04266  1.0000
  H   H932      1.0  0.79916  0.17665  0.07159  1.0000
  H   H933      1.0  0.62096  0.17959  0.30595  1.0000
  C   C790      1.0  0.78022  0.13401  0.05789  1.0000
  C   C791      1.0  0.77676  0.06779  0.44234  1.0000
  Fe  Fe106     1.0  0.66367  0.24214  0.14356  1.0000
  C   C792      1.0  0.74053  0.01635  0.11784  1.0000
  C   C793      1.0  0.81057  0.10383  0.47622  1.0000
  H   H934      1.0  0.62809  0.14942  0.26906  1.0000
  H   H935      1.0  0.80791  0.19408  0.21759  1.0000
  C   C794      1.0  0.66502  0.04643  0.00743  1.0000
  S   S212      1.0  0.69393  0.23237  0.11988  1.0000
  H   H936      1.0  0.71158  0.05842  0.05189  1.0000
  N   N53       1.0  0.76327  0.09969  0.46892  1.0000
  C   C795      1.0  0.78353  0.09040  0.46297  1.0000
  H   H937      1.0  0.95928  0.09860  0.15831  1.0000
  H   H938      1.0  0.90773  0.20373  0.10107  1.0000
  H   H939      1.0  0.81579  0.20583  0.25827  1.0000
  C   C796      1.0  0.81330  0.21184  0.23374  1.0000
  C   C797      1.0  0.66360  0.05897  0.46876  1.0000
  H   H940      1.0  0.59601  0.06846  0.34513  1.0000
  S   S213      1.0  0.65789  0.23857  0.26319  1.0000
  H   H941      1.0  0.89375  0.23141  0.45969  1.0000
  Fe  Fe107     1.0  0.60520  0.22937  0.15870  1.0000
  C   C798      1.0  0.62812  0.14626  0.29453  1.0000
  C   C799      1.0  0.78240  0.24196  0.28141  1.0000
  H   H942      1.0  0.89616  0.05674  0.00672  1.0000
  H   H943      1.0  0.90157  0.22051  0.15532  1.0000
  H   H944      1.0  0.75995  0.17896  0.22248  1.0000
  H   H945      1.0  0.66733  0.10381  0.31420  1.0000
  H   H946      1.0  0.78585  0.08902  0.07461  1.0000
  S   S214      1.0  0.73671  0.24516  0.42550  1.0000
  H   H947      1.0  0.91488  0.18201  0.12601  1.0000
  H   H948      1.0  0.00411  0.12329  0.13083  1.0000
  H   H949      1.0  0.66089  0.23321  0.40785  1.0000
  H   H950      1.0  0.86912  0.24970  0.48205  1.0000
  H   H951      1.0  0.91474  0.20172  0.17580  1.0000
  C   C800      1.0  0.73397  0.13880  0.04321  1.0000
  S   S215      1.0  0.70723  0.00881  0.12962  1.0000
  H   H952      1.0  0.95746  0.09789  0.21713  1.0000
  H   H953      1.0  0.73146  0.04190  0.05731  1.0000
  C   C801      1.0  0.73223  0.06208  0.05937  1.0000
  N   N54       1.0  0.79210  0.22048  0.23293  1.0000
  C   C802      1.0  0.92100  0.22143  0.16325  1.0000
  C   C803      1.0  0.63362  0.12145  0.33960  1.0000
  C   C804      1.0  0.96381  0.22441  0.14861  1.0000
  C   C805      1.0  0.92445  0.20216  0.11357  1.0000
  H   H954      1.0  0.61940  0.05517  0.34821  1.0000
  H   H955      1.0  0.64513  0.01169  0.03916  1.0000
  C   C806      1.0  0.82952  0.09516  0.46896  1.0000
  H   H956      1.0  0.62241  0.17368  0.36413  1.0000
  H   H957      1.0  0.77543  0.23686  0.19860  1.0000
  H   H958      1.0  0.81049  0.20055  0.45767  1.0000
  H   H959      1.0  0.93118  0.23818  0.18117  1.0000
  S   S216      1.0  0.92332  0.16307  0.48035  1.0000
  H   H960      1.0  0.72631  0.06013  0.46237  1.0000
  C   C807      1.0  0.65749  0.03147  0.46666  1.0000
  H   H961      1.0  0.99925  0.12200  0.24865  1.0000
  H   H962      1.0  0.83732  0.06686  0.44263  1.0000
  H   H963      1.0  0.82081  0.04061  0.00757  1.0000
  H   H964      1.0  0.85024  0.10595  0.47885  1.0000
  H   H965      1.0  0.74966  0.05697  0.00065  1.0000
  H   H966      1.0  0.81089  0.24655  0.19208  1.0000
  C   C808      1.0  0.00347  0.12281  0.15665  1.0000
  H   H967      1.0  0.64579  0.01707  0.48527  1.0000
  C   C809      1.0  0.00156  0.12274  0.22311  1.0000
  H   H968      1.0  0.54039  0.25160  0.48183  1.0000
  C   C810      1.0  0.73691  0.07649  0.48056  1.0000
  C   C811      1.0  0.66581  0.25433  0.41141  1.0000
  C   C812      1.0  0.91310  0.25117  0.46365  1.0000
  H   H969      1.0  0.86725  0.25410  0.09228  1.0000
  H   H970      1.0  0.76525  0.09285  0.99078  1.0000
  H   H971      1.0  0.72185  0.08327  0.48707  1.0000
  C   C813      1.0  0.83725  0.19251  0.48747  1.0000
  H   H972      1.0  0.65655  0.06563  0.48915  1.0000
  C   C814      1.0  0.85588  0.18259  0.48870  1.0000
  H   H973      1.0  0.82700  0.00483  0.48920  1.0000
  H   H974      1.0  0.90182  0.08248  0.90949  1.0000
  H   H975      1.0  0.61081  0.06270  0.96737  1.0000
  Fe  Fe108     1.0  0.72863  0.08064  0.86467  1.0000
  S   S217      1.0  0.74940  0.10418  0.90902  1.0000
  S   S218      1.0  0.72751  0.04037  0.85756  1.0000
  Fe  Fe109     1.0  0.70348  0.11703  0.84975  1.0000
  S   S219      1.0  0.72141  0.14240  0.89380  1.0000
  S   S220      1.0  0.67920  0.12487  0.81210  1.0000
  Fe  Fe110     1.0  0.75986  0.14162  0.87976  1.0000
  S   S221      1.0  0.80039  0.18136  0.88348  1.0000
  Fe  Fe111     1.0  0.70905  0.10228  0.91826  1.0000
  S   S222      1.0  0.68957  0.09053  0.96692  1.0000
  S   S223      1.0  0.74259  0.11816  0.83430  1.0000
  S   S224      1.0  0.68758  0.07693  0.87534  1.0000
  Fe  Fe112     1.0  0.93330  0.14970  0.56849  1.0000
  S   S225      1.0  0.94145  0.15204  0.62147  1.0000
  Fe  Fe113     1.0  0.57828  0.21356  0.73427  1.0000
  S   S226      1.0  0.55950  0.18562  0.77621  1.0000
  S   S227      1.0  0.56490  0.19775  0.68393  1.0000
  H   H976      1.0  0.81548  0.14187  0.89933  1.0000
  C   C815      1.0  0.91776  0.04213  0.76348  1.0000
  Fe  Fe114     1.0  0.60098  0.21029  0.79981  1.0000
  S   S228      1.0  0.62140  0.19630  0.83647  1.0000
  Fe  Fe115     1.0  0.55110  0.21857  0.79339  1.0000
  C   C816      1.0  0.80088  0.03431  0.82004  1.0000
  N   N55       1.0  0.80088  0.01553  0.96616  1.0000
  H   H977      1.0  0.90356  0.05684  0.51836  1.0000
  C   C817      1.0  0.97593  0.16232  0.63125  1.0000
  H   H978      1.0  0.59351  0.08731  0.94435  1.0000
  C   C818      1.0  0.90493  0.05702  0.77235  1.0000
  C   C819      1.0  0.53356  0.19420  0.66914  1.0000
  H   H979      1.0  0.94035  0.13827  0.80025  1.0000
  C   C820      1.0  0.98705  0.17568  0.66030  1.0000
  H   H980      1.0  0.90605  0.01984  0.76273  1.0000
  H   H981      1.0  0.53604  0.17626  0.62471  1.0000
  H   H982      1.0  0.98851  0.16434  0.73407  1.0000
  H   H983      1.0  0.97446  0.17976  0.67650  1.0000
  C   C821      1.0  0.99240  0.15726  0.61037  1.0000
  C   C822      1.0  0.86773  0.18681  0.92158  1.0000
  H   H984      1.0  0.91008  0.21475  0.57648  1.0000
  C   C823      1.0  0.81948  0.19565  0.84832  1.0000
  C   C824      1.0  0.81386  0.18020  0.82034  1.0000
  C   C825      1.0  0.82947  0.19206  0.79274  1.0000
  H   H985      1.0  0.66185  0.10347  0.91389  1.0000
  C   C826      1.0  0.60566  0.02310  0.95887  1.0000
  C   C827      1.0  0.84087  0.22302  0.84852  1.0000
  H   H986      1.0  0.79786  0.15896  0.82000  1.0000
  H   H987      1.0  0.82508  0.17992  0.77123  1.0000
  H   H988      1.0  0.84531  0.23517  0.87002  1.0000
  C   C828      1.0  0.66425  0.14575  0.81880  1.0000
  C   C829      1.0  0.64940  0.14941  0.79411  1.0000
  C   C830      1.0  0.63666  0.16541  0.79886  1.0000
  C   C831      1.0  0.63847  0.17757  0.82850  1.0000
  C   C832      1.0  0.65375  0.17429  0.85300  1.0000
  C   C833      1.0  0.66681  0.15864  0.84812  1.0000
  H   H989      1.0  0.64744  0.13957  0.77130  1.0000
  H   H990      1.0  0.62491  0.16779  0.77985  1.0000
  H   H991      1.0  0.65531  0.18380  0.87595  1.0000
  H   H992      1.0  0.67841  0.15620  0.86718  1.0000
  H   H993      1.0  0.99171  0.13483  0.72675  1.0000
  H   H994      1.0  0.84120  0.18163  0.97763  1.0000
  H   H995      1.0  0.87235  0.15203  0.98497  1.0000
  C   C834      1.0  0.67564  0.05553  0.97681  1.0000
  C   C835      1.0  0.67510  0.03665  0.95459  1.0000
  S   S229      1.0  0.95566  0.14216  0.52853  1.0000
  C   C836      1.0  0.66293  0.00870  0.96249  1.0000
  H   H996      1.0  0.87925  0.16436  0.63889  1.0000
  H   H997      1.0  0.68344  0.04337  0.93104  1.0000
  C   C837      1.0  0.75723  0.04025  0.84444  1.0000
  H   H998      1.0  0.88345  0.03442  0.89132  1.0000
  H   H999      1.0  0.66669  0.23852  0.80372  1.0000
  H   H1000     1.0  0.96748  0.22684  0.77390  1.0000
  C   C838      1.0  0.79590  0.05488  0.80829  1.0000
  C   C839      1.0  0.77412  0.05796  0.82060  1.0000
  C   C840      1.0  0.61423  0.03724  0.89451  1.0000
  H   H1001     1.0  0.62201  0.10790  0.86499  1.0000
  H   H1002     1.0  0.76979  0.07328  0.81085  1.0000
  C   C841      1.0  0.83394  0.16292  0.96252  1.0000
  H   H1003     1.0  0.75975  0.01688  0.92820  1.0000
  H   H1004     1.0  0.61797  0.04152  0.86940  1.0000
  H   H1005     1.0  0.88318  0.04620  0.77846  1.0000
  C   C842      1.0  0.85782  0.11966  0.92955  1.0000
  C   C843      1.0  0.89658  0.06639  0.92680  1.0000
  H   H1006     1.0  0.98232  0.09434  0.75001  1.0000
  H   H1007     1.0  0.82657  0.02066  0.92529  1.0000
  N   N56       1.0  0.61808  0.08364  0.90673  1.0000
  H   H1008     1.0  0.59636  0.10655  0.90958  1.0000
  C   C844      1.0  0.59465  0.08691  0.91795  1.0000
  C   C845      1.0  0.64388  0.10564  0.92114  1.0000
  C   C846      1.0  0.61402  0.05650  0.91650  1.0000
  Fe  Fe116     1.0  0.96193  0.18239  0.50976  1.0000
  C   C847      1.0  0.52389  0.18243  0.63899  1.0000
  C   C848      1.0  0.91986  0.08574  0.77336  1.0000
  H   H1009     1.0  0.85153  0.18581  0.90531  1.0000
  S   S230      1.0  0.62110  0.23515  0.75585  1.0000
  H   H1010     1.0  0.52787  0.24217  0.63278  1.0000
  H   H1011     1.0  0.79919  0.10012  0.86790  1.0000
  H   H1012     1.0  0.98387  0.14650  0.58826  1.0000
  C   C849      1.0  0.61003  0.04876  0.94908  1.0000
  H   H1013     1.0  0.91616  0.18444  0.67652  1.0000
  H   H1014     1.0  0.76833  0.18213  0.78595  1.0000
  C   C850      1.0  0.92205  0.23323  0.59021  1.0000
  H   H1015     1.0  0.80019  0.22447  0.76536  1.0000
  N   N57       1.0  0.75255  0.20802  0.80305  1.0000
  C   C851      1.0  0.75191  0.18730  0.78037  1.0000
  H   H1016     1.0  0.97992  0.13090  0.81364  1.0000
  H   H1017     1.0  0.75672  0.12826  0.49719  1.0000
  C   C852      1.0  0.88007  0.01832  0.93861  1.0000
  C   C853      1.0  0.89354  0.05199  0.98156  1.0000
  S   S231      1.0  0.82678  0.02914  0.80309  1.0000
  H   H1018     1.0  0.75430  0.19450  0.75531  1.0000
  C   C854      1.0  0.94837  0.10046  0.76536  1.0000
  C   C855      1.0  0.80097  0.23962  0.78192  1.0000
  H   H1019     1.0  0.81834  0.05897  0.97380  1.0000
  H   H1020     1.0  0.89779  0.17042  0.95456  1.0000
  Fe  Fe117     1.0  0.90256  0.16800  0.52342  1.0000
  C   C856      1.0  0.88930  0.01608  0.49914  1.0000
  C   C857      1.0  0.80581  0.01773  0.93124  1.0000
  C   C858      1.0  0.88625  0.03915  0.91646  1.0000
  H   H1021     1.0  0.73195  0.16759  0.78145  1.0000
  C   C859      1.0  0.72947  0.21284  0.79464  1.0000
  N   N58       1.0  0.96499  0.13084  0.76634  1.0000
  H   H1022     1.0  0.90420  0.17868  0.60816  1.0000
  C   C860      1.0  0.84827  0.09584  0.91113  1.0000
  C   C861      1.0  0.85644  0.23492  0.82089  1.0000
  C   C862      1.0  0.62007  0.08781  0.87167  1.0000
  C   C863      1.0  0.51767  0.20217  0.68728  1.0000
  C   C864      1.0  0.98597  0.24663  0.77604  1.0000
  H   H1023     1.0  0.57466  0.06981  0.90910  1.0000
  H   H1024     1.0  0.64343  0.10509  0.94762  1.0000
  C   C865      1.0  0.82734  0.08892  0.88885  1.0000
  C   C866      1.0  0.97685  0.14145  0.73443  1.0000
  S   S232      1.0  0.91103  0.10690  0.97163  1.0000
  Fe  Fe118     1.0  0.91458  0.12296  0.50287  1.0000
  C   C867      1.0  0.85084  0.21946  0.79289  1.0000
  H   H1025     1.0  0.70949  0.19323  0.79315  1.0000
  C   C868      1.0  0.88400  0.02488  0.97116  1.0000
  S   S233      1.0  0.87248  0.18392  0.52480  1.0000
  C   C869      1.0  0.84659  0.13741  0.92599  1.0000
  H   H1026     1.0  0.85754  0.08295  0.91383  1.0000
  C   C870      1.0  0.72777  0.00515  0.96175  1.0000
  H   H1027     1.0  0.76507  0.19289  0.84301  1.0000
  H   H1028     1.0  0.82043  0.07078  0.87414  1.0000
  H   H1029     1.0  0.52469  0.21111  0.71052  1.0000
  H   H1030     1.0  0.60139  0.07177  0.85921  1.0000
  H   H1031     1.0  0.84288  0.04716  0.97423  1.0000
  N   N59       1.0  0.85684  0.16340  0.94408  1.0000
  S   S234      1.0  0.56842  0.24546  0.75077  1.0000
  H   H1032     1.0  0.87432  0.12388  0.94603  1.0000
  C   C871      1.0  0.82499  0.12944  0.90342  1.0000
  H   H1033     1.0  0.00272  0.13256  0.78250  1.0000
  H   H1034     1.0  0.87459  0.19191  0.67872  1.0000
  H   H1035     1.0  0.73302  0.22315  0.77113  1.0000
  C   C872      1.0  0.89988  0.07285  0.95938  1.0000
  H   H1036     1.0  0.96043  0.13442  0.71589  1.0000
  S   S235      1.0  0.94194  0.19067  0.55085  1.0000
  C   C873      1.0  0.96076  0.08461  0.75640  1.0000
  C   C874      1.0  0.81554  0.10555  0.88522  1.0000
  H   H1037     1.0  0.74485  0.20847  0.85364  1.0000
  C   C875      1.0  0.74758  0.19575  0.83528  1.0000
  H   H1038     1.0  0.93815  0.22073  0.68007  1.0000
  H   H1039     1.0  0.72853  0.17531  0.83586  1.0000
  C   C876      1.0  0.98787  0.13939  0.78957  1.0000
  C   C877      1.0  0.82156  0.04169  0.98107  1.0000
  C   C878      1.0  0.99868  0.24182  0.61740  1.0000
  H   H1040     1.0  0.87331  0.21590  0.65134  1.0000
  S   S236      1.0  0.89165  0.12728  0.54467  1.0000
  H   H1041     1.0  0.63860  0.08791  0.86168  1.0000
  C   C879      1.0  0.88748  0.21103  0.66497  1.0000
  H   H1042     1.0  0.72648  0.22575  0.81256  1.0000
  C   C880      1.0  0.94891  0.14434  0.77582  1.0000
  H   H1043     1.0  0.74027  0.06690  0.50201  1.0000
  S   S237      1.0  0.86972  0.23381  0.75760  1.0000
  H   H1044     1.0  0.64806  0.12644  0.91391  1.0000
  H   H1045     1.0  0.87507  0.18452  0.60872  1.0000
  H   H1046     1.0  0.95547  0.04419  0.74852  1.0000
  N   N60       1.0  0.90693  0.20815  0.64331  1.0000
  H   H1047     1.0  0.80848  0.06802  0.78920  1.0000
  C   C881      1.0  0.89066  0.18295  0.62382  1.0000
  H   H1048     1.0  0.90848  0.09579  0.78048  1.0000
  H   H1049     1.0  0.00018  0.16218  0.79194  1.0000
  H   H1050     1.0  0.98918  0.21963  0.61827  1.0000
  H   H1051     1.0  0.80517  0.03564  0.92099  1.0000
  C   C882      1.0  0.94562  0.05590  0.75551  1.0000
  S   S238      1.0  0.59057  0.24107  0.82102  1.0000
  H   H1052     1.0  0.76710  0.25354  0.84038  1.0000
  C   C883      1.0  0.76275  0.02032  0.85661  1.0000
  C   C884      1.0  0.92672  0.20386  0.66266  1.0000
  H   H1053     1.0  0.96200  0.16715  0.77623  1.0000
  H   H1054     1.0  0.71380  0.00591  0.94431  1.0000
  H   H1055     1.0  0.96303  0.23436  0.50166  1.0000
  H   H1056     1.0  0.89813  0.22755  0.68303  1.0000
  H   H1057     1.0  0.88430  0.18728  0.90639  1.0000
  C   C885      1.0  0.77260  0.12206  0.49293  1.0000
  H   H1058     1.0  0.94212  0.20240  0.64713  1.0000
  C   C886      1.0  0.77887  0.23442  0.80277  1.0000
  H   H1059     1.0  0.77710  0.11573  0.51626  1.0000
  C   C887      1.0  0.78466  0.01764  0.84481  1.0000
  H   H1060     1.0  0.87633  0.20684  0.93430  1.0000
  C   C888      1.0  0.89455  0.04339  0.49804  1.0000
  C   C889      1.0  0.61005  0.01170  0.90465  1.0000
  H   H1061     1.0  0.60314  0.01779  0.98394  1.0000
  C   C890      1.0  0.87931  0.16860  0.96689  1.0000
  H   H1062     1.0  0.83279  0.20040  0.50885  1.0000
  C   C891      1.0  0.75434  0.01129  0.95273  1.0000
  C   C892      1.0  0.92224  0.23339  0.62406  1.0000
  H   H1063     1.0  0.82444  0.14495  0.97879  1.0000
  H   H1064     1.0  0.81742  0.16213  0.94693  1.0000
  H   H1065     1.0  0.93181  0.13950  0.75876  1.0000
  H   H1066     1.0  0.69912  0.24933  0.75917  1.0000
  C   C893      1.0  0.77293  0.01007  0.97499  1.0000
  H   H1067     1.0  0.80220  0.01615  0.49064  1.0000
  H   H1068     1.0  0.87937  0.00891  0.98846  1.0000
  C   C894      1.0  0.60554  0.00456  0.93670  1.0000
  H   H1069     1.0  0.51775  0.25109  0.72488  1.0000
  C   C895      1.0  0.00653  0.24967  0.49561  1.0000
  H   H1070     1.0  0.81786  0.12138  0.49189  1.0000
  S   S239      1.0  0.00398  0.21704  0.49633  1.0000
  C   C896      1.0  0.98306  0.25240  0.49892  1.0000
  H   H1071     1.0  0.88626  0.18802  0.98053  1.0000
  H   H1072     1.0  0.89439  0.00870  0.52045  1.0000
  H   H1073     1.0  0.99720  0.24274  0.56621  1.0000
  H   H1074     1.0  0.00269  0.24632  0.66775  1.0000
  H   H1075     1.0  0.53131  0.25177  0.55711  1.0000
  H   H1076     1.0  0.74972  0.00650  0.87486  1.0000
  C   C897      1.0  0.51151  0.24424  0.57012  1.0000
  H   H1077     1.0  0.60755  0.30150  0.08220  1.0000
  S   S240      1.0  0.67935  0.46967  0.03078  1.0000
  Fe  Fe119     1.0  0.61233  0.44641  0.07978  1.0000
  S   S241      1.0  0.61326  0.42501  0.03477  1.0000
  S   S242      1.0  0.57666  0.42836  0.11505  1.0000
  Fe  Fe120     1.0  0.65260  0.42926  0.05417  1.0000
  S   S243      1.0  0.66135  0.39454  0.04570  1.0000
  C   C898      1.0  0.75504  0.47731  0.04243  1.0000
  C   C899      1.0  0.99843  0.38175  0.06730  1.0000
  S   S244      1.0  0.65060  0.44821  0.10043  1.0000
  Fe  Fe121     1.0  0.86760  0.28692  0.14987  1.0000
  S   S245      1.0  0.86939  0.30546  0.10212  1.0000
  C   C900      1.0  0.59862  0.36800  0.10736  1.0000
  Fe  Fe122     1.0  0.88430  0.34089  0.18467  1.0000
  S   S246      1.0  0.88898  0.36399  0.13944  1.0000
  S   S247      1.0  0.88676  0.35734  0.23441  1.0000
  Fe  Fe123     1.0  0.84912  0.32665  0.12600  1.0000
  S   S248      1.0  0.81482  0.33323  0.10827  1.0000
  Fe  Fe124     1.0  0.90938  0.34096  0.11993  1.0000
  S   S249      1.0  0.94358  0.35571  0.08299  1.0000
  S   S250      1.0  0.84352  0.30486  0.17211  1.0000
  S   S251      1.0  0.90847  0.32107  0.16674  1.0000
  Fe  Fe125     1.0  0.81945  0.42583  0.32283  1.0000
  S   S252      1.0  0.85098  0.43628  0.36159  1.0000
  S   S253      1.0  0.82557  0.42399  0.26978  1.0000
  Fe  Fe126     1.0  0.77219  0.40898  0.36992  1.0000
  S   S254      1.0  0.79937  0.41597  0.41222  1.0000
  S   S255      1.0  0.72740  0.39773  0.36847  1.0000
  Fe  Fe127     1.0  0.82906  0.45529  0.38739  1.0000
  S   S256      1.0  0.84335  0.49183  0.42086  1.0000
  Fe  Fe128     1.0  0.81874  0.39646  0.38284  1.0000
  S   S257      1.0  0.83197  0.36558  0.39488  1.0000
  S   S258      1.0  0.80069  0.44887  0.34624  1.0000
  S   S259      1.0  0.78843  0.38545  0.34305  1.0000
  S   S260      1.0  0.66653  0.33259  0.16910  1.0000
  C   C901      1.0  0.94270  0.29736  0.44632  1.0000
  H   H1078     1.0  0.71974  0.26348  0.22099  1.0000
  H   H1079     1.0  0.85822  0.47796  0.02380  1.0000
  H   H1080     1.0  0.79030  0.26559  0.39541  1.0000
  H   H1081     1.0  0.93574  0.39834  0.04715  1.0000
  S   S261      1.0  0.61697  0.45750  0.44292  1.0000
  H   H1082     1.0  0.76743  0.40526  0.28951  1.0000
  H   H1083     1.0  0.59983  0.33866  0.07690  1.0000
  S   S262      1.0  0.59957  0.38417  0.45672  1.0000
  H   H1084     1.0  0.77113  0.40617  0.22057  1.0000
  S   S263      1.0  0.63583  0.48882  0.05840  1.0000
  C   C902      1.0  0.68470  0.31044  0.26107  1.0000
  C   C903      1.0  0.70357  0.32796  0.31303  1.0000
  C   C904      1.0  0.75703  0.38562  0.23092  1.0000
  H   H1085     1.0  0.64290  0.50239  0.39934  1.0000
  C   C905      1.0  0.57365  0.48653  0.40460  1.0000
  H   H1086     1.0  0.71783  0.31911  0.39812  1.0000
  H   H1087     1.0  0.74164  0.26414  0.19058  1.0000
  H   H1088     1.0  0.79447  0.46124  0.45899  1.0000
  H   H1089     1.0  0.61109  0.29747  0.14175  1.0000
  C   C906      1.0  0.88854  0.41310  0.01502  1.0000
  H   H1090     1.0  0.65977  0.34291  0.05374  1.0000
  C   C907      1.0  0.71883  0.39434  0.23418  1.0000
  C   C908      1.0  0.70970  0.39316  0.40454  1.0000
  C   C909      1.0  0.68422  0.39239  0.40422  1.0000
  C   C910      1.0  0.66935  0.38836  0.43253  1.0000
  H   H1091     1.0  0.70515  0.47871  0.39522  1.0000
  H   H1092     1.0  0.92986  0.25557  0.40483  1.0000
  C   C911      1.0  0.72030  0.38988  0.43332  1.0000
  H   H1093     1.0  0.67588  0.39480  0.38195  1.0000
  H   H1094     1.0  0.64958  0.38743  0.43191  1.0000
  C   C912      1.0  0.72041  0.35396  0.30008  1.0000
  H   H1095     1.0  0.73990  0.39039  0.43380  1.0000
  C   C913      1.0  0.80523  0.33219  0.40276  1.0000
  C   C914      1.0  0.80854  0.30968  0.39483  1.0000
  C   C915      1.0  0.78754  0.28281  0.40142  1.0000
  H   H1096     1.0  0.77025  0.37909  0.24390  1.0000
  C   C916      1.0  0.76022  0.30100  0.42461  1.0000
  C   C917      1.0  0.78090  0.32781  0.41732  1.0000
  H   H1097     1.0  0.58003  0.28130  0.16479  1.0000
  H   H1098     1.0  0.93913  0.30765  0.11487  1.0000
  C   C918      1.0  0.78149  0.30515  0.11318  1.0000
  C   C919      1.0  0.77720  0.27849  0.11638  1.0000
  H   H1099     1.0  0.93301  0.43470  0.01661  1.0000
  C   C920      1.0  0.94715  0.29407  0.10901  1.0000
  C   C921      1.0  0.73197  0.28732  0.11626  1.0000
  C   C922      1.0  0.75886  0.30953  0.11326  1.0000
  C   C923      1.0  0.85021  0.29284  0.44958  1.0000
  H   H1100     1.0  0.71455  0.29079  0.11585  1.0000
  H   H1101     1.0  0.76209  0.33012  0.11077  1.0000
  C   C924      1.0  0.86830  0.37456  0.24354  1.0000
  C   C925      1.0  0.86614  0.38069  0.27544  1.0000
  C   C926      1.0  0.85243  0.39516  0.28360  1.0000
  C   C927      1.0  0.84097  0.40393  0.25989  1.0000
  C   C928      1.0  0.84269  0.39744  0.22795  1.0000
  C   C929      1.0  0.85615  0.38263  0.21979  1.0000
  H   H1102     1.0  0.87539  0.37449  0.29397  1.0000
  H   H1103     1.0  0.85125  0.39997  0.30829  1.0000
  H   H1104     1.0  0.83407  0.40430  0.20942  1.0000
  H   H1105     1.0  0.85775  0.37807  0.19510  1.0000
  C   C930      1.0  0.54243  0.42182  0.11022  1.0000
  H   H1106     1.0  0.79266  0.35888  0.01778  1.0000
  H   H1107     1.0  0.67057  0.29355  0.24604  1.0000
  C   C931      1.0  0.97912  0.37607  0.09171  1.0000
  C   C932      1.0  0.81252  0.36039  0.02525  1.0000
  C   C933      1.0  0.57441  0.32676  0.15298  1.0000
  C   C934      1.0  0.51175  0.29295  0.47963  1.0000
  H   H1108     1.0  0.68640  0.33030  0.42596  1.0000
  H   H1109     1.0  0.97382  0.38257  0.14110  1.0000
  C   C935      1.0  0.83335  0.28969  0.27441  1.0000
  C   C936      1.0  0.66345  0.37766  0.07999  1.0000
  C   C937      1.0  0.66643  0.38938  0.11017  1.0000
  C   C938      1.0  0.66742  0.37536  0.13731  1.0000
  C   C939      1.0  0.66536  0.34952  0.13446  1.0000
  C   C940      1.0  0.66263  0.33783  0.10429  1.0000
  C   C941      1.0  0.66182  0.35197  0.07707  1.0000
  H   H1110     1.0  0.66807  0.40927  0.11269  1.0000
  H   H1111     1.0  0.66957  0.38451  0.16059  1.0000
  H   H1112     1.0  0.66147  0.31809  0.10187  1.0000
  H   H1113     1.0  0.80321  0.32696  0.20868  1.0000
  H   H1114     1.0  0.74698  0.37125  0.21065  1.0000
  H   H1115     1.0  0.70901  0.38083  0.21315  1.0000
  C   C942      1.0  0.58127  0.32002  0.12298  1.0000
  C   C943      1.0  0.67961  0.38441  0.46121  1.0000
  H   H1116     1.0  0.73074  0.41557  0.22462  1.0000
  H   H1117     1.0  0.53633  0.27220  0.14159  1.0000
  N   N61       1.0  0.57512  0.29159  0.11627  1.0000
  C   C944      1.0  0.57944  0.49238  0.43683  1.0000
  C   C945      1.0  0.93857  0.26989  0.12624  1.0000
  C   C946      1.0  0.74289  0.29442  0.31197  1.0000
  C   C947      1.0  0.64918  0.30938  0.48089  1.0000
  C   C948      1.0  0.57982  0.35339  0.15989  1.0000
  H   H1118     1.0  0.56501  0.31151  0.17143  1.0000
  H   H1119     1.0  0.73782  0.40998  0.29416  1.0000
  H   H1120     1.0  0.71327  0.38238  0.48370  1.0000
  C   C949      1.0  0.91423  0.41629  0.02337  1.0000
  H   H1121     1.0  0.76425  0.47363  0.06411  1.0000
  H   H1122     1.0  0.64798  0.33297  0.42569  1.0000
  H   H1123     1.0  0.85313  0.30829  0.27177  1.0000
  C   C950      1.0  0.53315  0.42764  0.08192  1.0000
  Fe  Fe129     1.0  0.60445  0.42294  0.47907  1.0000
  Fe  Fe130     1.0  0.64009  0.46750  0.01518  1.0000
  C   C951      1.0  0.64055  0.49279  0.44930  1.0000
  H   H1124     1.0  0.53099  0.40571  0.15775  1.0000
  C   C952      1.0  0.83406  0.40930  0.02922  1.0000
  H   H1125     1.0  0.97160  0.31929  0.07035  1.0000
  H   H1126     1.0  0.91793  0.27770  0.38999  1.0000
  H   H1127     1.0  0.70025  0.33834  0.22247  1.0000
  C   C953      1.0  0.77685  0.46427  0.45624  1.0000
  C   C954      1.0  0.62918  0.31343  0.43163  1.0000
  C   C955      1.0  0.70160  0.33631  0.24787  1.0000
  H   H1128     1.0  0.58032  0.26672  0.08050  1.0000
  C   C956      1.0  0.98848  0.38678  0.12214  1.0000
  H   H1129     1.0  0.57480  0.35823  0.18308  1.0000
  C   C957      1.0  0.86356  0.38928  0.02374  1.0000
  S   S264      1.0  0.51976  0.32729  0.47480  1.0000
  H   H1130     1.0  0.92085  0.44967  0.23238  1.0000
  C   C958      1.0  0.76368  0.30368  0.25865  1.0000
  C   C959      1.0  0.78814  0.32511  0.27262  1.0000
  H   H1131     1.0  0.77838  0.34513  0.42382  1.0000
  C   C960      1.0  0.78995  0.33032  0.30539  1.0000
  H   H1132     1.0  0.68403  0.44414  0.41025  1.0000
  H   H1133     1.0  0.90900  0.31174  0.40871  1.0000
  C   C961      1.0  0.92371  0.47636  0.19396  1.0000
  H   H1134     1.0  0.99131  0.37355  0.04368  1.0000
  H   H1135     1.0  0.59494  0.27715  0.47254  1.0000
  C   C962      1.0  0.76747  0.31482  0.32503  1.0000
  C   C963      1.0  0.59198  0.37398  0.13714  1.0000
  H   H1136     1.0  0.55360  0.30098  0.47749  1.0000
  C   C964      1.0  0.52392  0.41012  0.13570  1.0000
  C   C965      1.0  0.87183  0.30698  0.42836  1.0000
  C   C966      1.0  0.76337  0.27844  0.41647  1.0000
  H   H1137     1.0  0.80618  0.33814  0.25870  1.0000
  H   H1138     1.0  0.59645  0.39470  0.14263  1.0000
  H   H1139     1.0  0.80896  0.34647  0.31573  1.0000
  H   H1140     1.0  0.60833  0.38419  0.08984  1.0000
  C   C967      1.0  0.72757  0.26055  0.11827  1.0000
  H   H1141     1.0  0.67290  0.46879  0.41405  1.0000
  S   S265      1.0  0.68249  0.27365  0.18203  1.0000
  N   N62       1.0  0.70568  0.47485  0.44637  1.0000
  H   H1142     1.0  0.79797  0.29444  0.22294  1.0000
  H   H1143     1.0  0.87027  0.48621  0.24244  1.0000
  H   H1144     1.0  0.66859  0.32886  0.47636  1.0000
  C   C968      1.0  0.75191  0.31571  0.20850  1.0000
  C   C969      1.0  0.65380  0.28783  0.43314  1.0000
  H   H1145     1.0  0.61898  0.30349  0.40877  1.0000
  C   C970      1.0  0.75197  0.40859  0.27649  1.0000
  H   H1146     1.0  0.72014  0.48337  0.10923  1.0000
  H   H1147     1.0  0.73197  0.31197  0.21872  1.0000
  H   H1148     1.0  0.78738  0.46949  0.00188  1.0000
  C   C971      1.0  0.91393  0.46329  0.22307  1.0000
  Fe  Fe131     1.0  0.65336  0.28760  0.16571  1.0000
  N   N63       1.0  0.73659  0.38651  0.25266  1.0000
  C   C972      1.0  0.68513  0.45850  0.47108  1.0000
  H   H1149     1.0  0.76396  0.42911  0.26515  1.0000
  H   H1150     1.0  0.74191  0.29775  0.43705  1.0000
  H   H1151     1.0  0.73368  0.36977  0.31653  1.0000
  H   H1152     1.0  0.54721  0.43666  0.06217  1.0000
  S   S266      1.0  0.63699  0.25863  0.12395  1.0000
  H   H1153     1.0  0.77738  0.26213  0.32264  1.0000
  C   C973      1.0  0.71956  0.35908  0.26708  1.0000
  H   H1154     1.0  0.70429  0.32477  0.33837  1.0000
  C   C974      1.0  0.97547  0.28307  0.07568  1.0000
  S   S267      1.0  0.62031  0.25966  0.19927  1.0000
  H   H1155     1.0  0.95984  0.29260  0.44455  1.0000
  C   C975      1.0  0.60847  0.27086  0.45981  1.0000
  H   H1156     1.0  0.83374  0.29777  0.45121  1.0000
  N   N64       1.0  0.77642  0.49849  0.02165  1.0000
  C   C976      1.0  0.73988  0.46171  0.42357  1.0000
  H   H1157     1.0  0.57103  0.47589  0.45413  1.0000
  H   H1158     1.0  0.76711  0.33786  0.21187  1.0000
  H   H1159     1.0  0.93849  0.47303  0.18077  1.0000
  H   H1160     1.0  0.88764  0.45748  0.26295  1.0000
  H   H1161     1.0  0.70546  0.27063  0.38911  1.0000
  C   C977      1.0  0.74146  0.26895  0.21634  1.0000
  C   C978      1.0  0.53218  0.28541  0.47992  1.0000
  C   C979      1.0  0.74488  0.47717  0.47834  1.0000
  Fe  Fe132     1.0  0.67397  0.48851  0.07517  1.0000
  C   C980      1.0  0.76786  0.47367  0.48175  1.0000
  C   C981      1.0  0.90116  0.49782  0.48759  1.0000
  C   C982      1.0  0.52468  0.25753  0.48229  1.0000
  H   H1162     1.0  0.81285  0.34222  0.01504  1.0000
  C   C983      1.0  0.76305  0.45856  0.42719  1.0000
  H   H1163     1.0  0.56044  0.46543  0.39708  1.0000
  C   C984      1.0  0.58852  0.28286  0.14051  1.0000
  H   H1164     1.0  0.85505  0.48230  0.15483  1.0000
  H   H1165     1.0  0.72985  0.45617  0.40059  1.0000
  H   H1166     1.0  0.77002  0.45105  0.40749  1.0000
  H   H1167     1.0  0.72082  0.27391  0.27051  1.0000
  H   H1168     1.0  0.82273  0.30408  0.31669  1.0000
  C   C985      1.0  0.81621  0.28742  0.29965  1.0000
  C   C986      1.0  0.58483  0.28820  0.08453  1.0000
  C   C987      1.0  0.78827  0.30455  0.20956  1.0000
  C   C988      1.0  0.68562  0.30627  0.29360  1.0000
  H   H1169     1.0  0.70194  0.39326  0.24931  1.0000
  H   H1170     1.0  0.85025  0.42973  0.02072  1.0000
  H   H1171     1.0  0.74316  0.45738  0.02964  1.0000
  H   H1172     1.0  0.67237  0.28616  0.30370  1.0000
  N   N65       1.0  0.83665  0.38654  0.01472  1.0000
  H   H1173     1.0  0.92377  0.26591  0.14494  1.0000
  C   C989      1.0  0.54489  0.27287  0.11753  1.0000
  C   C990      1.0  0.59351  0.34151  0.10023  1.0000
  H   H1174     1.0  0.61548  0.31941  0.44452  1.0000
  H   H1175     1.0  0.57448  0.29293  0.06486  1.0000
  C   C991      1.0  0.96552  0.30067  0.08383  1.0000
  C   C992      1.0  0.89179  0.37231  0.04937  1.0000
  C   C993      1.0  0.91584  0.39591  0.04052  1.0000
  C   C994      1.0  0.70519  0.38537  0.46156  1.0000
  N   N66       1.0  0.63532  0.29499  0.45100  1.0000
  H   H1176     1.0  0.84828  0.35026  0.04949  1.0000
  C   C995      1.0  0.89294  0.30047  0.42590  1.0000
  H   H1177     1.0  0.74888  0.31170  0.18238  1.0000
  H   H1178     1.0  0.82733  0.31302  0.38348  1.0000
  N   N67       1.0  0.76142  0.29820  0.22391  1.0000
  C   C996      1.0  0.79688  0.48966  0.01442  1.0000
  C   C997      1.0  0.74076  0.28921  0.27924  1.0000
  C   C998      1.0  0.89315  0.27967  0.44497  1.0000
  H   H1179     1.0  0.76900  0.31891  0.35038  1.0000
  H   H1180     1.0  0.67930  0.43644  0.46964  1.0000
  H   H1181     1.0  0.66588  0.45962  0.46844  1.0000
  H   H1182     1.0  0.79458  0.27497  0.11615  1.0000
  H   H1183     1.0  0.94412  0.30643  0.47036  1.0000
  H   H1184     1.0  0.76278  0.48358  0.12718  1.0000
  Fe  Fe133     1.0  0.56232  0.36152  0.48790  1.0000
  C   C999      1.0  0.96715  0.25886  0.09284  1.0000
  H   H1185     1.0  0.94742  0.31370  0.42855  1.0000
  H   H1186     1.0  0.83569  0.40916  0.05565  1.0000
  H   H1187     1.0  0.81172  0.35860  0.05167  1.0000
  C   C1000     1.0  0.72998  0.47100  0.44922  1.0000
  N   N68       1.0  0.91531  0.27260  0.44117  1.0000
  H   H1188     1.0  0.81402  0.40796  0.02305  1.0000
  C   C1001     1.0  0.64997  0.50349  0.47975  1.0000
  C   C1002     1.0  0.86597  0.36892  0.04134  1.0000
  H   H1189     1.0  0.72526  0.28269  0.32724  1.0000
  C   C1003     1.0  0.82531  0.26807  0.25273  1.0000
  H   H1190     1.0  0.98930  0.28799  0.05560  1.0000
  H   H1191     1.0  0.61124  0.25683  0.47621  1.0000
  C   C1004     1.0  0.85937  0.49284  0.00668  1.0000
  H   H1192     1.0  0.83950  0.27080  0.23372  1.0000
  C   C1005     1.0  0.89510  0.46763  0.24022  1.0000
  H   H1193     1.0  0.80678  0.48744  0.03640  1.0000
  H   H1194     1.0  0.78597  0.29775  0.18424  1.0000
  H   H1195     1.0  0.89326  0.35658  0.06275  1.0000
  C   C1006     1.0  0.67972  0.30885  0.42191  1.0000
  H   H1196     1.0  0.89522  0.47897  0.44139  1.0000
  C   C1007     1.0  0.84971  0.27229  0.46860  1.0000
  C   C1008     1.0  0.69150  0.46626  0.41501  1.0000
  C   C1009     1.0  0.75023  0.25618  0.11847  1.0000
  H   H1197     1.0  0.87209  0.32300  0.41363  1.0000
  H   H1198     1.0  0.53406  0.27922  0.10017  1.0000
  C   C1010     1.0  0.64733  0.26025  0.42735  1.0000
  C   C1011     1.0  0.69792  0.30268  0.40586  1.0000
  C   C1012     1.0  0.69100  0.27545  0.40070  1.0000
  H   H1199     1.0  0.73996  0.48332  0.05103  1.0000
  C   C1013     1.0  0.79070  0.26374  0.30295  1.0000
  C   C1014     1.0  0.88534  0.48443  0.22806  1.0000
  C   C1015     1.0  0.76328  0.50276  0.12227  1.0000
  H   H1200     1.0  0.58554  0.26212  0.13512  1.0000
  H   H1201     1.0  0.59681  0.25909  0.43837  1.0000
  C   C1016     1.0  0.87086  0.26580  0.46658  1.0000
  H   H1202     1.0  0.84486  0.49684  0.20745  1.0000
  H   H1203     1.0  0.88835  0.42953  0.00176  1.0000
  C   C1017     1.0  0.76325  0.50220  0.99289  1.0000
  C   C1018     1.0  0.91443  0.49357  0.18177  1.0000
  C   C1019     1.0  0.73919  0.50260  0.11204  1.0000
  C   C1020     1.0  0.89468  0.49789  0.19826  1.0000
  H   H1204     1.0  0.58030  0.50191  0.35735  1.0000
  C   C1021     1.0  0.90685  0.49755  0.45537  1.0000
  H   H1205     1.0  0.83270  0.26119  0.48491  1.0000
  C   C1022     1.0  0.91413  0.26205  0.40844  1.0000
  C   C1023     1.0  0.71450  0.50429  0.45105  1.0000
  C   C1024     1.0  0.87171  0.50407  0.15272  1.0000
  H   H1206     1.0  0.92271  0.50335  0.15917  1.0000
  H   H1207     1.0  0.74594  0.25483  0.23045  1.0000
  H   H1208     1.0  0.91379  0.25759  0.48888  1.0000
  Fe  Fe134     1.0  0.81641  0.44070  0.91517  1.0000
  C   C1025     1.0  0.82553  0.26478  0.78237  1.0000
  Fe  Fe135     1.0  0.76227  0.40682  0.87904  1.0000
  S   S268      1.0  0.77934  0.43003  0.83364  1.0000
  S   S269      1.0  0.71958  0.37111  0.88759  1.0000
  Fe  Fe136     1.0  0.81642  0.42541  0.84533  1.0000
  S   S270      1.0  0.83333  0.41131  0.80471  1.0000
  Fe  Fe137     1.0  0.79954  0.46776  0.86471  1.0000
  S   S271      1.0  0.79803  0.40018  0.88926  1.0000
  S   S272      1.0  0.77890  0.44477  0.90914  1.0000
  Fe  Fe138     1.0  0.59008  0.39645  0.54547  1.0000
  S   S273      1.0  0.58296  0.39958  0.59796  1.0000
  Fe  Fe139     1.0  0.92012  0.33601  0.78251  1.0000
  S   S274      1.0  0.89512  0.31172  0.74015  1.0000
  S   S275      1.0  0.90944  0.35715  0.82178  1.0000
  Fe  Fe140     1.0  0.96353  0.31878  0.77210  1.0000
  S   S276      1.0  0.94160  0.29241  0.73006  1.0000
  C   C1026     1.0  0.55248  0.32154  0.72168  1.0000
  Fe  Fe141     1.0  0.93615  0.32774  0.71528  1.0000
  S   S277      1.0  0.94466  0.33882  0.66321  1.0000
  Fe  Fe142     1.0  0.90293  0.27855  0.75855  1.0000
  H   H1209     1.0  0.64265  0.49009  0.50022  1.0000
  S   S278      1.0  0.96041  0.35517  0.75587  1.0000
  S   S279      1.0  0.92562  0.30171  0.80224  1.0000
  S   S280      1.0  0.63728  0.31075  0.77273  1.0000
  C   C1027     1.0  0.97971  0.34484  0.86667  1.0000
  C   C1028     1.0  0.56664  0.35992  0.75757  1.0000
  S   S281      1.0  0.66006  0.37612  0.49643  1.0000
  H   H1210     1.0  0.55208  0.36544  0.74607  1.0000
  C   C1029     1.0  0.52261  0.27152  0.71754  1.0000
  H   H1211     1.0  0.55529  0.34614  0.77778  1.0000
  H   H1212     1.0  0.71784  0.42405  0.95426  1.0000
  C   C1030     1.0  0.52407  0.28532  0.80561  1.0000
  H   H1213     1.0  0.54121  0.30508  0.81224  1.0000
  C   C1031     1.0  0.54844  0.37929  0.61029  1.0000
  C   C1032     1.0  0.54118  0.38037  0.64203  1.0000
  H   H1214     1.0  0.99642  0.37151  0.69746  1.0000
  H   H1215     1.0  0.71412  0.47983  0.83537  1.0000
  C   C1033     1.0  0.52814  0.36176  0.58882  1.0000
  C   C1034     1.0  0.97930  0.35818  0.65058  1.0000
  H   H1216     1.0  0.55673  0.39420  0.65861  1.0000
  C   C1035     1.0  0.95320  0.28328  0.62156  1.0000
  H   H1217     1.0  0.96883  0.34858  0.60102  1.0000
  H   H1218     1.0  0.99249  0.27334  0.70217  1.0000
  S   S282      1.0  0.00506  0.32574  0.78764  1.0000
  H   H1219     1.0  0.58078  0.37471  0.69756  1.0000
  C   C1036     1.0  0.68598  0.25776  0.80361  1.0000
  H   H1220     1.0  0.99037  0.33722  0.85069  1.0000
  C   C1037     1.0  0.85391  0.39567  0.81009  1.0000
  C   C1038     1.0  0.86319  0.39326  0.84019  1.0000
  C   C1039     1.0  0.87997  0.38116  0.84340  1.0000
  C   C1040     1.0  0.88736  0.37112  0.81664  1.0000
  C   C1041     1.0  0.87748  0.37288  0.78665  1.0000
  C   C1042     1.0  0.86093  0.38523  0.78340  1.0000
  H   H1221     1.0  0.85794  0.40124  0.86089  1.0000
  H   H1222     1.0  0.88752  0.37987  0.86669  1.0000
  H   H1223     1.0  0.88309  0.36532  0.76586  1.0000
  H   H1224     1.0  0.85389  0.38708  0.76001  1.0000
  C   C1043     1.0  0.69683  0.35493  0.85543  1.0000
  C   C1044     1.0  0.67495  0.32808  0.85929  1.0000
  C   C1045     1.0  0.65686  0.31424  0.83393  1.0000
  C   C1046     1.0  0.66016  0.32738  0.80471  1.0000
  C   C1047     1.0  0.68181  0.35444  0.80099  1.0000
  C   C1048     1.0  0.70020  0.36815  0.82622  1.0000
  H   H1225     1.0  0.67216  0.31775  0.88185  1.0000
  H   H1226     1.0  0.64022  0.29348  0.83713  1.0000
  H   H1227     1.0  0.68439  0.36478  0.77849  1.0000
  H   H1228     1.0  0.71680  0.38898  0.82312  1.0000
  H   H1229     1.0  0.78451  0.49107  0.95653  1.0000
  H   H1230     1.0  0.63675  0.41329  0.94356  1.0000
  N   N69       1.0  0.76152  0.33579  0.80258  1.0000
  H   H1231     1.0  0.71696  0.42231  0.89940  1.0000
  C   C1049     1.0  0.80781  0.28099  0.82435  1.0000
  C   C1050     1.0  0.53538  0.28014  0.60971  1.0000
  C   C1051     1.0  0.55360  0.30901  0.61028  1.0000
  H   H1232     1.0  0.00063  0.37438  0.81444  1.0000
  C   C1052     1.0  0.57642  0.32081  0.63069  1.0000
  H   H1233     1.0  0.77861  0.47794  0.50436  1.0000
  C   C1053     1.0  0.58166  0.30440  0.65120  1.0000
  C   C1054     1.0  0.67667  0.45243  0.90265  1.0000
  S   S283      1.0  0.83823  0.46544  0.87211  1.0000
  H   H1234     1.0  0.53346  0.36090  0.56425  1.0000
  H   H1235     1.0  0.70984  0.44892  0.97076  1.0000
  H   H1236     1.0  0.55089  0.32304  0.59510  1.0000
  N   N70       1.0  0.67761  0.41812  0.94178  1.0000
  H   H1237     1.0  0.59017  0.34287  0.63024  1.0000
  H   H1238     1.0  0.98853  0.29956  0.68208  1.0000
  H   H1239     1.0  0.59952  0.31351  0.66675  1.0000
  H   H1240     1.0  0.88529  0.47920  0.49861  1.0000
  C   C1055     1.0  0.72910  0.28897  0.77796  1.0000
  H   H1241     1.0  0.67797  0.48116  0.86760  1.0000
  H   H1242     1.0  0.54535  0.26337  0.81780  1.0000
  H   H1243     1.0  0.78325  0.32156  0.83222  1.0000
  H   H1244     1.0  0.64852  0.40704  0.98057  1.0000
  C   C1056     1.0  0.68633  0.46822  0.87499  1.0000
  H   H1245     1.0  0.84360  0.49779  0.92961  1.0000
  H   H1246     1.0  0.74221  0.29251  0.75761  1.0000
  C   C1057     1.0  0.68724  0.43518  0.91267  1.0000
  N   N71       1.0  0.57655  0.34628  0.73514  1.0000
  C   C1058     1.0  0.59596  0.34007  0.75269  1.0000
  C   C1059     1.0  0.59246  0.36591  0.70939  1.0000
  C   C1060     1.0  0.97310  0.38220  0.88287  1.0000
  H   H1247     1.0  0.96476  0.30103  0.57487  1.0000
  C   C1061     1.0  0.70099  0.42688  0.96431  1.0000
  C   C1062     1.0  0.00320  0.25477  0.58799  1.0000
  H   H1248     1.0  0.52840  0.29548  0.54946  1.0000
  H   H1249     1.0  0.83736  0.37146  0.96775  1.0000
  H   H1250     1.0  0.84847  0.30461  0.80430  1.0000
  H   H1251     1.0  0.60337  0.32879  0.73739  1.0000
  H   H1252     1.0  0.61459  0.35899  0.76120  1.0000
  H   H1253     1.0  0.76826  0.33964  0.75182  1.0000
  C   C1063     1.0  0.98545  0.27854  0.49802  1.0000
  H   H1254     1.0  0.61167  0.38385  0.71860  1.0000
  C   C1064     1.0  0.93823  0.25925  0.63921  1.0000
  H   H1255     1.0  0.79817  0.36072  0.77488  1.0000
  H   H1256     1.0  0.55819  0.29040  0.74656  1.0000
  H   H1257     1.0  0.59855  0.35583  0.69077  1.0000
  Fe  Fe143     1.0  0.60901  0.26477  0.77626  1.0000
  H   H1258     1.0  0.73378  0.45073  0.85179  1.0000
  H   H1259     1.0  0.95156  0.37137  0.87342  1.0000
  H   H1260     1.0  0.72016  0.31592  0.84717  1.0000
  C   C1065     1.0  0.71662  0.30176  0.82782  1.0000
  H   H1261     1.0  0.73948  0.35527  0.78405  1.0000
  C   C1066     1.0  0.73589  0.30880  0.80263  1.0000
  H   H1262     1.0  0.66093  0.45416  0.91571  1.0000
  C   C1067     1.0  0.75448  0.35808  0.80320  1.0000
  S   S284      1.0  0.56464  0.40027  0.50645  1.0000
  C   C1068     1.0  0.54598  0.29443  0.72988  1.0000
  C   C1069     1.0  0.71773  0.45108  0.86601  1.0000
  H   H1263     1.0  0.98015  0.40453  0.88133  1.0000
  S   S285      1.0  0.63026  0.42280  0.52009  1.0000
  H   H1264     1.0  0.69437  0.41479  0.98680  1.0000
  H   H1265     1.0  0.68312  0.38486  0.92370  1.0000
  H   H1266     1.0  0.96375  0.26881  0.78010  1.0000
  H   H1267     1.0  0.76016  0.49542  0.91139  1.0000
  C   C1070     1.0  0.83491  0.38791  0.97956  1.0000
  C   C1071     1.0  0.82906  0.28537  0.80364  1.0000
  H   H1268     1.0  0.87261  0.25611  0.82126  1.0000
  H   H1269     1.0  0.58643  0.32763  0.77443  1.0000
  H   H1270     1.0  0.66235  0.44143  0.96702  1.0000
  C   C1072     1.0  0.98385  0.27039  0.77951  1.0000
  H   H1271     1.0  0.81090  0.29693  0.84122  1.0000
  C   C1073     1.0  0.98538  0.35938  0.61799  1.0000
  H   H1272     1.0  0.76727  0.33774  0.85373  1.0000
  H   H1273     1.0  0.98129  0.33860  0.89136  1.0000
  C   C1074     1.0  0.66688  0.38882  0.93340  1.0000
  C   C1075     1.0  0.51376  0.36391  0.65229  1.0000
  C   C1076     1.0  0.53391  0.32414  0.70084  1.0000
  H   H1274     1.0  0.96733  0.28061  0.50054  1.0000
  C   C1077     1.0  0.78297  0.25602  0.82383  1.0000
  C   C1078     1.0  0.00654  0.25732  0.64554  1.0000
  C   C1079     1.0  0.00762  0.29593  0.78319  1.0000
  C   C1080     1.0  0.56393  0.27612  0.65165  1.0000
  H   H1275     1.0  0.77304  0.37867  0.79996  1.0000
  Fe  Fe144     1.0  0.62362  0.38321  0.49891  1.0000
  N   N72       1.0  0.99140  0.37500  0.86448  1.0000
  C   C1081     1.0  0.00341  0.29526  0.69493  1.0000
  H   H1276     1.0  0.79786  0.35819  0.83170  1.0000
  H   H1277     1.0  0.74529  0.35909  0.82626  1.0000
  C   C1082     1.0  0.77917  0.34021  0.77426  1.0000
  C   C1083     1.0  0.85118  0.50393  0.95362  1.0000
  N   N73       1.0  0.51109  0.26679  0.58834  1.0000
  S   S286      1.0  0.83497  0.44957  0.96457  1.0000
  H   H1278     1.0  0.58393  0.37904  0.76780  1.0000
  H   H1279     1.0  0.65828  0.37525  0.95457  1.0000
  C   C1084     1.0  0.65534  0.42009  0.95882  1.0000
  H   H1280     1.0  0.84224  0.26798  0.76663  1.0000
  H   H1281     1.0  0.65029  0.38185  0.91510  1.0000
  H   H1282     1.0  0.77724  0.49540  0.80155  1.0000
  H   H1283     1.0  0.85096  0.40788  0.96978  1.0000
  C   C1085     1.0  0.70440  0.26391  0.77856  1.0000
  C   C1086     1.0  0.70805  0.43501  0.89342  1.0000
  C   C1087     1.0  0.69208  0.27658  0.82822  1.0000
  H   H1284     1.0  0.96478  0.30285  0.63360  1.0000
  C   C1088     1.0  0.77812  0.33832  0.83130  1.0000
  C   C1089     1.0  0.95299  0.28232  0.58843  1.0000
  H   H1285     1.0  0.78632  0.32491  0.77298  1.0000
  C   C1090     1.0  0.70680  0.46756  0.85676  1.0000
  H   H1286     1.0  0.96883  0.37350  0.82210  1.0000
  S   S287      1.0  0.58591  0.35677  0.52816  1.0000
  H   H1287     1.0  0.67734  0.27181  0.84736  1.0000
  C   C1091     1.0  0.84969  0.48447  0.97549  1.0000
  S   S288      1.0  0.64017  0.47838  0.96344  1.0000
  H   H1288     1.0  0.95756  0.33357  0.85958  1.0000
  H   H1289     1.0  0.97178  0.37618  0.90831  1.0000
  C   C1092     1.0  0.52641  0.26171  0.80882  1.0000
  H   H1290     1.0  0.65456  0.29640  0.49598  1.0000
  H   H1291     1.0  0.81484  0.38579  0.97183  1.0000
  H   H1292     1.0  0.73863  0.48444  0.49881  1.0000
  H   H1293     1.0  0.00904  0.30753  0.71738  1.0000
  H   H1294     1.0  0.69259  0.46562  0.49567  1.0000
  H   H1295     1.0  0.53676  0.34403  0.69477  1.0000
  C   C1093     1.0  0.99045  0.38230  0.83076  1.0000
  C   C1094     1.0  0.76920  0.49703  0.96149  1.0000
  C   C1095     1.0  0.75538  0.49961  0.93508  1.0000
  H   H1296     1.0  0.56795  0.26332  0.66768  1.0000
  C   C1096     1.0  0.54105  0.26415  0.63138  1.0000
  C   C1097     1.0  0.00083  0.37223  0.67233  1.0000
  H   H1297     1.0  0.93713  0.25653  0.54704  1.0000
  H   H1298     1.0  0.93901  0.26112  0.66483  1.0000
  H   H1299     1.0  0.00069  0.40494  0.82762  1.0000
  H   H1300     1.0  0.63599  0.31510  0.49527  1.0000
  C   C1098     1.0  0.51076  0.30116  0.68833  1.0000
  C   C1099     1.0  0.93744  0.25732  0.57282  1.0000
  Fe  Fe145     1.0  0.88145  0.62602  0.10006  1.0000
  S   S289      1.0  0.88308  0.60480  0.14479  1.0000
  S   S290      1.0  0.87134  0.66020  0.09485  1.0000
  Fe  Fe146     1.0  0.88851  0.58629  0.05638  1.0000
  S   S291      1.0  0.89130  0.56242  0.09734  1.0000
  H   H1301     1.0  0.00557  0.62030  0.18079  1.0000
  Fe  Fe147     1.0  0.85609  0.56588  0.11780  1.0000
  S   S292      1.0  0.81873  0.52763  0.13545  1.0000
  Fe  Fe148     1.0  0.91851  0.60356  0.12048  1.0000
  S   S293      1.0  0.95546  0.60709  0.14757  1.0000
  S   S294      1.0  0.85155  0.58703  0.07527  1.0000
  S   S295      1.0  0.91869  0.62746  0.07735  1.0000
  H   H1302     1.0  0.73775  0.51511  0.01897  1.0000
  C   C1100     1.0  0.52188  0.65738  0.10949  1.0000
  Fe  Fe149     1.0  0.61161  0.70584  0.16457  1.0000
  H   H1303     1.0  0.90396  0.58641  0.45532  1.0000
  S   S296      1.0  0.57563  0.68906  0.12923  1.0000
  H   H1304     1.0  0.70242  0.72820  0.28281  1.0000
  H   H1305     1.0  0.94768  0.72965  0.15188  1.0000
  C   C1101     1.0  0.60883  0.54048  0.42443  1.0000
  Fe  Fe150     1.0  0.63749  0.71006  0.23000  1.0000
  S   S297      1.0  0.63565  0.69633  0.28095  1.0000
  H   H1306     1.0  0.62265  0.56066  0.43390  1.0000
  S   S298      1.0  0.63477  0.68609  0.18586  1.0000
  C   C1102     1.0  0.87211  0.53996  0.99387  1.0000
  Fe  Fe151     1.0  0.73675  0.67806  0.40964  1.0000
  S   S299      1.0  0.75321  0.67530  0.36196  1.0000
  H   H1307     1.0  0.88309  0.51790  0.36925  1.0000
  Fe  Fe152     1.0  0.71868  0.61774  0.42560  1.0000
  S   S300      1.0  0.73356  0.61099  0.37867  1.0000
  S   S301      1.0  0.70130  0.58488  0.46395  1.0000
  Fe  Fe153     1.0  0.77076  0.65231  0.38783  1.0000
  S   S302      1.0  0.81324  0.65943  0.37527  1.0000
  Fe  Fe154     1.0  0.71454  0.63472  0.35797  1.0000
  S   S303      1.0  0.68983  0.62294  0.31235  1.0000
  S   S304      1.0  0.75715  0.65807  0.43617  1.0000
  S   S305      1.0  0.69685  0.63845  0.40425  1.0000
  H   H1308     1.0  0.91893  0.55250  0.20256  1.0000
  C   C1103     1.0  0.71395  0.64101  0.22204  1.0000
  H   H1309     1.0  0.73806  0.66103  0.16575  1.0000
  H   H1310     1.0  0.84473  0.55851  0.38605  1.0000
  C   C1104     1.0  0.80719  0.58007  0.42971  1.0000
  S   S306      1.0  0.94524  0.61208  0.40596  1.0000
  H   H1311     1.0  0.84900  0.59899  0.36323  1.0000
  H   H1312     1.0  0.82768  0.71381  0.20118  1.0000
  S   S307      1.0  0.95845  0.68571  0.42903  1.0000
  H   H1313     1.0  0.74534  0.72776  0.35085  1.0000
  H   H1314     1.0  0.68902  0.73598  0.31763  1.0000
  C   C1105     1.0  0.76914  0.58862  0.44266  1.0000
  C   C1106     1.0  0.66890  0.53877  0.42699  1.0000
  C   C1107     1.0  0.67798  0.54953  0.45750  1.0000
  S   S308      1.0  0.71070  0.52825  0.09119  1.0000
  C   C1108     1.0  0.00766  0.63932  0.17188  1.0000
  C   C1109     1.0  0.87739  0.54471  0.43970  1.0000
  H   H1315     1.0  0.67618  0.55222  0.40661  1.0000
  C   C1110     1.0  0.83789  0.66835  0.40600  1.0000
  C   C1111     1.0  0.86438  0.67307  0.39853  1.0000
  C   C1112     1.0  0.88411  0.67924  0.42264  1.0000
  H   H1316     1.0  0.85835  0.59081  0.44838  1.0000
  C   C1113     1.0  0.87763  0.68127  0.45433  1.0000
  C   C1114     1.0  0.83141  0.67022  0.43771  1.0000
  H   H1317     1.0  0.86965  0.67186  0.37402  1.0000
  H   H1318     1.0  0.90444  0.68284  0.41658  1.0000
  H   H1319     1.0  0.81448  0.55720  0.46689  1.0000
  H   H1320     1.0  0.81112  0.66650  0.44387  1.0000
  C   C1115     1.0  0.64929  0.67468  0.28957  1.0000
  C   C1116     1.0  0.65866  0.67449  0.32049  1.0000
  C   C1117     1.0  0.67110  0.65865  0.32766  1.0000
  C   C1118     1.0  0.67324  0.64206  0.30425  1.0000
  C   C1119     1.0  0.66245  0.64106  0.27381  1.0000
  C   C1120     1.0  0.65114  0.65785  0.26622  1.0000
  H   H1321     1.0  0.65676  0.68704  0.33883  1.0000
  H   H1322     1.0  0.67901  0.65940  0.35133  1.0000
  H   H1323     1.0  0.66293  0.62742  0.25595  1.0000
  H   H1324     1.0  0.64327  0.65732  0.24254  1.0000
  H   H1325     1.0  0.83559  0.61839  0.38180  1.0000
  H   H1326     1.0  0.85892  0.62093  0.43325  1.0000
  C   C1121     1.0  0.91618  0.57903  0.40958  1.0000
  C   C1122     1.0  0.91005  0.55962  0.38521  1.0000
  C   C1123     1.0  0.88758  0.53279  0.38804  1.0000
  C   C1124     1.0  0.87136  0.52521  0.41547  1.0000
  C   C1125     1.0  0.65016  0.51053  0.42296  1.0000
  H   H1327     1.0  0.92286  0.56530  0.36416  1.0000
  H   H1328     1.0  0.78856  0.73367  0.43942  1.0000
  C   C1126     1.0  0.98570  0.63893  0.15498  1.0000
  C   C1127     1.0  0.78810  0.59413  0.99697  1.0000
  C   C1128     1.0  0.53093  0.64946  0.16356  1.0000
  C   C1129     1.0  0.54059  0.66358  0.13484  1.0000
  H   H1329     1.0  0.70983  0.71786  0.35369  1.0000
  C   C1130     1.0  0.98860  0.66365  0.14361  1.0000
  H   H1330     1.0  0.97189  0.66362  0.13052  1.0000
  H   H1331     1.0  0.54506  0.65399  0.18325  1.0000
  H   H1332     1.0  0.52918  0.66811  0.08712  1.0000
  H   H1333     1.0  0.77688  0.53166  0.04877  1.0000
  H   H1334     1.0  0.75619  0.61910  0.99357  1.0000
  C   C1131     1.0  0.76442  0.55222  0.10987  1.0000
  C   C1132     1.0  0.78854  0.55235  0.11947  1.0000
  C   C1133     1.0  0.78810  0.52763  0.12550  1.0000
  C   C1134     1.0  0.85672  0.60074  0.42627  1.0000
  H   H1335     1.0  0.79282  0.60328  0.40078  1.0000
  H   H1336     1.0  0.76481  0.57143  0.10577  1.0000
  H   H1337     1.0  0.80740  0.57166  0.12276  1.0000
  S   S309      1.0  0.61132  0.72688  0.21011  1.0000
  C   C1135     1.0  0.87557  0.68154  0.12770  1.0000
  C   C1136     1.0  0.88508  0.67792  0.15712  1.0000
  C   C1137     1.0  0.88876  0.69574  0.18263  1.0000
  C   C1138     1.0  0.88336  0.71748  0.17872  1.0000
  C   C1139     1.0  0.87381  0.72104  0.14931  1.0000
  C   C1140     1.0  0.86980  0.70304  0.12396  1.0000
  H   H1338     1.0  0.88961  0.66142  0.16023  1.0000
  H   H1339     1.0  0.89604  0.69280  0.20537  1.0000
  H   H1340     1.0  0.69724  0.50843  0.44701  1.0000
  H   H1341     1.0  0.86238  0.70591  0.10127  1.0000
  H   H1342     1.0  0.69286  0.63212  0.21168  1.0000
  C   C1141     1.0  0.71989  0.68651  0.22879  1.0000
  N   N74       1.0  0.73141  0.67043  0.21373  1.0000
  C   C1142     1.0  0.77049  0.74523  0.29066  1.0000
  H   H1343     1.0  0.82882  0.54557  0.42329  1.0000
  C   C1143     1.0  0.76013  0.74785  0.42798  1.0000
  C   C1144     1.0  0.75995  0.68079  0.22535  1.0000
  C   C1145     1.0  0.76493  0.67709  0.25767  1.0000
  C   C1146     1.0  0.78346  0.69497  0.20545  1.0000
  C   C1147     1.0  0.79160  0.68554  0.26881  1.0000
  C   C1148     1.0  0.81003  0.70349  0.21691  1.0000
  C   C1149     1.0  0.81407  0.69846  0.24833  1.0000
  H   H1344     1.0  0.76384  0.72967  0.13549  1.0000
  S   S310      1.0  0.88564  0.57477  0.00442  1.0000
  H   H1345     1.0  0.71101  0.63759  0.24810  1.0000
  H   H1346     1.0  0.73272  0.70879  0.22320  1.0000
  H   H1347     1.0  0.95595  0.56354  0.44522  1.0000
  H   H1348     1.0  0.84612  0.67844  0.48620  1.0000
  S   S311      1.0  0.71031  0.72137  0.15365  1.0000
  H   H1349     1.0  0.72126  0.70705  0.31988  1.0000
  Fe  Fe155     1.0  0.67362  0.72455  0.17176  1.0000
  H   H1350     1.0  0.74818  0.66726  0.27451  1.0000
  H   H1351     1.0  0.81785  0.71418  0.37114  1.0000
  H   H1352     1.0  0.79478  0.68171  0.29335  1.0000
  H   H1353     1.0  0.87770  0.52673  0.03996  1.0000
  H   H1354     1.0  0.83474  0.70462  0.25666  1.0000
  C   C1150     1.0  0.79107  0.52474  0.03956  1.0000
  H   H1355     1.0  0.85600  0.53044  0.19242  1.0000
  S   S312      1.0  0.67733  0.74725  0.21700  1.0000
  C   C1151     1.0  0.76445  0.57441  0.47115  1.0000
  C   C1152     1.0  0.84386  0.72728  0.32990  1.0000
  H   H1356     1.0  0.73127  0.51745  0.43424  1.0000
  C   C1153     1.0  0.87032  0.52046  0.01593  1.0000
  H   H1357     1.0  0.66660  0.52822  0.00165  1.0000
  N   N75       1.0  0.61645  0.55687  0.36675  1.0000
  C   C1154     1.0  0.63234  0.54983  0.34396  1.0000
  C   C1155     1.0  0.59474  0.55928  0.34904  1.0000
  C   C1156     1.0  0.63576  0.58431  0.38022  1.0000
  C   C1157     1.0  0.60360  0.53516  0.39123  1.0000
  H   H1358     1.0  0.76574  0.63463  0.03185  1.0000
  N   N76       1.0  0.77726  0.60360  0.02338  1.0000
  H   H1359     1.0  0.64806  0.54665  0.35663  1.0000
  S   S313      1.0  0.99680  0.66557  0.46721  1.0000
  C   C1158     1.0  0.79606  0.61413  0.05139  1.0000
  H   H1360     1.0  0.74032  0.69411  0.17077  1.0000
  H   H1361     1.0  0.60379  0.57610  0.33110  1.0000
  H   H1362     1.0  0.65292  0.58392  0.39331  1.0000
  H   H1363     1.0  0.64542  0.60017  0.36129  1.0000
  H   H1364     1.0  0.62514  0.59171  0.39659  1.0000
  H   H1365     1.0  0.70775  0.66420  0.17053  1.0000
  C   C1159     1.0  0.77254  0.62604  0.01216  1.0000
  H   H1366     1.0  0.79957  0.59797  0.06212  1.0000
  H   H1367     1.0  0.64347  0.56645  0.32616  1.0000
  H   H1368     1.0  0.86910  0.73737  0.14616  1.0000
  H   H1369     1.0  0.93109  0.52114  0.41569  1.0000
  C   C1160     1.0  0.83003  0.73115  0.35521  1.0000
  H   H1370     1.0  0.72319  0.62865  0.21308  1.0000
  S   S314      1.0  0.90206  0.68959  0.48508  1.0000
  N   N77       1.0  0.88447  0.51540  0.18417  1.0000
  H   H1371     1.0  0.74196  0.58627  0.05482  1.0000
  H   H1372     1.0  0.78749  0.62127  0.07077  1.0000
  H   H1373     1.0  0.80784  0.54271  0.38965  1.0000
  H   H1374     1.0  0.80680  0.54134  0.02437  1.0000
  H   H1375     1.0  0.78196  0.69958  0.18082  1.0000
  H   H1376     1.0  0.99101  0.62135  0.08242  1.0000
  C   C1161     1.0  0.78569  0.75133  0.43745  1.0000
  H   H1377     1.0  0.58068  0.54017  0.33583  1.0000
  C   C1162     1.0  0.83176  0.59712  0.37834  1.0000
  C   C1163     1.0  0.82774  0.55648  0.40181  1.0000
  H   H1378     1.0  0.87194  0.52678  0.22759  1.0000
  H   H1379     1.0  0.61902  0.53089  0.33012  1.0000
  C   C1164     1.0  0.89955  0.57157  0.43664  1.0000
  Fe  Fe156     1.0  0.93722  0.68155  0.47576  1.0000
  H   H1380     1.0  0.92326  0.54471  0.16232  1.0000
  N   N78       1.0  0.83033  0.58359  0.40922  1.0000
  H   H1381     1.0  0.74828  0.57264  0.48699  1.0000
  H   H1382     1.0  0.71860  0.68423  0.25512  1.0000
  C   C1165     1.0  0.73983  0.52738  0.10559  1.0000
  H   H1383     1.0  0.81240  0.58542  0.36435  1.0000
  N   N79       1.0  0.73273  0.74993  0.31939  1.0000
  C   C1166     1.0  0.90781  0.54369  0.17975  1.0000
  C   C1167     1.0  0.94126  0.54574  0.45838  1.0000
  H   H1384     1.0  0.95750  0.73038  0.11054  1.0000
  H   H1385     1.0  0.86232  0.51573  0.14220  1.0000
  H   H1386     1.0  0.87489  0.60495  0.41131  1.0000
  H   H1387     1.0  0.90080  0.55787  0.17061  1.0000
  H   H1388     1.0  0.76554  0.72626  0.30249  1.0000
  H   H1389     1.0  0.75313  0.56284  0.04226  1.0000
  H   H1390     1.0  0.80243  0.74337  0.26362  1.0000
  C   C1168     1.0  0.72947  0.67246  0.17868  1.0000
  S   S315      1.0  0.93180  0.64014  0.48754  1.0000
  C   C1169     1.0  0.79013  0.59152  0.42213  1.0000
  S   S316      1.0  0.73211  0.71533  0.41855  1.0000
  C   C1170     1.0  0.70733  0.74396  0.30169  1.0000
  H   H1391     1.0  0.73459  0.57261  0.01538  1.0000
  H   H1392     1.0  0.72199  0.51144  0.47564  1.0000
  H   H1393     1.0  0.69866  0.67996  0.21995  1.0000
  H   H1394     1.0  0.84240  0.70742  0.32635  1.0000
  S   S317      1.0  0.88854  0.73978  0.21091  1.0000
  C   C1171     1.0  0.86344  0.51735  0.20394  1.0000
  C   C1172     1.0  0.76691  0.74745  0.14888  1.0000
  C   C1173     1.0  0.75065  0.58040  0.03432  1.0000
  Fe  Fe157     1.0  0.99743  0.70521  0.45813  1.0000
  Fe  Fe158     1.0  0.95556  0.64551  0.44261  1.0000
  H   H1395     1.0  0.86494  0.53890  0.46103  1.0000
  H   H1396     1.0  0.75665  0.59788  0.43677  1.0000
  C   C1174     1.0  0.85988  0.74904  0.30959  1.0000
  C   C1175     1.0  0.85130  0.67693  0.46174  1.0000
  H   H1397     1.0  0.82643  0.60076  0.01989  1.0000
  H   H1398     1.0  0.81647  0.63200  0.04505  1.0000
  H   H1399     1.0  0.58186  0.56379  0.36554  1.0000
  C   C1176     1.0  0.58536  0.50755  0.38207  1.0000
  C   C1177     1.0  0.80191  0.56579  0.45908  1.0000
  C   C1178     1.0  0.74401  0.74909  0.15999  1.0000
  C   C1179     1.0  0.72720  0.72456  0.33651  1.0000
  H   H1400     1.0  0.80212  0.52294  0.06075  1.0000
  C   C1180     1.0  0.66854  0.53175  0.48379  1.0000
  C   C1181     1.0  0.92706  0.52136  0.44092  1.0000
  H   H1401     1.0  0.87085  0.74609  0.28997  1.0000
  C   C1182     1.0  0.78079  0.56298  0.47937  1.0000
  H   H1402     1.0  0.99274  0.74048  0.14810  1.0000
  S   S318      1.0  0.65062  0.74224  0.14606  1.0000
  C   C1183     1.0  0.74325  0.51068  0.99590  1.0000
  H   H1403     1.0  0.92737  0.73198  0.12084  1.0000
  H   H1404     1.0  0.59148  0.74770  0.14647  1.0000
  C   C1184     1.0  0.59684  0.51929  0.44673  1.0000
  H   H1405     1.0  0.79173  0.64317  0.00186  1.0000
  H   H1406     1.0  0.95751  0.60082  0.47222  1.0000
  C   C1185     1.0  0.81326  0.59356  0.99915  1.0000
  C   C1186     1.0  0.94902  0.73909  0.12817  1.0000
  H   H1407     1.0  0.98579  0.59472  0.48070  1.0000
  H   H1408     1.0  0.88687  0.50497  0.13497  1.0000
  H   H1409     1.0  0.60183  0.52360  0.47181  1.0000
  H   H1410     1.0  0.81382  0.50515  0.99948  1.0000
  H   H1411     1.0  0.86390  0.54652  0.94547  1.0000
  H   H1412     1.0  0.78268  0.70996  0.82339  1.0000
  Fe  Fe159     1.0  0.73525  0.59035  0.81397  1.0000
  S   S319      1.0  0.76147  0.61185  0.85637  1.0000
  S   S320      1.0  0.73441  0.55328  0.79135  1.0000
  Fe  Fe160     1.0  0.71353  0.63082  0.80903  1.0000
  S   S321      1.0  0.73764  0.65488  0.85194  1.0000
  S   S322      1.0  0.68757  0.64013  0.77480  1.0000
  Fe  Fe161     1.0  0.77240  0.65079  0.83059  1.0000
  S   S323      1.0  0.81698  0.68419  0.83332  1.0000
  Fe  Fe162     1.0  0.72457  0.61351  0.87391  1.0000
  S   S324      1.0  0.71432  0.60364  0.92604  1.0000
  S   S325      1.0  0.74933  0.62931  0.78642  1.0000
  S   S326      1.0  0.69730  0.58962  0.83285  1.0000
  H   H1413     1.0  0.75380  0.58449  0.96447  1.0000
  S   S327      1.0  0.98301  0.65236  0.55876  1.0000
  H   H1414     1.0  0.97701  0.71828  0.60363  1.0000
  S   S328      1.0  0.58158  0.72318  0.73298  1.0000
  H   H1415     1.0  0.84165  0.58337  0.97625  1.0000
  C   C1187     1.0  0.63540  0.58473  0.88255  1.0000
  H   H1416     1.0  0.80980  0.60320  0.85057  1.0000
  H   H1417     1.0  0.62281  0.52944  0.92775  1.0000
  S   S329      1.0  0.64231  0.72368  0.79035  1.0000
  C   C1188     1.0  0.51390  0.67310  0.63987  1.0000
  C   C1189     1.0  0.80597  0.74264  0.79029  1.0000
  C   C1190     1.0  0.77312  0.58470  0.96800  1.0000
  H   H1418     1.0  0.00724  0.71757  0.59097  1.0000
  C   C1191     1.0  0.63684  0.56959  0.90814  1.0000
  H   H1419     1.0  0.95360  0.55214  0.55247  1.0000
  C   C1192     1.0  0.54611  0.71536  0.59771  1.0000
  C   C1193     1.0  0.55654  0.71521  0.62808  1.0000
  H   H1420     1.0  0.84729  0.65730  0.76085  1.0000
  H   H1421     1.0  0.75035  0.51348  0.77311  1.0000
  H   H1422     1.0  0.57549  0.74348  0.52002  1.0000
  H   H1423     1.0  0.55860  0.73135  0.58101  1.0000
  H   H1424     1.0  0.89278  0.69300  0.74549  1.0000
  H   H1425     1.0  0.91313  0.72266  0.55012  1.0000
  C   C1194     1.0  0.51957  0.69479  0.58862  1.0000
  C   C1195     1.0  0.68859  0.56130  0.96833  1.0000
  H   H1426     1.0  0.83040  0.70061  0.71789  1.0000
  C   C1196     1.0  0.83587  0.70007  0.79867  1.0000
  C   C1197     1.0  0.86355  0.72053  0.80173  1.0000
  C   C1198     1.0  0.87922  0.73398  0.77476  1.0000
  C   C1199     1.0  0.86730  0.72706  0.74446  1.0000
  C   C1200     1.0  0.83973  0.70620  0.74128  1.0000
  C   C1201     1.0  0.82395  0.69291  0.76834  1.0000
  C   C1202     1.0  0.96878  0.59687  0.49154  1.0000
  H   H1427     1.0  0.62433  0.62362  0.85456  1.0000
  H   H1428     1.0  0.80259  0.67728  0.76571  1.0000
  C   C1203     1.0  0.67696  0.66495  0.77880  1.0000
  C   C1204     1.0  0.66309  0.66906  0.75330  1.0000
  C   C1205     1.0  0.65259  0.68721  0.75619  1.0000
  C   C1206     1.0  0.65542  0.70099  0.78491  1.0000
  C   C1207     1.0  0.66956  0.69710  0.81032  1.0000
  C   C1208     1.0  0.68062  0.67946  0.80718  1.0000
  H   H1429     1.0  0.66015  0.65788  0.73125  1.0000
  H   H1430     1.0  0.64181  0.69009  0.73645  1.0000
  H   H1431     1.0  0.67191  0.70778  0.83261  1.0000
  H   H1432     1.0  0.69122  0.67648  0.82703  1.0000
  H   H1433     1.0  0.59039  0.53085  0.83609  1.0000
  H   H1434     1.0  0.93942  0.59833  0.53846  1.0000
  H   H1435     1.0  0.65369  0.62474  0.83465  1.0000
  C   C1209     1.0  0.69549  0.56861  0.93635  1.0000
  H   H1436     1.0  0.97929  0.74696  0.65014  1.0000
  C   C1210     1.0  0.61818  0.57151  0.85577  1.0000
  H   H1437     1.0  0.58347  0.59104  0.80467  1.0000
  H   H1438     1.0  0.77741  0.55237  0.50187  1.0000
  H   H1439     1.0  0.69161  0.55340  0.88842  1.0000
  C   C1211     1.0  0.75078  0.53833  0.81262  1.0000
  H   H1440     1.0  0.91161  0.74873  0.64540  1.0000
  C   C1212     1.0  0.91427  0.68087  0.77830  1.0000
  H   H1441     1.0  0.83710  0.75244  0.71610  1.0000
  C   C1213     1.0  0.77471  0.53630  0.85976  1.0000
  C   C1214     1.0  0.75903  0.54593  0.84414  1.0000
  Fe  Fe163     1.0  0.62417  0.74116  0.75468  1.0000
  H   H1442     1.0  0.78208  0.54321  0.88361  1.0000
  H   H1443     1.0  0.75357  0.55941  0.85644  1.0000
  H   H1444     1.0  0.80996  0.63545  0.79431  1.0000
  C   C1215     1.0  0.78269  0.57533  0.94287  1.0000
  Fe  Fe164     1.0  0.97330  0.66377  0.51107  1.0000
  H   H1445     1.0  0.93014  0.66429  0.81312  1.0000
  C   C1216     1.0  0.68641  0.54801  0.91313  1.0000
  H   H1446     1.0  0.99296  0.70413  0.62889  1.0000
  H   H1447     1.0  0.62533  0.59240  0.77842  1.0000
  C   C1217     1.0  0.86456  0.65769  0.77290  1.0000
  H   H1448     1.0  0.73883  0.69217  0.79372  1.0000
  C   C1218     1.0  0.96654  0.56899  0.53577  1.0000
  H   H1449     1.0  0.97787  0.58804  0.55044  1.0000
  H   H1450     1.0  0.61344  0.55821  0.79241  1.0000
  H   H1451     1.0  0.71424  0.51948  0.97226  1.0000
  C   C1219     1.0  0.88569  0.64144  0.81112  1.0000
  S   S330      1.0  0.97653  0.70468  0.50379  1.0000
  C   C1220     1.0  0.91994  0.73953  0.56685  1.0000
  C   C1221     1.0  0.62571  0.58022  0.79916  1.0000
  C   C1222     1.0  0.89075  0.67846  0.76376  1.0000
  H   H1452     1.0  0.57310  0.55697  0.81701  1.0000
  H   H1453     1.0  0.83622  0.58668  0.77694  1.0000
  H   H1454     1.0  0.84665  0.58626  0.81737  1.0000
  H   H1455     1.0  0.81113  0.61264  0.76438  1.0000
  H   H1456     1.0  0.67545  0.53992  0.50749  1.0000
  H   H1457     1.0  0.89849  0.71175  0.60543  1.0000
  C   C1223     1.0  0.67221  0.53360  0.97700  1.0000
  H   H1458     1.0  0.51180  0.69538  0.56521  1.0000
  C   C1224     1.0  0.00004  0.74978  0.65567  1.0000
  H   H1459     1.0  0.88482  0.62759  0.82952  1.0000
  H   H1460     1.0  0.97887  0.61572  0.50659  1.0000
  C   C1225     1.0  0.78129  0.51806  0.84459  1.0000
  N   N80       1.0  0.94991  0.57235  0.51048  1.0000
  C   C1226     1.0  0.83201  0.58925  0.80224  1.0000
  H   H1461     1.0  0.51541  0.73978  0.70545  1.0000
  H   H1462     1.0  0.70700  0.74709  0.78191  1.0000
  C   C1227     1.0  0.66228  0.51308  0.95361  1.0000
  Fe  Fe165     1.0  0.60282  0.74945  0.69042  1.0000
  H   H1463     1.0  0.90057  0.74959  0.77748  1.0000
  H   H1464     1.0  0.65022  0.58008  0.92825  1.0000
  C   C1228     1.0  0.86263  0.53160  0.96268  1.0000
  H   H1465     1.0  0.81440  0.56688  0.92669  1.0000
  H   H1466     1.0  0.77087  0.56851  0.92097  1.0000
  C   C1229     1.0  0.54022  0.69415  0.64928  1.0000
  H   H1467     1.0  0.87295  0.72603  0.82511  1.0000
  H   H1468     1.0  0.64750  0.58510  0.80207  1.0000
  H   H1469     1.0  0.73693  0.71458  0.74413  1.0000
  H   H1470     1.0  0.83165  0.63978  0.84686  1.0000
  H   H1471     1.0  0.53514  0.75293  0.66975  1.0000
  H   H1472     1.0  0.91038  0.52109  0.53034  1.0000
  C   C1230     1.0  0.86123  0.63853  0.79704  1.0000
  C   C1231     1.0  0.78192  0.72015  0.80179  1.0000
  H   H1473     1.0  0.57723  0.58223  0.84616  1.0000
  C   C1232     1.0  0.58606  0.57886  0.82395  1.0000
  C   C1233     1.0  0.66962  0.52036  0.92172  1.0000
  H   H1474     1.0  0.98203  0.56424  0.52533  1.0000
  H   H1475     1.0  0.93449  0.69720  0.77133  1.0000
  C   C1234     1.0  0.75680  0.51954  0.79751  1.0000
  C   C1235     1.0  0.91176  0.66235  0.80187  1.0000
  H   H1476     1.0  0.64815  0.60675  0.88437  1.0000
  N   N81       1.0  0.61545  0.58681  0.82859  1.0000
  H   H1477     1.0  0.62830  0.62799  0.81242  1.0000
  C   C1236     1.0  0.63113  0.61706  0.83297  1.0000
  H   H1478     1.0  0.91512  0.57889  0.50768  1.0000
  H   H1479     1.0  0.91664  0.56266  0.54378  1.0000
  C   C1237     1.0  0.60336  0.54235  0.85592  1.0000
  C   C1238     1.0  0.62154  0.54104  0.90782  1.0000
  H   H1480     1.0  0.84591  0.61824  0.85697  1.0000
  N   N82       1.0  0.83389  0.61632  0.80752  1.0000
  H   H1481     1.0  0.81114  0.57198  0.80802  1.0000
  C   C1239     1.0  0.81043  0.61602  0.79040  1.0000
  H   H1482     1.0  0.79022  0.59914  0.79885  1.0000
  H   H1483     1.0  0.59352  0.50517  0.88134  1.0000
  C   C1240     1.0  0.83023  0.61955  0.84195  1.0000
  C   C1241     1.0  0.99717  0.72100  0.61188  1.0000
  S   S331      1.0  0.51771  0.73893  0.50104  1.0000
  C   C1242     1.0  0.75721  0.71012  0.78514  1.0000
  H   H1484     1.0  0.98759  0.73517  0.73255  1.0000
  H   H1485     1.0  0.54807  0.69372  0.67269  1.0000
  S   S332      1.0  0.59011  0.74150  0.63837  1.0000
  C   C1243     1.0  0.72961  0.51320  0.96931  1.0000
  C   C1244     1.0  0.77186  0.50918  0.81360  1.0000
  H   H1486     1.0  0.90618  0.74086  0.50425  1.0000
  C   C1245     1.0  0.75625  0.72285  0.75714  1.0000
  C   C1246     1.0  0.93566  0.54685  0.49125  1.0000
  S   S333      1.0  0.80444  0.51017  0.86375  1.0000
  C   C1247     1.0  0.91547  0.52198  0.50542  1.0000
  H   H1487     1.0  0.00958  0.65641  0.61877  1.0000
  H   H1488     1.0  0.99678  0.73333  0.67292  1.0000
  C   C1248     1.0  0.80714  0.57452  0.94600  1.0000
  S   S334      1.0  0.88621  0.74450  0.71036  1.0000
  C   C1249     1.0  0.60502  0.52743  0.88165  1.0000
  C   C1250     1.0  0.82242  0.58370  0.97403  1.0000
  H   H1489     1.0  0.69534  0.57715  0.98638  1.0000
  C   C1251     1.0  0.91135  0.73301  0.59846  1.0000
  C   C1252     1.0  0.78012  0.74560  0.74559  1.0000
  H   H1490     1.0  0.94750  0.73680  0.51508  1.0000
  H   H1491     1.0  0.72516  0.50989  0.91838  1.0000
  C   C1253     1.0  0.92936  0.57821  0.52571  1.0000
  C   C1254     1.0  0.51876  0.75330  0.68453  1.0000
  C   C1255     1.0  0.73563  0.50766  0.93896  1.0000
  H   H1492     1.0  0.82447  0.74868  0.80408  1.0000
  C   C1256     1.0  0.91870  0.75377  0.62098  1.0000
  H   H1493     1.0  0.66182  0.50463  0.90351  1.0000
  Fe  Fe166     1.0  0.67088  0.96949  0.11116  1.0000
  S   S335      1.0  0.67409  0.94996  0.06602  1.0000
  Fe  Fe167     1.0  0.60851  0.92948  0.11712  1.0000
  S   S336      1.0  0.60738  0.90803  0.07146  1.0000
  S   S337      1.0  0.57298  0.91533  0.15242  1.0000
  Fe  Fe168     1.0  0.64604  0.90979  0.08989  1.0000
  S   S338      1.0  0.64986  0.87170  0.08311  1.0000
  Fe  Fe169     1.0  0.63562  0.95039  0.05195  1.0000
  H   H1494     1.0  0.89598  0.82963  0.33135  1.0000
  S   S339      1.0  0.64605  0.92924  0.13659  1.0000
  Fe  Fe170     1.0  0.89465  0.78168  0.19919  1.0000
  S   S340      1.0  0.88722  0.79518  0.15172  1.0000
  C   C1257     1.0  0.76351  0.97519  0.45417  1.0000
  Fe  Fe171     1.0  0.91492  0.83796  0.22921  1.0000
  S   S341      1.0  0.91022  0.85597  0.18375  1.0000
  S   S342      1.0  0.92885  0.86244  0.27475  1.0000
  Fe  Fe172     1.0  0.86937  0.81684  0.18012  1.0000
  S   S343      1.0  0.83141  0.82151  0.17505  1.0000
  Fe  Fe173     1.0  0.92880  0.83276  0.16022  1.0000
  S   S344      1.0  0.95994  0.84765  0.11964  1.0000
  S   S345      1.0  0.87357  0.80018  0.22699  1.0000
  S   S346      1.0  0.93691  0.81799  0.20634  1.0000
  Fe  Fe174     1.0  0.83914  0.90429  0.37279  1.0000
  S   S347      1.0  0.86483  0.90633  0.41497  1.0000
  S   S348      1.0  0.84874  0.90535  0.32036  1.0000
  Fe  Fe175     1.0  0.78973  0.89261  0.41378  1.0000
  S   S349      1.0  0.81082  0.89277  0.45932  1.0000
  S   S350      1.0  0.74733  0.88716  0.40659  1.0000
  Fe  Fe176     1.0  0.84730  0.93038  0.43913  1.0000
  C   C1258     1.0  0.71815  0.97486  0.42297  1.0000
  Fe  Fe177     1.0  0.82648  0.86888  0.43171  1.0000
  H   H1495     1.0  0.59373  0.85381  0.17139  1.0000
  S   S351      1.0  0.82503  0.93176  0.39525  1.0000
  S   S352      1.0  0.80202  0.86524  0.38795  1.0000
  S   S353      1.0  0.66047  0.80577  0.19983  1.0000
  H   H1496     1.0  0.81589  0.78630  0.23428  1.0000
  H   H1497     1.0  0.57375  0.79710  0.08473  1.0000
  S   S354      1.0  0.55733  0.85769  0.44859  1.0000
  H   H1498     1.0  0.97862  0.91481  0.11924  1.0000
  H   H1499     1.0  0.92575  0.92493  0.46937  1.0000
  S   S355      1.0  0.65999  0.98858  0.43696  1.0000
  C   C1259     1.0  0.97484  0.92635  0.23609  1.0000
  H   H1500     1.0  0.96977  0.92292  0.26193  1.0000
  S   S356      1.0  0.63436  0.91490  0.45653  1.0000
  H   H1501     1.0  0.53444  0.83680  0.14643  1.0000
  H   H1502     1.0  0.97404  0.88022  0.21811  1.0000
  C   C1260     1.0  0.84457  0.81722  0.31867  1.0000
  H   H1503     1.0  0.54538  0.94277  0.25438  1.0000
  S   S357      1.0  0.63344  0.97186  0.09608  1.0000
  Fe  Fe178     1.0  0.59139  0.89329  0.47589  1.0000
  H   H1504     1.0  0.73095  0.77421  0.18484  1.0000
  C   C1261     1.0  0.58661  0.76406  0.14347  1.0000
  H   H1505     1.0  0.64489  0.80731  0.42547  1.0000
  H   H1506     1.0  0.60267  0.84105  0.47706  1.0000
  H   H1507     1.0  0.58434  0.87221  0.14442  1.0000
  C   C1262     1.0  0.83800  0.80924  0.37467  1.0000
  H   H1508     1.0  0.65954  0.88452  0.15100  1.0000
  C   C1263     1.0  0.73834  0.77125  0.34384  1.0000
  C   C1264     1.0  0.72887  0.89033  0.43857  1.0000
  C   C1265     1.0  0.73351  0.88558  0.47006  1.0000
  H   H1509     1.0  0.80678  0.99274  0.00427  1.0000
  C   C1266     1.0  0.77831  0.79721  0.43275  1.0000
  C   C1267     1.0  0.69372  0.90072  0.45671  1.0000
  C   C1268     1.0  0.70867  0.89748  0.43198  1.0000
  C   C1269     1.0  0.78653  0.79420  0.25807  1.0000
  H   H1510     1.0  0.52452  0.80128  0.14123  1.0000
  H   H1511     1.0  0.75802  0.77729  0.35665  1.0000
  H   H1512     1.0  0.70496  0.90109  0.40764  1.0000
  C   C1270     1.0  0.80379  0.80075  0.44256  1.0000
  H   H1513     1.0  0.00747  0.82324  0.13094  1.0000
  C   C1271     1.0  0.57638  0.79246  0.10897  1.0000
  H   H1514     1.0  0.59012  0.77376  0.19329  1.0000
  H   H1515     1.0  0.70043  0.97418  0.41139  1.0000
  C   C1272     1.0  0.80734  0.77771  0.44527  1.0000
  C   C1273     1.0  0.98705  0.91924  0.16965  1.0000
  H   H1516     1.0  0.84501  0.80404  0.39708  1.0000
  C   C1274     1.0  0.79810  0.79300  0.16966  1.0000
  H   H1517     1.0  0.99610  0.86535  0.17524  1.0000
  H   H1518     1.0  0.00367  0.87226  0.07366  1.0000
  H   H1519     1.0  0.67891  0.90708  0.45124  1.0000
  C   C1275     1.0  0.95318  0.77918  0.15395  1.0000
  C   C1276     1.0  0.77519  0.79482  0.18009  1.0000
  C   C1277     1.0  0.86247  0.77485  0.31489  1.0000
  C   C1278     1.0  0.99629  0.86721  0.12423  1.0000
  H   H1520     1.0  0.77822  0.81324  0.19179  1.0000
  C   C1279     1.0  0.90760  0.87582  0.28661  1.0000
  C   C1280     1.0  0.91146  0.88828  0.31659  1.0000
  C   C1281     1.0  0.89329  0.89712  0.32745  1.0000
  C   C1282     1.0  0.87190  0.89453  0.30776  1.0000
  C   C1283     1.0  0.86872  0.88297  0.27733  1.0000
  C   C1284     1.0  0.88624  0.87326  0.26694  1.0000
  H   H1521     1.0  0.92813  0.89055  0.33177  1.0000
  H   H1522     1.0  0.89610  0.90636  0.35078  1.0000
  H   H1523     1.0  0.85236  0.88109  0.26191  1.0000
  H   H1524     1.0  0.88309  0.86374  0.24373  1.0000
  C   C1285     1.0  0.53824  0.88994  0.14522  1.0000
  C   C1286     1.0  0.52790  0.88193  0.11437  1.0000
  C   C1287     1.0  0.74507  0.99637  0.10366  1.0000
  C   C1288     1.0  0.74833  0.77274  0.17602  1.0000
  H   H1525     1.0  0.88705  0.84723  0.36030  1.0000
  H   H1526     1.0  0.71420  0.99434  0.46502  1.0000
  H   H1527     1.0  0.54142  0.89088  0.09416  1.0000
  H   H1528     1.0  0.97381  0.77498  0.07919  1.0000
  Fe  Fe179     1.0  0.63640  0.95420  0.47260  1.0000
  H   H1529     1.0  0.52815  0.88421  0.19518  1.0000
  C   C1289     1.0  0.65309  0.85384  0.11589  1.0000
  C   C1290     1.0  0.65098  0.82814  0.11077  1.0000
  C   C1291     1.0  0.65280  0.81304  0.13638  1.0000
  C   C1292     1.0  0.65668  0.82351  0.16734  1.0000
  C   C1293     1.0  0.65901  0.84932  0.17247  1.0000
  C   C1294     1.0  0.65743  0.86454  0.14681  1.0000
  H   H1530     1.0  0.64763  0.81973  0.08692  1.0000
  H   H1531     1.0  0.65103  0.79325  0.13209  1.0000
  H   H1532     1.0  0.66232  0.85770  0.19633  1.0000
  H   H1533     1.0  0.73655  0.76814  0.41940  1.0000
  N   N83       1.0  0.74308  0.85040  0.15460  1.0000
  C   C1295     1.0  0.75973  0.85914  0.12497  1.0000
  C   C1296     1.0  0.72292  0.82071  0.15131  1.0000
  C   C1297     1.0  0.72787  0.86583  0.15655  1.0000
  C   C1298     1.0  0.75974  0.85529  0.18391  1.0000
  C   C1299     1.0  0.74686  0.84906  0.21428  1.0000
  C   C1300     1.0  0.78887  0.86658  0.18348  1.0000
  C   C1301     1.0  0.76224  0.85471  0.24238  1.0000
  C   C1302     1.0  0.80400  0.87184  0.21175  1.0000
  C   C1303     1.0  0.79078  0.86627  0.24114  1.0000
  H   H1534     1.0  0.77084  0.84744  0.12114  1.0000
  H   H1535     1.0  0.74652  0.85540  0.10353  1.0000
  H   H1536     1.0  0.77499  0.88150  0.12543  1.0000
  H   H1537     1.0  0.73353  0.80856  0.14792  1.0000
  H   H1538     1.0  0.70893  0.81647  0.13054  1.0000
  H   H1539     1.0  0.70940  0.81230  0.17245  1.0000
  H   H1540     1.0  0.74224  0.88823  0.15968  1.0000
  H   H1541     1.0  0.71521  0.86296  0.13482  1.0000
  H   H1542     1.0  0.71324  0.85905  0.17682  1.0000
  H   H1543     1.0  0.72472  0.84005  0.21653  1.0000
  H   H1544     1.0  0.80053  0.87130  0.16167  1.0000
  H   H1545     1.0  0.75198  0.85045  0.26526  1.0000
  H   H1546     1.0  0.82618  0.88032  0.21081  1.0000
  H   H1547     1.0  0.80272  0.87102  0.26300  1.0000
  N   N84       1.0  0.56741  0.82944  0.13223  1.0000
  C   C1304     1.0  0.56337  0.83516  0.09871  1.0000
  C   C1305     1.0  0.54143  0.82148  0.14967  1.0000
  C   C1306     1.0  0.58955  0.85550  0.14591  1.0000
  C   C1307     1.0  0.57471  0.80747  0.13545  1.0000
  H   H1548     1.0  0.56500  0.95401  0.20008  1.0000
  Fe  Fe180     1.0  0.65118  0.76195  0.19272  1.0000
  H   H1549     1.0  0.92503  0.76818  0.47724  1.0000
  C   C1308     1.0  0.57961  0.79991  0.16602  1.0000
  H   H1550     1.0  0.99652  0.80053  0.45129  1.0000
  H   H1551     1.0  0.55831  0.85203  0.09718  1.0000
  H   H1552     1.0  0.96337  0.80197  0.15479  1.0000
  H   H1553     1.0  0.54377  0.82001  0.17575  1.0000
  C   C1309     1.0  0.88312  0.82654  0.35283  1.0000
  C   C1310     1.0  0.53178  0.93818  0.23406  1.0000
  H   H1554     1.0  0.98660  0.88814  0.25805  1.0000
  H   H1555     1.0  0.72170  0.76376  0.36208  1.0000
  C   C1311     1.0  0.52531  0.80157  0.44624  1.0000
  H   H1556     1.0  0.85687  0.81912  0.29707  1.0000
  H   H1557     1.0  0.53441  0.94290  0.15359  1.0000
  C   C1312     1.0  0.52029  0.87822  0.17121  1.0000
  C   C1313     1.0  0.51560  0.77484  0.45796  1.0000
  H   H1558     1.0  0.96576  0.90488  0.17488  1.0000
  H   H1559     1.0  0.54609  0.81691  0.08708  1.0000
  H   H1560     1.0  0.78305  0.93861  0.44959  1.0000
  N   N85       1.0  0.96559  0.76954  0.12951  1.0000
  H   H1561     1.0  0.89910  0.93353  0.47244  1.0000
  C   C1314     1.0  0.87763  0.99834  0.47291  1.0000
  H   H1562     1.0  0.73962  0.79011  0.33366  1.0000
  C   C1315     1.0  0.75613  0.75983  0.29690  1.0000
  H   H1563     1.0  0.64489  0.83724  0.41000  1.0000
  H   H1564     1.0  0.81576  0.96029  0.46782  1.0000
  N   N86       1.0  0.85340  0.80755  0.34678  1.0000
  H   H1565     1.0  0.95475  0.77194  0.17814  1.0000
  S   S358      1.0  0.83172  0.83386  0.45018  1.0000
  H   H1566     1.0  0.59673  0.81754  0.40887  1.0000
  C   C1316     1.0  0.99422  0.92478  0.13756  1.0000
  C   C1317     1.0  0.00560  0.76249  0.14636  1.0000
  H   H1567     1.0  0.77486  0.98764  0.08195  1.0000
  H   H1568     1.0  0.79298  0.81324  0.24536  1.0000
  C   C1318     1.0  0.91502  0.93166  0.48644  1.0000
  H   H1569     1.0  0.81536  0.79554  0.37199  1.0000
  C   C1319     1.0  0.54291  0.94473  0.20357  1.0000
  C   C1320     1.0  0.00873  0.87330  0.15427  1.0000
  H   H1570     1.0  0.60911  0.86267  0.13271  1.0000
  C   C1321     1.0  0.58562  0.77864  0.16983  1.0000
  C   C1322     1.0  0.79391  0.76906  0.15436  1.0000
  C   C1323     1.0  0.79876  0.96046  0.45407  1.0000
  H   H1571     1.0  0.84694  0.83791  0.32285  1.0000
  C   C1324     1.0  0.64423  0.82618  0.43227  1.0000
  H   H1572     1.0  0.75478  0.79670  0.28302  1.0000
  H   H1573     1.0  0.84131  0.83040  0.37825  1.0000
  H   H1574     1.0  0.74885  0.87969  0.47527  1.0000
  H   H1575     1.0  0.82696  0.78029  0.45309  1.0000
  H   H1576     1.0  0.58255  0.84202  0.08447  1.0000
  H   H1577     1.0  0.99575  0.75623  0.44333  1.0000
  C   C1325     1.0  0.99502  0.77998  0.13736  1.0000
  H   H1578     1.0  0.87573  0.79129  0.29901  1.0000
  C   C1326     1.0  0.59434  0.77775  0.48784  1.0000
  N   N87       1.0  0.99922  0.92349  0.22793  1.0000
  C   C1327     1.0  0.74849  0.98670  0.46860  1.0000
  H   H1579     1.0  0.59245  0.78508  0.42153  1.0000
  H   H1580     1.0  0.81141  0.76765  0.14565  1.0000
  H   H1581     1.0  0.57908  0.81056  0.18724  1.0000
  N   N88       1.0  0.61935  0.81933  0.45155  1.0000
  C   C1328     1.0  0.59501  0.80500  0.43019  1.0000
  C   C1329     1.0  0.58208  0.77100  0.11314  1.0000
  H   H1582     1.0  0.95570  0.91087  0.22390  1.0000
  C   C1330     1.0  0.83236  0.75684  0.36065  1.0000
  S   S359      1.0  0.63531  0.96405  0.00122  1.0000
  N   N89       1.0  0.78674  0.97523  0.47133  1.0000
  H   H1583     1.0  0.89102  0.81867  0.37211  1.0000
  H   H1584     1.0  0.94109  0.77138  0.09067  1.0000
  H   H1585     1.0  0.77522  0.81474  0.43105  1.0000
  H   H1586     1.0  0.57572  0.80113  0.44229  1.0000
  H   H1587     1.0  0.82253  0.80301  0.31301  1.0000
  C   C1331     1.0  0.65200  0.99953  0.99296  1.0000
  H   H1588     1.0  0.66376  0.84004  0.44500  1.0000
  C   C1332     1.0  0.76487  0.78464  0.27989  1.0000
  C   C1333     1.0  0.75646  0.77080  0.42601  1.0000
  C   C1334     1.0  0.00714  0.93087  0.19420  1.0000
  H   H1589     1.0  0.58354  0.75991  0.09271  1.0000
  C   C1335     1.0  0.99209  0.89457  0.23280  1.0000
  H   H1590     1.0  0.72822  0.97558  0.10112  1.0000
  H   H1591     1.0  0.76495  0.95450  0.41014  1.0000
  C   C1336     1.0  0.62078  0.84518  0.46225  1.0000
  C   C1337     1.0  0.54257  0.82453  0.46502  1.0000
  H   H1592     1.0  0.97834  0.94712  0.22987  1.0000
  C   C1338     1.0  0.84897  0.77962  0.34073  1.0000
  C   C1339     1.0  0.73280  0.96399  0.40781  1.0000
  C   C1340     1.0  0.79967  0.77911  0.25194  1.0000
  H   H1593     1.0  0.89186  0.87632  0.48423  1.0000
  C   C1341     1.0  0.52557  0.93851  0.17731  1.0000
  H   H1594     1.0  0.72640  0.95483  0.38436  1.0000
  H   H1595     1.0  0.52012  0.80449  0.42227  1.0000
  H   H1596     1.0  0.62115  0.85793  0.44175  1.0000
  H   H1597     1.0  0.80791  0.97039  0.43091  1.0000
  C   C1342     1.0  0.72601  0.98626  0.45326  1.0000
  C   C1343     1.0  0.96305  0.78010  0.09800  1.0000
  C   C1344     1.0  0.75512  0.96402  0.42304  1.0000
  C   C1345     1.0  0.73719  0.99779  0.01572  1.0000
  S   S360      1.0  0.87121  0.96411  0.47561  1.0000
  H   H1598     1.0  0.93091  0.77152  0.14916  1.0000
  H   H1599     1.0  0.73041  0.99250  0.04014  1.0000
  H   H1600     1.0  0.97169  0.80275  0.09798  1.0000
  H   H1601     1.0  0.86255  0.99486  0.42499  1.0000
  C   C1346     1.0  0.61817  0.80297  0.47977  1.0000
  H   H1602     1.0  0.82137  0.75837  0.38099  1.0000
  H   H1603     1.0  0.57555  0.76906  0.47398  1.0000
  C   C1347     1.0  0.71906  0.99793  0.99308  1.0000
  H   H1604     1.0  0.70894  0.76241  0.28988  1.0000
  C   C1348     1.0  0.79186  0.75482  0.26836  1.0000
  H   H1605     1.0  0.69827  0.99257  0.99996  1.0000
  C   C1349     1.0  0.77152  0.00324  0.09289  1.0000
  H   H1606     1.0  0.86662  0.88727  0.48427  1.0000
  H   H1607     1.0  0.63944  0.85799  0.47678  1.0000
  C   C1350     1.0  0.52353  0.77112  0.48831  1.0000
  S   S361      1.0  0.59162  0.93264  0.48741  1.0000
  H   H1608     1.0  0.00961  0.89134  0.22628  1.0000
  C   C1351     1.0  0.69796  0.89569  0.48816  1.0000
  H   H1609     1.0  0.96617  0.76336  0.48762  1.0000
  H   H1610     1.0  0.77727  0.00401  0.02553  1.0000
  C   C1352     1.0  0.76384  0.00406  0.00700  1.0000
  C   C1353     1.0  0.80907  0.00393  0.47636  1.0000
  Fe  Fe181     1.0  0.85026  0.97320  0.87632  1.0000
  S   S362      1.0  0.67825  0.89829  0.51928  1.0000
  Fe  Fe182     1.0  0.80098  0.93213  0.83658  1.0000
  S   S363      1.0  0.81866  0.95523  0.79118  1.0000
  S   S364      1.0  0.75968  0.89375  0.84246  1.0000
  Fe  Fe183     1.0  0.85845  0.95885  0.80876  1.0000
  S   S365      1.0  0.88875  0.95553  0.77570  1.0000
  H   H1611     1.0  0.90712  0.77298  0.51018  1.0000
  S   S366      1.0  0.83997  0.93327  0.85242  1.0000
  S   S367      1.0  0.80942  0.96938  0.86507  1.0000
  Fe  Fe184     1.0  0.60771  0.92840  0.53506  1.0000
  S   S368      1.0  0.59166  0.93127  0.58345  1.0000
  Fe  Fe185     1.0  0.93442  0.84283  0.74667  1.0000
  S   S369      1.0  0.91491  0.82205  0.70042  1.0000
  S   S370      1.0  0.91155  0.85525  0.78192  1.0000
  Fe  Fe186     1.0  0.97975  0.82733  0.74028  1.0000
  S   S371      1.0  0.96273  0.80455  0.69455  1.0000
  C   C1354     1.0  0.94367  0.78791  0.58050  1.0000
  Fe  Fe187     1.0  0.95818  0.84080  0.68161  1.0000
  S   S372      1.0  0.96943  0.85581  0.63100  1.0000
  Fe  Fe188     1.0  0.92132  0.78782  0.71778  1.0000
  H   H1612     1.0  0.79834  0.85738  0.83732  1.0000
  S   S373      1.0  0.97745  0.86488  0.72636  1.0000
  S   S374      1.0  0.93876  0.80738  0.76496  1.0000
  S   S375      1.0  0.67756  0.84180  0.72602  1.0000
  H   H1613     1.0  0.67736  0.91615  0.78955  1.0000
  C   C1355     1.0  0.74688  0.95158  0.80000  1.0000
  C   C1356     1.0  0.60823  0.83494  0.57020  1.0000
  C   C1357     1.0  0.89545  0.93508  0.89718  1.0000
  C   C1358     1.0  0.55644  0.81048  0.76380  1.0000
  C   C1359     1.0  0.55061  0.83207  0.76049  1.0000
  H   H1614     1.0  0.69975  0.90323  0.80056  1.0000
  H   H1615     1.0  0.57745  0.81489  0.76728  1.0000
  H   H1616     1.0  0.56722  0.85313  0.76131  1.0000
  C   C1360     1.0  0.55611  0.90975  0.59069  1.0000
  C   C1361     1.0  0.54617  0.90666  0.62196  1.0000
  H   H1617     1.0  0.74318  0.81418  0.73836  1.0000
  H   H1618     1.0  0.87649  0.90786  0.55339  1.0000
  S   S376      1.0  0.62231  0.77690  0.77696  1.0000
  H   H1619     1.0  0.69330  0.75764  0.75054  1.0000
  H   H1620     1.0  0.56030  0.91758  0.64123  1.0000
  C   C1362     1.0  0.92308  0.90865  0.53231  1.0000
  C   C1363     1.0  0.93645  0.76721  0.55686  1.0000
  S   S377      1.0  0.86710  0.98394  0.92637  1.0000
  C   C1364     1.0  0.95589  0.93618  0.81847  1.0000
  H   H1621     1.0  0.70362  0.91881  0.76259  1.0000
  H   H1622     1.0  0.68923  0.94713  0.92493  1.0000
  H   H1623     1.0  0.99924  0.86901  0.57208  1.0000
  C   C1365     1.0  0.89307  0.92631  0.77600  1.0000
  C   C1366     1.0  0.90980  0.92370  0.75285  1.0000
  C   C1367     1.0  0.91502  0.90155  0.75364  1.0000
  C   C1368     1.0  0.90383  0.88210  0.77794  1.0000
  C   C1369     1.0  0.88672  0.88446  0.80077  1.0000
  C   C1370     1.0  0.88120  0.90634  0.79970  1.0000
  H   H1624     1.0  0.91906  0.93908  0.73445  1.0000
  H   H1625     1.0  0.92827  0.89996  0.73599  1.0000
  H   H1626     1.0  0.87810  0.86953  0.81970  1.0000
  H   H1627     1.0  0.86828  0.90806  0.81759  1.0000
  C   C1371     1.0  0.73697  0.88014  0.80989  1.0000
  C   C1372     1.0  0.71020  0.85840  0.81505  1.0000
  C   C1373     1.0  0.69171  0.84661  0.78950  1.0000
  C   C1374     1.0  0.69980  0.85677  0.75870  1.0000
  C   C1375     1.0  0.72639  0.87891  0.75362  1.0000
  C   C1376     1.0  0.74505  0.89037  0.77909  1.0000
  H   H1628     1.0  0.70377  0.85051  0.83888  1.0000
  H   H1629     1.0  0.67116  0.82978  0.79372  1.0000
  H   H1630     1.0  0.73278  0.88678  0.72978  1.0000
  H   H1631     1.0  0.76570  0.90694  0.77478  1.0000
  C   C1377     1.0  0.94415  0.94970  0.83463  1.0000
  C   C1378     1.0  0.85635  0.78685  0.76695  1.0000
  S   S378      1.0  0.60100  0.78617  0.70815  1.0000
  H   H1632     1.0  0.54500  0.89832  0.54165  1.0000
  C   C1379     1.0  0.54025  0.79402  0.50719  1.0000
  S   S379      1.0  0.51638  0.85349  0.75067  1.0000
  H   H1633     1.0  0.70582  0.91573  0.90694  1.0000
  Fe  Fe189     1.0  0.83011  0.99284  0.82085  1.0000
  H   H1634     1.0  0.68149  0.78281  0.79001  1.0000
  C   C1380     1.0  0.52345  0.82643  0.75550  1.0000
  C   C1381     1.0  0.69339  0.96521  0.87869  1.0000
  H   H1635     1.0  0.93644  0.99298  0.85570  1.0000
  C   C1382     1.0  0.95236  0.91029  0.86563  1.0000
  C   C1383     1.0  0.78785  0.83659  0.82789  1.0000
  H   H1636     1.0  0.76232  0.97204  0.80929  1.0000
  H   H1637     1.0  0.00014  0.79034  0.62858  1.0000
  H   H1638     1.0  0.93042  0.98327  0.92523  1.0000
  H   H1639     1.0  0.78866  0.97266  0.96981  1.0000
  H   H1640     1.0  0.86963  0.86980  0.51780  1.0000
  H   H1641     1.0  0.96128  0.94051  0.79353  1.0000
  H   H1642     1.0  0.58850  0.89466  0.63601  1.0000
  H   H1643     1.0  0.65879  0.80449  0.54223  1.0000
  H   H1644     1.0  0.85531  0.78784  0.70498  1.0000
  N   N90       1.0  0.59904  0.82061  0.60124  1.0000
  H   H1645     1.0  0.87295  0.92566  0.52023  1.0000
  C   C1384     1.0  0.79847  0.81914  0.83347  1.0000
  C   C1385     1.0  0.53758  0.89588  0.56587  1.0000
  C   C1386     1.0  0.59015  0.83486  0.62407  1.0000
  C   C1387     1.0  0.57842  0.82254  0.65368  1.0000
  C   C1388     1.0  0.59351  0.86135  0.61829  1.0000
  C   C1389     1.0  0.57020  0.83564  0.67590  1.0000
  C   C1390     1.0  0.58532  0.87429  0.64079  1.0000
  H   H1646     1.0  0.69924  0.98018  0.83167  1.0000
  C   C1391     1.0  0.74888  0.80023  0.79804  1.0000
  H   H1647     1.0  0.98215  0.81216  0.53056  1.0000
  H   H1648     1.0  0.51181  0.81184  0.56609  1.0000
  H   H1649     1.0  0.89772  0.92235  0.91586  1.0000
  H   H1650     1.0  0.78835  0.00207  0.85435  1.0000
  H   H1651     1.0  0.58116  0.78203  0.57566  1.0000
  S   S380      1.0  0.60495  0.88812  0.52422  1.0000
  H   H1652     1.0  0.70709  0.80385  0.74071  1.0000
  C   C1392     1.0  0.72631  0.81081  0.75498  1.0000
  H   H1653     1.0  0.54690  0.79125  0.53035  1.0000
  H   H1654     1.0  0.60259  0.87276  0.59676  1.0000
  C   C1393     1.0  0.62228  0.81842  0.61520  1.0000
  C   C1394     1.0  0.96006  0.75945  0.51306  1.0000
  S   S381      1.0  0.54117  0.75566  0.76847  1.0000
  Fe  Fe190     1.0  0.64804  0.91260  0.50595  1.0000
  H   H1655     1.0  0.86037  0.76946  0.76927  1.0000
  C   C1395     1.0  0.95959  0.91624  0.83374  1.0000
  H   H1656     1.0  0.73111  0.83105  0.76476  1.0000
  H   H1657     1.0  0.90645  0.98453  0.87859  1.0000
  H   H1658     1.0  0.81094  0.80076  0.72946  1.0000
  H   H1659     1.0  0.74993  0.76155  0.79731  1.0000
  H   H1660     1.0  0.79367  0.95954  0.51530  1.0000
  C   C1396     1.0  0.91972  0.76351  0.50288  1.0000
  H   H1661     1.0  0.73198  0.98989  0.79162  1.0000
  H   H1662     1.0  0.59158  0.83738  0.55880  1.0000
  H   H1663     1.0  0.51041  0.79935  0.66646  1.0000
  H   H1664     1.0  0.74950  0.93611  0.81359  1.0000
  H   H1665     1.0  0.71889  0.91551  0.85171  1.0000
  C   C1397     1.0  0.71781  0.96891  0.78207  1.0000
  C   C1398     1.0  0.97067  0.92024  0.54509  1.0000
  H   H1666     1.0  0.77138  0.97360  0.51918  1.0000
  H   H1667     1.0  0.99260  0.93192  0.54014  1.0000
  H   H1668     1.0  0.57033  0.77882  0.61569  1.0000
  N   N91       1.0  0.83110  0.77913  0.74791  1.0000
  N   N92       1.0  0.92238  0.95666  0.88464  1.0000
  C   C1399     1.0  0.53494  0.78326  0.76354  1.0000
  H   H1669     1.0  0.95529  0.89472  0.87738  1.0000
  S   S382      1.0  0.65260  0.95300  0.52135  1.0000
  C   C1400     1.0  0.77731  0.96184  0.50280  1.0000
  H   H1670     1.0  0.87505  0.80365  0.75555  1.0000
  H   H1671     1.0  0.89284  0.87809  0.56458  1.0000
  C   C1401     1.0  0.75999  0.78276  0.80473  1.0000
  H   H1672     1.0  0.56154  0.83790  0.51092  1.0000
  H   H1673     1.0  0.56147  0.82586  0.69840  1.0000
  H   H1674     1.0  0.61629  0.80607  0.63746  1.0000
  C   C1402     1.0  0.71771  0.88780  0.49478  1.0000
  N   N93       1.0  0.90262  0.91205  0.51323  1.0000
  H   H1675     1.0  0.66168  0.99407  0.94480  1.0000
  H   H1676     1.0  0.75551  0.84136  0.80830  1.0000
  H   H1677     1.0  0.95195  0.81513  0.52202  1.0000
  C   C1403     1.0  0.69900  0.92031  0.78809  1.0000
  H   H1678     1.0  0.55726  0.79314  0.58693  1.0000
  H   H1679     1.0  0.96767  0.90506  0.82064  1.0000
  C   C1404     1.0  0.91438  0.89011  0.55836  1.0000
  H   H1680     1.0  0.93995  0.79721  0.62941  1.0000
  H   H1681     1.0  0.57581  0.80276  0.65996  1.0000
  H   H1682     1.0  0.56701  0.87150  0.68674  1.0000
  H   H1683     1.0  0.81734  0.82637  0.84708  1.0000
  H   H1684     1.0  0.72099  0.88370  0.51908  1.0000
  H   H1685     1.0  0.75374  0.99576  0.49208  1.0000
  H   H1686     1.0  0.81913  0.76819  0.69851  1.0000
  H   H1687     1.0  0.82525  0.99523  0.96908  1.0000
  H   H1688     1.0  0.75275  0.95026  0.77498  1.0000
  C   C1405     1.0  0.71226  0.92999  0.85843  1.0000
  H   H1689     1.0  0.62987  0.80811  0.59864  1.0000
  C   C1406     1.0  0.80585  0.75598  0.76157  1.0000
  C   C1407     1.0  0.69526  0.94741  0.90032  1.0000
  H   H1690     1.0  0.90345  0.96437  0.84413  1.0000
  C   C1408     1.0  0.71093  0.94809  0.83578  1.0000
  H   H1691     1.0  0.97906  0.76630  0.52757  1.0000
  Fe  Fe191     1.0  0.64162  0.79878  0.73155  1.0000
  C   C1409     1.0  0.51801  0.88959  0.62848  1.0000
  H   H1692     1.0  0.97601  0.89963  0.58534  1.0000
  C   C1410     1.0  0.57594  0.79252  0.59466  1.0000
  C   C1411     1.0  0.95193  0.92366  0.52619  1.0000
  C   C1412     1.0  0.80546  0.99309  0.97786  1.0000
  H   H1693     1.0  0.92638  0.87272  0.59701  1.0000
  C   C1413     1.0  0.51178  0.80814  0.61705  1.0000
  N   N94       1.0  0.94472  0.77352  0.52307  1.0000
  H   H1694     1.0  0.72810  0.76403  0.74755  1.0000
  S   S383      1.0  0.87176  0.99898  0.83389  1.0000
  C   C1414     1.0  0.64076  0.79703  0.52701  1.0000
  H   H1695     1.0  0.84711  0.82190  0.73654  1.0000
  S   S384      1.0  0.64559  0.76420  0.71022  1.0000
  N   N95       1.0  0.71852  0.94744  0.80209  1.0000
  H   H1696     1.0  0.94103  0.96417  0.82082  1.0000
  H   H1697     1.0  0.77842  0.75462  0.72360  1.0000
  H   H1698     1.0  0.61375  0.82334  0.55306  1.0000
  H   H1699     1.0  0.51809  0.82961  0.62120  1.0000
  H   H1700     1.0  0.52703  0.77437  0.69427  1.0000
  C   C1415     1.0  0.82795  0.80385  0.74568  1.0000
  H   H1701     1.0  0.88357  0.94402  0.90841  1.0000
  C   C1416     1.0  0.93596  0.94369  0.86702  1.0000
  H   H1702     1.0  0.88253  0.92101  0.87776  1.0000
  N   N96       1.0  0.72277  0.79081  0.78023  1.0000
  H   H1703     1.0  0.68628  0.97910  0.88659  1.0000
  C   C1417     1.0  0.93333  0.88689  0.57709  1.0000
  C   C1418     1.0  0.70466  0.92982  0.89019  1.0000
  H   H1704     1.0  0.61688  0.76019  0.55437  1.0000
  H   H1705     1.0  0.63989  0.83905  0.62125  1.0000
  C   C1419     1.0  0.96140  0.90199  0.57053  1.0000
  H   H1706     1.0  0.69664  0.96602  0.78039  1.0000
  H   H1707     1.0  0.61072  0.99747  0.88762  1.0000
  H   H1708     1.0  0.82380  0.80977  0.76949  1.0000
  C   C1420     1.0  0.57345  0.86140  0.66941  1.0000
  C   C1421     1.0  0.70095  0.96557  0.84687  1.0000
  C   C1422     1.0  0.96264  0.80331  0.51662  1.0000
  C   C1423     1.0  0.93475  0.78110  0.61197  1.0000
  C   C1424     1.0  0.00127  0.77762  0.74367  1.0000
  H   H1709     1.0  0.96058  0.98907  0.90337  1.0000
  H   H1710     1.0  0.75904  0.94101  0.50008  1.0000
  H   H1711     1.0  0.85524  0.79440  0.79114  1.0000
  H   H1712     1.0  0.62702  0.85552  0.57276  1.0000
  H   H1713     1.0  0.70736  0.80778  0.81570  1.0000
  C   C1425     1.0  0.61723  0.77214  0.53388  1.0000
  H   H1714     1.0  0.60282  0.98495  0.94461  1.0000
  C   C1426     1.0  0.83575  0.77159  0.71551  1.0000
  C   C1427     1.0  0.93997  0.97290  0.91177  1.0000
  H   H1715     1.0  0.69639  0.77213  0.82070  1.0000
  C   C1428     1.0  0.70116  0.78836  0.80260  1.0000
  H   H1716     1.0  0.93563  0.91856  0.90687  1.0000
  C   C1429     1.0  0.76332  0.82726  0.81079  1.0000
  H   H1717     1.0  0.98075  0.77505  0.74315  1.0000
  H   H1718     1.0  0.95587  0.80958  0.57539  1.0000
  C   C1430     1.0  0.88192  0.88525  0.49943  1.0000
  H   H1719     1.0  0.72450  0.96845  0.75720  1.0000
  H   H1720     1.0  0.79229  0.77843  0.82747  1.0000
  C   C1431     1.0  0.88818  0.92236  0.53394  1.0000
  H   H1721     1.0  0.94336  0.95998  0.92919  1.0000
  Fe  Fe192     1.0  0.58185  0.76097  0.75148  1.0000
  C   C1432     1.0  0.71260  0.76379  0.76433  1.0000
  C   C1433     1.0  0.91700  0.97541  0.86478  1.0000
  C   C1434     1.0  0.94095  0.92394  0.88219  1.0000
  C   C1435     1.0  0.00508  0.87364  0.62293  1.0000
  H   H1722     1.0  0.90303  0.94240  0.54503  1.0000
  C   C1436     1.0  0.78443  0.79221  0.82220  1.0000
  H   H1723     1.0  0.96887  0.80731  0.49114  1.0000
  C   C1437     1.0  0.59400  0.76270  0.51451  1.0000
  H   H1724     1.0  0.96064  0.93831  0.50705  1.0000
  C   C1438     1.0  0.54909  0.82056  0.49594  1.0000
  C   C1439     1.0  0.64116  0.81247  0.50067  1.0000
  H   H1725     1.0  0.79043  0.99875  0.91866  1.0000
  H   H1726     1.0  0.65963  0.83202  0.49686  1.0000
  C   C1440     1.0  0.00516  0.75508  0.73774  1.0000
  H   H1727     1.0  0.92961  0.95280  0.49505  1.0000
  H   H1728     1.0  0.51066  0.88735  0.65270  1.0000
